MODEL        1
REMARK 921   NORMALIZED FREE ENERGY PREDICTED BY IDOCK:   -7.68 KCAL/MOL
REMARK 922        TOTAL FREE ENERGY PREDICTED BY IDOCK:   -9.42 KCAL/MOL
REMARK 923 INTER-LIGAND FREE ENERGY PREDICTED BY IDOCK:   -9.03 KCAL/MOL
REMARK 924 INTRA-LIGAND FREE ENERGY PREDICTED BY IDOCK:   -0.39 KCAL/MOL
REMARK 927      BINDING AFFINITY PREDICTED BY RF-SCORE:    0.00 PKD
ROOT
HETATM    1  C   UNL     1     -12.038  16.876  74.471  1.00  0.00    -0.046 C  
HETATM    2  N   UNL     1     -12.884  15.718  74.225  1.00  0.00    -0.850 NA 
HETATM    3  H   UNL     1     -13.473  15.505  75.031  1.00  0.00     0.000 HD 
ENDROOT
BRANCH   2   4
HETATM    4  C   UNL     1     -13.677  15.895  73.011  1.00  0.00    -0.481 C  
BRANCH   4   5
HETATM    5  C   UNL     1     -13.146  15.039  71.884  1.00  0.00    -0.437 A  
HETATM    6  C   UNL     1     -12.623  15.602  70.709  1.00  0.00    -0.482 A  
HETATM    7  C   UNL     1     -12.159  14.788  69.663  1.00  0.00    -0.346 A  
HETATM    8  C   UNL     1     -12.212  13.392  69.769  1.00  0.00    -0.307 A  
HETATM    9  C   UNL     1     -12.736  12.841  70.947  1.00  0.00    -0.277 A  
HETATM   10  C   UNL     1     -13.188  13.647  71.992  1.00  0.00    -0.522 A  
BRANCH   8  11
HETATM   11  C   UNL     1     -11.785  12.495  68.685  1.00  0.00    -0.325 A  
HETATM   12  C   UNL     1     -11.709  12.705  67.315  1.00  0.00    -0.435 A  
HETATM   13  C   UNL     1     -12.242  13.808  66.453  1.00  0.00    -0.480 C  
HETATM   14  C   UNL     1     -11.119  14.595  65.769  1.00  0.00    -0.331 C  
HETATM   15  N   UNL     1     -10.121  13.804  65.034  1.00  0.00    -0.574 N  
HETATM   16  C   UNL     1     -10.450  12.561  64.500  1.00  0.00    -0.341 C  
HETATM   17  H   UNL     1      -9.177  14.169  64.914  1.00  0.00     0.000 HD 
HETATM   18  O   UNL     1     -10.632  12.367  63.308  1.00  0.00    -0.410 OA 
HETATM   19  C   UNL     1     -10.429  11.430  65.466  1.00  0.00    -0.322 A  
HETATM   20  C   UNL     1     -10.956  11.636  66.754  1.00  0.00    -0.341 A  
HETATM   21  C   UNL     1     -10.809  10.667  67.734  1.00  0.00    -0.286 A  
HETATM   22  C   UNL     1     -10.235   9.422  67.442  1.00  0.00    -0.298 A  
HETATM   23  N   UNL     1     -11.289  11.217  68.900  1.00  0.00    -0.247 NA 
HETATM   24  H   UNL     1     -11.282  10.747  69.804  1.00  0.00     0.000 HD 
HETATM   25  C   UNL     1      -9.809   9.210  66.127  1.00  0.00    -0.293 A  
HETATM   26  C   UNL     1      -9.884  10.189  65.142  1.00  0.00    -0.394 A  
HETATM   27  F   UNL     1      -9.288   8.014  65.809  1.00  0.00    -0.206 F  
ENDBRANCH   8  11
ENDBRANCH   4   5
ENDBRANCH   2   4
TORSDOF 3
ENDMDL
MODEL        2
REMARK 921   NORMALIZED FREE ENERGY PREDICTED BY IDOCK:   -7.66 KCAL/MOL
REMARK 922        TOTAL FREE ENERGY PREDICTED BY IDOCK:   -9.39 KCAL/MOL
REMARK 923 INTER-LIGAND FREE ENERGY PREDICTED BY IDOCK:   -8.82 KCAL/MOL
REMARK 924 INTRA-LIGAND FREE ENERGY PREDICTED BY IDOCK:   -0.57 KCAL/MOL
REMARK 927      BINDING AFFINITY PREDICTED BY RF-SCORE:    0.00 PKD
ROOT
HETATM    1  C   UNL     1     -11.777   6.145  72.123  1.00  0.00    -0.309 C  
HETATM    2  N   UNL     1     -11.778   7.347  72.943  1.00  0.00    -0.582 NA 
HETATM    3  H   UNL     1     -11.868   7.126  73.935  1.00  0.00     0.000 HD 
ENDROOT
BRANCH   2   4
HETATM    4  C   UNL     1     -10.596   8.164  72.678  1.00  0.00    -0.344 C  
BRANCH   4   5
HETATM    5  C   UNL     1     -10.863   9.169  71.582  1.00  0.00    -0.442 A  
HETATM    6  C   UNL     1     -12.075   9.873  71.501  1.00  0.00    -0.496 A  
HETATM    7  C   UNL     1     -12.314  10.784  70.459  1.00  0.00    -0.458 A  
HETATM    8  C   UNL     1     -11.346  11.006  69.472  1.00  0.00    -0.356 A  
HETATM    9  C   UNL     1     -10.139  10.299  69.563  1.00  0.00    -0.260 A  
HETATM   10  C   UNL     1      -9.895   9.402  70.603  1.00  0.00    -0.340 A  
BRANCH   8  11
HETATM   11  C   UNL     1     -11.563  11.912  68.334  1.00  0.00    -0.317 A  
HETATM   12  C   UNL     1     -11.361  13.281  68.216  1.00  0.00    -0.335 A  
HETATM   13  C   UNL     1     -11.079  14.331  69.247  1.00  0.00    -0.297 C  
HETATM   14  C   UNL     1      -9.705  14.978  69.046  1.00  0.00    -0.229 C  
HETATM   15  N   UNL     1      -9.415  15.488  67.698  1.00  0.00    -0.208 N  
HETATM   16  C   UNL     1     -10.444  15.894  66.853  1.00  0.00    -0.309 C  
HETATM   17  H   UNL     1      -8.448  15.547  67.378  1.00  0.00     0.000 HD 
HETATM   18  O   UNL     1     -10.697  17.065  66.613  1.00  0.00    -0.228 OA 
HETATM   19  C   UNL     1     -11.144  14.796  66.133  1.00  0.00    -0.339 A  
HETATM   20  C   UNL     1     -11.437  13.612  66.835  1.00  0.00    -0.369 A  
HETATM   21  C   UNL     1     -11.937  12.507  66.165  1.00  0.00    -0.366 A  
HETATM   22  C   UNL     1     -12.265  12.571  64.804  1.00  0.00    -0.532 A  
HETATM   23  N   UNL     1     -11.978  11.482  67.082  1.00  0.00    -0.499 NA 
HETATM   24  H   UNL     1     -12.274  10.530  66.870  1.00  0.00     0.000 HD 
HETATM   25  C   UNL     1     -12.054  13.792  64.155  1.00  0.00    -0.433 A  
HETATM   26  C   UNL     1     -11.492  14.895  64.787  1.00  0.00    -0.410 A  
HETATM   27  F   UNL     1     -12.392  13.894  62.859  1.00  0.00    -0.363 F  
ENDBRANCH   8  11
ENDBRANCH   4   5
ENDBRANCH   2   4
TORSDOF 3
ENDMDL
MODEL        3
REMARK 921   NORMALIZED FREE ENERGY PREDICTED BY IDOCK:   -7.66 KCAL/MOL
REMARK 922        TOTAL FREE ENERGY PREDICTED BY IDOCK:   -9.38 KCAL/MOL
REMARK 923 INTER-LIGAND FREE ENERGY PREDICTED BY IDOCK:   -8.87 KCAL/MOL
REMARK 924 INTRA-LIGAND FREE ENERGY PREDICTED BY IDOCK:   -0.51 KCAL/MOL
REMARK 927      BINDING AFFINITY PREDICTED BY RF-SCORE:    0.00 PKD
ROOT
HETATM    1  C   UNL     1      -6.278  21.013  67.824  1.00  0.00    -0.357 C  
HETATM    2  N   UNL     1      -7.146  21.359  66.709  1.00  0.00    -0.811 NA 
HETATM    3  H   UNL     1      -6.773  22.142  66.171  1.00  0.00     0.000 HD 
ENDROOT
BRANCH   2   4
HETATM    4  C   UNL     1      -7.401  20.197  65.861  1.00  0.00    -0.272 C  
BRANCH   4   5
HETATM    5  C   UNL     1      -8.323  19.215  66.546  1.00  0.00    -0.324 A  
HETATM    6  C   UNL     1      -9.630  19.562  66.919  1.00  0.00    -0.440 A  
HETATM    7  C   UNL     1     -10.462  18.642  67.580  1.00  0.00    -0.473 A  
HETATM    8  C   UNL     1     -10.000  17.356  67.884  1.00  0.00    -0.301 A  
HETATM    9  C   UNL     1      -8.693  17.020  67.507  1.00  0.00    -0.215 A  
HETATM   10  C   UNL     1      -7.868  17.927  66.841  1.00  0.00    -0.245 A  
BRANCH   8  11
HETATM   11  C   UNL     1     -10.812  16.372  68.615  1.00  0.00    -0.331 A  
HETATM   12  C   UNL     1     -11.124  15.053  68.313  1.00  0.00    -0.292 A  
HETATM   13  C   UNL     1     -10.943  14.258  67.056  1.00  0.00    -0.305 C  
HETATM   14  C   UNL     1      -9.978  13.084  67.253  1.00  0.00    -0.232 C  
HETATM   15  N   UNL     1     -10.256  12.194  68.390  1.00  0.00    -0.208 N  
HETATM   16  C   UNL     1     -11.551  12.049  68.880  1.00  0.00    -0.321 C  
HETATM   17  H   UNL     1      -9.492  11.677  68.823  1.00  0.00     0.000 HD 
HETATM   18  O   UNL     1     -12.239  11.059  68.683  1.00  0.00    -0.571 OA 
HETATM   19  C   UNL     1     -12.006  13.129  69.796  1.00  0.00    -0.382 A  
HETATM   20  C   UNL     1     -11.680  14.461  69.480  1.00  0.00    -0.362 A  
HETATM   21  C   UNL     1     -11.940  15.479  70.384  1.00  0.00    -0.367 A  
HETATM   22  C   UNL     1     -12.629  15.229  71.579  1.00  0.00    -0.442 A  
HETATM   23  N   UNL     1     -11.381  16.619  69.856  1.00  0.00    -0.340 NA 
HETATM   24  H   UNL     1     -11.385  17.529  70.316  1.00  0.00     0.000 HD 
HETATM   25  C   UNL     1     -13.027  13.910  71.821  1.00  0.00    -0.358 A  
HETATM   26  C   UNL     1     -12.720  12.860  70.963  1.00  0.00    -0.338 A  
HETATM   27  F   UNL     1     -13.719  13.647  72.941  1.00  0.00    -0.585 F  
ENDBRANCH   8  11
ENDBRANCH   4   5
ENDBRANCH   2   4
TORSDOF 3
ENDMDL
MODEL        4
REMARK 921   NORMALIZED FREE ENERGY PREDICTED BY IDOCK:   -7.37 KCAL/MOL
REMARK 922        TOTAL FREE ENERGY PREDICTED BY IDOCK:   -9.05 KCAL/MOL
REMARK 923 INTER-LIGAND FREE ENERGY PREDICTED BY IDOCK:   -8.73 KCAL/MOL
REMARK 924 INTRA-LIGAND FREE ENERGY PREDICTED BY IDOCK:   -0.32 KCAL/MOL
REMARK 927      BINDING AFFINITY PREDICTED BY RF-SCORE:    0.00 PKD
ROOT
HETATM    1  C   UNL     1     -12.286  16.243  73.873  1.00  0.00    -0.541 C  
HETATM    2  N   UNL     1     -13.677  15.818  73.827  1.00  0.00    -0.643 NA 
HETATM    3  H   UNL     1     -14.281  16.451  74.352  1.00  0.00     0.000 HD 
ENDROOT
BRANCH   2   4
HETATM    4  C   UNL     1     -14.133  15.661  72.447  1.00  0.00    -0.490 C  
BRANCH   4   5
HETATM    5  C   UNL     1     -13.517  14.439  71.806  1.00  0.00    -0.456 A  
HETATM    6  C   UNL     1     -13.659  13.159  72.365  1.00  0.00    -0.667 A  
HETATM    7  C   UNL     1     -13.056  12.039  71.768  1.00  0.00    -0.460 A  
HETATM    8  C   UNL     1     -12.296  12.178  70.601  1.00  0.00    -0.385 A  
HETATM    9  C   UNL     1     -12.160  13.460  70.052  1.00  0.00    -0.404 A  
HETATM   10  C   UNL     1     -12.767  14.573  70.636  1.00  0.00    -0.421 A  
BRANCH   8  11
HETATM   11  C   UNL     1     -11.604  11.047  69.962  1.00  0.00    -0.344 A  
HETATM   12  C   UNL     1     -11.410   9.744  70.399  1.00  0.00    -0.362 A  
HETATM   13  C   UNL     1     -11.626   9.107  71.737  1.00  0.00    -0.457 C  
HETATM   14  C   UNL     1     -12.705   8.019  71.689  1.00  0.00    -0.326 C  
HETATM   15  N   UNL     1     -12.548   6.992  70.648  1.00  0.00    -0.593 N  
HETATM   16  C   UNL     1     -11.289   6.670  70.149  1.00  0.00    -0.382 C  
HETATM   17  H   UNL     1     -13.371   6.509  70.289  1.00  0.00     0.000 HD 
HETATM   18  O   UNL     1     -10.692   5.643  70.437  1.00  0.00    -0.282 OA 
HETATM   19  C   UNL     1     -10.762   7.597  69.113  1.00  0.00    -0.153 A  
HETATM   20  C   UNL     1     -10.949   8.980  69.290  1.00  0.00    -0.052 A  
HETATM   21  C   UNL     1     -10.623   9.867  68.277  1.00  0.00    -0.229 A  
HETATM   22  C   UNL     1      -9.999   9.427  67.101  1.00  0.00    -0.263 A  
HETATM   23  N   UNL     1     -11.053  11.106  68.691  1.00  0.00    -0.217 NA 
HETATM   24  H   UNL     1     -10.977  11.958  68.135  1.00  0.00     0.000 HD 
HETATM   25  C   UNL     1      -9.736   8.057  66.994  1.00  0.00    -0.211 A  
HETATM   26  C   UNL     1     -10.114   7.138  67.967  1.00  0.00    -0.201 A  
HETATM   27  F   UNL     1      -9.108   7.611  65.895  1.00  0.00    -0.188 F  
ENDBRANCH   8  11
ENDBRANCH   4   5
ENDBRANCH   2   4
TORSDOF 3
ENDMDL
MODEL        5
REMARK 921   NORMALIZED FREE ENERGY PREDICTED BY IDOCK:   -7.28 KCAL/MOL
REMARK 922        TOTAL FREE ENERGY PREDICTED BY IDOCK:   -8.94 KCAL/MOL
REMARK 923 INTER-LIGAND FREE ENERGY PREDICTED BY IDOCK:   -8.57 KCAL/MOL
REMARK 924 INTRA-LIGAND FREE ENERGY PREDICTED BY IDOCK:   -0.37 KCAL/MOL
REMARK 927      BINDING AFFINITY PREDICTED BY RF-SCORE:    0.00 PKD
ROOT
HETATM    1  C   UNL     1     -12.227  15.710  74.560  1.00  0.00    -0.546 C  
HETATM    2  N   UNL     1     -12.217  16.291  73.226  1.00  0.00    -0.518 NA 
HETATM    3  H   UNL     1     -11.340  16.104  72.741  1.00  0.00     0.000 HD 
ENDROOT
BRANCH   2   4
HETATM    4  C   UNL     1     -13.370  15.841  72.448  1.00  0.00    -0.462 C  
BRANCH   4   5
HETATM    5  C   UNL     1     -12.956  14.843  71.391  1.00  0.00    -0.427 A  
HETATM    6  C   UNL     1     -13.047  13.458  71.603  1.00  0.00    -0.463 A  
HETATM    7  C   UNL     1     -12.633  12.547  70.618  1.00  0.00    -0.237 A  
HETATM    8  C   UNL     1     -12.114  13.004  69.400  1.00  0.00    -0.267 A  
HETATM    9  C   UNL     1     -12.027  14.388  69.199  1.00  0.00    -0.357 A  
HETATM   10  C   UNL     1     -12.448  15.295  70.172  1.00  0.00    -0.374 A  
BRANCH   8  11
HETATM   11  C   UNL     1     -11.621  12.094  68.355  1.00  0.00    -0.327 A  
HETATM   12  C   UNL     1     -11.571  12.244  66.975  1.00  0.00    -0.418 A  
HETATM   13  C   UNL     1     -12.196  13.260  66.068  1.00  0.00    -0.483 C  
HETATM   14  C   UNL     1     -11.144  14.102  65.338  1.00  0.00    -0.321 C  
HETATM   15  N   UNL     1     -10.090  13.360  64.631  1.00  0.00    -0.622 N  
HETATM   16  C   UNL     1     -10.321  12.071  64.159  1.00  0.00    -0.347 C  
HETATM   17  H   UNL     1      -9.179  13.794  64.485  1.00  0.00     0.000 HD 
HETATM   18  O   UNL     1     -10.494  11.807  62.978  1.00  0.00    -0.322 OA 
HETATM   19  C   UNL     1     -10.203  10.992  65.175  1.00  0.00    -0.352 A  
HETATM   20  C   UNL     1     -10.737  11.215  66.457  1.00  0.00    -0.314 A  
HETATM   21  C   UNL     1     -10.507  10.308  67.480  1.00  0.00    -0.244 A  
HETATM   22  C   UNL     1      -9.836   9.100  67.240  1.00  0.00    -0.244 A  
HETATM   23  N   UNL     1     -11.023  10.872  68.623  1.00  0.00    -0.208 NA 
HETATM   24  H   UNL     1     -10.973  10.447  69.548  1.00  0.00     0.000 HD 
HETATM   25  C   UNL     1      -9.402   8.862  65.932  1.00  0.00    -0.236 A  
HETATM   26  C   UNL     1      -9.561   9.784  64.904  1.00  0.00    -0.316 A  
HETATM   27  F   UNL     1      -8.787   7.698  65.665  1.00  0.00    -0.167 F  
ENDBRANCH   8  11
ENDBRANCH   4   5
ENDBRANCH   2   4
TORSDOF 3
ENDMDL
MODEL        6
REMARK 921   NORMALIZED FREE ENERGY PREDICTED BY IDOCK:   -7.13 KCAL/MOL
REMARK 922        TOTAL FREE ENERGY PREDICTED BY IDOCK:   -8.77 KCAL/MOL
REMARK 923 INTER-LIGAND FREE ENERGY PREDICTED BY IDOCK:   -8.47 KCAL/MOL
REMARK 924 INTRA-LIGAND FREE ENERGY PREDICTED BY IDOCK:   -0.29 KCAL/MOL
REMARK 927      BINDING AFFINITY PREDICTED BY RF-SCORE:    0.00 PKD
ROOT
HETATM    1  C   UNL     1     -11.225   5.444  73.050  1.00  0.00    -0.311 C  
HETATM    2  N   UNL     1     -12.021   6.605  72.683  1.00  0.00    -0.502 NA 
HETATM    3  H   UNL     1     -12.909   6.626  73.185  1.00  0.00     0.000 HD 
ENDROOT
BRANCH   2   4
HETATM    4  C   UNL     1     -11.265   7.841  72.873  1.00  0.00    -0.376 C  
BRANCH   4   5
HETATM    5  C   UNL     1     -11.166   8.623  71.584  1.00  0.00    -0.379 A  
HETATM    6  C   UNL     1     -11.840   9.841  71.402  1.00  0.00    -0.488 A  
HETATM    7  C   UNL     1     -11.757  10.539  70.186  1.00  0.00    -0.410 A  
HETATM    8  C   UNL     1     -11.000  10.030  69.124  1.00  0.00    -0.256 A  
HETATM    9  C   UNL     1     -10.331   8.813  69.316  1.00  0.00    -0.221 A  
HETATM   10  C   UNL     1     -10.403   8.123  70.526  1.00  0.00    -0.211 A  
BRANCH   8  11
HETATM   11  C   UNL     1     -10.918  10.695  67.815  1.00  0.00    -0.306 A  
HETATM   12  C   UNL     1      -9.998  10.554  66.784  1.00  0.00    -0.252 A  
HETATM   13  C   UNL     1      -8.669   9.864  66.733  1.00  0.00    -0.137 C  
HETATM   14  C   UNL     1      -8.668   8.693  65.744  1.00  0.00    -0.181 C  
HETATM   15  N   UNL     1      -9.148   8.986  64.386  1.00  0.00    -0.420 N  
HETATM   16  C   UNL     1      -9.055  10.271  63.859  1.00  0.00    -0.254 C  
HETATM   17  H   UNL     1      -9.554   8.239  63.823  1.00  0.00     0.000 HD 
HETATM   18  O   UNL     1      -8.234  10.595  63.014  1.00  0.00    -0.156 OA 
HETATM   19  C   UNL     1     -10.124  11.212  64.288  1.00  0.00    -0.382 A  
HETATM   20  C   UNL     1     -10.535  11.194  65.633  1.00  0.00    -0.308 A  
HETATM   21  C   UNL     1     -11.636  11.932  66.039  1.00  0.00    -0.227 A  
HETATM   22  C   UNL     1     -12.296  12.796  65.154  1.00  0.00    -0.555 A  
HETATM   23  N   UNL     1     -11.867  11.594  67.352  1.00  0.00    -0.630 NA 
HETATM   24  H   UNL     1     -12.637  11.957  67.913  1.00  0.00     0.000 HD 
HETATM   25  C   UNL     1     -11.803  12.866  63.847  1.00  0.00    -0.473 A  
HETATM   26  C   UNL     1     -10.744  12.086  63.397  1.00  0.00    -0.475 A  
HETATM   27  F   UNL     1     -12.394  13.711  62.986  1.00  0.00    -0.565 F  
ENDBRANCH   8  11
ENDBRANCH   4   5
ENDBRANCH   2   4
TORSDOF 3
ENDMDL
MODEL        7
REMARK 921   NORMALIZED FREE ENERGY PREDICTED BY IDOCK:   -7.08 KCAL/MOL
REMARK 922        TOTAL FREE ENERGY PREDICTED BY IDOCK:   -8.71 KCAL/MOL
REMARK 923 INTER-LIGAND FREE ENERGY PREDICTED BY IDOCK:   -8.44 KCAL/MOL
REMARK 924 INTRA-LIGAND FREE ENERGY PREDICTED BY IDOCK:   -0.27 KCAL/MOL
REMARK 927      BINDING AFFINITY PREDICTED BY RF-SCORE:    0.00 PKD
ROOT
HETATM    1  C   UNL     1     -10.933   5.531  73.124  1.00  0.00    -0.293 C  
HETATM    2  N   UNL     1     -11.835   6.597  72.717  1.00  0.00    -0.484 NA 
HETATM    3  H   UNL     1     -12.741   6.520  73.181  1.00  0.00     0.000 HD 
ENDROOT
BRANCH   2   4
HETATM    4  C   UNL     1     -11.229   7.909  72.932  1.00  0.00    -0.366 C  
BRANCH   4   5
HETATM    5  C   UNL     1     -11.202   8.713  71.652  1.00  0.00    -0.379 A  
HETATM    6  C   UNL     1     -10.318   8.409  70.605  1.00  0.00    -0.224 A  
HETATM    7  C   UNL     1     -10.291   9.185  69.435  1.00  0.00    -0.220 A  
HETATM    8  C   UNL     1     -11.146  10.284  69.290  1.00  0.00    -0.293 A  
HETATM    9  C   UNL     1     -12.025  10.579  70.341  1.00  0.00    -0.425 A  
HETATM   10  C   UNL     1     -12.062   9.803  71.501  1.00  0.00    -0.493 A  
BRANCH   8  11
HETATM   11  C   UNL     1     -11.125  11.157  68.106  1.00  0.00    -0.264 A  
HETATM   12  C   UNL     1     -10.376  11.081  66.939  1.00  0.00    -0.279 A  
HETATM   13  C   UNL     1      -9.190  10.240  66.579  1.00  0.00    -0.179 C  
HETATM   14  C   UNL     1      -9.498   9.277  65.428  1.00  0.00    -0.210 C  
HETATM   15  N   UNL     1     -10.093   9.871  64.222  1.00  0.00    -0.403 N  
HETATM   16  C   UNL     1      -9.865  11.206  63.898  1.00  0.00    -0.308 C  
HETATM   17  H   UNL     1     -10.679   9.299  63.615  1.00  0.00     0.000 HD 
HETATM   18  O   UNL     1      -9.116  11.564  63.001  1.00  0.00    -0.244 OA 
HETATM   19  C   UNL     1     -10.710  12.189  64.628  1.00  0.00    -0.346 A  
HETATM   20  C   UNL     1     -10.946  11.985  65.999  1.00  0.00    -0.346 A  
HETATM   21  C   UNL     1     -11.856  12.779  66.680  1.00  0.00    -0.393 A  
HETATM   22  C   UNL     1     -12.478  13.868  66.053  1.00  0.00    -0.501 A  
HETATM   23  N   UNL     1     -11.972  12.244  67.941  1.00  0.00    -0.480 NA 
HETATM   24  H   UNL     1     -12.598  12.600  68.663  1.00  0.00     0.000 HD 
HETATM   25  C   UNL     1     -12.148  14.106  64.715  1.00  0.00    -0.441 A  
HETATM   26  C   UNL     1     -11.290  13.285  63.992  1.00  0.00    -0.403 A  
HETATM   27  F   UNL     1     -12.701  15.163  64.098  1.00  0.00    -0.465 F  
ENDBRANCH   8  11
ENDBRANCH   4   5
ENDBRANCH   2   4
TORSDOF 3
ENDMDL
MODEL        8
REMARK 921   NORMALIZED FREE ENERGY PREDICTED BY IDOCK:   -7.04 KCAL/MOL
REMARK 922        TOTAL FREE ENERGY PREDICTED BY IDOCK:   -8.66 KCAL/MOL
REMARK 923 INTER-LIGAND FREE ENERGY PREDICTED BY IDOCK:   -8.41 KCAL/MOL
REMARK 924 INTRA-LIGAND FREE ENERGY PREDICTED BY IDOCK:   -0.25 KCAL/MOL
REMARK 927      BINDING AFFINITY PREDICTED BY RF-SCORE:    0.00 PKD
ROOT
HETATM    1  C   UNL     1     -12.939   6.952  71.479  1.00  0.00    -0.306 C  
HETATM    2  N   UNL     1     -13.853   8.070  71.302  1.00  0.00    -0.586 NA 
HETATM    3  H   UNL     1     -14.827   7.767  71.328  1.00  0.00     0.000 HD 
ENDROOT
BRANCH   2   4
HETATM    4  C   UNL     1     -13.590   9.124  72.280  1.00  0.00    -0.489 C  
BRANCH   4   5
HETATM    5  C   UNL     1     -13.019  10.354  71.615  1.00  0.00    -0.581 A  
HETATM    6  C   UNL     1     -13.407  11.649  71.993  1.00  0.00    -0.405 A  
HETATM    7  C   UNL     1     -12.883  12.779  71.343  1.00  0.00    -0.371 A  
HETATM    8  C   UNL     1     -11.962  12.636  70.298  1.00  0.00    -0.363 A  
HETATM    9  C   UNL     1     -11.582  11.338  69.928  1.00  0.00    -0.413 A  
HETATM   10  C   UNL     1     -12.092  10.214  70.579  1.00  0.00    -0.380 A  
BRANCH   8  11
HETATM   11  C   UNL     1     -11.420  13.782  69.553  1.00  0.00    -0.267 A  
HETATM   12  C   UNL     1     -11.167  13.942  68.197  1.00  0.00    -0.293 A  
HETATM   13  C   UNL     1     -11.138  12.952  67.074  1.00  0.00    -0.309 C  
HETATM   14  C   UNL     1     -12.223  13.236  66.030  1.00  0.00    -0.424 C  
HETATM   15  N   UNL     1     -12.280  14.608  65.505  1.00  0.00    -0.257 N  
HETATM   16  C   UNL     1     -11.142  15.410  65.482  1.00  0.00    -0.298 C  
HETATM   17  H   UNL     1     -13.163  14.977  65.153  1.00  0.00     0.000 HD 
HETATM   18  O   UNL     1     -10.517  15.664  64.463  1.00  0.00    -0.309 OA 
HETATM   19  C   UNL     1     -10.804  16.068  66.773  1.00  0.00    -0.195 A  
HETATM   20  C   UNL     1     -10.934  15.325  67.960  1.00  0.00    -0.299 A  
HETATM   21  C   UNL     1     -10.789  15.943  69.192  1.00  0.00    -0.268 A  
HETATM   22  C   UNL     1     -10.404  17.288  69.288  1.00  0.00    -0.237 A  
HETATM   23  N   UNL     1     -11.116  15.002  70.140  1.00  0.00    -0.310 NA 
HETATM   24  H   UNL     1     -11.132  15.177  71.144  1.00  0.00     0.000 HD 
HETATM   25  C   UNL     1     -10.186  17.975  68.089  1.00  0.00    -0.384 A  
HETATM   26  C   UNL     1     -10.389  17.397  66.841  1.00  0.00    -0.317 A  
HETATM   27  F   UNL     1      -9.781  19.254  68.149  1.00  0.00    -0.340 F  
ENDBRANCH   8  11
ENDBRANCH   4   5
ENDBRANCH   2   4
TORSDOF 3
ENDMDL
MODEL        9
REMARK 921   NORMALIZED FREE ENERGY PREDICTED BY IDOCK:   -6.98 KCAL/MOL
REMARK 922        TOTAL FREE ENERGY PREDICTED BY IDOCK:   -8.59 KCAL/MOL
REMARK 923 INTER-LIGAND FREE ENERGY PREDICTED BY IDOCK:   -8.05 KCAL/MOL
REMARK 924 INTRA-LIGAND FREE ENERGY PREDICTED BY IDOCK:   -0.55 KCAL/MOL
REMARK 927      BINDING AFFINITY PREDICTED BY RF-SCORE:    0.00 PKD
ROOT
HETATM    1  C   UNL     1     -10.378   4.340  65.086  1.00  0.00    -0.195 C  
HETATM    2  N   UNL     1     -10.862   5.279  66.087  1.00  0.00    -0.715 NA 
HETATM    3  H   UNL     1     -11.510   4.833  66.737  1.00  0.00     0.000 HD 
ENDROOT
BRANCH   2   4
HETATM    4  C   UNL     1      -9.751   5.919  66.788  1.00  0.00    -0.153 C  
BRANCH   4   5
HETATM    5  C   UNL     1      -9.728   7.407  66.526  1.00  0.00    -0.225 A  
HETATM    6  C   UNL     1      -8.948   7.967  65.502  1.00  0.00    -0.046 A  
HETATM    7  C   UNL     1      -8.920   9.356  65.292  1.00  0.00    -0.250 A  
HETATM    8  C   UNL     1      -9.670  10.214  66.106  1.00  0.00    -0.275 A  
HETATM    9  C   UNL     1     -10.444   9.644  67.125  1.00  0.00    -0.317 A  
HETATM   10  C   UNL     1     -10.483   8.264  67.329  1.00  0.00    -0.373 A  
BRANCH   8  11
HETATM   11  C   UNL     1      -9.639  11.677  65.960  1.00  0.00    -0.228 A  
HETATM   12  C   UNL     1     -10.411  12.524  65.177  1.00  0.00    -0.320 A  
HETATM   13  C   UNL     1     -11.367  12.239  64.059  1.00  0.00    -0.469 C  
HETATM   14  C   UNL     1     -12.800  12.656  64.409  1.00  0.00    -0.257 C  
HETATM   15  N   UNL     1     -12.977  14.031  64.900  1.00  0.00    -0.700 N  
HETATM   16  C   UNL     1     -12.086  15.037  64.539  1.00  0.00    -0.363 C  
HETATM   17  H   UNL     1     -13.763  14.249  65.513  1.00  0.00     0.000 HD 
HETATM   18  O   UNL     1     -12.350  15.911  63.727  1.00  0.00    -0.791 OA 
HETATM   19  C   UNL     1     -10.820  15.072  65.318  1.00  0.00    -0.399 A  
HETATM   20  C   UNL     1     -10.185  13.855  65.625  1.00  0.00    -0.344 A  
HETATM   21  C   UNL     1      -9.098  13.829  66.485  1.00  0.00    -0.129 A  
HETATM   22  C   UNL     1      -8.537  15.014  66.980  1.00  0.00    -0.266 A  
HETATM   23  N   UNL     1      -8.802  12.502  66.697  1.00  0.00    -0.353 NA 
HETATM   24  H   UNL     1      -8.064  12.169  67.316  1.00  0.00     0.000 HD 
HETATM   25  C   UNL     1      -9.130  16.216  66.579  1.00  0.00    -0.277 A  
HETATM   26  C   UNL     1     -10.261  16.266  65.772  1.00  0.00    -0.390 A  
HETATM   27  F   UNL     1      -8.592  17.369  67.009  1.00  0.00    -0.213 F  
ENDBRANCH   8  11
ENDBRANCH   4   5
ENDBRANCH   2   4
TORSDOF 3
ENDMDL
MODEL       10
REMARK 921   NORMALIZED FREE ENERGY PREDICTED BY IDOCK:   -6.97 KCAL/MOL
REMARK 922        TOTAL FREE ENERGY PREDICTED BY IDOCK:   -8.58 KCAL/MOL
REMARK 923 INTER-LIGAND FREE ENERGY PREDICTED BY IDOCK:   -8.23 KCAL/MOL
REMARK 924 INTRA-LIGAND FREE ENERGY PREDICTED BY IDOCK:   -0.34 KCAL/MOL
REMARK 927      BINDING AFFINITY PREDICTED BY RF-SCORE:    0.00 PKD
ROOT
HETATM    1  C   UNL     1     -12.233  16.209  73.556  1.00  0.00    -0.528 C  
HETATM    2  N   UNL     1     -13.255  15.841  72.588  1.00  0.00    -0.479 NA 
HETATM    3  H   UNL     1     -12.949  16.021  71.632  1.00  0.00     0.000 HD 
ENDROOT
BRANCH   2   4
HETATM    4  C   UNL     1     -13.673  14.452  72.768  1.00  0.00    -0.362 C  
BRANCH   4   5
HETATM    5  C   UNL     1     -13.039  13.554  71.732  1.00  0.00    -0.475 A  
HETATM    6  C   UNL     1     -12.453  14.068  70.565  1.00  0.00    -0.429 A  
HETATM    7  C   UNL     1     -11.891  13.214  69.601  1.00  0.00    -0.390 A  
HETATM    8  C   UNL     1     -11.908  11.826  69.785  1.00  0.00    -0.420 A  
HETATM    9  C   UNL     1     -12.496  11.323  70.954  1.00  0.00    -0.493 A  
HETATM   10  C   UNL     1     -13.044  12.170  71.918  1.00  0.00    -0.475 A  
BRANCH   8  11
HETATM   11  C   UNL     1     -11.378  10.885  68.787  1.00  0.00    -0.292 A  
HETATM   12  C   UNL     1     -11.104  11.058  67.436  1.00  0.00    -0.370 A  
HETATM   13  C   UNL     1     -11.459  12.164  66.490  1.00  0.00    -0.430 C  
HETATM   14  C   UNL     1     -10.216  12.884  65.956  1.00  0.00    -0.284 C  
HETATM   15  N   UNL     1      -9.165  12.031  65.381  1.00  0.00    -0.432 N  
HETATM   16  C   UNL     1      -9.476  10.792  64.828  1.00  0.00    -0.247 C  
HETATM   17  H   UNL     1      -8.197  12.351  65.387  1.00  0.00     0.000 HD 
HETATM   18  O   UNL     1      -9.501  10.579  63.625  1.00  0.00    -0.253 OA 
HETATM   19  C   UNL     1      -9.643   9.685  65.806  1.00  0.00    -0.329 A  
HETATM   20  C   UNL     1     -10.332   9.944  67.004  1.00  0.00    -0.303 A  
HETATM   21  C   UNL     1     -10.368   8.993  68.012  1.00  0.00    -0.224 A  
HETATM   22  C   UNL     1      -9.819   7.717  67.824  1.00  0.00    -0.196 A  
HETATM   23  N   UNL     1     -10.978   9.591  69.090  1.00  0.00    -0.390 NA 
HETATM   24  H   UNL     1     -11.119   9.143  69.994  1.00  0.00     0.000 HD 
HETATM   25  C   UNL     1      -9.226   7.455  66.584  1.00  0.00    -0.158 A  
HETATM   26  C   UNL     1      -9.118   8.413  65.583  1.00  0.00    -0.155 A  
HETATM   27  F   UNL     1      -8.723   6.230  66.363  1.00  0.00    -0.118 F  
ENDBRANCH   8  11
ENDBRANCH   4   5
ENDBRANCH   2   4
TORSDOF 3
ENDMDL
MODEL       11
REMARK 921   NORMALIZED FREE ENERGY PREDICTED BY IDOCK:   -6.95 KCAL/MOL
REMARK 922        TOTAL FREE ENERGY PREDICTED BY IDOCK:   -8.55 KCAL/MOL
REMARK 923 INTER-LIGAND FREE ENERGY PREDICTED BY IDOCK:   -8.16 KCAL/MOL
REMARK 924 INTRA-LIGAND FREE ENERGY PREDICTED BY IDOCK:   -0.39 KCAL/MOL
REMARK 927      BINDING AFFINITY PREDICTED BY RF-SCORE:    0.00 PKD
ROOT
HETATM    1  C   UNL     1      -6.473  10.578  62.653  1.00  0.00    -0.116 C  
HETATM    2  N   UNL     1      -7.540  11.519  62.351  1.00  0.00    -0.456 NA 
HETATM    3  H   UNL     1      -7.392  11.980  61.453  1.00  0.00     0.000 HD 
ENDROOT
BRANCH   2   4
HETATM    4  C   UNL     1      -8.848  10.869  62.413  1.00  0.00    -0.313 C  
BRANCH   4   5
HETATM    5  C   UNL     1      -9.446  10.979  63.796  1.00  0.00    -0.286 A  
HETATM    6  C   UNL     1     -10.231  12.077  64.179  1.00  0.00    -0.367 A  
HETATM    7  C   UNL     1     -10.755  12.173  65.479  1.00  0.00    -0.321 A  
HETATM    8  C   UNL     1     -10.501  11.172  66.424  1.00  0.00    -0.311 A  
HETATM    9  C   UNL     1      -9.716  10.079  66.031  1.00  0.00    -0.301 A  
HETATM   10  C   UNL     1      -9.203   9.976  64.737  1.00  0.00    -0.301 A  
BRANCH   8  11
HETATM   11  C   UNL     1     -10.986  11.246  67.811  1.00  0.00    -0.252 A  
HETATM   12  C   UNL     1     -11.062  12.321  68.685  1.00  0.00    -0.291 A  
HETATM   13  C   UNL     1     -10.480  13.700  68.611  1.00  0.00    -0.242 C  
HETATM   14  C   UNL     1     -11.567  14.779  68.545  1.00  0.00    -0.321 C  
HETATM   15  N   UNL     1     -12.612  14.716  69.577  1.00  0.00    -0.575 N  
HETATM   16  C   UNL     1     -12.353  14.141  70.818  1.00  0.00    -0.369 C  
HETATM   17  H   UNL     1     -13.536  15.099  69.383  1.00  0.00     0.000 HD 
HETATM   18  O   UNL     1     -12.192  14.790  71.842  1.00  0.00    -0.332 OA 
HETATM   19  C   UNL     1     -12.425  12.656  70.856  1.00  0.00    -0.368 A  
HETATM   20  C   UNL     1     -11.876  11.929  69.784  1.00  0.00    -0.411 A  
HETATM   21  C   UNL     1     -12.065  10.558  69.698  1.00  0.00    -0.170 A  
HETATM   22  C   UNL     1     -12.706   9.849  70.723  1.00  0.00    -0.303 A  
HETATM   23  N   UNL     1     -11.545  10.170  68.484  1.00  0.00    -0.589 NA 
HETATM   24  H   UNL     1     -11.569   9.216  68.127  1.00  0.00     0.000 HD 
HETATM   25  C   UNL     1     -13.155  10.586  71.823  1.00  0.00    -0.464 A  
HETATM   26  C   UNL     1     -13.037  11.969  71.903  1.00  0.00    -0.475 A  
HETATM   27  F   UNL     1     -13.741   9.929  72.837  1.00  0.00    -0.225 F  
ENDBRANCH   8  11
ENDBRANCH   4   5
ENDBRANCH   2   4
TORSDOF 3
ENDMDL
MODEL       12
REMARK 921   NORMALIZED FREE ENERGY PREDICTED BY IDOCK:   -6.93 KCAL/MOL
REMARK 922        TOTAL FREE ENERGY PREDICTED BY IDOCK:   -8.53 KCAL/MOL
REMARK 923 INTER-LIGAND FREE ENERGY PREDICTED BY IDOCK:   -8.18 KCAL/MOL
REMARK 924 INTRA-LIGAND FREE ENERGY PREDICTED BY IDOCK:   -0.35 KCAL/MOL
REMARK 927      BINDING AFFINITY PREDICTED BY RF-SCORE:    0.00 PKD
ROOT
HETATM    1  C   UNL     1      -6.736  20.431  66.690  1.00  0.00    -0.246 C  
HETATM    2  N   UNL     1      -7.779  21.222  67.326  1.00  0.00    -0.694 NA 
HETATM    3  H   UNL     1      -7.561  22.219  67.302  1.00  0.00     0.000 HD 
ENDROOT
BRANCH   2   4
HETATM    4  C   UNL     1      -9.085  20.943  66.734  1.00  0.00     0.172 C  
BRANCH   4   5
HETATM    5  C   UNL     1      -9.616  19.605  67.193  1.00  0.00    -0.459 A  
HETATM    6  C   UNL     1     -10.125  18.660  66.289  1.00  0.00    -0.431 A  
HETATM    7  C   UNL     1     -10.638  17.432  66.739  1.00  0.00    -0.194 A  
HETATM    8  C   UNL     1     -10.657  17.127  68.106  1.00  0.00    -0.380 A  
HETATM    9  C   UNL     1     -10.147  18.078  69.000  1.00  0.00    -0.301 A  
HETATM   10  C   UNL     1      -9.626  19.294  68.554  1.00  0.00    -0.465 A  
BRANCH   8  11
HETATM   11  C   UNL     1     -11.226  15.878  68.634  1.00  0.00    -0.360 A  
HETATM   12  C   UNL     1     -11.328  14.617  68.061  1.00  0.00    -0.329 A  
HETATM   13  C   UNL     1     -11.112  14.151  66.654  1.00  0.00    -0.314 C  
HETATM   14  C   UNL     1      -9.946  13.162  66.550  1.00  0.00    -0.268 C  
HETATM   15  N   UNL     1      -9.976  12.018  67.473  1.00  0.00    -0.191 N  
HETATM   16  C   UNL     1     -11.183  11.536  67.971  1.00  0.00    -0.269 C  
HETATM   17  H   UNL     1      -9.102  11.573  67.752  1.00  0.00     0.000 HD 
HETATM   18  O   UNL     1     -11.703  10.498  67.587  1.00  0.00    -0.401 OA 
HETATM   19  C   UNL     1     -11.745  12.296  69.119  1.00  0.00    -0.377 A  
HETATM   20  C   UNL     1     -11.680  13.701  69.091  1.00  0.00    -0.376 A  
HETATM   21  C   UNL     1     -12.040  14.441  70.206  1.00  0.00    -0.331 A  
HETATM   22  C   UNL     1     -12.579  13.823  71.343  1.00  0.00    -0.433 A  
HETATM   23  N   UNL     1     -11.730  15.750  69.920  1.00  0.00    -0.351 NA 
HETATM   24  H   UNL     1     -11.855  16.527  70.569  1.00  0.00     0.000 HD 
HETATM   25  C   UNL     1     -12.723  12.432  71.304  1.00  0.00    -0.248 A  
HETATM   26  C   UNL     1     -12.308  11.661  70.225  1.00  0.00    -0.339 A  
HETATM   27  F   UNL     1     -13.268  11.816  72.365  1.00  0.00    -0.595 F  
ENDBRANCH   8  11
ENDBRANCH   4   5
ENDBRANCH   2   4
TORSDOF 3
ENDMDL
MODEL       13
REMARK 921   NORMALIZED FREE ENERGY PREDICTED BY IDOCK:   -6.84 KCAL/MOL
REMARK 922        TOTAL FREE ENERGY PREDICTED BY IDOCK:   -8.43 KCAL/MOL
REMARK 923 INTER-LIGAND FREE ENERGY PREDICTED BY IDOCK:   -8.00 KCAL/MOL
REMARK 924 INTRA-LIGAND FREE ENERGY PREDICTED BY IDOCK:   -0.43 KCAL/MOL
REMARK 927      BINDING AFFINITY PREDICTED BY RF-SCORE:    0.00 PKD
ROOT
HETATM    1  C   UNL     1     -10.380   4.406  65.573  1.00  0.00    -0.224 C  
HETATM    2  N   UNL     1     -10.843   5.594  66.272  1.00  0.00    -0.695 NA 
HETATM    3  H   UNL     1     -11.605   5.379  66.916  1.00  0.00     0.000 HD 
ENDROOT
BRANCH   2   4
HETATM    4  C   UNL     1      -9.738   6.267  66.953  1.00  0.00    -0.151 C  
BRANCH   4   5
HETATM    5  C   UNL     1     -10.190   7.574  67.563  1.00  0.00    -0.288 A  
HETATM    6  C   UNL     1     -10.514   8.688  66.773  1.00  0.00    -0.298 A  
HETATM    7  C   UNL     1     -10.906   9.901  67.362  1.00  0.00    -0.293 A  
HETATM    8  C   UNL     1     -10.979  10.026  68.755  1.00  0.00    -0.242 A  
HETATM    9  C   UNL     1     -10.653   8.908  69.534  1.00  0.00    -0.233 A  
HETATM   10  C   UNL     1     -10.274   7.698  68.952  1.00  0.00    -0.217 A  
BRANCH   8  11
HETATM   11  C   UNL     1     -11.337  11.287  69.422  1.00  0.00    -0.292 A  
HETATM   12  C   UNL     1     -11.017  12.600  69.106  1.00  0.00    -0.195 A  
HETATM   13  C   UNL     1     -10.029  13.171  68.135  1.00  0.00    -0.234 C  
HETATM   14  C   UNL     1     -10.713  13.973  67.024  1.00  0.00    -0.284 C  
HETATM   15  N   UNL     1     -11.665  15.007  67.458  1.00  0.00    -0.346 N  
HETATM   16  C   UNL     1     -11.537  15.616  68.703  1.00  0.00    -0.382 C  
HETATM   17  H   UNL     1     -12.427  15.282  66.839  1.00  0.00     0.000 HD 
HETATM   18  O   UNL     1     -11.121  16.755  68.857  1.00  0.00    -0.288 OA 
HETATM   19  C   UNL     1     -12.078  14.837  69.849  1.00  0.00    -0.381 A  
HETATM   20  C   UNL     1     -11.851  13.449  69.885  1.00  0.00    -0.385 A  
HETATM   21  C   UNL     1     -12.474  12.662  70.841  1.00  0.00    -0.278 A  
HETATM   22  C   UNL     1     -13.252  13.235  71.857  1.00  0.00    -0.523 A  
HETATM   23  N   UNL     1     -12.174  11.357  70.526  1.00  0.00    -0.377 NA 
HETATM   24  H   UNL     1     -12.522  10.547  71.037  1.00  0.00     0.000 HD 
HETATM   25  C   UNL     1     -13.379  14.628  71.853  1.00  0.00    -0.363 A  
HETATM   26  C   UNL     1     -12.820  15.434  70.867  1.00  0.00    -0.536 A  
HETATM   27  F   UNL     1     -14.089  15.208  72.834  1.00  0.00    -0.497 F  
ENDBRANCH   8  11
ENDBRANCH   4   5
ENDBRANCH   2   4
TORSDOF 3
ENDMDL
MODEL       14
REMARK 921   NORMALIZED FREE ENERGY PREDICTED BY IDOCK:   -6.74 KCAL/MOL
REMARK 922        TOTAL FREE ENERGY PREDICTED BY IDOCK:   -8.31 KCAL/MOL
REMARK 923 INTER-LIGAND FREE ENERGY PREDICTED BY IDOCK:   -8.04 KCAL/MOL
REMARK 924 INTRA-LIGAND FREE ENERGY PREDICTED BY IDOCK:   -0.27 KCAL/MOL
REMARK 927      BINDING AFFINITY PREDICTED BY RF-SCORE:    0.00 PKD
ROOT
HETATM    1  C   UNL     1      -6.077  20.797  68.568  1.00  0.00    -0.338 C  
HETATM    2  N   UNL     1      -6.622  21.251  67.298  1.00  0.00    -0.517 NA 
HETATM    3  H   UNL     1      -6.231  20.730  66.513  1.00  0.00     0.000 HD 
ENDROOT
BRANCH   2   4
HETATM    4  C   UNL     1      -8.083  21.198  67.305  1.00  0.00     0.194 C  
BRANCH   4   5
HETATM    5  C   UNL     1      -8.580  19.818  66.943  1.00  0.00    -0.380 A  
HETATM    6  C   UNL     1      -7.698  18.766  66.652  1.00  0.00    -0.262 A  
HETATM    7  C   UNL     1      -8.180  17.497  66.291  1.00  0.00    -0.275 A  
HETATM    8  C   UNL     1      -9.558  17.256  66.211  1.00  0.00    -0.268 A  
HETATM    9  C   UNL     1     -10.429  18.314  66.503  1.00  0.00    -0.378 A  
HETATM   10  C   UNL     1      -9.953  19.572  66.872  1.00  0.00    -0.495 A  
BRANCH   8  11
HETATM   11  C   UNL     1     -10.115  15.961  65.792  1.00  0.00    -0.361 A  
HETATM   12  C   UNL     1     -10.240  14.764  66.484  1.00  0.00    -0.281 A  
HETATM   13  C   UNL     1      -9.656  14.310  67.787  1.00  0.00    -0.221 C  
HETATM   14  C   UNL     1     -10.738  14.039  68.837  1.00  0.00    -0.248 C  
HETATM   15  N   UNL     1     -11.837  13.151  68.428  1.00  0.00    -0.350 N  
HETATM   16  C   UNL     1     -11.644  12.187  67.441  1.00  0.00    -0.340 C  
HETATM   17  H   UNL     1     -12.750  13.241  68.872  1.00  0.00     0.000 HD 
HETATM   18  O   UNL     1     -11.538  10.993  67.677  1.00  0.00    -0.526 OA 
HETATM   19  C   UNL     1     -11.716  12.688  66.043  1.00  0.00    -0.470 A  
HETATM   20  C   UNL     1     -11.110  13.921  65.738  1.00  0.00    -0.294 A  
HETATM   21  C   UNL     1     -11.292  14.503  64.494  1.00  0.00    -0.316 A  
HETATM   22  C   UNL     1     -11.987  13.834  63.476  1.00  0.00    -0.197 A  
HETATM   23  N   UNL     1     -10.709  15.747  64.557  1.00  0.00    -0.776 NA 
HETATM   24  H   UNL     1     -10.713  16.424  63.795  1.00  0.00     0.000 HD 
HETATM   25  C   UNL     1     -12.494  12.566  63.778  1.00  0.00    -0.455 A  
HETATM   26  C   UNL     1     -12.382  11.989  65.038  1.00  0.00    -0.037 A  
HETATM   27  F   UNL     1     -13.133  11.886  62.812  1.00  0.00    -0.453 F  
ENDBRANCH   8  11
ENDBRANCH   4   5
ENDBRANCH   2   4
TORSDOF 3
ENDMDL
MODEL       15
REMARK 921   NORMALIZED FREE ENERGY PREDICTED BY IDOCK:   -6.73 KCAL/MOL
REMARK 922        TOTAL FREE ENERGY PREDICTED BY IDOCK:   -8.29 KCAL/MOL
REMARK 923 INTER-LIGAND FREE ENERGY PREDICTED BY IDOCK:   -8.09 KCAL/MOL
REMARK 924 INTRA-LIGAND FREE ENERGY PREDICTED BY IDOCK:   -0.21 KCAL/MOL
REMARK 927      BINDING AFFINITY PREDICTED BY RF-SCORE:    0.00 PKD
ROOT
HETATM    1  C   UNL     1      -7.539  20.405  66.715  1.00  0.00    -0.272 C  
HETATM    2  N   UNL     1      -8.441  20.138  65.605  1.00  0.00    -0.487 NA 
HETATM    3  H   UNL     1      -8.150  19.318  65.073  1.00  0.00     0.000 HD 
ENDROOT
BRANCH   2   4
HETATM    4  C   UNL     1      -9.822  20.015  66.069  1.00  0.00    -0.406 C  
BRANCH   4   5
HETATM    5  C   UNL     1     -10.056  18.678  66.733  1.00  0.00    -0.413 A  
HETATM    6  C   UNL     1     -10.129  17.486  65.995  1.00  0.00    -0.270 A  
HETATM    7  C   UNL     1     -10.374  16.257  66.628  1.00  0.00    -0.302 A  
HETATM    8  C   UNL     1     -10.555  16.195  68.016  1.00  0.00    -0.304 A  
HETATM    9  C   UNL     1     -10.480  17.391  68.743  1.00  0.00    -0.333 A  
HETATM   10  C   UNL     1     -10.226  18.612  68.118  1.00  0.00    -0.423 A  
BRANCH   8  11
HETATM   11  C   UNL     1     -10.861  14.942  68.723  1.00  0.00    -0.252 A  
HETATM   12  C   UNL     1     -11.537  14.719  69.915  1.00  0.00    -0.330 A  
HETATM   13  C   UNL     1     -11.980  15.661  70.992  1.00  0.00    -0.445 C  
HETATM   14  C   UNL     1     -13.505  15.700  71.130  1.00  0.00    -0.297 C  
HETATM   15  N   UNL     1     -14.181  14.402  71.271  1.00  0.00    -0.372 N  
HETATM   16  C   UNL     1     -13.516  13.309  71.818  1.00  0.00    -0.354 C  
HETATM   17  H   UNL     1     -15.149  14.302  70.966  1.00  0.00     0.000 HD 
HETATM   18  O   UNL     1     -13.725  12.887  72.946  1.00  0.00    -0.416 OA 
HETATM   19  C   UNL     1     -12.618  12.580  70.883  1.00  0.00    -0.331 A  
HETATM   20  C   UNL     1     -11.820  13.327  69.998  1.00  0.00    -0.365 A  
HETATM   21  C   UNL     1     -11.095  12.692  69.001  1.00  0.00    -0.238 A  
HETATM   22  C   UNL     1     -11.050  11.293  68.918  1.00  0.00    -0.295 A  
HETATM   23  N   UNL     1     -10.548  13.686  68.225  1.00  0.00    -0.246 NA 
HETATM   24  H   UNL     1      -9.985  13.522  67.391  1.00  0.00     0.000 HD 
HETATM   25  C   UNL     1     -11.775  10.574  69.874  1.00  0.00    -0.294 A  
HETATM   26  C   UNL     1     -12.563  11.188  70.841  1.00  0.00    -0.483 A  
HETATM   27  F   UNL     1     -11.722   9.233  69.840  1.00  0.00    -0.156 F  
ENDBRANCH   8  11
ENDBRANCH   4   5
ENDBRANCH   2   4
TORSDOF 3
ENDMDL
MODEL       16
REMARK 921   NORMALIZED FREE ENERGY PREDICTED BY IDOCK:   -6.71 KCAL/MOL
REMARK 922        TOTAL FREE ENERGY PREDICTED BY IDOCK:   -8.28 KCAL/MOL
REMARK 923 INTER-LIGAND FREE ENERGY PREDICTED BY IDOCK:   -7.74 KCAL/MOL
REMARK 924 INTRA-LIGAND FREE ENERGY PREDICTED BY IDOCK:   -0.54 KCAL/MOL
REMARK 927      BINDING AFFINITY PREDICTED BY RF-SCORE:    0.00 PKD
ROOT
HETATM    1  C   UNL     1      -6.325  20.979  67.737  1.00  0.00    -0.354 C  
HETATM    2  N   UNL     1      -7.517  21.245  66.946  1.00  0.00    -0.770 NA 
HETATM    3  H   UNL     1      -7.564  22.222  66.655  1.00  0.00     0.000 HD 
ENDROOT
BRANCH   2   4
HETATM    4  C   UNL     1      -7.602  20.338  65.803  1.00  0.00    -0.147 C  
BRANCH   4   5
HETATM    5  C   UNL     1      -8.180  19.002  66.210  1.00  0.00    -0.294 A  
HETATM    6  C   UNL     1      -9.528  18.857  66.571  1.00  0.00    -0.361 A  
HETATM    7  C   UNL     1     -10.039  17.612  66.972  1.00  0.00    -0.330 A  
HETATM    8  C   UNL     1      -9.209  16.485  67.023  1.00  0.00    -0.233 A  
HETATM    9  C   UNL     1      -7.864  16.641  66.660  1.00  0.00    -0.316 A  
HETATM   10  C   UNL     1      -7.357  17.875  66.251  1.00  0.00    -0.327 A  
BRANCH   8  11
HETATM   11  C   UNL     1      -9.681  15.170  67.481  1.00  0.00    -0.205 A  
HETATM   12  C   UNL     1     -10.311  14.795  68.661  1.00  0.00    -0.245 A  
HETATM   13  C   UNL     1     -10.517  15.533  69.948  1.00  0.00    -0.323 C  
HETATM   14  C   UNL     1     -12.002  15.775  70.238  1.00  0.00    -0.361 C  
HETATM   15  N   UNL     1     -12.881  14.598  70.173  1.00  0.00    -0.567 N  
HETATM   16  C   UNL     1     -12.380  13.321  70.413  1.00  0.00    -0.295 C  
HETATM   17  H   UNL     1     -13.868  14.717  69.949  1.00  0.00     0.000 HD 
HETATM   18  O   UNL     1     -12.588  12.699  71.444  1.00  0.00    -0.314 OA 
HETATM   19  C   UNL     1     -11.680  12.688  69.264  1.00  0.00    -0.379 A  
HETATM   20  C   UNL     1     -10.822  13.480  68.480  1.00  0.00    -0.283 A  
HETATM   21  C   UNL     1     -10.279  12.976  67.308  1.00  0.00    -0.239 A  
HETATM   22  C   UNL     1     -10.479  11.641  66.932  1.00  0.00    -0.262 A  
HETATM   23  N   UNL     1      -9.619  14.021  66.705  1.00  0.00    -0.280 NA 
HETATM   24  H   UNL     1      -9.145  13.960  65.805  1.00  0.00     0.000 HD 
HETATM   25  C   UNL     1     -11.257  10.849  67.783  1.00  0.00    -0.317 A  
HETATM   26  C   UNL     1     -11.867  11.348  68.929  1.00  0.00    -0.413 A  
HETATM   27  F   UNL     1     -11.437   9.557  67.467  1.00  0.00    -0.127 F  
ENDBRANCH   8  11
ENDBRANCH   4   5
ENDBRANCH   2   4
TORSDOF 3
ENDMDL
MODEL       17
REMARK 921   NORMALIZED FREE ENERGY PREDICTED BY IDOCK:   -6.67 KCAL/MOL
REMARK 922        TOTAL FREE ENERGY PREDICTED BY IDOCK:   -8.22 KCAL/MOL
REMARK 923 INTER-LIGAND FREE ENERGY PREDICTED BY IDOCK:   -7.78 KCAL/MOL
REMARK 924 INTRA-LIGAND FREE ENERGY PREDICTED BY IDOCK:   -0.44 KCAL/MOL
REMARK 927      BINDING AFFINITY PREDICTED BY RF-SCORE:    0.00 PKD
ROOT
HETATM    1  C   UNL     1      -9.901  20.288  67.271  1.00  0.00    -0.452 C  
HETATM    2  N   UNL     1     -10.784  19.142  67.119  1.00  0.00    -0.471 NA 
HETATM    3  H   UNL     1     -11.603  19.371  66.556  1.00  0.00     0.000 HD 
ENDROOT
BRANCH   2   4
HETATM    4  C   UNL     1     -10.064  17.991  66.579  1.00  0.00    -0.379 C  
BRANCH   4   5
HETATM    5  C   UNL     1     -10.445  16.721  67.303  1.00  0.00    -0.310 A  
HETATM    6  C   UNL     1     -10.497  16.655  68.704  1.00  0.00    -0.323 A  
HETATM    7  C   UNL     1     -10.827  15.457  69.359  1.00  0.00    -0.263 A  
HETATM    8  C   UNL     1     -11.110  14.299  68.624  1.00  0.00    -0.273 A  
HETATM    9  C   UNL     1     -11.055  14.376  67.226  1.00  0.00    -0.318 A  
HETATM   10  C   UNL     1     -10.737  15.568  66.573  1.00  0.00    -0.304 A  
BRANCH   8  11
HETATM   11  C   UNL     1     -11.414  13.008  69.260  1.00  0.00    -0.289 A  
HETATM   12  C   UNL     1     -10.799  11.770  69.134  1.00  0.00    -0.221 A  
HETATM   13  C   UNL     1      -9.781  11.267  68.156  1.00  0.00    -0.188 C  
HETATM   14  C   UNL     1      -8.462  10.895  68.842  1.00  0.00    -0.141 C  
HETATM   15  N   UNL     1      -8.560   9.988  69.995  1.00  0.00    -0.349 N  
HETATM   16  C   UNL     1      -9.617   9.090  70.108  1.00  0.00    -0.193 C  
HETATM   17  H   UNL     1      -7.844  10.017  70.721  1.00  0.00     0.000 HD 
HETATM   18  O   UNL     1      -9.506   7.889  69.909  1.00  0.00    -0.160 OA 
HETATM   19  C   UNL     1     -10.885   9.665  70.631  1.00  0.00    -0.386 A  
HETATM   20  C   UNL     1     -11.284  10.936  70.179  1.00  0.00    -0.317 A  
HETATM   21  C   UNL     1     -12.366  11.579  70.760  1.00  0.00    -0.375 A  
HETATM   22  C   UNL     1     -13.153  10.941  71.729  1.00  0.00    -0.564 A  
HETATM   23  N   UNL     1     -12.409  12.839  70.212  1.00  0.00    -0.253 NA 
HETATM   24  H   UNL     1     -13.085  13.557  70.472  1.00  0.00     0.000 HD 
HETATM   25  C   UNL     1     -12.790   9.638  72.088  1.00  0.00    -0.375 A  
HETATM   26  C   UNL     1     -11.671   8.997  71.569  1.00  0.00    -0.415 A  
HETATM   27  F   UNL     1     -13.546   8.989  72.988  1.00  0.00    -0.461 F  
ENDBRANCH   8  11
ENDBRANCH   4   5
ENDBRANCH   2   4
TORSDOF 3
ENDMDL
MODEL       18
REMARK 921   NORMALIZED FREE ENERGY PREDICTED BY IDOCK:   -6.65 KCAL/MOL
REMARK 922        TOTAL FREE ENERGY PREDICTED BY IDOCK:   -8.20 KCAL/MOL
REMARK 923 INTER-LIGAND FREE ENERGY PREDICTED BY IDOCK:   -7.72 KCAL/MOL
REMARK 924 INTRA-LIGAND FREE ENERGY PREDICTED BY IDOCK:   -0.48 KCAL/MOL
REMARK 927      BINDING AFFINITY PREDICTED BY RF-SCORE:    0.00 PKD
ROOT
HETATM    1  C   UNL     1      -5.803  20.659  68.938  1.00  0.00    -0.357 C  
HETATM    2  N   UNL     1      -6.632  19.587  69.466  1.00  0.00    -0.329 NA 
HETATM    3  H   UNL     1      -6.609  19.561  70.486  1.00  0.00     0.000 HD 
ENDROOT
BRANCH   2   4
HETATM    4  C   UNL     1      -8.001  19.685  68.962  1.00  0.00    -0.199 C  
BRANCH   4   5
HETATM    5  C   UNL     1      -8.461  18.369  68.379  1.00  0.00    -0.345 A  
HETATM    6  C   UNL     1      -9.693  17.793  68.730  1.00  0.00    -0.314 A  
HETATM    7  C   UNL     1     -10.090  16.556  68.197  1.00  0.00    -0.255 A  
HETATM    8  C   UNL     1      -9.260  15.867  67.304  1.00  0.00    -0.216 A  
HETATM    9  C   UNL     1      -8.033  16.450  66.961  1.00  0.00    -0.240 A  
HETATM   10  C   UNL     1      -7.641  17.684  67.480  1.00  0.00    -0.210 A  
BRANCH   8  11
HETATM   11  C   UNL     1      -9.607  14.547  66.754  1.00  0.00    -0.263 A  
HETATM   12  C   UNL     1     -10.721  14.129  66.038  1.00  0.00    -0.299 A  
HETATM   13  C   UNL     1     -12.037  14.797  65.779  1.00  0.00    -0.108 C  
HETATM   14  C   UNL     1     -12.251  15.084  64.289  1.00  0.00    -0.293 C  
HETATM   15  N   UNL     1     -12.060  13.950  63.373  1.00  0.00    -1.002 N  
HETATM   16  C   UNL     1     -12.251  12.642  63.808  1.00  0.00    -0.514 C  
HETATM   17  H   UNL     1     -11.785  14.124  62.406  1.00  0.00     0.000 HD 
HETATM   18  O   UNL     1     -13.227  11.968  63.512  1.00  0.00    -0.724 OA 
HETATM   19  C   UNL     1     -11.109  12.049  64.555  1.00  0.00    -0.384 A  
HETATM   20  C   UNL     1     -10.429  12.850  65.490  1.00  0.00    -0.305 A  
HETATM   21  C   UNL     1      -9.262  12.395  66.085  1.00  0.00    -0.101 A  
HETATM   22  C   UNL     1      -8.793  11.093  65.858  1.00  0.00    -0.193 A  
HETATM   23  N   UNL     1      -8.766  13.445  66.821  1.00  0.00    -0.417 NA 
HETATM   24  H   UNL     1      -7.894  13.418  67.348  1.00  0.00     0.000 HD 
HETATM   25  C   UNL     1      -9.545  10.285  64.999  1.00  0.00    -0.285 A  
HETATM   26  C   UNL     1     -10.681  10.740  64.338  1.00  0.00    -0.120 A  
HETATM   27  F   UNL     1      -9.140   9.023  64.791  1.00  0.00    -0.247 F  
ENDBRANCH   8  11
ENDBRANCH   4   5
ENDBRANCH   2   4
TORSDOF 3
ENDMDL
MODEL       19
REMARK 921   NORMALIZED FREE ENERGY PREDICTED BY IDOCK:   -6.65 KCAL/MOL
REMARK 922        TOTAL FREE ENERGY PREDICTED BY IDOCK:   -8.20 KCAL/MOL
REMARK 923 INTER-LIGAND FREE ENERGY PREDICTED BY IDOCK:   -7.84 KCAL/MOL
REMARK 924 INTRA-LIGAND FREE ENERGY PREDICTED BY IDOCK:   -0.36 KCAL/MOL
REMARK 927      BINDING AFFINITY PREDICTED BY RF-SCORE:    0.00 PKD
ROOT
HETATM    1  C   UNL     1     -11.015  16.912  65.012  1.00  0.00    -0.046 C  
HETATM    2  N   UNL     1     -11.311  15.859  64.053  1.00  0.00    -1.070 NA 
HETATM    3  H   UNL     1     -10.499  15.265  63.884  1.00  0.00     0.000 HD 
ENDROOT
BRANCH   2   4
HETATM    4  C   UNL     1     -12.472  15.077  64.472  1.00  0.00    -0.146 C  
BRANCH   4   5
HETATM    5  C   UNL     1     -12.084  14.027  65.486  1.00  0.00    -0.423 A  
HETATM    6  C   UNL     1     -11.716  12.728  65.104  1.00  0.00    -0.396 A  
HETATM    7  C   UNL     1     -11.384  11.758  66.065  1.00  0.00    -0.335 A  
HETATM    8  C   UNL     1     -11.417  12.069  67.430  1.00  0.00    -0.406 A  
HETATM    9  C   UNL     1     -11.787  13.369  67.801  1.00  0.00    -0.395 A  
HETATM   10  C   UNL     1     -12.106  14.337  66.848  1.00  0.00    -0.440 A  
BRANCH   8  11
HETATM   11  C   UNL     1     -11.126  11.079  68.478  1.00  0.00    -0.243 A  
HETATM   12  C   UNL     1      -9.950  10.410  68.788  1.00  0.00    -0.196 A  
HETATM   13  C   UNL     1      -8.657  10.286  68.041  1.00  0.00    -0.118 C  
HETATM   14  C   UNL     1      -7.489  10.919  68.806  1.00  0.00    -0.112 C  
HETATM   15  N   UNL     1      -7.319  10.496  70.204  1.00  0.00    -0.304 N  
HETATM   16  C   UNL     1      -7.762   9.246  70.629  1.00  0.00    -0.151 C  
HETATM   17  H   UNL     1      -6.871  11.124  70.869  1.00  0.00     0.000 HD 
HETATM   18  O   UNL     1      -7.013   8.308  70.860  1.00  0.00    -0.041 OA 
HETATM   19  C   UNL     1      -9.217   9.157  70.926  1.00  0.00    -0.326 A  
HETATM   20  C   UNL     1     -10.121   9.799  70.062  1.00  0.00    -0.301 A  
HETATM   21  C   UNL     1     -11.465   9.882  70.388  1.00  0.00    -0.301 A  
HETATM   22  C   UNL     1     -11.976   9.237  71.524  1.00  0.00    -0.439 A  
HETATM   23  N   UNL     1     -12.049  10.683  69.435  1.00  0.00    -0.521 NA 
HETATM   24  H   UNL     1     -13.032  10.952  69.432  1.00  0.00     0.000 HD 
HETATM   25  C   UNL     1     -11.068   8.522  72.313  1.00  0.00    -0.360 A  
HETATM   26  C   UNL     1      -9.705   8.480  72.043  1.00  0.00    -0.377 A  
HETATM   27  F   UNL     1     -11.534   7.865  73.387  1.00  0.00    -0.394 F  
ENDBRANCH   8  11
ENDBRANCH   4   5
ENDBRANCH   2   4
TORSDOF 3
ENDMDL
MODEL       20
REMARK 921   NORMALIZED FREE ENERGY PREDICTED BY IDOCK:   -6.60 KCAL/MOL
REMARK 922        TOTAL FREE ENERGY PREDICTED BY IDOCK:   -8.14 KCAL/MOL
REMARK 923 INTER-LIGAND FREE ENERGY PREDICTED BY IDOCK:   -7.76 KCAL/MOL
REMARK 924 INTRA-LIGAND FREE ENERGY PREDICTED BY IDOCK:   -0.39 KCAL/MOL
REMARK 927      BINDING AFFINITY PREDICTED BY RF-SCORE:    0.00 PKD
ROOT
HETATM    1  C   UNL     1      -8.298  19.577  66.111  1.00  0.00    -0.321 C  
HETATM    2  N   UNL     1      -9.387  18.613  66.160  1.00  0.00    -0.489 NA 
HETATM    3  H   UNL     1      -9.066  17.671  65.933  1.00  0.00     0.000 HD 
ENDROOT
BRANCH   2   4
HETATM    4  C   UNL     1     -10.066  18.652  67.454  1.00  0.00    -0.362 C  
BRANCH   4   5
HETATM    5  C   UNL     1     -10.425  17.261  67.923  1.00  0.00    -0.382 A  
HETATM    6  C   UNL     1     -10.644  16.209  67.021  1.00  0.00    -0.292 A  
HETATM    7  C   UNL     1     -11.003  14.929  67.476  1.00  0.00    -0.302 A  
HETATM    8  C   UNL     1     -11.154  14.678  68.846  1.00  0.00    -0.268 A  
HETATM    9  C   UNL     1     -10.933  15.736  69.737  1.00  0.00    -0.316 A  
HETATM   10  C   UNL     1     -10.566  17.005  69.289  1.00  0.00    -0.276 A  
BRANCH   8  11
HETATM   11  C   UNL     1     -11.574  13.371  69.373  1.00  0.00    -0.307 A  
HETATM   12  C   UNL     1     -11.218  12.085  68.990  1.00  0.00    -0.313 A  
HETATM   13  C   UNL     1     -10.480  11.579  67.788  1.00  0.00    -0.216 C  
HETATM   14  C   UNL     1      -9.154  10.912  68.167  1.00  0.00    -0.155 C  
HETATM   15  N   UNL     1      -9.220   9.872  69.206  1.00  0.00    -0.187 N  
HETATM   16  C   UNL     1     -10.388   9.141  69.408  1.00  0.00    -0.216 C  
HETATM   17  H   UNL     1      -8.402   9.684  69.783  1.00  0.00     0.000 HD 
HETATM   18  O   UNL     1     -10.526   7.980  69.053  1.00  0.00    -0.218 OA 
HETATM   19  C   UNL     1     -11.429   9.822  70.223  1.00  0.00    -0.317 A  
HETATM   20  C   UNL     1     -11.665  11.192  70.004  1.00  0.00    -0.438 A  
HETATM   21  C   UNL     1     -12.505  11.902  70.847  1.00  0.00    -0.300 A  
HETATM   22  C   UNL     1     -13.222  11.258  71.865  1.00  0.00    -0.491 A  
HETATM   23  N   UNL     1     -12.413  13.221  70.468  1.00  0.00    -0.296 NA 
HETATM   24  H   UNL     1     -12.898  13.988  70.930  1.00  0.00     0.000 HD 
HETATM   25  C   UNL     1     -13.042   9.877  71.996  1.00  0.00    -0.448 A  
HETATM   26  C   UNL     1     -12.156   9.154  71.206  1.00  0.00    -0.392 A  
HETATM   27  F   UNL     1     -13.743   9.228  72.940  1.00  0.00    -0.457 F  
ENDBRANCH   8  11
ENDBRANCH   4   5
ENDBRANCH   2   4
TORSDOF 3
ENDMDL
MODEL       21
REMARK 921   NORMALIZED FREE ENERGY PREDICTED BY IDOCK:   -6.56 KCAL/MOL
REMARK 922        TOTAL FREE ENERGY PREDICTED BY IDOCK:   -8.10 KCAL/MOL
REMARK 923 INTER-LIGAND FREE ENERGY PREDICTED BY IDOCK:   -7.77 KCAL/MOL
REMARK 924 INTRA-LIGAND FREE ENERGY PREDICTED BY IDOCK:   -0.33 KCAL/MOL
REMARK 927      BINDING AFFINITY PREDICTED BY RF-SCORE:    0.00 PKD
ROOT
HETATM    1  C   UNL     1     -10.452   3.872  64.561  1.00  0.00    -0.207 C  
HETATM    2  N   UNL     1     -11.057   4.618  65.653  1.00  0.00    -0.893 NA 
HETATM    3  H   UNL     1     -11.939   4.200  65.951  1.00  0.00     0.000 HD 
ENDROOT
BRANCH   2   4
HETATM    4  C   UNL     1     -10.125   4.764  66.770  1.00  0.00    -0.229 C  
BRANCH   4   5
HETATM    5  C   UNL     1     -10.391   6.037  67.538  1.00  0.00    -0.262 A  
HETATM    6  C   UNL     1     -10.722   6.025  68.902  1.00  0.00    -0.384 A  
HETATM    7  C   UNL     1     -10.992   7.218  69.592  1.00  0.00    -0.204 A  
HETATM    8  C   UNL     1     -10.940   8.450  68.928  1.00  0.00     0.115 A  
HETATM    9  C   UNL     1     -10.609   8.452  67.566  1.00  0.00    -0.285 A  
HETATM   10  C   UNL     1     -10.329   7.269  66.882  1.00  0.00    -0.358 A  
BRANCH   8  11
HETATM   11  C   UNL     1     -11.259   9.724  69.590  1.00  0.00    -0.178 A  
HETATM   12  C   UNL     1     -10.855  11.021  69.301  1.00  0.00    -0.285 A  
HETATM   13  C   UNL     1      -9.795  11.543  68.380  1.00  0.00    -0.204 C  
HETATM   14  C   UNL     1     -10.385  12.389  67.246  1.00  0.00    -0.215 C  
HETATM   15  N   UNL     1     -11.298  13.470  67.646  1.00  0.00    -0.282 N  
HETATM   16  C   UNL     1     -11.194  14.062  68.902  1.00  0.00    -0.272 C  
HETATM   17  H   UNL     1     -12.016  13.789  66.996  1.00  0.00     0.000 HD 
HETATM   18  O   UNL     1     -10.725  15.176  69.084  1.00  0.00    -0.233 OA 
HETATM   19  C   UNL     1     -11.828  13.306  70.015  1.00  0.00    -0.365 A  
HETATM   20  C   UNL     1     -11.678  11.908  70.049  1.00  0.00    -0.366 A  
HETATM   21  C   UNL     1     -12.384  11.150  70.969  1.00  0.00    -0.382 A  
HETATM   22  C   UNL     1     -13.175  11.758  71.954  1.00  0.00    -0.468 A  
HETATM   23  N   UNL     1     -12.141   9.833  70.656  1.00  0.00    -0.397 NA 
HETATM   24  H   UNL     1     -12.554   9.039  71.144  1.00  0.00     0.000 HD 
HETATM   25  C   UNL     1     -13.227  13.155  71.957  1.00  0.00    -0.446 A  
HETATM   26  C   UNL     1     -12.582  13.936  71.004  1.00  0.00    -0.444 A  
HETATM   27  F   UNL     1     -13.948  13.767  72.910  1.00  0.00    -0.527 F  
ENDBRANCH   8  11
ENDBRANCH   4   5
ENDBRANCH   2   4
TORSDOF 3
ENDMDL
MODEL       22
REMARK 921   NORMALIZED FREE ENERGY PREDICTED BY IDOCK:   -6.55 KCAL/MOL
REMARK 922        TOTAL FREE ENERGY PREDICTED BY IDOCK:   -8.09 KCAL/MOL
REMARK 923 INTER-LIGAND FREE ENERGY PREDICTED BY IDOCK:   -7.79 KCAL/MOL
REMARK 924 INTRA-LIGAND FREE ENERGY PREDICTED BY IDOCK:   -0.30 KCAL/MOL
REMARK 927      BINDING AFFINITY PREDICTED BY RF-SCORE:    0.00 PKD
ROOT
HETATM    1  C   UNL     1     -10.625  16.545  65.628  1.00  0.00    -0.304 C  
HETATM    2  N   UNL     1     -10.974  16.124  64.280  1.00  0.00    -1.066 NA 
HETATM    3  H   UNL     1     -10.164  15.758  63.779  1.00  0.00     0.000 HD 
ENDROOT
BRANCH   2   4
HETATM    4  C   UNL     1     -12.075  15.163  64.298  1.00  0.00    -0.261 C  
BRANCH   4   5
HETATM    5  C   UNL     1     -11.658  13.871  64.961  1.00  0.00    -0.350 A  
HETATM    6  C   UNL     1     -10.750  12.987  64.357  1.00  0.00    -0.414 A  
HETATM    7  C   UNL     1     -10.396  11.778  64.979  1.00  0.00    -0.325 A  
HETATM    8  C   UNL     1     -10.948  11.426  66.217  1.00  0.00    -0.303 A  
HETATM    9  C   UNL     1     -11.854  12.315  66.810  1.00  0.00    -0.349 A  
HETATM   10  C   UNL     1     -12.199  13.522  66.201  1.00  0.00    -0.484 A  
BRANCH   8  11
HETATM   11  C   UNL     1     -10.649  10.152  66.887  1.00  0.00    -0.200 A  
HETATM   12  C   UNL     1     -10.627   9.823  68.236  1.00  0.00    -0.271 A  
HETATM   13  C   UNL     1     -10.672  10.680  69.464  1.00  0.00    -0.290 C  
HETATM   14  C   UNL     1     -11.930  10.421  70.300  1.00  0.00    -0.302 C  
HETATM   15  N   UNL     1     -12.208   9.018  70.641  1.00  0.00    -0.487 N  
HETATM   16  C   UNL     1     -11.176   8.088  70.730  1.00  0.00    -0.265 C  
HETATM   17  H   UNL     1     -13.168   8.723  70.817  1.00  0.00     0.000 HD 
HETATM   18  O   UNL     1     -10.746   7.657  71.789  1.00  0.00    -0.212 OA 
HETATM   19  C   UNL     1     -10.710   7.532  69.431  1.00  0.00    -0.200 A  
HETATM   20  C   UNL     1     -10.577   8.404  68.335  1.00  0.00    -0.155 A  
HETATM   21  C   UNL     1     -10.307   7.905  67.071  1.00  0.00    -0.341 A  
HETATM   22  C   UNL     1     -10.051   6.541  66.870  1.00  0.00    -0.253 A  
HETATM   23  N   UNL     1     -10.384   8.972  66.207  1.00  0.00    -0.275 NA 
HETATM   24  H   UNL     1     -10.262   8.905  65.197  1.00  0.00     0.000 HD 
HETATM   25  C   UNL     1     -10.094   5.712  67.996  1.00  0.00    -0.171 A  
HETATM   26  C   UNL     1     -10.428   6.178  69.263  1.00  0.00    -0.314 A  
HETATM   27  F   UNL     1      -9.819   4.408  67.840  1.00  0.00    -0.198 F  
ENDBRANCH   8  11
ENDBRANCH   4   5
ENDBRANCH   2   4
TORSDOF 3
ENDMDL
MODEL       23
REMARK 921   NORMALIZED FREE ENERGY PREDICTED BY IDOCK:   -6.48 KCAL/MOL
REMARK 922        TOTAL FREE ENERGY PREDICTED BY IDOCK:   -8.01 KCAL/MOL
REMARK 923 INTER-LIGAND FREE ENERGY PREDICTED BY IDOCK:   -7.67 KCAL/MOL
REMARK 924 INTRA-LIGAND FREE ENERGY PREDICTED BY IDOCK:   -0.34 KCAL/MOL
REMARK 927      BINDING AFFINITY PREDICTED BY RF-SCORE:    0.00 PKD
ROOT
HETATM    1  C   UNL     1     -10.791  15.302  65.062  1.00  0.00    -0.439 C  
HETATM    2  N   UNL     1     -10.084  14.129  64.569  1.00  0.00    -0.700 NA 
HETATM    3  H   UNL     1      -9.362  13.824  65.222  1.00  0.00     0.000 HD 
ENDROOT
BRANCH   2   4
HETATM    4  C   UNL     1     -11.016  13.048  64.254  1.00  0.00    -0.399 C  
BRANCH   4   5
HETATM    5  C   UNL     1     -10.913  11.929  65.264  1.00  0.00    -0.354 A  
HETATM    6  C   UNL     1     -11.461  12.040  66.552  1.00  0.00    -0.413 A  
HETATM    7  C   UNL     1     -11.331  10.997  67.484  1.00  0.00    -0.332 A  
HETATM    8  C   UNL     1     -10.646   9.823  67.148  1.00  0.00    -0.298 A  
HETATM    9  C   UNL     1     -10.104   9.723  65.860  1.00  0.00    -0.314 A  
HETATM   10  C   UNL     1     -10.241  10.752  64.927  1.00  0.00    -0.388 A  
BRANCH   8  11
HETATM   11  C   UNL     1     -10.440   8.722  68.101  1.00  0.00    -0.191 A  
HETATM   12  C   UNL     1     -10.492   8.705  69.489  1.00  0.00    -0.222 A  
HETATM   13  C   UNL     1     -10.544   9.819  70.489  1.00  0.00    -0.376 C  
HETATM   14  C   UNL     1     -11.847   9.806  71.295  1.00  0.00    -0.399 C  
HETATM   15  N   UNL     1     -12.210   8.528  71.927  1.00  0.00    -0.329 N  
HETATM   16  C   UNL     1     -11.231   7.602  72.275  1.00  0.00    -0.293 C  
HETATM   17  H   UNL     1     -13.191   8.319  72.113  1.00  0.00     0.000 HD 
HETATM   18  O   UNL     1     -10.868   7.404  73.425  1.00  0.00    -0.388 OA 
HETATM   19  C   UNL     1     -10.740   6.749  71.159  1.00  0.00    -0.261 A  
HETATM   20  C   UNL     1     -10.517   7.345  69.905  1.00  0.00    -0.238 A  
HETATM   21  C   UNL     1     -10.220   6.563  68.800  1.00  0.00    -0.171 A  
HETATM   22  C   UNL     1     -10.025   5.180  68.923  1.00  0.00    -0.245 A  
HETATM   23  N   UNL     1     -10.207   7.410  67.716  1.00  0.00    -0.183 NA 
HETATM   24  H   UNL     1     -10.046   7.112  66.755  1.00  0.00     0.000 HD 
HETATM   25  C   UNL     1     -10.157   4.629  70.202  1.00  0.00    -0.213 A  
HETATM   26  C   UNL     1     -10.520   5.381  71.313  1.00  0.00    -0.296 A  
HETATM   27  F   UNL     1      -9.942   3.313  70.356  1.00  0.00    -0.229 F  
ENDBRANCH   8  11
ENDBRANCH   4   5
ENDBRANCH   2   4
TORSDOF 3
ENDMDL
MODEL       24
REMARK 921   NORMALIZED FREE ENERGY PREDICTED BY IDOCK:   -6.46 KCAL/MOL
REMARK 922        TOTAL FREE ENERGY PREDICTED BY IDOCK:   -7.98 KCAL/MOL
REMARK 923 INTER-LIGAND FREE ENERGY PREDICTED BY IDOCK:   -7.46 KCAL/MOL
REMARK 924 INTRA-LIGAND FREE ENERGY PREDICTED BY IDOCK:   -0.52 KCAL/MOL
REMARK 927      BINDING AFFINITY PREDICTED BY RF-SCORE:    0.00 PKD
ROOT
HETATM    1  C   UNL     1      -9.659   4.895  68.586  1.00  0.00    -0.154 C  
HETATM    2  N   UNL     1     -10.544   5.850  67.937  1.00  0.00    -0.242 NA 
HETATM    3  H   UNL     1     -10.837   6.587  68.578  1.00  0.00     0.000 HD 
ENDROOT
BRANCH   2   4
HETATM    4  C   UNL     1      -9.929   6.399  66.730  1.00  0.00    -0.171 C  
BRANCH   4   5
HETATM    5  C   UNL     1      -9.890   7.909  66.778  1.00  0.00    -0.318 A  
HETATM    6  C   UNL     1     -10.698   8.644  67.659  1.00  0.00    -0.194 A  
HETATM    7  C   UNL     1     -10.666  10.048  67.669  1.00  0.00    -0.340 A  
HETATM    8  C   UNL     1      -9.825  10.747  66.794  1.00  0.00    -0.233 A  
HETATM    9  C   UNL     1      -9.022  10.003  65.918  1.00  0.00    -0.182 A  
HETATM   10  C   UNL     1      -9.044   8.608  65.914  1.00  0.00    -0.259 A  
BRANCH   8  11
HETATM   11  C   UNL     1      -9.787  12.216  66.730  1.00  0.00    -0.206 A  
HETATM   12  C   UNL     1     -10.224  13.090  65.743  1.00  0.00    -0.297 A  
HETATM   13  C   UNL     1     -10.664  12.847  64.332  1.00  0.00    -0.407 C  
HETATM   14  C   UNL     1     -12.133  13.225  64.116  1.00  0.00    -0.432 C  
HETATM   15  N   UNL     1     -12.531  14.571  64.555  1.00  0.00    -0.647 N  
HETATM   16  C   UNL     1     -11.603  15.607  64.608  1.00  0.00    -0.249 C  
HETATM   17  H   UNL     1     -13.499  14.748  64.823  1.00  0.00     0.000 HD 
HETATM   18  O   UNL     1     -11.560  16.516  63.793  1.00  0.00    -1.109 OA 
HETATM   19  C   UNL     1     -10.738  15.622  65.818  1.00  0.00    -0.350 A  
HETATM   20  C   UNL     1     -10.232  14.400  66.298  1.00  0.00    -0.307 A  
HETATM   21  C   UNL     1      -9.561  14.346  67.509  1.00  0.00    -0.215 A  
HETATM   22  C   UNL     1      -9.274  15.514  68.231  1.00  0.00    -0.188 A  
HETATM   23  N   UNL     1      -9.328  13.015  67.766  1.00  0.00    -0.192 NA 
HETATM   24  H   UNL     1      -8.876  12.662  68.609  1.00  0.00     0.000 HD 
HETATM   25  C   UNL     1      -9.704  16.725  67.680  1.00  0.00    -0.251 A  
HETATM   26  C   UNL     1     -10.436  16.799  66.500  1.00  0.00    -0.258 A  
HETATM   27  F   UNL     1      -9.412  17.863  68.330  1.00  0.00    -0.262 F  
ENDBRANCH   8  11
ENDBRANCH   4   5
ENDBRANCH   2   4
TORSDOF 3
ENDMDL
MODEL       25
REMARK 921   NORMALIZED FREE ENERGY PREDICTED BY IDOCK:   -6.44 KCAL/MOL
REMARK 922        TOTAL FREE ENERGY PREDICTED BY IDOCK:   -7.96 KCAL/MOL
REMARK 923 INTER-LIGAND FREE ENERGY PREDICTED BY IDOCK:   -7.49 KCAL/MOL
REMARK 924 INTRA-LIGAND FREE ENERGY PREDICTED BY IDOCK:   -0.47 KCAL/MOL
REMARK 927      BINDING AFFINITY PREDICTED BY RF-SCORE:    0.00 PKD
ROOT
HETATM    1  C   UNL     1     -10.426   3.509  63.316  1.00  0.00    -0.235 C  
HETATM    2  N   UNL     1     -10.468   3.310  64.756  1.00  0.00    -0.406 NA 
HETATM    3  H   UNL     1     -10.578   2.324  64.997  1.00  0.00     0.000 HD 
ENDROOT
BRANCH   2   4
HETATM    4  C   UNL     1      -9.293   3.892  65.402  1.00  0.00    -0.159 C  
BRANCH   4   5
HETATM    5  C   UNL     1      -9.595   5.272  65.939  1.00  0.00    -0.142 A  
HETATM    6  C   UNL     1      -8.725   6.354  65.733  1.00  0.00    -0.135 A  
HETATM    7  C   UNL     1      -9.012   7.623  66.263  1.00  0.00    -0.203 A  
HETATM    8  C   UNL     1     -10.175   7.834  67.015  1.00  0.00    -0.375 A  
HETATM    9  C   UNL     1     -11.036   6.746  67.215  1.00  0.00    -0.433 A  
HETATM   10  C   UNL     1     -10.759   5.488  66.680  1.00  0.00    -0.332 A  
BRANCH   8  11
HETATM   11  C   UNL     1     -10.498   9.129  67.633  1.00  0.00    -0.261 A  
HETATM   12  C   UNL     1     -10.503  10.410  67.098  1.00  0.00    -0.311 A  
HETATM   13  C   UNL     1      -9.971  10.942  65.803  1.00  0.00    -0.299 C  
HETATM   14  C   UNL     1     -11.086  11.489  64.905  1.00  0.00    -0.215 C  
HETATM   15  N   UNL     1     -12.003  12.459  65.522  1.00  0.00    -0.423 N  
HETATM   16  C   UNL     1     -11.588  13.254  66.587  1.00  0.00    -0.365 C  
HETATM   17  H   UNL     1     -12.954  12.551  65.166  1.00  0.00     0.000 HD 
HETATM   18  O   UNL     1     -11.328  14.443  66.479  1.00  0.00    -0.331 OA 
HETATM   19  C   UNL     1     -11.615  12.594  67.920  1.00  0.00    -0.401 A  
HETATM   20  C   UNL     1     -11.174  11.262  68.019  1.00  0.00    -0.351 A  
HETATM   21  C   UNL     1     -11.334  10.557  69.201  1.00  0.00    -0.257 A  
HETATM   22  C   UNL     1     -11.834  11.179  70.354  1.00  0.00    -0.462 A  
HETATM   23  N   UNL     1     -10.948   9.263  68.938  1.00  0.00    -0.431 NA 
HETATM   24  H   UNL     1     -10.987   8.502  69.615  1.00  0.00     0.000 HD 
HETATM   25  C   UNL     1     -12.173  12.532  70.251  1.00  0.00    -0.267 A  
HETATM   26  C   UNL     1     -12.084  13.243  69.060  1.00  0.00    -0.268 A  
HETATM   27  F   UNL     1     -12.622  13.164  71.348  1.00  0.00    -0.423 F  
ENDBRANCH   8  11
ENDBRANCH   4   5
ENDBRANCH   2   4
TORSDOF 3
ENDMDL
MODEL       26
REMARK 921   NORMALIZED FREE ENERGY PREDICTED BY IDOCK:   -6.42 KCAL/MOL
REMARK 922        TOTAL FREE ENERGY PREDICTED BY IDOCK:   -7.93 KCAL/MOL
REMARK 923 INTER-LIGAND FREE ENERGY PREDICTED BY IDOCK:   -7.71 KCAL/MOL
REMARK 924 INTRA-LIGAND FREE ENERGY PREDICTED BY IDOCK:   -0.22 KCAL/MOL
REMARK 927      BINDING AFFINITY PREDICTED BY RF-SCORE:    0.00 PKD
ROOT
HETATM    1  C   UNL     1     -12.423  15.842  74.129  1.00  0.00    -0.655 C  
HETATM    2  N   UNL     1     -12.574  16.175  72.721  1.00  0.00    -0.457 NA 
HETATM    3  H   UNL     1     -11.706  16.028  72.205  1.00  0.00     0.000 HD 
ENDROOT
BRANCH   2   4
HETATM    4  C   UNL     1     -13.688  15.441  72.124  1.00  0.00    -0.515 C  
BRANCH   4   5
HETATM    5  C   UNL     1     -13.250  14.071  71.661  1.00  0.00    -0.442 A  
HETATM    6  C   UNL     1     -13.688  12.899  72.298  1.00  0.00    -0.553 A  
HETATM    7  C   UNL     1     -13.248  11.636  71.869  1.00  0.00    -0.475 A  
HETATM    8  C   UNL     1     -12.357  11.520  70.795  1.00  0.00    -0.472 A  
HETATM    9  C   UNL     1     -11.926  12.696  70.167  1.00  0.00    -0.375 A  
HETATM   10  C   UNL     1     -12.370  13.951  70.583  1.00  0.00    -0.451 A  
BRANCH   8  11
HETATM   11  C   UNL     1     -11.829  10.226  70.336  1.00  0.00    -0.309 A  
HETATM   12  C   UNL     1     -10.877   9.929  69.370  1.00  0.00    -0.265 A  
HETATM   13  C   UNL     1     -10.237  10.782  68.318  1.00  0.00    -0.187 C  
HETATM   14  C   UNL     1      -8.727  10.924  68.534  1.00  0.00    -0.153 C  
HETATM   15  N   UNL     1      -7.973   9.674  68.712  1.00  0.00    -0.087 N  
HETATM   16  C   UNL     1      -8.433   8.480  68.163  1.00  0.00    -0.134 C  
HETATM   17  H   UNL     1      -7.103   9.682  69.243  1.00  0.00     0.000 HD 
HETATM   18  O   UNL     1      -7.939   7.959  67.175  1.00  0.00    -0.113 OA 
HETATM   19  C   UNL     1      -9.491   7.789  68.947  1.00  0.00    -0.150 A  
HETATM   20  C   UNL     1     -10.514   8.562  69.525  1.00  0.00    -0.222 A  
HETATM   21  C   UNL     1     -11.423   7.983  70.396  1.00  0.00    -0.135 A  
HETATM   22  C   UNL     1     -11.418   6.602  70.636  1.00  0.00    -0.420 A  
HETATM   23  N   UNL     1     -12.189   9.010  70.897  1.00  0.00    -0.460 NA 
HETATM   24  H   UNL     1     -12.927   8.892  71.591  1.00  0.00     0.000 HD 
HETATM   25  C   UNL     1     -10.450   5.843  69.970  1.00  0.00    -0.266 A  
HETATM   26  C   UNL     1      -9.485   6.409  69.145  1.00  0.00    -0.137 A  
HETATM   27  F   UNL     1     -10.443   4.513  70.154  1.00  0.00    -0.283 F  
ENDBRANCH   8  11
ENDBRANCH   4   5
ENDBRANCH   2   4
TORSDOF 3
ENDMDL
MODEL       27
REMARK 921   NORMALIZED FREE ENERGY PREDICTED BY IDOCK:   -6.41 KCAL/MOL
REMARK 922        TOTAL FREE ENERGY PREDICTED BY IDOCK:   -7.92 KCAL/MOL
REMARK 923 INTER-LIGAND FREE ENERGY PREDICTED BY IDOCK:   -7.73 KCAL/MOL
REMARK 924 INTRA-LIGAND FREE ENERGY PREDICTED BY IDOCK:   -0.18 KCAL/MOL
REMARK 927      BINDING AFFINITY PREDICTED BY RF-SCORE:    0.00 PKD
ROOT
HETATM    1  C   UNL     1     -12.215  14.423  64.115  1.00  0.00    -0.363 C  
HETATM    2  N   UNL     1     -12.920  13.955  65.298  1.00  0.00    -0.774 NA 
HETATM    3  H   UNL     1     -13.226  12.987  65.194  1.00  0.00     0.000 HD 
ENDROOT
BRANCH   2   4
HETATM    4  C   UNL     1     -12.107  14.136  66.500  1.00  0.00    -0.454 C  
BRANCH   4   5
HETATM    5  C   UNL     1     -11.676  12.805  67.071  1.00  0.00    -0.440 A  
HETATM    6  C   UNL     1     -11.069  11.819  66.278  1.00  0.00    -0.364 A  
HETATM    7  C   UNL     1     -10.700  10.578  66.823  1.00  0.00    -0.252 A  
HETATM    8  C   UNL     1     -10.935  10.297  68.174  1.00  0.00    -0.328 A  
HETATM    9  C   UNL     1     -11.542  11.287  68.957  1.00  0.00    -0.386 A  
HETATM   10  C   UNL     1     -11.900  12.525  68.421  1.00  0.00    -0.353 A  
BRANCH   8  11
HETATM   11  C   UNL     1     -10.613   8.997  68.783  1.00  0.00    -0.169 A  
HETATM   12  C   UNL     1     -10.650   8.586  70.109  1.00  0.00    -0.238 A  
HETATM   13  C   UNL     1     -10.803   9.362  71.381  1.00  0.00    -0.430 C  
HETATM   14  C   UNL     1     -12.091   8.996  72.126  1.00  0.00    -0.342 C  
HETATM   15  N   UNL     1     -12.320   7.563  72.366  1.00  0.00    -0.519 N  
HETATM   16  C   UNL     1     -11.251   6.676  72.458  1.00  0.00    -0.266 C  
HETATM   17  H   UNL     1     -13.273   7.215  72.468  1.00  0.00     0.000 HD 
HETATM   18  O   UNL     1     -10.860   6.199  73.513  1.00  0.00    -0.258 OA 
HETATM   19  C   UNL     1     -10.688   6.224  71.158  1.00  0.00    -0.301 A  
HETATM   20  C   UNL     1     -10.537   7.168  70.126  1.00  0.00    -0.247 A  
HETATM   21  C   UNL     1     -10.174   6.761  68.851  1.00  0.00    -0.175 A  
HETATM   22  C   UNL     1      -9.843   5.425  68.584  1.00  0.00    -0.204 A  
HETATM   23  N   UNL     1     -10.255   7.876  68.050  1.00  0.00    -0.200 NA 
HETATM   24  H   UNL     1     -10.074   7.878  67.046  1.00  0.00     0.000 HD 
HETATM   25  C   UNL     1      -9.907   4.527  69.654  1.00  0.00    -0.218 A  
HETATM   26  C   UNL     1     -10.333   4.896  70.925  1.00  0.00    -0.225 A  
HETATM   27  F   UNL     1      -9.562   3.248  69.436  1.00  0.00    -0.229 F  
ENDBRANCH   8  11
ENDBRANCH   4   5
ENDBRANCH   2   4
TORSDOF 3
ENDMDL
MODEL       28
REMARK 921   NORMALIZED FREE ENERGY PREDICTED BY IDOCK:   -6.35 KCAL/MOL
REMARK 922        TOTAL FREE ENERGY PREDICTED BY IDOCK:   -7.85 KCAL/MOL
REMARK 923 INTER-LIGAND FREE ENERGY PREDICTED BY IDOCK:   -7.35 KCAL/MOL
REMARK 924 INTRA-LIGAND FREE ENERGY PREDICTED BY IDOCK:   -0.50 KCAL/MOL
REMARK 927      BINDING AFFINITY PREDICTED BY RF-SCORE:    0.00 PKD
ROOT
HETATM    1  C   UNL     1     -11.593   6.643  70.238  1.00  0.00    -0.395 C  
HETATM    2  N   UNL     1     -11.409   6.423  68.812  1.00  0.00    -0.571 NA 
HETATM    3  H   UNL     1     -12.125   6.898  68.262  1.00  0.00     0.000 HD 
ENDROOT
BRANCH   2   4
HETATM    4  C   UNL     1     -10.063   6.809  68.390  1.00  0.00    -0.162 C  
BRANCH   4   5
HETATM    5  C   UNL     1      -9.948   8.308  68.241  1.00  0.00    -0.217 A  
HETATM    6  C   UNL     1      -8.908   9.034  68.842  1.00  0.00    -0.139 A  
HETATM    7  C   UNL     1      -8.834  10.431  68.713  1.00  0.00    -0.157 A  
HETATM    8  C   UNL     1      -9.803  11.131  67.983  1.00  0.00    -0.185 A  
HETATM    9  C   UNL     1     -10.837  10.395  67.388  1.00  0.00    -0.344 A  
HETATM   10  C   UNL     1     -10.907   9.007  67.505  1.00  0.00    -0.130 A  
BRANCH   8  11
HETATM   11  C   UNL     1      -9.799  12.596  67.857  1.00  0.00    -0.218 A  
HETATM   12  C   UNL     1     -10.014  13.409  66.752  1.00  0.00    -0.264 A  
HETATM   13  C   UNL     1     -10.092  13.091  65.290  1.00  0.00    -0.247 C  
HETATM   14  C   UNL     1     -11.477  13.395  64.710  1.00  0.00    -0.336 C  
HETATM   15  N   UNL     1     -12.014  14.739  64.974  1.00  0.00    -0.349 N  
HETATM   16  C   UNL     1     -11.160  15.816  65.196  1.00  0.00    -0.324 C  
HETATM   17  H   UNL     1     -13.023  14.884  64.993  1.00  0.00     0.000 HD 
HETATM   18  O   UNL     1     -10.952  16.692  64.370  1.00  0.00    -0.924 OA 
HETATM   19  C   UNL     1     -10.613  15.917  66.575  1.00  0.00    -0.297 A  
HETATM   20  C   UNL     1     -10.198  14.739  67.222  1.00  0.00    -0.241 A  
HETATM   21  C   UNL     1      -9.838  14.764  68.561  1.00  0.00    -0.218 A  
HETATM   22  C   UNL     1      -9.771  15.971  69.271  1.00  0.00    -0.257 A  
HETATM   23  N   UNL     1      -9.630  13.456  68.932  1.00  0.00    -0.407 NA 
HETATM   24  H   UNL     1      -9.383  13.158  69.875  1.00  0.00     0.000 HD 
HETATM   25  C   UNL     1     -10.096  17.139  68.573  1.00  0.00    -0.329 A  
HETATM   26  C   UNL     1     -10.524  17.134  67.250  1.00  0.00    -0.313 A  
HETATM   27  F   UNL     1     -10.007  18.314  69.217  1.00  0.00    -0.330 F  
ENDBRANCH   8  11
ENDBRANCH   4   5
ENDBRANCH   2   4
TORSDOF 3
ENDMDL
MODEL       29
REMARK 921   NORMALIZED FREE ENERGY PREDICTED BY IDOCK:   -6.32 KCAL/MOL
REMARK 922        TOTAL FREE ENERGY PREDICTED BY IDOCK:   -7.82 KCAL/MOL
REMARK 923 INTER-LIGAND FREE ENERGY PREDICTED BY IDOCK:   -7.38 KCAL/MOL
REMARK 924 INTRA-LIGAND FREE ENERGY PREDICTED BY IDOCK:   -0.44 KCAL/MOL
REMARK 927      BINDING AFFINITY PREDICTED BY RF-SCORE:    0.00 PKD
ROOT
HETATM    1  C   UNL     1     -12.193  16.116  74.462  1.00  0.00    -0.425 C  
HETATM    2  N   UNL     1     -13.084  15.132  73.867  1.00  0.00    -0.581 NA 
HETATM    3  H   UNL     1     -13.830  14.864  74.508  1.00  0.00     0.000 HD 
ENDROOT
BRANCH   2   4
HETATM    4  C   UNL     1     -13.615  15.609  72.591  1.00  0.00    -0.579 C  
BRANCH   4   5
HETATM    5  C   UNL     1     -13.045  14.820  71.435  1.00  0.00    -0.424 A  
HETATM    6  C   UNL     1     -12.774  13.446  71.538  1.00  0.00    -0.386 A  
HETATM    7  C   UNL     1     -12.219  12.737  70.460  1.00  0.00    -0.389 A  
HETATM    8  C   UNL     1     -11.920  13.390  69.257  1.00  0.00    -0.367 A  
HETATM    9  C   UNL     1     -12.194  14.761  69.166  1.00  0.00    -0.208 A  
HETATM   10  C   UNL     1     -12.755  15.466  70.231  1.00  0.00    -0.338 A  
BRANCH   8  11
HETATM   11  C   UNL     1     -11.294  12.705  68.116  1.00  0.00    -0.290 A  
HETATM   12  C   UNL     1     -10.393  11.650  68.077  1.00  0.00    -0.208 A  
HETATM   13  C   UNL     1      -9.580  11.004  69.157  1.00  0.00    -0.081 C  
HETATM   14  C   UNL     1      -9.972   9.537  69.371  1.00  0.00    -0.191 C  
HETATM   15  N   UNL     1     -10.000   8.689  68.171  1.00  0.00    -0.171 N  
HETATM   16  C   UNL     1      -9.203   8.986  67.069  1.00  0.00    -0.136 C  
HETATM   17  H   UNL     1     -10.610   7.872  68.145  1.00  0.00     0.000 HD 
HETATM   18  O   UNL     1      -8.193   8.362  66.779  1.00  0.00    -0.100 OA 
HETATM   19  C   UNL     1      -9.738  10.039  66.165  1.00  0.00    -0.286 A  
HETATM   20  C   UNL     1     -10.338  11.175  66.737  1.00  0.00    -0.284 A  
HETATM   21  C   UNL     1     -10.994  12.099  65.938  1.00  0.00    -0.292 A  
HETATM   22  C   UNL     1     -10.983  11.986  64.541  1.00  0.00    -0.369 A  
HETATM   23  N   UNL     1     -11.589  12.998  66.792  1.00  0.00    -0.348 NA 
HETATM   24  H   UNL     1     -12.172  13.778  66.492  1.00  0.00     0.000 HD 
HETATM   25  C   UNL     1     -10.295  10.897  63.995  1.00  0.00    -0.349 A  
HETATM   26  C   UNL     1      -9.686   9.921  64.777  1.00  0.00    -0.305 A  
HETATM   27  F   UNL     1     -10.238  10.781  62.659  1.00  0.00    -0.267 F  
ENDBRANCH   8  11
ENDBRANCH   4   5
ENDBRANCH   2   4
TORSDOF 3
ENDMDL
MODEL       30
REMARK 921   NORMALIZED FREE ENERGY PREDICTED BY IDOCK:   -6.31 KCAL/MOL
REMARK 922        TOTAL FREE ENERGY PREDICTED BY IDOCK:   -7.80 KCAL/MOL
REMARK 923 INTER-LIGAND FREE ENERGY PREDICTED BY IDOCK:   -7.45 KCAL/MOL
REMARK 924 INTRA-LIGAND FREE ENERGY PREDICTED BY IDOCK:   -0.35 KCAL/MOL
REMARK 927      BINDING AFFINITY PREDICTED BY RF-SCORE:    0.00 PKD
ROOT
HETATM    1  C   UNL     1     -10.593   5.376  73.376  1.00  0.00    -0.258 C  
HETATM    2  N   UNL     1     -11.361   6.610  73.312  1.00  0.00    -0.470 NA 
HETATM    3  H   UNL     1     -12.041   6.669  74.070  1.00  0.00     0.000 HD 
ENDROOT
BRANCH   2   4
HETATM    4  C   UNL     1     -10.480   7.776  73.287  1.00  0.00    -0.294 C  
BRANCH   4   5
HETATM    5  C   UNL     1     -10.557   8.489  71.957  1.00  0.00    -0.408 A  
HETATM    6  C   UNL     1     -11.535   9.461  71.693  1.00  0.00    -0.463 A  
HETATM    7  C   UNL     1     -11.606  10.093  70.440  1.00  0.00    -0.396 A  
HETATM    8  C   UNL     1     -10.702   9.761  69.424  1.00  0.00    -0.250 A  
HETATM    9  C   UNL     1      -9.730   8.789  69.698  1.00  0.00    -0.173 A  
HETATM   10  C   UNL     1      -9.650   8.168  70.945  1.00  0.00    -0.187 A  
BRANCH   8  11
HETATM   11  C   UNL     1     -10.763  10.357  68.080  1.00  0.00    -0.236 A  
HETATM   12  C   UNL     1     -11.161  11.622  67.669  1.00  0.00    -0.345 A  
HETATM   13  C   UNL     1     -11.871  12.721  68.400  1.00  0.00    -0.353 C  
HETATM   14  C   UNL     1     -11.002  13.976  68.534  1.00  0.00    -0.256 C  
HETATM   15  N   UNL     1     -10.399  14.487  67.294  1.00  0.00    -0.259 N  
HETATM   16  C   UNL     1     -10.998  14.251  66.060  1.00  0.00    -0.312 C  
HETATM   17  H   UNL     1      -9.532  15.022  67.338  1.00  0.00     0.000 HD 
HETATM   18  O   UNL     1     -11.607  15.104  65.432  1.00  0.00    -0.288 OA 
HETATM   19  C   UNL     1     -10.731  12.911  65.471  1.00  0.00    -0.301 A  
HETATM   20  C   UNL     1     -10.747  11.789  66.318  1.00  0.00    -0.312 A  
HETATM   21  C   UNL     1     -10.344  10.549  65.848  1.00  0.00    -0.206 A  
HETATM   22  C   UNL     1     -10.016  10.358  64.498  1.00  0.00    -0.401 A  
HETATM   23  N   UNL     1     -10.332   9.706  66.934  1.00  0.00    -0.245 NA 
HETATM   24  H   UNL     1     -10.044   8.729  66.901  1.00  0.00     0.000 HD 
HETATM   25  C   UNL     1     -10.104  11.473  63.657  1.00  0.00    -0.388 A  
HETATM   26  C   UNL     1     -10.441  12.741  64.118  1.00  0.00    -0.437 A  
HETATM   27  F   UNL     1      -9.830  11.313  62.353  1.00  0.00    -0.216 F  
ENDBRANCH   8  11
ENDBRANCH   4   5
ENDBRANCH   2   4
TORSDOF 3
ENDMDL
MODEL       31
REMARK 921   NORMALIZED FREE ENERGY PREDICTED BY IDOCK:   -6.27 KCAL/MOL
REMARK 922        TOTAL FREE ENERGY PREDICTED BY IDOCK:   -7.76 KCAL/MOL
REMARK 923 INTER-LIGAND FREE ENERGY PREDICTED BY IDOCK:   -7.49 KCAL/MOL
REMARK 924 INTRA-LIGAND FREE ENERGY PREDICTED BY IDOCK:   -0.27 KCAL/MOL
REMARK 927      BINDING AFFINITY PREDICTED BY RF-SCORE:    0.00 PKD
ROOT
HETATM    1  C   UNL     1     -11.134  16.338  68.747  1.00  0.00    -0.355 C  
HETATM    2  N   UNL     1     -12.257  15.441  68.527  1.00  0.00    -0.536 NA 
HETATM    3  H   UNL     1     -13.131  15.954  68.410  1.00  0.00     0.000 HD 
ENDROOT
BRANCH   2   4
HETATM    4  C   UNL     1     -12.003  14.548  67.398  1.00  0.00    -0.335 C  
BRANCH   4   5
HETATM    5  C   UNL     1     -11.719  13.141  67.870  1.00  0.00    -0.398 A  
HETATM    6  C   UNL     1     -11.824  12.777  69.221  1.00  0.00    -0.358 A  
HETATM    7  C   UNL     1     -11.530  11.470  69.643  1.00  0.00    -0.373 A  
HETATM    8  C   UNL     1     -11.120  10.500  68.720  1.00  0.00    -0.315 A  
HETATM    9  C   UNL     1     -11.018  10.874  67.373  1.00  0.00    -0.353 A  
HETATM   10  C   UNL     1     -11.321  12.168  66.950  1.00  0.00    -0.402 A  
BRANCH   8  11
HETATM   11  C   UNL     1     -10.754   9.131  69.115  1.00  0.00    -0.172 A  
HETATM   12  C   UNL     1     -10.895   8.471  70.329  1.00  0.00    -0.249 A  
HETATM   13  C   UNL     1     -11.247   8.978  71.694  1.00  0.00    -0.431 C  
HETATM   14  C   UNL     1     -12.570   8.394  72.200  1.00  0.00    -0.364 C  
HETATM   15  N   UNL     1     -12.701   6.930  72.144  1.00  0.00    -0.542 N  
HETATM   16  C   UNL     1     -11.576   6.112  72.199  1.00  0.00    -0.317 C  
HETATM   17  H   UNL     1     -13.626   6.509  72.065  1.00  0.00     0.000 HD 
HETATM   18  O   UNL     1     -11.259   5.467  73.188  1.00  0.00    -0.286 OA 
HETATM   19  C   UNL     1     -10.843   5.955  70.914  1.00  0.00    -0.347 A  
HETATM   20  C   UNL     1     -10.665   7.086  70.099  1.00  0.00    -0.265 A  
HETATM   21  C   UNL     1     -10.136   6.956  68.824  1.00  0.00    -0.166 A  
HETATM   22  C   UNL     1      -9.666   5.720  68.358  1.00  0.00    -0.161 A  
HETATM   23  N   UNL     1     -10.226   8.196  68.236  1.00  0.00    -0.202 NA 
HETATM   24  H   UNL     1      -9.942   8.402  67.279  1.00  0.00     0.000 HD 
HETATM   25  C   UNL     1      -9.766   4.630  69.229  1.00  0.00    -0.196 A  
HETATM   26  C   UNL     1     -10.353   4.722  70.486  1.00  0.00    -0.187 A  
HETATM   27  F   UNL     1      -9.292   3.442  68.824  1.00  0.00    -0.180 F  
ENDBRANCH   8  11
ENDBRANCH   4   5
ENDBRANCH   2   4
TORSDOF 3
ENDMDL
MODEL       32
REMARK 921   NORMALIZED FREE ENERGY PREDICTED BY IDOCK:   -6.24 KCAL/MOL
REMARK 922        TOTAL FREE ENERGY PREDICTED BY IDOCK:   -7.72 KCAL/MOL
REMARK 923 INTER-LIGAND FREE ENERGY PREDICTED BY IDOCK:   -7.18 KCAL/MOL
REMARK 924 INTRA-LIGAND FREE ENERGY PREDICTED BY IDOCK:   -0.55 KCAL/MOL
REMARK 927      BINDING AFFINITY PREDICTED BY RF-SCORE:    0.00 PKD
ROOT
HETATM    1  C   UNL     1      -9.931   3.762  64.714  1.00  0.00    -0.187 C  
HETATM    2  N   UNL     1     -10.457   4.314  65.953  1.00  0.00    -0.472 NA 
HETATM    3  H   UNL     1     -10.912   3.598  66.520  1.00  0.00     0.000 HD 
ENDROOT
BRANCH   2   4
HETATM    4  C   UNL     1      -9.414   5.012  66.702  1.00  0.00    -0.146 C  
BRANCH   4   5
HETATM    5  C   UNL     1      -9.629   6.508  66.668  1.00  0.00    -0.201 A  
HETATM    6  C   UNL     1      -8.782   7.362  65.946  1.00  0.00    -0.161 A  
HETATM    7  C   UNL     1      -8.983   8.752  65.950  1.00  0.00    -0.240 A  
HETATM    8  C   UNL     1     -10.036   9.317  66.681  1.00  0.00    -0.333 A  
HETATM    9  C   UNL     1     -10.876   8.454  67.399  1.00  0.00    -0.091 A  
HETATM   10  C   UNL     1     -10.685   7.072  67.388  1.00  0.00    -0.383 A  
BRANCH   8  11
HETATM   11  C   UNL     1     -10.262  10.768  66.758  1.00  0.00    -0.230 A  
HETATM   12  C   UNL     1     -10.700  11.667  65.795  1.00  0.00    -0.331 A  
HETATM   13  C   UNL     1     -10.869  11.524  64.313  1.00  0.00    -0.421 C  
HETATM   14  C   UNL     1     -12.333  11.673  63.886  1.00  0.00    -0.141 C  
HETATM   15  N   UNL     1     -13.036  12.870  64.371  1.00  0.00    -0.710 N  
HETATM   16  C   UNL     1     -12.334  14.034  64.675  1.00  0.00    -0.397 C  
HETATM   17  H   UNL     1     -14.049  12.848  64.486  1.00  0.00     0.000 HD 
HETATM   18  O   UNL     1     -12.338  15.028  63.964  1.00  0.00    -0.706 OA 
HETATM   19  C   UNL     1     -11.680  14.049  66.010  1.00  0.00    -0.378 A  
HETATM   20  C   UNL     1     -11.034  12.882  66.456  1.00  0.00    -0.300 A  
HETATM   21  C   UNL     1     -10.555  12.798  67.754  1.00  0.00    -0.221 A  
HETATM   22  C   UNL     1     -10.602  13.902  68.616  1.00  0.00    -0.265 A  
HETATM   23  N   UNL     1     -10.121  11.504  67.925  1.00  0.00    -0.184 NA 
HETATM   24  H   UNL     1      -9.743  11.134  68.797  1.00  0.00     0.000 HD 
HETATM   25  C   UNL     1     -11.161  15.081  68.112  1.00  0.00    -0.308 A  
HETATM   26  C   UNL     1     -11.708  15.171  66.837  1.00  0.00    -0.093 A  
HETATM   27  F   UNL     1     -11.187  16.165  68.903  1.00  0.00    -0.278 F  
ENDBRANCH   8  11
ENDBRANCH   4   5
ENDBRANCH   2   4
TORSDOF 3
ENDMDL
MODEL       33
REMARK 921   NORMALIZED FREE ENERGY PREDICTED BY IDOCK:   -6.21 KCAL/MOL
REMARK 922        TOTAL FREE ENERGY PREDICTED BY IDOCK:   -7.69 KCAL/MOL
REMARK 923 INTER-LIGAND FREE ENERGY PREDICTED BY IDOCK:   -7.33 KCAL/MOL
REMARK 924 INTRA-LIGAND FREE ENERGY PREDICTED BY IDOCK:   -0.36 KCAL/MOL
REMARK 927      BINDING AFFINITY PREDICTED BY RF-SCORE:    0.00 PKD
ROOT
HETATM    1  C   UNL     1     -12.972  14.945  71.763  1.00  0.00    -0.336 C  
HETATM    2  N   UNL     1     -11.878  14.161  71.211  1.00  0.00    -0.461 NA 
HETATM    3  H   UNL     1     -11.402  13.619  71.933  1.00  0.00     0.000 HD 
ENDROOT
BRANCH   2   4
HETATM    4  C   UNL     1     -12.340  13.309  70.117  1.00  0.00    -0.236 C  
BRANCH   4   5
HETATM    5  C   UNL     1     -12.180  11.846  70.460  1.00  0.00    -0.426 A  
HETATM    6  C   UNL     1     -12.870  11.256  71.530  1.00  0.00    -0.519 A  
HETATM    7  C   UNL     1     -12.686   9.900  71.849  1.00  0.00    -0.501 A  
HETATM    8  C   UNL     1     -11.803   9.108  71.105  1.00  0.00    -0.374 A  
HETATM    9  C   UNL     1     -11.119   9.708  70.039  1.00  0.00    -0.293 A  
HETATM   10  C   UNL     1     -11.308  11.051  69.713  1.00  0.00    -0.366 A  
BRANCH   8  11
HETATM   11  C   UNL     1     -11.537   7.697  71.426  1.00  0.00    -0.274 A  
HETATM   12  C   UNL     1     -11.167   6.638  70.608  1.00  0.00    -0.370 A  
HETATM   13  C   UNL     1     -11.134   6.506  69.116  1.00  0.00    -0.387 C  
HETATM   14  C   UNL     1      -9.712   6.289  68.590  1.00  0.00    -0.127 C  
HETATM   15  N   UNL     1      -8.941   5.206  69.220  1.00  0.00    -0.098 N  
HETATM   16  C   UNL     1      -9.586   4.115  69.796  1.00  0.00    -0.211 C  
HETATM   17  H   UNL     1      -7.923   5.255  69.235  1.00  0.00     0.000 HD 
HETATM   18  O   UNL     1      -9.623   3.007  69.282  1.00  0.00    -0.143 OA 
HETATM   19  C   UNL     1     -10.118   4.343  71.166  1.00  0.00    -0.196 A  
HETATM   20  C   UNL     1     -10.748   5.569  71.447  1.00  0.00    -0.290 A  
HETATM   21  C   UNL     1     -11.110   5.889  72.746  1.00  0.00    -0.281 A  
HETATM   22  C   UNL     1     -10.961   4.963  73.789  1.00  0.00    -0.361 A  
HETATM   23  N   UNL     1     -11.557   7.189  72.716  1.00  0.00    -0.522 NA 
HETATM   24  H   UNL     1     -11.863   7.712  73.536  1.00  0.00     0.000 HD 
HETATM   25  C   UNL     1     -10.422   3.715  73.460  1.00  0.00    -0.179 A  
HETATM   26  C   UNL     1      -9.990   3.394  72.178  1.00  0.00    -0.230 A  
HETATM   27  F   UNL     1     -10.301   2.795  74.431  1.00  0.00    -0.152 F  
ENDBRANCH   8  11
ENDBRANCH   4   5
ENDBRANCH   2   4
TORSDOF 3
ENDMDL
MODEL       34
REMARK 921   NORMALIZED FREE ENERGY PREDICTED BY IDOCK:   -6.21 KCAL/MOL
REMARK 922        TOTAL FREE ENERGY PREDICTED BY IDOCK:   -7.68 KCAL/MOL
REMARK 923 INTER-LIGAND FREE ENERGY PREDICTED BY IDOCK:   -7.24 KCAL/MOL
REMARK 924 INTRA-LIGAND FREE ENERGY PREDICTED BY IDOCK:   -0.45 KCAL/MOL
REMARK 927      BINDING AFFINITY PREDICTED BY RF-SCORE:    0.00 PKD
ROOT
HETATM    1  C   UNL     1     -10.706   3.838  73.628  1.00  0.00    -0.223 C  
HETATM    2  N   UNL     1     -11.378   5.126  73.696  1.00  0.00    -0.429 NA 
HETATM    3  H   UNL     1     -12.126   5.124  74.391  1.00  0.00     0.000 HD 
ENDROOT
BRANCH   2   4
HETATM    4  C   UNL     1     -10.422   6.206  73.938  1.00  0.00    -0.275 C  
BRANCH   4   5
HETATM    5  C   UNL     1     -10.652   7.359  72.989  1.00  0.00    -0.392 A  
HETATM    6  C   UNL     1      -9.587   8.051  72.392  1.00  0.00    -0.297 A  
HETATM    7  C   UNL     1      -9.822   9.137  71.533  1.00  0.00    -0.335 A  
HETATM    8  C   UNL     1     -11.129   9.556  71.257  1.00  0.00    -0.449 A  
HETATM    9  C   UNL     1     -12.185   8.858  71.858  1.00  0.00    -0.445 A  
HETATM   10  C   UNL     1     -11.955   7.772  72.703  1.00  0.00    -0.257 A  
BRANCH   8  11
HETATM   11  C   UNL     1     -11.429  10.716  70.403  1.00  0.00    -0.334 A  
HETATM   12  C   UNL     1     -12.133  11.881  70.676  1.00  0.00    -0.389 A  
HETATM   13  C   UNL     1     -13.013  12.258  71.829  1.00  0.00    -0.431 C  
HETATM   14  C   UNL     1     -12.441  13.435  72.626  1.00  0.00     0.508 C  
HETATM   15  N   UNL     1     -12.069  14.628  71.851  1.00  0.00    -0.332 N  
HETATM   16  C   UNL     1     -12.696  14.916  70.641  1.00  0.00    -0.367 C  
HETATM   17  H   UNL     1     -11.344  15.253  72.203  1.00  0.00     0.000 HD 
HETATM   18  O   UNL     1     -13.529  15.800  70.507  1.00  0.00    -0.366 OA 
HETATM   19  C   UNL     1     -12.181  14.164  69.466  1.00  0.00    -0.351 A  
HETATM   20  C   UNL     1     -11.877  12.800  69.620  1.00  0.00    -0.384 A  
HETATM   21  C   UNL     1     -11.242  12.103  68.604  1.00  0.00    -0.269 A  
HETATM   22  C   UNL     1     -10.988  12.704  67.363  1.00  0.00    -0.289 A  
HETATM   23  N   UNL     1     -10.954  10.856  69.107  1.00  0.00    -0.221 NA 
HETATM   24  H   UNL     1     -10.457  10.129  68.595  1.00  0.00     0.000 HD 
HETATM   25  C   UNL     1     -11.391  14.034  67.205  1.00  0.00    -0.331 A  
HETATM   26  C   UNL     1     -11.968  14.775  68.231  1.00  0.00    -0.258 A  
HETATM   27  F   UNL     1     -11.193  14.625  66.015  1.00  0.00    -0.320 F  
ENDBRANCH   8  11
ENDBRANCH   4   5
ENDBRANCH   2   4
TORSDOF 3
ENDMDL
MODEL       35
REMARK 921   NORMALIZED FREE ENERGY PREDICTED BY IDOCK:   -6.18 KCAL/MOL
REMARK 922        TOTAL FREE ENERGY PREDICTED BY IDOCK:   -7.64 KCAL/MOL
REMARK 923 INTER-LIGAND FREE ENERGY PREDICTED BY IDOCK:   -7.10 KCAL/MOL
REMARK 924 INTRA-LIGAND FREE ENERGY PREDICTED BY IDOCK:   -0.55 KCAL/MOL
REMARK 927      BINDING AFFINITY PREDICTED BY RF-SCORE:    0.00 PKD
ROOT
HETATM    1  C   UNL     1     -10.393  18.529  66.090  1.00  0.00    -0.426 C  
HETATM    2  N   UNL     1      -9.799  17.261  65.698  1.00  0.00    -0.551 NA 
HETATM    3  H   UNL     1      -9.248  16.854  66.454  1.00  0.00     0.000 HD 
ENDROOT
BRANCH   2   4
HETATM    4  C   UNL     1     -10.817  16.331  65.212  1.00  0.00    -0.297 C  
BRANCH   4   5
HETATM    5  C   UNL     1     -10.930  15.126  66.116  1.00  0.00    -0.331 A  
HETATM    6  C   UNL     1     -10.080  14.944  67.218  1.00  0.00    -0.235 A  
HETATM    7  C   UNL     1     -10.184  13.803  68.031  1.00  0.00    -0.248 A  
HETATM    8  C   UNL     1     -11.140  12.818  67.754  1.00  0.00    -0.289 A  
HETATM    9  C   UNL     1     -11.983  13.010  66.652  1.00  0.00    -0.453 A  
HETATM   10  C   UNL     1     -11.889  14.147  65.849  1.00  0.00    -0.391 A  
BRANCH   8  11
HETATM   11  C   UNL     1     -11.260  11.583  68.544  1.00  0.00    -0.258 A  
HETATM   12  C   UNL     1     -10.849  10.287  68.263  1.00  0.00    -0.300 A  
HETATM   13  C   UNL     1     -10.360   9.658  66.994  1.00  0.00    -0.315 C  
HETATM   14  C   UNL     1      -8.910   9.176  67.114  1.00  0.00    -0.119 C  
HETATM   15  N   UNL     1      -8.601   8.318  68.267  1.00  0.00    -0.132 N  
HETATM   16  C   UNL     1      -9.588   7.532  68.855  1.00  0.00    -0.149 C  
HETATM   17  H   UNL     1      -7.652   8.297  68.639  1.00  0.00     0.000 HD 
HETATM   18  O   UNL     1      -9.663   6.321  68.709  1.00  0.00    -0.127 OA 
HETATM   19  C   UNL     1     -10.483   8.245  69.805  1.00  0.00    -0.220 A  
HETATM   20  C   UNL     1     -10.930   9.535  69.469  1.00  0.00    -0.217 A  
HETATM   21  C   UNL     1     -11.627  10.299  70.392  1.00  0.00    -0.328 A  
HETATM   22  C   UNL     1     -11.999   9.771  71.636  1.00  0.00    -0.454 A  
HETATM   23  N   UNL     1     -11.791  11.541  69.825  1.00  0.00    -0.329 NA 
HETATM   24  H   UNL     1     -12.243  12.330  70.286  1.00  0.00     0.000 HD 
HETATM   25  C   UNL     1     -11.625   8.450  71.904  1.00  0.00    -0.329 A  
HETATM   26  C   UNL     1     -10.869   7.686  71.023  1.00  0.00    -0.255 A  
HETATM   27  F   UNL     1     -11.998   7.905  73.074  1.00  0.00    -0.344 F  
ENDBRANCH   8  11
ENDBRANCH   4   5
ENDBRANCH   2   4
TORSDOF 3
ENDMDL
MODEL       36
REMARK 921   NORMALIZED FREE ENERGY PREDICTED BY IDOCK:   -6.15 KCAL/MOL
REMARK 922        TOTAL FREE ENERGY PREDICTED BY IDOCK:   -7.62 KCAL/MOL
REMARK 923 INTER-LIGAND FREE ENERGY PREDICTED BY IDOCK:   -7.35 KCAL/MOL
REMARK 924 INTRA-LIGAND FREE ENERGY PREDICTED BY IDOCK:   -0.27 KCAL/MOL
REMARK 927      BINDING AFFINITY PREDICTED BY RF-SCORE:    0.00 PKD
ROOT
HETATM    1  C   UNL     1     -12.216  12.503  63.521  1.00  0.00    -0.558 C  
HETATM    2  N   UNL     1     -13.114  12.657  64.654  1.00  0.00    -0.848 NA 
HETATM    3  H   UNL     1     -13.398  11.754  65.035  1.00  0.00     0.000 HD 
ENDROOT
BRANCH   2   4
HETATM    4  C   UNL     1     -12.523  13.513  65.681  1.00  0.00    -0.479 C  
BRANCH   4   5
HETATM    5  C   UNL     1     -11.910  12.689  66.789  1.00  0.00    -0.440 A  
HETATM    6  C   UNL     1     -12.036  13.051  68.139  1.00  0.00    -0.322 A  
HETATM    7  C   UNL     1     -11.435  12.286  69.153  1.00  0.00    -0.352 A  
HETATM    8  C   UNL     1     -10.693  11.142  68.834  1.00  0.00    -0.246 A  
HETATM    9  C   UNL     1     -10.573  10.789  67.484  1.00  0.00    -0.280 A  
HETATM   10  C   UNL     1     -11.178  11.541  66.476  1.00  0.00    -0.324 A  
BRANCH   8  11
HETATM   11  C   UNL     1     -10.005  10.332  69.852  1.00  0.00    -0.135 A  
HETATM   12  C   UNL     1     -10.511   9.584  70.906  1.00  0.00    -0.382 A  
HETATM   13  C   UNL     1     -11.882   9.525  71.508  1.00  0.00    -0.478 C  
HETATM   14  C   UNL     1     -12.520   8.141  71.345  1.00  0.00    -0.292 C  
HETATM   15  N   UNL     1     -11.713   6.995  71.788  1.00  0.00    -0.283 N  
HETATM   16  C   UNL     1     -10.748   7.143  72.780  1.00  0.00    -0.288 C  
HETATM   17  H   UNL     1     -11.863   6.079  71.364  1.00  0.00     0.000 HD 
HETATM   18  O   UNL     1     -10.893   6.744  73.926  1.00  0.00    -0.228 OA 
HETATM   19  C   UNL     1      -9.448   7.701  72.321  1.00  0.00    -0.209 A  
HETATM   20  C   UNL     1      -9.459   8.761  71.397  1.00  0.00    -0.330 A  
HETATM   21  C   UNL     1      -8.279   9.200  70.820  1.00  0.00    -0.190 A  
HETATM   22  C   UNL     1      -7.039   8.680  71.218  1.00  0.00    -0.086 A  
HETATM   23  N   UNL     1      -8.633  10.128  69.868  1.00  0.00    -0.364 NA 
HETATM   24  H   UNL     1      -7.973  10.604  69.254  1.00  0.00     0.000 HD 
HETATM   25  C   UNL     1      -7.052   7.695  72.211  1.00  0.00    -0.071 A  
HETATM   26  C   UNL     1      -8.227   7.190  72.758  1.00  0.00    -0.121 A  
HETATM   27  F   UNL     1      -5.878   7.202  72.638  1.00  0.00    -0.040 F  
ENDBRANCH   8  11
ENDBRANCH   4   5
ENDBRANCH   2   4
TORSDOF 3
ENDMDL
MODEL       37
REMARK 921   NORMALIZED FREE ENERGY PREDICTED BY IDOCK:   -6.14 KCAL/MOL
REMARK 922        TOTAL FREE ENERGY PREDICTED BY IDOCK:   -7.61 KCAL/MOL
REMARK 923 INTER-LIGAND FREE ENERGY PREDICTED BY IDOCK:   -7.10 KCAL/MOL
REMARK 924 INTRA-LIGAND FREE ENERGY PREDICTED BY IDOCK:   -0.51 KCAL/MOL
REMARK 927      BINDING AFFINITY PREDICTED BY RF-SCORE:    0.00 PKD
ROOT
HETATM    1  C   UNL     1     -12.763  15.562  70.912  1.00  0.00    -0.468 C  
HETATM    2  N   UNL     1     -12.395  14.472  71.802  1.00  0.00    -0.343 NA 
HETATM    3  H   UNL     1     -12.173  14.811  72.739  1.00  0.00     0.000 HD 
ENDROOT
BRANCH   2   4
HETATM    4  C   UNL     1     -13.434  13.445  71.833  1.00  0.00    -0.441 C  
BRANCH   4   5
HETATM    5  C   UNL     1     -12.877  12.095  71.447  1.00  0.00    -0.378 A  
HETATM    6  C   UNL     1     -13.212  10.926  72.148  1.00  0.00    -0.333 A  
HETATM    7  C   UNL     1     -12.662   9.685  71.789  1.00  0.00    -0.510 A  
HETATM    8  C   UNL     1     -11.760   9.588  70.722  1.00  0.00    -0.370 A  
HETATM    9  C   UNL     1     -11.433  10.761  70.028  1.00  0.00    -0.412 A  
HETATM   10  C   UNL     1     -11.986  11.994  70.376  1.00  0.00    -0.379 A  
BRANCH   8  11
HETATM   11  C   UNL     1     -11.119   8.322  70.335  1.00  0.00    -0.235 A  
HETATM   12  C   UNL     1     -10.469   7.366  71.103  1.00  0.00    -0.220 A  
HETATM   13  C   UNL     1      -9.999   7.393  72.526  1.00  0.00    -0.228 C  
HETATM   14  C   UNL     1     -10.723   6.355  73.390  1.00  0.00    -0.262 C  
HETATM   15  N   UNL     1     -10.737   4.977  72.878  1.00  0.00    -0.225 N  
HETATM   16  C   UNL     1      -9.728   4.519  72.036  1.00  0.00    -0.170 C  
HETATM   17  H   UNL     1     -11.495   4.348  73.144  1.00  0.00     0.000 HD 
HETATM   18  O   UNL     1      -8.841   3.760  72.398  1.00  0.00    -0.098 OA 
HETATM   19  C   UNL     1      -9.873   4.901  70.606  1.00  0.00    -0.289 A  
HETATM   20  C   UNL     1     -10.300   6.205  70.299  1.00  0.00    -0.270 A  
HETATM   21  C   UNL     1     -10.606   6.552  68.992  1.00  0.00    -0.245 A  
HETATM   22  C   UNL     1     -10.394   5.656  67.935  1.00  0.00    -0.260 A  
HETATM   23  N   UNL     1     -11.127   7.825  69.040  1.00  0.00    -0.419 NA 
HETATM   24  H   UNL     1     -11.473   8.336  68.229  1.00  0.00     0.000 HD 
HETATM   25  C   UNL     1      -9.875   4.399  68.261  1.00  0.00    -0.064 A  
HETATM   26  C   UNL     1      -9.623   4.003  69.570  1.00  0.00    -0.265 A  
HETATM   27  F   UNL     1      -9.628   3.532  67.266  1.00  0.00    -0.214 F  
ENDBRANCH   8  11
ENDBRANCH   4   5
ENDBRANCH   2   4
TORSDOF 3
ENDMDL
MODEL       38
REMARK 921   NORMALIZED FREE ENERGY PREDICTED BY IDOCK:   -6.10 KCAL/MOL
REMARK 922        TOTAL FREE ENERGY PREDICTED BY IDOCK:   -7.56 KCAL/MOL
REMARK 923 INTER-LIGAND FREE ENERGY PREDICTED BY IDOCK:   -7.01 KCAL/MOL
REMARK 924 INTRA-LIGAND FREE ENERGY PREDICTED BY IDOCK:   -0.55 KCAL/MOL
REMARK 927      BINDING AFFINITY PREDICTED BY RF-SCORE:    0.00 PKD
ROOT
HETATM    1  C   UNL     1      -8.828  17.519  66.811  1.00  0.00    -0.256 C  
HETATM    2  N   UNL     1      -9.258  16.480  65.888  1.00  0.00    -0.496 NA 
HETATM    3  H   UNL     1      -8.577  15.723  65.829  1.00  0.00     0.000 HD 
ENDROOT
BRANCH   2   4
HETATM    4  C   UNL     1     -10.587  15.981  66.240  1.00  0.00    -0.285 C  
BRANCH   4   5
HETATM    5  C   UNL     1     -10.548  14.503  66.552  1.00  0.00    -0.297 A  
HETATM    6  C   UNL     1     -11.721  13.742  66.678  1.00  0.00    -0.421 A  
HETATM    7  C   UNL     1     -11.664  12.374  66.994  1.00  0.00    -0.423 A  
HETATM    8  C   UNL     1     -10.431  11.741  67.194  1.00  0.00    -0.250 A  
HETATM    9  C   UNL     1      -9.267  12.511  67.066  1.00  0.00    -0.214 A  
HETATM   10  C   UNL     1      -9.320  13.867  66.741  1.00  0.00    -0.286 A  
BRANCH   8  11
HETATM   11  C   UNL     1     -10.317  10.325  67.574  1.00  0.00    -0.229 A  
HETATM   12  C   UNL     1     -10.426   9.709  68.813  1.00  0.00    -0.238 A  
HETATM   13  C   UNL     1     -10.465  10.277  70.199  1.00  0.00    -0.259 C  
HETATM   14  C   UNL     1     -11.798   9.993  70.898  1.00  0.00    -0.368 C  
HETATM   15  N   UNL     1     -12.248   8.593  70.903  1.00  0.00    -0.471 N  
HETATM   16  C   UNL     1     -11.329   7.550  70.826  1.00  0.00    -0.280 C  
HETATM   17  H   UNL     1     -13.244   8.384  70.964  1.00  0.00     0.000 HD 
HETATM   18  O   UNL     1     -11.024   6.849  71.779  1.00  0.00    -0.224 OA 
HETATM   19  C   UNL     1     -10.836   7.239  69.457  1.00  0.00    -0.224 A  
HETATM   20  C   UNL     1     -10.534   8.307  68.593  1.00  0.00    -0.199 A  
HETATM   21  C   UNL     1     -10.230   8.068  67.262  1.00  0.00    -0.275 A  
HETATM   22  C   UNL     1     -10.107   6.760  66.771  1.00  0.00    -0.250 A  
HETATM   23  N   UNL     1     -10.132   9.299  66.658  1.00  0.00    -0.263 NA 
HETATM   24  H   UNL     1      -9.947   9.441  65.665  1.00  0.00     0.000 HD 
HETATM   25  C   UNL     1     -10.317   5.717  67.679  1.00  0.00    -0.212 A  
HETATM   26  C   UNL     1     -10.688   5.931  69.001  1.00  0.00    -0.379 A  
HETATM   27  F   UNL     1     -10.172   4.454  67.245  1.00  0.00    -0.214 F  
ENDBRANCH   8  11
ENDBRANCH   4   5
ENDBRANCH   2   4
TORSDOF 3
ENDMDL
MODEL       39
REMARK 921   NORMALIZED FREE ENERGY PREDICTED BY IDOCK:   -6.10 KCAL/MOL
REMARK 922        TOTAL FREE ENERGY PREDICTED BY IDOCK:   -7.55 KCAL/MOL
REMARK 923 INTER-LIGAND FREE ENERGY PREDICTED BY IDOCK:   -7.09 KCAL/MOL
REMARK 924 INTRA-LIGAND FREE ENERGY PREDICTED BY IDOCK:   -0.46 KCAL/MOL
REMARK 927      BINDING AFFINITY PREDICTED BY RF-SCORE:    0.00 PKD
ROOT
HETATM    1  C   UNL     1     -11.055   5.468  72.273  1.00  0.00    -0.237 C  
HETATM    2  N   UNL     1     -11.806   6.711  72.354  1.00  0.00    -0.468 NA 
HETATM    3  H   UNL     1     -12.623   6.617  72.958  1.00  0.00     0.000 HD 
ENDROOT
BRANCH   2   4
HETATM    4  C   UNL     1     -10.948   7.816  72.777  1.00  0.00    -0.388 C  
BRANCH   4   5
HETATM    5  C   UNL     1     -10.873   8.884  71.710  1.00  0.00    -0.436 A  
HETATM    6  C   UNL     1     -11.982   9.676  71.374  1.00  0.00    -0.480 A  
HETATM    7  C   UNL     1     -11.897  10.646  70.361  1.00  0.00    -0.441 A  
HETATM    8  C   UNL     1     -10.701  10.840  69.661  1.00  0.00    -0.261 A  
HETATM    9  C   UNL     1      -9.600  10.044  70.004  1.00  0.00    -0.205 A  
HETATM   10  C   UNL     1      -9.677   9.088  71.018  1.00  0.00    -0.348 A  
BRANCH   8  11
HETATM   11  C   UNL     1     -10.572  11.807  68.560  1.00  0.00    -0.217 A  
HETATM   12  C   UNL     1     -10.192  11.626  67.237  1.00  0.00    -0.226 A  
HETATM   13  C   UNL     1      -9.573  10.455  66.537  1.00  0.00    -0.224 C  
HETATM   14  C   UNL     1     -10.493   9.879  65.456  1.00  0.00     0.169 C  
HETATM   15  N   UNL     1     -11.030  10.838  64.478  1.00  0.00    -0.116 N  
HETATM   16  C   UNL     1     -10.341  12.009  64.178  1.00  0.00    -0.347 C  
HETATM   17  H   UNL     1     -11.917  10.641  64.015  1.00  0.00     0.000 HD 
HETATM   18  O   UNL     1      -9.723  12.180  63.137  1.00  0.00    -0.379 OA 
HETATM   19  C   UNL     1     -10.521  13.119  65.152  1.00  0.00    -0.339 A  
HETATM   20  C   UNL     1     -10.521  12.814  66.525  1.00  0.00    -0.276 A  
HETATM   21  C   UNL     1     -10.848  13.784  67.459  1.00  0.00    -0.265 A  
HETATM   22  C   UNL     1     -11.077  15.113  67.073  1.00  0.00    -0.328 A  
HETATM   23  N   UNL     1     -10.902  13.149  68.678  1.00  0.00    -0.255 NA 
HETATM   24  H   UNL     1     -11.152  13.606  69.554  1.00  0.00     0.000 HD 
HETATM   25  C   UNL     1     -10.974  15.407  65.709  1.00  0.00    -0.309 A  
HETATM   26  C   UNL     1     -10.713  14.438  64.747  1.00  0.00    -0.423 A  
HETATM   27  F   UNL     1     -11.154  16.677  65.314  1.00  0.00    -0.297 F  
ENDBRANCH   8  11
ENDBRANCH   4   5
ENDBRANCH   2   4
TORSDOF 3
ENDMDL
MODEL       40
REMARK 921   NORMALIZED FREE ENERGY PREDICTED BY IDOCK:   -6.09 KCAL/MOL
REMARK 922        TOTAL FREE ENERGY PREDICTED BY IDOCK:   -7.55 KCAL/MOL
REMARK 923 INTER-LIGAND FREE ENERGY PREDICTED BY IDOCK:   -7.01 KCAL/MOL
REMARK 924 INTRA-LIGAND FREE ENERGY PREDICTED BY IDOCK:   -0.54 KCAL/MOL
REMARK 927      BINDING AFFINITY PREDICTED BY RF-SCORE:    0.00 PKD
ROOT
HETATM    1  C   UNL     1      -7.581   6.281  63.931  1.00  0.00    -0.091 C  
HETATM    2  N   UNL     1      -8.519   7.055  63.132  1.00  0.00    -0.341 NA 
HETATM    3  H   UNL     1      -9.400   7.204  63.626  1.00  0.00     0.000 HD 
ENDROOT
BRANCH   2   4
HETATM    4  C   UNL     1      -7.924   8.317  62.699  1.00  0.00    -0.159 C  
BRANCH   4   5
HETATM    5  C   UNL     1      -8.524   9.486  63.444  1.00  0.00    -0.197 A  
HETATM    6  C   UNL     1      -9.558  10.262  62.897  1.00  0.00    -0.290 A  
HETATM    7  C   UNL     1     -10.085  11.361  63.596  1.00  0.00    -0.421 A  
HETATM    8  C   UNL     1      -9.583  11.709  64.856  1.00  0.00    -0.173 A  
HETATM    9  C   UNL     1      -8.551  10.929  65.392  1.00  0.00    -0.123 A  
HETATM   10  C   UNL     1      -8.034   9.829  64.706  1.00  0.00    -0.138 A  
BRANCH   8  11
HETATM   11  C   UNL     1     -10.065  12.878  65.608  1.00  0.00    -0.272 A  
HETATM   12  C   UNL     1     -10.893  12.959  66.720  1.00  0.00    -0.288 A  
HETATM   13  C   UNL     1     -11.753  11.932  67.390  1.00  0.00    -0.326 C  
HETATM   14  C   UNL     1     -11.291  11.641  68.821  1.00  0.00    -0.264 C  
HETATM   15  N   UNL     1     -11.107  12.808  69.697  1.00  0.00    -0.466 N  
HETATM   16  C   UNL     1     -11.824  13.982  69.479  1.00  0.00    -0.325 C  
HETATM   17  H   UNL     1     -10.447  12.757  70.473  1.00  0.00     0.000 HD 
HETATM   18  O   UNL     1     -12.765  14.335  70.174  1.00  0.00    -0.331 OA 
HETATM   19  C   UNL     1     -11.280  14.870  68.417  1.00  0.00    -0.304 A  
HETATM   20  C   UNL     1     -10.803  14.284  67.230  1.00  0.00    -0.285 A  
HETATM   21  C   UNL     1     -10.140  15.053  66.287  1.00  0.00    -0.282 A  
HETATM   22  C   UNL     1     -10.024  16.442  66.436  1.00  0.00    -0.318 A  
HETATM   23  N   UNL     1      -9.677  14.180  65.330  1.00  0.00    -0.566 NA 
HETATM   24  H   UNL     1      -9.120  14.455  64.521  1.00  0.00     0.000 HD 
HETATM   25  C   UNL     1     -10.594  17.010  67.580  1.00  0.00    -0.333 A  
HETATM   26  C   UNL     1     -11.205  16.253  68.573  1.00  0.00    -0.359 A  
HETATM   27  F   UNL     1     -10.529  18.342  67.733  1.00  0.00    -0.358 F  
ENDBRANCH   8  11
ENDBRANCH   4   5
ENDBRANCH   2   4
TORSDOF 3
ENDMDL
MODEL       41
REMARK 921   NORMALIZED FREE ENERGY PREDICTED BY IDOCK:   -6.08 KCAL/MOL
REMARK 922        TOTAL FREE ENERGY PREDICTED BY IDOCK:   -7.53 KCAL/MOL
REMARK 923 INTER-LIGAND FREE ENERGY PREDICTED BY IDOCK:   -7.14 KCAL/MOL
REMARK 924 INTRA-LIGAND FREE ENERGY PREDICTED BY IDOCK:   -0.39 KCAL/MOL
REMARK 927      BINDING AFFINITY PREDICTED BY RF-SCORE:    0.00 PKD
ROOT
HETATM    1  C   UNL     1     -10.445  19.550  66.042  1.00  0.00    -0.516 C  
HETATM    2  N   UNL     1     -10.343  18.131  66.349  1.00  0.00    -0.394 NA 
HETATM    3  H   UNL     1      -9.457  17.740  66.028  1.00  0.00     0.000 HD 
ENDROOT
BRANCH   2   4
HETATM    4  C   UNL     1     -10.556  17.885  67.774  1.00  0.00    -0.389 C  
BRANCH   4   5
HETATM    5  C   UNL     1     -10.762  16.413  68.047  1.00  0.00    -0.334 A  
HETATM    6  C   UNL     1     -11.760  15.954  68.921  1.00  0.00    -0.376 A  
HETATM    7  C   UNL     1     -11.917  14.583  69.182  1.00  0.00    -0.344 A  
HETATM    8  C   UNL     1     -11.075  13.642  68.576  1.00  0.00    -0.301 A  
HETATM    9  C   UNL     1     -10.082  14.111  67.706  1.00  0.00    -0.239 A  
HETATM   10  C   UNL     1      -9.930  15.472  67.436  1.00  0.00    -0.234 A  
BRANCH   8  11
HETATM   11  C   UNL     1     -11.166  12.200  68.851  1.00  0.00    -0.269 A  
HETATM   12  C   UNL     1     -10.952  11.106  68.023  1.00  0.00    -0.307 A  
HETATM   13  C   UNL     1     -10.786  11.009  66.537  1.00  0.00    -0.298 C  
HETATM   14  C   UNL     1      -9.397  10.490  66.148  1.00  0.00    -0.176 C  
HETATM   15  N   UNL     1      -8.960   9.246  66.798  1.00  0.00    -0.129 N  
HETATM   16  C   UNL     1      -9.890   8.313  67.250  1.00  0.00    -0.197 C  
HETATM   17  H   UNL     1      -7.964   9.063  66.918  1.00  0.00     0.000 HD 
HETATM   18  O   UNL     1     -10.115   7.255  66.681  1.00  0.00    -0.217 OA 
HETATM   19  C   UNL     1     -10.505   8.620  68.569  1.00  0.00    -0.209 A  
HETATM   20  C   UNL     1     -10.874   9.948  68.846  1.00  0.00    -0.239 A  
HETATM   21  C   UNL     1     -11.297  10.308  70.116  1.00  0.00    -0.316 A  
HETATM   22  C   UNL     1     -11.473   9.346  71.121  1.00  0.00    -0.422 A  
HETATM   23  N   UNL     1     -11.439  11.676  70.106  1.00  0.00    -0.499 NA 
HETATM   24  H   UNL     1     -11.710  12.233  70.915  1.00  0.00     0.000 HD 
HETATM   25  C   UNL     1     -11.191   8.017  70.786  1.00  0.00    -0.265 A  
HETATM   26  C   UNL     1     -10.702   7.640  69.540  1.00  0.00    -0.211 A  
HETATM   27  F   UNL     1     -11.384   7.069  71.717  1.00  0.00    -0.253 F  
ENDBRANCH   8  11
ENDBRANCH   4   5
ENDBRANCH   2   4
TORSDOF 3
ENDMDL
MODEL       42
REMARK 921   NORMALIZED FREE ENERGY PREDICTED BY IDOCK:   -6.07 KCAL/MOL
REMARK 922        TOTAL FREE ENERGY PREDICTED BY IDOCK:   -7.52 KCAL/MOL
REMARK 923 INTER-LIGAND FREE ENERGY PREDICTED BY IDOCK:   -7.10 KCAL/MOL
REMARK 924 INTRA-LIGAND FREE ENERGY PREDICTED BY IDOCK:   -0.41 KCAL/MOL
REMARK 927      BINDING AFFINITY PREDICTED BY RF-SCORE:    0.00 PKD
ROOT
HETATM    1  C   UNL     1     -12.537  15.777  73.935  1.00  0.00    -0.627 C  
HETATM    2  N   UNL     1     -13.324  15.994  72.731  1.00  0.00    -0.469 NA 
HETATM    3  H   UNL     1     -12.734  16.247  71.937  1.00  0.00     0.000 HD 
ENDROOT
BRANCH   2   4
HETATM    4  C   UNL     1     -14.159  14.833  72.432  1.00  0.00    -0.448 C  
BRANCH   4   5
HETATM    5  C   UNL     1     -13.365  13.757  71.728  1.00  0.00    -0.463 A  
HETATM    6  C   UNL     1     -12.542  14.043  70.628  1.00  0.00    -0.414 A  
HETATM    7  C   UNL     1     -11.832  13.024  69.972  1.00  0.00    -0.355 A  
HETATM    8  C   UNL     1     -11.935  11.695  70.401  1.00  0.00    -0.448 A  
HETATM    9  C   UNL     1     -12.760  11.421  71.500  1.00  0.00    -0.462 A  
HETATM   10  C   UNL     1     -13.457  12.432  72.161  1.00  0.00    -0.481 A  
BRANCH   8  11
HETATM   11  C   UNL     1     -11.252  10.585  69.720  1.00  0.00    -0.298 A  
HETATM   12  C   UNL     1     -10.819  10.458  68.407  1.00  0.00    -0.289 A  
HETATM   13  C   UNL     1     -11.094  11.290  67.191  1.00  0.00    -0.364 C  
HETATM   14  C   UNL     1      -9.820  11.944  66.645  1.00  0.00    -0.201 C  
HETATM   15  N   UNL     1      -8.677  11.050  66.410  1.00  0.00    -0.167 N  
HETATM   16  C   UNL     1      -8.873   9.699  66.135  1.00  0.00    -0.150 C  
HETATM   17  H   UNL     1      -7.729  11.424  66.448  1.00  0.00     0.000 HD 
HETATM   18  O   UNL     1      -8.741   9.212  65.022  1.00  0.00    -0.173 OA 
HETATM   19  C   UNL     1      -9.120   8.840  67.324  1.00  0.00    -0.151 A  
HETATM   20  C   UNL     1      -9.961   9.325  68.341  1.00  0.00    -0.196 A  
HETATM   21  C   UNL     1     -10.088   8.633  69.535  1.00  0.00    -0.203 A  
HETATM   22  C   UNL     1      -9.475   7.386  69.718  1.00  0.00    -0.159 A  
HETATM   23  N   UNL     1     -10.848   9.425  70.365  1.00  0.00    -0.248 NA 
HETATM   24  H   UNL     1     -11.083   9.190  71.328  1.00  0.00     0.000 HD 
HETATM   25  C   UNL     1      -8.724   6.882  68.651  1.00  0.00    -0.122 A  
HETATM   26  C   UNL     1      -8.527   7.587  67.469  1.00  0.00    -0.119 A  
HETATM   27  F   UNL     1      -8.155   5.674  68.784  1.00  0.00    -0.095 F  
ENDBRANCH   8  11
ENDBRANCH   4   5
ENDBRANCH   2   4
TORSDOF 3
ENDMDL
MODEL       43
REMARK 921   NORMALIZED FREE ENERGY PREDICTED BY IDOCK:   -6.06 KCAL/MOL
REMARK 922        TOTAL FREE ENERGY PREDICTED BY IDOCK:   -7.51 KCAL/MOL
REMARK 923 INTER-LIGAND FREE ENERGY PREDICTED BY IDOCK:   -7.08 KCAL/MOL
REMARK 924 INTRA-LIGAND FREE ENERGY PREDICTED BY IDOCK:   -0.43 KCAL/MOL
REMARK 927      BINDING AFFINITY PREDICTED BY RF-SCORE:    0.00 PKD
ROOT
HETATM    1  C   UNL     1     -13.579   7.547  71.635  1.00  0.00    -0.368 C  
HETATM    2  N   UNL     1     -12.264   8.055  71.995  1.00  0.00    -0.316 NA 
HETATM    3  H   UNL     1     -11.933   7.654  72.872  1.00  0.00     0.000 HD 
ENDROOT
BRANCH   2   4
HETATM    4  C   UNL     1     -11.306   7.846  70.911  1.00  0.00    -0.277 C  
BRANCH   4   5
HETATM    5  C   UNL     1     -10.991   9.144  70.205  1.00  0.00    -0.267 A  
HETATM    6  C   UNL     1      -9.814   9.316  69.460  1.00  0.00    -0.188 A  
HETATM    7  C   UNL     1      -9.527  10.540  68.832  1.00  0.00    -0.199 A  
HETATM    8  C   UNL     1     -10.413  11.619  68.942  1.00  0.00    -0.201 A  
HETATM    9  C   UNL     1     -11.585  11.437  69.688  1.00  0.00    -0.399 A  
HETATM   10  C   UNL     1     -11.877  10.219  70.303  1.00  0.00    -0.372 A  
BRANCH   8  11
HETATM   11  C   UNL     1     -10.139  12.936  68.346  1.00  0.00    -0.227 A  
HETATM   12  C   UNL     1     -10.423  13.433  67.080  1.00  0.00    -0.249 A  
HETATM   13  C   UNL     1     -10.887  12.748  65.831  1.00  0.00    -0.295 C  
HETATM   14  C   UNL     1     -12.274  13.230  65.394  1.00  0.00    -0.456 C  
HETATM   15  N   UNL     1     -12.453  14.686  65.281  1.00  0.00    -0.250 N  
HETATM   16  C   UNL     1     -11.371  15.518  65.012  1.00  0.00    -0.299 C  
HETATM   17  H   UNL     1     -13.382  15.090  65.401  1.00  0.00     0.000 HD 
HETATM   18  O   UNL     1     -11.176  16.040  63.924  1.00  0.00    -0.468 OA 
HETATM   19  C   UNL     1     -10.522  15.856  66.186  1.00  0.00    -0.336 A  
HETATM   20  C   UNL     1     -10.223  14.841  67.113  1.00  0.00    -0.245 A  
HETATM   21  C   UNL     1      -9.578  15.145  68.301  1.00  0.00    -0.211 A  
HETATM   22  C   UNL     1      -9.111  16.442  68.561  1.00  0.00    -0.223 A  
HETATM   23  N   UNL     1      -9.563  13.988  69.044  1.00  0.00    -0.408 NA 
HETATM   24  H   UNL     1      -9.179  13.912  69.985  1.00  0.00     0.000 HD 
HETATM   25  C   UNL     1      -9.337  17.409  67.576  1.00  0.00    -0.233 A  
HETATM   26  C   UNL     1     -10.040  17.144  66.406  1.00  0.00    -0.326 A  
HETATM   27  F   UNL     1      -8.870  18.651  67.781  1.00  0.00    -0.269 F  
ENDBRANCH   8  11
ENDBRANCH   4   5
ENDBRANCH   2   4
TORSDOF 3
ENDMDL
MODEL       44
REMARK 921   NORMALIZED FREE ENERGY PREDICTED BY IDOCK:   -5.99 KCAL/MOL
REMARK 922        TOTAL FREE ENERGY PREDICTED BY IDOCK:   -7.43 KCAL/MOL
REMARK 923 INTER-LIGAND FREE ENERGY PREDICTED BY IDOCK:   -7.03 KCAL/MOL
REMARK 924 INTRA-LIGAND FREE ENERGY PREDICTED BY IDOCK:   -0.40 KCAL/MOL
REMARK 927      BINDING AFFINITY PREDICTED BY RF-SCORE:    0.00 PKD
ROOT
HETATM    1  C   UNL     1     -12.283  14.587  64.224  1.00  0.00    -0.415 C  
HETATM    2  N   UNL     1     -11.118  15.255  64.783  1.00  0.00    -0.569 NA 
HETATM    3  H   UNL     1     -11.117  16.253  64.568  1.00  0.00     0.000 HD 
ENDROOT
BRANCH   2   4
HETATM    4  C   UNL     1     -11.013  15.014  66.221  1.00  0.00    -0.338 C  
BRANCH   4   5
HETATM    5  C   UNL     1     -10.884  13.538  66.517  1.00  0.00    -0.283 A  
HETATM    6  C   UNL     1     -11.777  12.874  67.373  1.00  0.00    -0.428 A  
HETATM    7  C   UNL     1     -11.624  11.507  67.657  1.00  0.00    -0.320 A  
HETATM    8  C   UNL     1     -10.571  10.776  67.091  1.00  0.00    -0.306 A  
HETATM    9  C   UNL     1      -9.686  11.449  66.238  1.00  0.00    -0.239 A  
HETATM   10  C   UNL     1      -9.842  12.805  65.946  1.00  0.00    -0.243 A  
BRANCH   8  11
HETATM   11  C   UNL     1     -10.338   9.356  67.392  1.00  0.00    -0.263 A  
HETATM   12  C   UNL     1     -10.376   8.669  68.598  1.00  0.00    -0.219 A  
HETATM   13  C   UNL     1     -10.436   9.157  70.013  1.00  0.00    -0.244 C  
HETATM   14  C   UNL     1     -11.731   8.731  70.713  1.00  0.00    -0.219 C  
HETATM   15  N   UNL     1     -12.067   7.300  70.647  1.00  0.00    -0.535 N  
HETATM   16  C   UNL     1     -11.069   6.340  70.502  1.00  0.00    -0.335 C  
HETATM   17  H   UNL     1     -13.042   7.008  70.710  1.00  0.00     0.000 HD 
HETATM   18  O   UNL     1     -10.692   5.617  71.412  1.00  0.00    -0.247 OA 
HETATM   19  C   UNL     1     -10.576   6.144  69.113  1.00  0.00    -0.345 A  
HETATM   20  C   UNL     1     -10.375   7.277  68.304  1.00  0.00    -0.227 A  
HETATM   21  C   UNL     1     -10.076   7.133  66.958  1.00  0.00    -0.238 A  
HETATM   22  C   UNL     1      -9.857   5.867  66.396  1.00  0.00    -0.161 A  
HETATM   23  N   UNL     1     -10.087   8.398  66.420  1.00  0.00    -0.428 NA 
HETATM   24  H   UNL     1      -9.931   8.606  65.434  1.00  0.00     0.000 HD 
HETATM   25  C   UNL     1      -9.967   4.764  67.248  1.00  0.00    -0.174 A  
HETATM   26  C   UNL     1     -10.332   4.877  68.585  1.00  0.00    -0.041 A  
HETATM   27  F   UNL     1      -9.729   3.542  66.746  1.00  0.00    -0.218 F  
ENDBRANCH   8  11
ENDBRANCH   4   5
ENDBRANCH   2   4
TORSDOF 3
ENDMDL
MODEL       45
REMARK 921   NORMALIZED FREE ENERGY PREDICTED BY IDOCK:   -5.90 KCAL/MOL
REMARK 922        TOTAL FREE ENERGY PREDICTED BY IDOCK:   -7.32 KCAL/MOL
REMARK 923 INTER-LIGAND FREE ENERGY PREDICTED BY IDOCK:   -6.78 KCAL/MOL
REMARK 924 INTRA-LIGAND FREE ENERGY PREDICTED BY IDOCK:   -0.54 KCAL/MOL
REMARK 927      BINDING AFFINITY PREDICTED BY RF-SCORE:    0.00 PKD
ROOT
HETATM    1  C   UNL     1     -10.018  17.794  67.660  1.00  0.00    -0.322 C  
HETATM    2  N   UNL     1     -10.908  16.648  67.762  1.00  0.00    -0.325 NA 
HETATM    3  H   UNL     1     -11.861  16.931  67.996  1.00  0.00     0.000 HD 
ENDROOT
BRANCH   2   4
HETATM    4  C   UNL     1     -10.870  15.842  66.543  1.00  0.00    -0.230 C  
BRANCH   4   5
HETATM    5  C   UNL     1     -10.688  14.377  66.865  1.00  0.00    -0.292 A  
HETATM    6  C   UNL     1      -9.455  13.728  66.694  1.00  0.00    -0.289 A  
HETATM    7  C   UNL     1      -9.314  12.358  66.973  1.00  0.00    -0.204 A  
HETATM    8  C   UNL     1     -10.407  11.609  67.428  1.00  0.00    -0.231 A  
HETATM    9  C   UNL     1     -11.633  12.267  67.595  1.00  0.00    -0.421 A  
HETATM   10  C   UNL     1     -11.773  13.629  67.329  1.00  0.00    -0.416 A  
BRANCH   8  11
HETATM   11  C   UNL     1     -10.326  10.164  67.689  1.00  0.00    -0.219 A  
HETATM   12  C   UNL     1     -10.436   9.452  68.876  1.00  0.00    -0.236 A  
HETATM   13  C   UNL     1     -10.444   9.906  70.304  1.00  0.00    -0.348 C  
HETATM   14  C   UNL     1     -11.777   9.601  70.996  1.00  0.00    -0.353 C  
HETATM   15  N   UNL     1     -12.263   8.217  70.893  1.00  0.00    -0.489 N  
HETATM   16  C   UNL     1     -11.373   7.160  70.719  1.00  0.00    -0.289 C  
HETATM   17  H   UNL     1     -13.263   8.028  70.951  1.00  0.00     0.000 HD 
HETATM   18  O   UNL     1     -11.075   6.377  71.609  1.00  0.00    -0.246 OA 
HETATM   19  C   UNL     1     -10.903   6.950  69.324  1.00  0.00    -0.270 A  
HETATM   20  C   UNL     1     -10.584   8.077  68.545  1.00  0.00    -0.144 A  
HETATM   21  C   UNL     1     -10.302   7.938  67.195  1.00  0.00    -0.328 A  
HETATM   22  C   UNL     1     -10.219   6.673  66.598  1.00  0.00    -0.208 A  
HETATM   23  N   UNL     1     -10.178   9.212  66.691  1.00  0.00    -0.268 NA 
HETATM   24  H   UNL     1     -10.002   9.429  65.711  1.00  0.00     0.000 HD 
HETATM   25  C   UNL     1     -10.446   5.564  67.421  1.00  0.00    -0.219 A  
HETATM   26  C   UNL     1     -10.796   5.679  68.761  1.00  0.00    -0.210 A  
HETATM   27  F   UNL     1     -10.339   4.338  66.885  1.00  0.00    -0.221 F  
ENDBRANCH   8  11
ENDBRANCH   4   5
ENDBRANCH   2   4
TORSDOF 3
ENDMDL
MODEL       46
REMARK 921   NORMALIZED FREE ENERGY PREDICTED BY IDOCK:   -5.87 KCAL/MOL
REMARK 922        TOTAL FREE ENERGY PREDICTED BY IDOCK:   -7.29 KCAL/MOL
REMARK 923 INTER-LIGAND FREE ENERGY PREDICTED BY IDOCK:   -6.88 KCAL/MOL
REMARK 924 INTRA-LIGAND FREE ENERGY PREDICTED BY IDOCK:   -0.41 KCAL/MOL
REMARK 927      BINDING AFFINITY PREDICTED BY RF-SCORE:    0.00 PKD
ROOT
HETATM    1  C   UNL     1     -12.306  15.347  74.168  1.00  0.00    -0.663 C  
HETATM    2  N   UNL     1     -12.724  15.768  72.839  1.00  0.00    -0.423 NA 
HETATM    3  H   UNL     1     -11.935  15.812  72.193  1.00  0.00     0.000 HD 
ENDROOT
BRANCH   2   4
HETATM    4  C   UNL     1     -13.792  14.911  72.328  1.00  0.00    -0.483 C  
BRANCH   4   5
HETATM    5  C   UNL     1     -13.231  13.644  71.725  1.00  0.00    -0.477 A  
HETATM    6  C   UNL     1     -13.516  12.379  72.261  1.00  0.00    -0.428 A  
HETATM    7  C   UNL     1     -12.963  11.215  71.701  1.00  0.00    -0.548 A  
HETATM    8  C   UNL     1     -12.110  11.295  70.594  1.00  0.00    -0.480 A  
HETATM    9  C   UNL     1     -11.832  12.563  70.066  1.00  0.00    -0.363 A  
HETATM   10  C   UNL     1     -12.389  13.720  70.613  1.00  0.00    -0.445 A  
BRANCH   8  11
HETATM   11  C   UNL     1     -11.467  10.113  69.999  1.00  0.00    -0.277 A  
HETATM   12  C   UNL     1     -11.079   9.857  68.690  1.00  0.00    -0.182 A  
HETATM   13  C   UNL     1     -11.380  10.577  67.411  1.00  0.00    -0.120 C  
HETATM   14  C   UNL     1     -10.115  11.154  66.766  1.00  0.00    -0.218 C  
HETATM   15  N   UNL     1      -8.994  10.221  66.581  1.00  0.00    -0.140 N  
HETATM   16  C   UNL     1      -9.220   8.854  66.440  1.00  0.00    -0.189 C  
HETATM   17  H   UNL     1      -8.040  10.579  66.554  1.00  0.00     0.000 HD 
HETATM   18  O   UNL     1      -9.132   8.263  65.374  1.00  0.00    -0.082 OA 
HETATM   19  C   UNL     1      -9.442   8.114  67.711  1.00  0.00    -0.164 A  
HETATM   20  C   UNL     1     -10.241   8.707  68.704  1.00  0.00    -0.214 A  
HETATM   21  C   UNL     1     -10.340   8.131  69.961  1.00  0.00    -0.215 A  
HETATM   22  C   UNL     1      -9.741   6.895  70.241  1.00  0.00    -0.176 A  
HETATM   23  N   UNL     1     -11.060   9.011  70.736  1.00  0.00    -0.257 NA 
HETATM   24  H   UNL     1     -11.267   8.871  71.724  1.00  0.00     0.000 HD 
HETATM   25  C   UNL     1      -9.033   6.281  69.202  1.00  0.00    -0.127 A  
HETATM   26  C   UNL     1      -8.863   6.869  67.954  1.00  0.00    -0.123 A  
HETATM   27  F   UNL     1      -8.478   5.080  69.430  1.00  0.00    -0.083 F  
ENDBRANCH   8  11
ENDBRANCH   4   5
ENDBRANCH   2   4
TORSDOF 3
ENDMDL
MODEL       47
REMARK 921   NORMALIZED FREE ENERGY PREDICTED BY IDOCK:   -5.86 KCAL/MOL
REMARK 922        TOTAL FREE ENERGY PREDICTED BY IDOCK:   -7.28 KCAL/MOL
REMARK 923 INTER-LIGAND FREE ENERGY PREDICTED BY IDOCK:   -6.92 KCAL/MOL
REMARK 924 INTRA-LIGAND FREE ENERGY PREDICTED BY IDOCK:   -0.36 KCAL/MOL
REMARK 927      BINDING AFFINITY PREDICTED BY RF-SCORE:    0.00 PKD
ROOT
HETATM    1  C   UNL     1     -10.503   3.887  74.022  1.00  0.00    -0.202 C  
HETATM    2  N   UNL     1     -11.220   5.152  73.983  1.00  0.00    -0.388 NA 
HETATM    3  H   UNL     1     -12.026   5.148  74.609  1.00  0.00     0.000 HD 
ENDROOT
BRANCH   2   4
HETATM    4  C   UNL     1     -10.324   6.272  74.268  1.00  0.00    -0.286 C  
BRANCH   4   5
HETATM    5  C   UNL     1     -10.397   7.318  73.179  1.00  0.00    -0.359 A  
HETATM    6  C   UNL     1     -11.620   7.859  72.752  1.00  0.00    -0.387 A  
HETATM    7  C   UNL     1     -11.668   8.810  71.720  1.00  0.00    -0.416 A  
HETATM    8  C   UNL     1     -10.492   9.238  71.091  1.00  0.00    -0.401 A  
HETATM    9  C   UNL     1      -9.277   8.691  71.525  1.00  0.00    -0.316 A  
HETATM   10  C   UNL     1      -9.225   7.754  72.558  1.00  0.00    -0.227 A  
BRANCH   8  11
HETATM   11  C   UNL     1     -10.491  10.195  69.975  1.00  0.00    -0.274 A  
HETATM   12  C   UNL     1      -9.809  10.173  68.766  1.00  0.00    -0.180 A  
HETATM   13  C   UNL     1      -8.685   9.310  68.280  1.00  0.00    -0.129 C  
HETATM   14  C   UNL     1      -9.098   8.450  67.081  1.00  0.00    -0.138 C  
HETATM   15  N   UNL     1      -9.726   9.158  65.956  1.00  0.00    -0.282 N  
HETATM   16  C   UNL     1      -9.451  10.502  65.718  1.00  0.00    -0.201 C  
HETATM   17  H   UNL     1     -10.370   8.660  65.343  1.00  0.00     0.000 HD 
HETATM   18  O   UNL     1      -8.733  10.892  64.809  1.00  0.00    -0.149 OA 
HETATM   19  C   UNL     1     -10.208  11.464  66.562  1.00  0.00    -0.259 A  
HETATM   20  C   UNL     1     -10.382  11.169  67.926  1.00  0.00    -0.211 A  
HETATM   21  C   UNL     1     -11.216  11.949  68.711  1.00  0.00    -0.259 A  
HETATM   22  C   UNL     1     -11.816  13.109  68.201  1.00  0.00    -0.386 A  
HETATM   23  N   UNL     1     -11.291  11.327  69.936  1.00  0.00    -0.415 NA 
HETATM   24  H   UNL     1     -11.861  11.656  70.715  1.00  0.00     0.000 HD 
HETATM   25  C   UNL     1     -11.546  13.431  66.867  1.00  0.00    -0.365 A  
HETATM   26  C   UNL     1     -10.767  12.629  66.040  1.00  0.00    -0.295 A  
HETATM   27  F   UNL     1     -12.078  14.555  66.360  1.00  0.00    -0.397 F  
ENDBRANCH   8  11
ENDBRANCH   4   5
ENDBRANCH   2   4
TORSDOF 3
ENDMDL
MODEL       48
REMARK 921   NORMALIZED FREE ENERGY PREDICTED BY IDOCK:   -5.86 KCAL/MOL
REMARK 922        TOTAL FREE ENERGY PREDICTED BY IDOCK:   -7.28 KCAL/MOL
REMARK 923 INTER-LIGAND FREE ENERGY PREDICTED BY IDOCK:   -6.93 KCAL/MOL
REMARK 924 INTRA-LIGAND FREE ENERGY PREDICTED BY IDOCK:   -0.35 KCAL/MOL
REMARK 927      BINDING AFFINITY PREDICTED BY RF-SCORE:    0.00 PKD
ROOT
HETATM    1  C   UNL     1      -9.506   3.638  64.497  1.00  0.00    -0.157 C  
HETATM    2  N   UNL     1      -9.885   3.111  65.799  1.00  0.00    -0.388 NA 
HETATM    3  H   UNL     1      -9.798   2.095  65.833  1.00  0.00     0.000 HD 
ENDROOT
BRANCH   2   4
HETATM    4  C   UNL     1      -9.122   3.753  66.868  1.00  0.00    -0.161 C  
BRANCH   4   5
HETATM    5  C   UNL     1      -9.420   5.233  66.936  1.00  0.00    -0.138 A  
HETATM    6  C   UNL     1      -8.485   6.197  66.527  1.00  0.00    -0.119 A  
HETATM    7  C   UNL     1      -8.772   7.569  66.623  1.00  0.00    -0.146 A  
HETATM    8  C   UNL     1     -10.000   8.004  67.135  1.00  0.00    -0.303 A  
HETATM    9  C   UNL     1     -10.926   7.034  67.541  1.00  0.00    -0.299 A  
HETATM   10  C   UNL     1     -10.649   5.670  67.436  1.00  0.00    -0.312 A  
BRANCH   8  11
HETATM   11  C   UNL     1     -10.332   9.427  67.302  1.00  0.00    -0.260 A  
HETATM   12  C   UNL     1     -10.190  10.498  66.429  1.00  0.00    -0.296 A  
HETATM   13  C   UNL     1      -9.454  10.623  65.130  1.00  0.00    -0.276 C  
HETATM   14  C   UNL     1     -10.401  10.901  63.958  1.00  0.00    -0.349 C  
HETATM   15  N   UNL     1     -11.338  12.021  64.128  1.00  0.00    -0.357 N  
HETATM   16  C   UNL     1     -11.030  13.085  64.971  1.00  0.00    -0.298 C  
HETATM   17  H   UNL     1     -12.224  12.019  63.623  1.00  0.00     0.000 HD 
HETATM   18  O   UNL     1     -10.691  14.188  64.568  1.00  0.00    -0.403 OA 
HETATM   19  C   UNL     1     -11.279  12.842  66.417  1.00  0.00    -0.339 A  
HETATM   20  C   UNL     1     -10.932  11.590  66.958  1.00  0.00    -0.347 A  
HETATM   21  C   UNL     1     -11.295  11.262  68.254  1.00  0.00    -0.289 A  
HETATM   22  C   UNL     1     -11.914  12.199  69.093  1.00  0.00    -0.311 A  
HETATM   23  N   UNL     1     -10.950   9.942  68.432  1.00  0.00    -0.402 NA 
HETATM   24  H   UNL     1     -11.126   9.411  69.284  1.00  0.00     0.000 HD 
HETATM   25  C   UNL     1     -12.158  13.469  68.559  1.00  0.00    -0.268 A  
HETATM   26  C   UNL     1     -11.864  13.802  67.241  1.00  0.00    -0.436 A  
HETATM   27  F   UNL     1     -12.717  14.398  69.350  1.00  0.00    -0.278 F  
ENDBRANCH   8  11
ENDBRANCH   4   5
ENDBRANCH   2   4
TORSDOF 3
ENDMDL
MODEL       49
REMARK 921   NORMALIZED FREE ENERGY PREDICTED BY IDOCK:   -5.84 KCAL/MOL
REMARK 922        TOTAL FREE ENERGY PREDICTED BY IDOCK:   -7.25 KCAL/MOL
REMARK 923 INTER-LIGAND FREE ENERGY PREDICTED BY IDOCK:   -6.90 KCAL/MOL
REMARK 924 INTRA-LIGAND FREE ENERGY PREDICTED BY IDOCK:   -0.34 KCAL/MOL
REMARK 927      BINDING AFFINITY PREDICTED BY RF-SCORE:    0.00 PKD
ROOT
HETATM    1  C   UNL     1      -5.731  21.284  66.677  1.00  0.00    -0.292 C  
HETATM    2  N   UNL     1      -6.743  21.144  67.713  1.00  0.00    -0.366 NA 
HETATM    3  H   UNL     1      -6.632  21.848  68.444  1.00  0.00     0.000 HD 
ENDROOT
BRANCH   2   4
HETATM    4  C   UNL     1      -8.088  21.169  67.141  1.00  0.00     0.238 C  
BRANCH   4   5
HETATM    5  C   UNL     1      -8.795  19.852  67.357  1.00  0.00    -0.411 A  
HETATM    6  C   UNL     1      -9.554  19.598  68.510  1.00  0.00    -0.467 A  
HETATM    7  C   UNL     1     -10.182  18.357  68.704  1.00  0.00    -0.370 A  
HETATM    8  C   UNL     1     -10.061  17.341  67.748  1.00  0.00    -0.311 A  
HETATM    9  C   UNL     1      -9.301  17.605  66.600  1.00  0.00    -0.289 A  
HETATM   10  C   UNL     1      -8.685  18.841  66.400  1.00  0.00    -0.294 A  
BRANCH   8  11
HETATM   11  C   UNL     1     -10.658  16.009  67.923  1.00  0.00    -0.301 A  
HETATM   12  C   UNL     1     -11.069  15.071  66.985  1.00  0.00    -0.334 A  
HETATM   13  C   UNL     1     -11.262  15.175  65.503  1.00  0.00    -0.320 C  
HETATM   14  C   UNL     1     -10.305  14.259  64.734  1.00  0.00    -0.343 C  
HETATM   15  N   UNL     1     -10.274  12.849  65.152  1.00  0.00    -0.357 N  
HETATM   16  C   UNL     1     -11.384  12.260  65.751  1.00  0.00    -0.355 C  
HETATM   17  H   UNL     1      -9.431  12.297  65.000  1.00  0.00     0.000 HD 
HETATM   18  O   UNL     1     -12.121  11.472  65.177  1.00  0.00    -0.025 OA 
HETATM   19  C   UNL     1     -11.545  12.540  67.203  1.00  0.00    -0.437 A  
HETATM   20  C   UNL     1     -11.292  13.843  67.668  1.00  0.00    -0.335 A  
HETATM   21  C   UNL     1     -11.268  14.110  69.028  1.00  0.00    -0.271 A  
HETATM   22  C   UNL     1     -11.602  13.123  69.966  1.00  0.00    -0.202 A  
HETATM   23  N   UNL     1     -10.854  15.415  69.161  1.00  0.00    -0.236 NA 
HETATM   24  H   UNL     1     -10.711  15.885  70.054  1.00  0.00     0.000 HD 
HETATM   25  C   UNL     1     -11.945  11.861  69.468  1.00  0.00    -0.292 A  
HETATM   26  C   UNL     1     -11.911  11.550  68.113  1.00  0.00    -0.206 A  
HETATM   27  F   UNL     1     -12.304  10.906  70.341  1.00  0.00    -0.328 F  
ENDBRANCH   8  11
ENDBRANCH   4   5
ENDBRANCH   2   4
TORSDOF 3
ENDMDL
MODEL       50
REMARK 921   NORMALIZED FREE ENERGY PREDICTED BY IDOCK:   -5.82 KCAL/MOL
REMARK 922        TOTAL FREE ENERGY PREDICTED BY IDOCK:   -7.23 KCAL/MOL
REMARK 923 INTER-LIGAND FREE ENERGY PREDICTED BY IDOCK:   -6.70 KCAL/MOL
REMARK 924 INTRA-LIGAND FREE ENERGY PREDICTED BY IDOCK:   -0.54 KCAL/MOL
REMARK 927      BINDING AFFINITY PREDICTED BY RF-SCORE:    0.00 PKD
ROOT
HETATM    1  C   UNL     1      -9.092   6.936  73.577  1.00  0.00    -0.146 C  
HETATM    2  N   UNL     1      -9.582   6.730  72.223  1.00  0.00    -0.146 NA 
HETATM    3  H   UNL     1      -9.502   5.754  71.938  1.00  0.00     0.000 HD 
ENDROOT
BRANCH   2   4
HETATM    4  C   UNL     1     -10.951   7.223  72.079  1.00  0.00    -0.238 C  
BRANCH   4   5
HETATM    5  C   UNL     1     -11.024   8.339  71.063  1.00  0.00    -0.280 A  
HETATM    6  C   UNL     1     -11.661   9.557  71.345  1.00  0.00    -0.465 A  
HETATM    7  C   UNL     1     -11.741  10.572  70.377  1.00  0.00    -0.434 A  
HETATM    8  C   UNL     1     -11.188  10.386  69.105  1.00  0.00    -0.301 A  
HETATM    9  C   UNL     1     -10.554   9.166  68.834  1.00  0.00    -0.214 A  
HETATM   10  C   UNL     1     -10.463   8.161  69.797  1.00  0.00    -0.227 A  
BRANCH   8  11
HETATM   11  C   UNL     1     -11.285  11.396  68.040  1.00  0.00    -0.281 A  
HETATM   12  C   UNL     1     -10.663  12.630  67.904  1.00  0.00    -0.237 A  
HETATM   13  C   UNL     1      -9.873  13.451  68.877  1.00  0.00     0.074 C  
HETATM   14  C   UNL     1      -8.418  13.630  68.430  1.00  0.00    -0.147 C  
HETATM   15  N   UNL     1      -8.213  14.119  67.058  1.00  0.00    -0.374 N  
HETATM   16  C   UNL     1      -9.179  14.899  66.428  1.00  0.00    -0.284 C  
HETATM   17  H   UNL     1      -7.354  13.884  66.563  1.00  0.00     0.000 HD 
HETATM   18  O   UNL     1      -9.065  16.103  66.255  1.00  0.00    -0.280 OA 
HETATM   19  C   UNL     1     -10.318  14.145  65.838  1.00  0.00    -0.326 A  
HETATM   20  C   UNL     1     -10.862  13.071  66.567  1.00  0.00    -0.294 A  
HETATM   21  C   UNL     1     -11.810  12.241  65.988  1.00  0.00    -0.341 A  
HETATM   22  C   UNL     1     -12.329  12.511  64.714  1.00  0.00    -0.544 A  
HETATM   23  N   UNL     1     -12.030  11.220  66.883  1.00  0.00    -0.084 NA 
HETATM   24  H   UNL     1     -12.658  10.435  66.717  1.00  0.00     0.000 HD 
HETATM   25  C   UNL     1     -11.839  13.642  64.054  1.00  0.00    -0.400 A  
HETATM   26  C   UNL     1     -10.841  14.452  64.584  1.00  0.00    -0.363 A  
HETATM   27  F   UNL     1     -12.343  13.946  62.847  1.00  0.00    -0.363 F  
ENDBRANCH   8  11
ENDBRANCH   4   5
ENDBRANCH   2   4
TORSDOF 3
ENDMDL
MODEL       51
REMARK 921   NORMALIZED FREE ENERGY PREDICTED BY IDOCK:   -5.80 KCAL/MOL
REMARK 922        TOTAL FREE ENERGY PREDICTED BY IDOCK:   -7.21 KCAL/MOL
REMARK 923 INTER-LIGAND FREE ENERGY PREDICTED BY IDOCK:   -6.76 KCAL/MOL
REMARK 924 INTRA-LIGAND FREE ENERGY PREDICTED BY IDOCK:   -0.45 KCAL/MOL
REMARK 927      BINDING AFFINITY PREDICTED BY RF-SCORE:    0.00 PKD
ROOT
HETATM    1  C   UNL     1      -8.785   4.419  65.214  1.00  0.00    -0.128 C  
HETATM    2  N   UNL     1      -9.451   5.643  65.632  1.00  0.00    -0.357 NA 
HETATM    3  H   UNL     1     -10.446   5.625  65.407  1.00  0.00     0.000 HD 
ENDROOT
BRANCH   2   4
HETATM    4  C   UNL     1      -9.223   5.907  67.051  1.00  0.00    -0.119 C  
BRANCH   4   5
HETATM    5  C   UNL     1      -9.732   7.277  67.438  1.00  0.00    -0.191 A  
HETATM    6  C   UNL     1      -9.885   8.304  66.494  1.00  0.00    -0.323 A  
HETATM    7  C   UNL     1     -10.334   9.579  66.880  1.00  0.00    -0.307 A  
HETATM    8  C   UNL     1     -10.635   9.851  68.220  1.00  0.00    -0.269 A  
HETATM    9  C   UNL     1     -10.479   8.818  69.153  1.00  0.00    -0.230 A  
HETATM   10  C   UNL     1     -10.044   7.548  68.772  1.00  0.00    -0.191 A  
BRANCH   8  11
HETATM   11  C   UNL     1     -11.063  11.180  68.684  1.00  0.00    -0.239 A  
HETATM   12  C   UNL     1     -12.051  11.547  69.588  1.00  0.00    -0.363 A  
HETATM   13  C   UNL     1     -13.157  10.758  70.219  1.00  0.00    -0.004 C  
HETATM   14  C   UNL     1     -13.000  10.664  71.740  1.00  0.00    -0.472 C  
HETATM   15  N   UNL     1     -12.801  11.934  72.455  1.00  0.00     0.096 N  
HETATM   16  C   UNL     1     -13.287  13.129  71.932  1.00  0.00    -0.455 C  
HETATM   17  H   UNL     1     -12.302  11.940  73.344  1.00  0.00     0.000 HD 
HETATM   18  O   UNL     1     -14.272  13.705  72.370  1.00  0.00    -0.660 OA 
HETATM   19  C   UNL     1     -12.441  13.752  70.879  1.00  0.00    -0.451 A  
HETATM   20  C   UNL     1     -11.857  12.920  69.907  1.00  0.00    -0.373 A  
HETATM   21  C   UNL     1     -10.933  13.433  69.010  1.00  0.00    -0.224 A  
HETATM   22  C   UNL     1     -10.640  14.803  68.975  1.00  0.00    -0.248 A  
HETATM   23  N   UNL     1     -10.444  12.361  68.301  1.00  0.00    -0.219 NA 
HETATM   24  H   UNL     1      -9.720  12.425  67.586  1.00  0.00     0.000 HD 
HETATM   25  C   UNL     1     -11.311  15.622  69.889  1.00  0.00    -0.337 A  
HETATM   26  C   UNL     1     -12.191  15.123  70.843  1.00  0.00    -0.398 A  
HETATM   27  F   UNL     1     -11.077  16.943  69.856  1.00  0.00    -0.300 F  
ENDBRANCH   8  11
ENDBRANCH   4   5
ENDBRANCH   2   4
TORSDOF 3
ENDMDL
MODEL       52
REMARK 921   NORMALIZED FREE ENERGY PREDICTED BY IDOCK:   -5.78 KCAL/MOL
REMARK 922        TOTAL FREE ENERGY PREDICTED BY IDOCK:   -7.18 KCAL/MOL
REMARK 923 INTER-LIGAND FREE ENERGY PREDICTED BY IDOCK:   -6.66 KCAL/MOL
REMARK 924 INTRA-LIGAND FREE ENERGY PREDICTED BY IDOCK:   -0.53 KCAL/MOL
REMARK 927      BINDING AFFINITY PREDICTED BY RF-SCORE:    0.00 PKD
ROOT
HETATM    1  C   UNL     1     -10.774  15.470  65.016  1.00  0.00    -0.441 C  
HETATM    2  N   UNL     1     -10.607  14.868  66.330  1.00  0.00    -0.299 NA 
HETATM    3  H   UNL     1     -10.117  15.493  66.971  1.00  0.00     0.000 HD 
ENDROOT
BRANCH   2   4
HETATM    4  C   UNL     1     -11.892  14.436  66.877  1.00  0.00    -0.410 C  
BRANCH   4   5
HETATM    5  C   UNL     1     -11.747  13.151  67.659  1.00  0.00    -0.414 A  
HETATM    6  C   UNL     1     -11.911  13.108  69.052  1.00  0.00    -0.358 A  
HETATM    7  C   UNL     1     -11.745  11.908  69.763  1.00  0.00    -0.403 A  
HETATM    8  C   UNL     1     -11.407  10.725  69.093  1.00  0.00    -0.348 A  
HETATM    9  C   UNL     1     -11.245  10.779  67.702  1.00  0.00    -0.370 A  
HETATM   10  C   UNL     1     -11.420  11.967  66.992  1.00  0.00    -0.402 A  
BRANCH   8  11
HETATM   11  C   UNL     1     -11.175   9.453  69.794  1.00  0.00    -0.114 A  
HETATM   12  C   UNL     1      -9.999   8.759  70.043  1.00  0.00    -0.196 A  
HETATM   13  C   UNL     1      -8.614   8.935  69.499  1.00  0.00    -0.134 C  
HETATM   14  C   UNL     1      -7.611   9.316  70.594  1.00  0.00    -0.147 C  
HETATM   15  N   UNL     1      -7.591   8.457  71.788  1.00  0.00    -0.105 N  
HETATM   16  C   UNL     1      -7.982   7.124  71.712  1.00  0.00    -0.097 C  
HETATM   17  H   UNL     1      -7.286   8.843  72.681  1.00  0.00     0.000 HD 
HETATM   18  O   UNL     1      -7.196   6.188  71.736  1.00  0.00    -0.083 OA 
HETATM   19  C   UNL     1      -9.451   6.891  71.743  1.00  0.00    -0.155 A  
HETATM   20  C   UNL     1     -10.284   7.754  71.008  1.00  0.00    -0.210 A  
HETATM   21  C   UNL     1     -11.662   7.677  71.138  1.00  0.00    -0.290 A  
HETATM   22  C   UNL     1     -12.262   6.674  71.912  1.00  0.00    -0.381 A  
HETATM   23  N   UNL     1     -12.180   8.730  70.421  1.00  0.00    -0.397 NA 
HETATM   24  H   UNL     1     -13.173   8.951  70.357  1.00  0.00     0.000 HD 
HETATM   25  C   UNL     1     -11.409   5.768  72.553  1.00  0.00    -0.307 A  
HETATM   26  C   UNL     1     -10.024   5.865  72.492  1.00  0.00    -0.198 A  
HETATM   27  F   UNL     1     -11.956   4.775  73.273  1.00  0.00    -0.401 F  
ENDBRANCH   8  11
ENDBRANCH   4   5
ENDBRANCH   2   4
TORSDOF 3
ENDMDL
MODEL       53
REMARK 921   NORMALIZED FREE ENERGY PREDICTED BY IDOCK:   -5.72 KCAL/MOL
REMARK 922        TOTAL FREE ENERGY PREDICTED BY IDOCK:   -7.11 KCAL/MOL
REMARK 923 INTER-LIGAND FREE ENERGY PREDICTED BY IDOCK:   -6.59 KCAL/MOL
REMARK 924 INTRA-LIGAND FREE ENERGY PREDICTED BY IDOCK:   -0.53 KCAL/MOL
REMARK 927      BINDING AFFINITY PREDICTED BY RF-SCORE:    0.00 PKD
ROOT
HETATM    1  C   UNL     1     -11.312   5.911  72.715  1.00  0.00    -0.263 C  
HETATM    2  N   UNL     1     -11.582   6.969  71.753  1.00  0.00    -0.267 NA 
HETATM    3  H   UNL     1     -12.533   6.913  71.390  1.00  0.00     0.000 HD 
ENDROOT
BRANCH   2   4
HETATM    4  C   UNL     1     -11.302   8.284  72.327  1.00  0.00    -0.378 C  
BRANCH   4   5
HETATM    5  C   UNL     1     -11.348   9.361  71.268  1.00  0.00    -0.436 A  
HETATM    6  C   UNL     1     -10.555   9.297  70.111  1.00  0.00    -0.266 A  
HETATM    7  C   UNL     1     -10.594  10.322  69.151  1.00  0.00    -0.254 A  
HETATM    8  C   UNL     1     -11.424  11.435  69.332  1.00  0.00    -0.378 A  
HETATM    9  C   UNL     1     -12.210  11.489  70.491  1.00  0.00    -0.469 A  
HETATM   10  C   UNL     1     -12.183  10.467  71.440  1.00  0.00    -0.461 A  
BRANCH   8  11
HETATM   11  C   UNL     1     -11.466  12.557  68.383  1.00  0.00    -0.312 A  
HETATM   12  C   UNL     1     -10.569  13.595  68.169  1.00  0.00    -0.255 A  
HETATM   13  C   UNL     1      -9.387  14.059  68.963  1.00  0.00     0.131 C  
HETATM   14  C   UNL     1      -8.076  13.908  68.184  1.00  0.00    -0.150 C  
HETATM   15  N   UNL     1      -8.050  14.490  66.833  1.00  0.00    -0.377 N  
HETATM   16  C   UNL     1      -8.872  15.564  66.504  1.00  0.00    -0.313 C  
HETATM   17  H   UNL     1      -7.421  14.103  66.130  1.00  0.00     0.000 HD 
HETATM   18  O   UNL     1      -8.466  16.710  66.377  1.00  0.00    -0.258 OA 
HETATM   19  C   UNL     1     -10.277  15.208  66.170  1.00  0.00    -0.310 A  
HETATM   20  C   UNL     1     -10.926  14.232  66.948  1.00  0.00    -0.304 A  
HETATM   21  C   UNL     1     -12.171  13.752  66.573  1.00  0.00    -0.430 A  
HETATM   22  C   UNL     1     -12.861  14.300  65.482  1.00  0.00    -0.334 A  
HETATM   23  N   UNL     1     -12.466  12.721  67.435  1.00  0.00    -0.005 NA 
HETATM   24  H   UNL     1     -13.310  12.152  67.385  1.00  0.00     0.000 HD 
HETATM   25  C   UNL     1     -12.232  15.337  64.787  1.00  0.00    -0.047 A  
HETATM   26  C   UNL     1     -10.956  15.791  65.101  1.00  0.00    -0.394 A  
HETATM   27  F   UNL     1     -12.883  15.905  63.759  1.00  0.00    -0.056 F  
ENDBRANCH   8  11
ENDBRANCH   4   5
ENDBRANCH   2   4
TORSDOF 3
ENDMDL
MODEL       54
REMARK 921   NORMALIZED FREE ENERGY PREDICTED BY IDOCK:   -5.60 KCAL/MOL
REMARK 922        TOTAL FREE ENERGY PREDICTED BY IDOCK:   -6.97 KCAL/MOL
REMARK 923 INTER-LIGAND FREE ENERGY PREDICTED BY IDOCK:   -6.58 KCAL/MOL
REMARK 924 INTRA-LIGAND FREE ENERGY PREDICTED BY IDOCK:   -0.38 KCAL/MOL
REMARK 927      BINDING AFFINITY PREDICTED BY RF-SCORE:    0.00 PKD
ROOT
HETATM    1  C   UNL     1     -10.359   2.596  72.699  1.00  0.00    -0.147 C  
HETATM    2  N   UNL     1     -10.131   3.943  72.200  1.00  0.00    -0.170 NA 
HETATM    3  H   UNL     1     -10.203   3.985  71.183  1.00  0.00     0.000 HD 
ENDROOT
BRANCH   2   4
HETATM    4  C   UNL     1     -11.029   4.901  72.843  1.00  0.00    -0.262 C  
BRANCH   4   5
HETATM    5  C   UNL     1     -11.059   6.210  72.089  1.00  0.00    -0.321 A  
HETATM    6  C   UNL     1     -11.068   6.256  70.686  1.00  0.00    -0.389 A  
HETATM    7  C   UNL     1     -11.069   7.484  70.004  1.00  0.00    -0.219 A  
HETATM    8  C   UNL     1     -11.059   8.692  70.713  1.00  0.00    -0.295 A  
HETATM    9  C   UNL     1     -11.050   8.634  72.113  1.00  0.00    -0.434 A  
HETATM   10  C   UNL     1     -11.060   7.415  72.793  1.00  0.00    -0.394 A  
BRANCH   8  11
HETATM   11  C   UNL     1     -11.012  10.003  70.048  1.00  0.00    -0.300 A  
HETATM   12  C   UNL     1     -10.496  10.374  68.814  1.00  0.00    -0.219 A  
HETATM   13  C   UNL     1      -9.620   9.637  67.847  1.00  0.00    -0.159 C  
HETATM   14  C   UNL     1     -10.328   9.379  66.513  1.00  0.00    -0.198 C  
HETATM   15  N   UNL     1     -10.942  10.547  65.864  1.00  0.00     0.109 N  
HETATM   16  C   UNL     1     -10.451  11.829  66.092  1.00  0.00    -0.245 C  
HETATM   17  H   UNL     1     -11.737  10.416  65.239  1.00  0.00     0.000 HD 
HETATM   18  O   UNL     1      -9.787  12.452  65.277  1.00  0.00    -0.245 OA 
HETATM   19  C   UNL     1     -10.908  12.468  67.356  1.00  0.00    -0.272 A  
HETATM   20  C   UNL     1     -10.969  11.683  68.521  1.00  0.00    -0.264 A  
HETATM   21  C   UNL     1     -11.542  12.190  69.678  1.00  0.00    -0.291 A  
HETATM   22  C   UNL     1     -11.971  13.522  69.750  1.00  0.00    -0.405 A  
HETATM   23  N   UNL     1     -11.585  11.151  70.578  1.00  0.00    -0.446 NA 
HETATM   24  H   UNL     1     -11.986  11.215  71.513  1.00  0.00     0.000 HD 
HETATM   25  C   UNL     1     -11.807  14.308  68.604  1.00  0.00    -0.344 A  
HETATM   26  C   UNL     1     -11.297  13.805  67.412  1.00  0.00    -0.348 A  
HETATM   27  F   UNL     1     -12.176  15.597  68.655  1.00  0.00    -0.326 F  
ENDBRANCH   8  11
ENDBRANCH   4   5
ENDBRANCH   2   4
TORSDOF 3
ENDMDL
MODEL       55
REMARK 921   NORMALIZED FREE ENERGY PREDICTED BY IDOCK:   -5.57 KCAL/MOL
REMARK 922        TOTAL FREE ENERGY PREDICTED BY IDOCK:   -6.93 KCAL/MOL
REMARK 923 INTER-LIGAND FREE ENERGY PREDICTED BY IDOCK:   -6.67 KCAL/MOL
REMARK 924 INTRA-LIGAND FREE ENERGY PREDICTED BY IDOCK:   -0.26 KCAL/MOL
REMARK 927      BINDING AFFINITY PREDICTED BY RF-SCORE:    0.00 PKD
ROOT
HETATM    1  C   UNL     1     -10.490  17.925  68.001  1.00  0.00    -0.382 C  
HETATM    2  N   UNL     1     -10.748  16.497  67.889  1.00  0.00    -0.335 NA 
HETATM    3  H   UNL     1      -9.892  15.951  67.996  1.00  0.00     0.000 HD 
ENDROOT
BRANCH   2   4
HETATM    4  C   UNL     1     -11.779  16.074  68.835  1.00  0.00    -0.319 C  
BRANCH   4   5
HETATM    5  C   UNL     1     -11.684  14.593  69.116  1.00  0.00    -0.342 A  
HETATM    6  C   UNL     1     -11.127  13.697  68.191  1.00  0.00    -0.281 A  
HETATM    7  C   UNL     1     -11.073  12.319  68.461  1.00  0.00    -0.290 A  
HETATM    8  C   UNL     1     -11.579  11.809  69.663  1.00  0.00    -0.393 A  
HETATM    9  C   UNL     1     -12.133  12.713  70.580  1.00  0.00    -0.360 A  
HETATM   10  C   UNL     1     -12.178  14.083  70.319  1.00  0.00    -0.430 A  
BRANCH   8  11
HETATM   11  C   UNL     1     -11.591  10.372  69.975  1.00  0.00    -0.301 A  
HETATM   12  C   UNL     1     -10.959   9.306  69.349  1.00  0.00    -0.138 A  
HETATM   13  C   UNL     1     -10.248   9.212  68.034  1.00  0.00    -0.258 C  
HETATM   14  C   UNL     1      -8.762   8.879  68.206  1.00  0.00    -0.134 C  
HETATM   15  N   UNL     1      -8.448   7.713  69.046  1.00  0.00    -0.132 N  
HETATM   16  C   UNL     1      -9.360   6.670  69.187  1.00  0.00    -0.134 C  
HETATM   17  H   UNL     1      -7.552   7.667  69.530  1.00  0.00     0.000 HD 
HETATM   18  O   UNL     1      -9.232   5.584  68.641  1.00  0.00    -0.119 OA 
HETATM   19  C   UNL     1     -10.449   6.909  70.172  1.00  0.00    -0.233 A  
HETATM   20  C   UNL     1     -11.051   8.180  70.214  1.00  0.00    -0.221 A  
HETATM   21  C   UNL     1     -11.950   8.496  71.220  1.00  0.00    -0.294 A  
HETATM   22  C   UNL     1     -12.366   7.533  72.150  1.00  0.00    -0.251 A  
HETATM   23  N   UNL     1     -12.241   9.833  71.075  1.00  0.00    -0.329 NA 
HETATM   24  H   UNL     1     -12.856  10.359  71.695  1.00  0.00     0.000 HD 
HETATM   25  C   UNL     1     -11.824   6.250  72.023  1.00  0.00    -0.318 A  
HETATM   26  C   UNL     1     -10.870   5.925  71.064  1.00  0.00    -0.339 A  
HETATM   27  F   UNL     1     -12.230   5.297  72.877  1.00  0.00    -0.340 F  
ENDBRANCH   8  11
ENDBRANCH   4   5
ENDBRANCH   2   4
TORSDOF 3
ENDMDL
MODEL       56
REMARK 921   NORMALIZED FREE ENERGY PREDICTED BY IDOCK:   -5.53 KCAL/MOL
REMARK 922        TOTAL FREE ENERGY PREDICTED BY IDOCK:   -6.89 KCAL/MOL
REMARK 923 INTER-LIGAND FREE ENERGY PREDICTED BY IDOCK:   -6.48 KCAL/MOL
REMARK 924 INTRA-LIGAND FREE ENERGY PREDICTED BY IDOCK:   -0.40 KCAL/MOL
REMARK 927      BINDING AFFINITY PREDICTED BY RF-SCORE:    0.00 PKD
ROOT
HETATM    1  C   UNL     1      -8.404  20.009  66.207  1.00  0.00    -0.285 C  
HETATM    2  N   UNL     1      -9.589  19.485  66.869  1.00  0.00    -0.327 NA 
HETATM    3  H   UNL     1     -10.094  20.216  67.370  1.00  0.00     0.000 HD 
ENDROOT
BRANCH   2   4
HETATM    4  C   UNL     1     -10.454  18.785  65.922  1.00  0.00    -0.376 C  
BRANCH   4   5
HETATM    5  C   UNL     1     -10.262  17.289  66.012  1.00  0.00    -0.314 A  
HETATM    6  C   UNL     1     -10.871  16.407  65.106  1.00  0.00    -0.289 A  
HETATM    7  C   UNL     1     -10.701  15.017  65.223  1.00  0.00    -0.406 A  
HETATM    8  C   UNL     1      -9.918  14.481  66.254  1.00  0.00    -0.320 A  
HETATM    9  C   UNL     1      -9.314  15.371  67.153  1.00  0.00    -0.225 A  
HETATM   10  C   UNL     1      -9.473  16.752  67.032  1.00  0.00    -0.240 A  
BRANCH   8  11
HETATM   11  C   UNL     1      -9.746  13.034  66.450  1.00  0.00    -0.268 A  
HETATM   12  C   UNL     1     -10.038  12.229  67.543  1.00  0.00    -0.206 A  
HETATM   13  C   UNL     1     -10.405  12.573  68.954  1.00  0.00    -0.063 C  
HETATM   14  C   UNL     1     -11.817  12.098  69.313  1.00  0.00    -0.313 C  
HETATM   15  N   UNL     1     -12.122  10.687  69.030  1.00  0.00    -0.518 N  
HETATM   16  C   UNL     1     -11.111   9.731  69.005  1.00  0.00    -0.107 C  
HETATM   17  H   UNL     1     -13.086  10.406  68.852  1.00  0.00     0.000 HD 
HETATM   18  O   UNL     1     -10.934   8.913  69.896  1.00  0.00    -0.235 OA 
HETATM   19  C   UNL     1     -10.329   9.668  67.742  1.00  0.00    -0.286 A  
HETATM   20  C   UNL     1      -9.966  10.874  67.115  1.00  0.00    -0.221 A  
HETATM   21  C   UNL     1      -9.383  10.863  65.857  1.00  0.00    -0.200 A  
HETATM   22  C   UNL     1      -9.041   9.657  65.228  1.00  0.00    -0.269 A  
HETATM   23  N   UNL     1      -9.286  12.176  65.462  1.00  0.00    -0.434 NA 
HETATM   24  H   UNL     1      -8.923  12.481  64.559  1.00  0.00     0.000 HD 
HETATM   25  C   UNL     1      -9.325   8.475  65.919  1.00  0.00    -0.163 A  
HETATM   26  C   UNL     1      -9.969   8.458  67.151  1.00  0.00    -0.304 A  
HETATM   27  F   UNL     1      -8.976   7.307  65.357  1.00  0.00    -0.115 F  
ENDBRANCH   8  11
ENDBRANCH   4   5
ENDBRANCH   2   4
TORSDOF 3
ENDMDL
MODEL       57
REMARK 921   NORMALIZED FREE ENERGY PREDICTED BY IDOCK:   -5.43 KCAL/MOL
REMARK 922        TOTAL FREE ENERGY PREDICTED BY IDOCK:   -6.77 KCAL/MOL
REMARK 923 INTER-LIGAND FREE ENERGY PREDICTED BY IDOCK:   -6.25 KCAL/MOL
REMARK 924 INTRA-LIGAND FREE ENERGY PREDICTED BY IDOCK:   -0.52 KCAL/MOL
REMARK 927      BINDING AFFINITY PREDICTED BY RF-SCORE:    0.00 PKD
ROOT
HETATM    1  C   UNL     1      -9.318   9.178  70.012  1.00  0.00    -0.199 C  
HETATM    2  N   UNL     1      -9.304   8.655  68.654  1.00  0.00    -0.142 NA 
HETATM    3  H   UNL     1      -9.277   7.636  68.644  1.00  0.00     0.000 HD 
ENDROOT
BRANCH   2   4
HETATM    4  C   UNL     1     -10.431   9.172  67.880  1.00  0.00    -0.237 C  
BRANCH   4   5
HETATM    5  C   UNL     1     -10.324  10.668  67.696  1.00  0.00    -0.246 A  
HETATM    6  C   UNL     1      -9.165  11.271  67.183  1.00  0.00    -0.169 A  
HETATM    7  C   UNL     1      -9.077  12.666  67.045  1.00  0.00    -0.215 A  
HETATM    8  C   UNL     1     -10.147  13.487  67.420  1.00  0.00    -0.237 A  
HETATM    9  C   UNL     1     -11.299  12.875  67.931  1.00  0.00    -0.336 A  
HETATM   10  C   UNL     1     -11.394  11.489  68.059  1.00  0.00    -0.368 A  
BRANCH   8  11
HETATM   11  C   UNL     1     -10.089  14.955  67.340  1.00  0.00    -0.228 A  
HETATM   12  C   UNL     1      -9.410  15.877  68.126  1.00  0.00    -0.198 A  
HETATM   13  C   UNL     1      -8.704  15.727  69.439  1.00  0.00    -0.230 C  
HETATM   14  C   UNL     1      -7.203  16.012  69.318  1.00  0.00    -0.226 C  
HETATM   15  N   UNL     1      -6.829  17.280  68.674  1.00  0.00    -0.197 N  
HETATM   16  C   UNL     1      -7.690  18.374  68.702  1.00  0.00    -0.301 C  
HETATM   17  H   UNL     1      -5.929  17.359  68.202  1.00  0.00     0.000 HD 
HETATM   18  O   UNL     1      -7.514  19.352  69.413  1.00  0.00    -0.295 OA 
HETATM   19  C   UNL     1      -8.783  18.347  67.694  1.00  0.00    -0.268 A  
HETATM   20  C   UNL     1      -9.444  17.129  67.452  1.00  0.00    -0.247 A  
HETATM   21  C   UNL     1     -10.351  17.020  66.410  1.00  0.00    -0.303 A  
HETATM   22  C   UNL     1     -10.716  18.137  65.645  1.00  0.00    -0.045 A  
HETATM   23  N   UNL     1     -10.706  15.692  66.341  1.00  0.00    -0.306 NA 
HETATM   24  H   UNL     1     -11.341  15.301  65.646  1.00  0.00     0.000 HD 
HETATM   25  C   UNL     1     -10.114  19.357  65.974  1.00  0.00    -0.410 A  
HETATM   26  C   UNL     1      -9.152  19.479  66.970  1.00  0.00    -0.378 A  
HETATM   27  F   UNL     1     -10.470  20.451  65.282  1.00  0.00    -0.471 F  
ENDBRANCH   8  11
ENDBRANCH   4   5
ENDBRANCH   2   4
TORSDOF 3
ENDMDL
MODEL       58
REMARK 921   NORMALIZED FREE ENERGY PREDICTED BY IDOCK:   -5.42 KCAL/MOL
REMARK 922        TOTAL FREE ENERGY PREDICTED BY IDOCK:   -6.76 KCAL/MOL
REMARK 923 INTER-LIGAND FREE ENERGY PREDICTED BY IDOCK:   -6.44 KCAL/MOL
REMARK 924 INTRA-LIGAND FREE ENERGY PREDICTED BY IDOCK:   -0.32 KCAL/MOL
REMARK 927      BINDING AFFINITY PREDICTED BY RF-SCORE:    0.00 PKD
ROOT
HETATM    1  C   UNL     1      -6.305  21.202  68.106  1.00  0.00    -0.189 C  
HETATM    2  N   UNL     1      -7.198  21.244  66.958  1.00  0.00    -0.790 NA 
HETATM    3  H   UNL     1      -7.333  22.198  66.622  1.00  0.00     0.000 HD 
ENDROOT
BRANCH   2   4
HETATM    4  C   UNL     1      -6.728  20.359  65.894  1.00  0.00    -0.238 C  
BRANCH   4   5
HETATM    5  C   UNL     1      -7.110  18.924  66.172  1.00  0.00    -0.284 A  
HETATM    6  C   UNL     1      -8.451  18.511  66.227  1.00  0.00    -0.227 A  
HETATM    7  C   UNL     1      -8.785  17.177  66.513  1.00  0.00    -0.293 A  
HETATM    8  C   UNL     1      -7.784  16.228  66.753  1.00  0.00    -0.295 A  
HETATM    9  C   UNL     1      -6.449  16.651  66.696  1.00  0.00    -0.114 A  
HETATM   10  C   UNL     1      -6.113  17.973  66.401  1.00  0.00    -0.223 A  
BRANCH   8  11
HETATM   11  C   UNL     1      -8.080  14.831  67.104  1.00  0.00    -0.197 A  
HETATM   12  C   UNL     1      -9.283  14.213  67.419  1.00  0.00    -0.204 A  
HETATM   13  C   UNL     1     -10.633  14.781  67.733  1.00  0.00    -0.257 C  
HETATM   14  C   UNL     1     -11.683  14.374  66.694  1.00  0.00    -0.394 C  
HETATM   15  N   UNL     1     -11.785  12.937  66.397  1.00  0.00    -0.375 N  
HETATM   16  C   UNL     1     -11.419  11.986  67.346  1.00  0.00    -0.336 C  
HETATM   17  H   UNL     1     -12.128  12.634  65.486  1.00  0.00     0.000 HD 
HETATM   18  O   UNL     1     -12.225  11.322  67.980  1.00  0.00    -0.621 OA 
HETATM   19  C   UNL     1      -9.959  11.718  67.446  1.00  0.00    -0.198 A  
HETATM   20  C   UNL     1      -9.070  12.807  67.382  1.00  0.00    -0.192 A  
HETATM   21  C   UNL     1      -7.703  12.591  67.305  1.00  0.00    -0.146 A  
HETATM   22  C   UNL     1      -7.167  11.299  67.400  1.00  0.00    -0.110 A  
HETATM   23  N   UNL     1      -7.126  13.824  67.108  1.00  0.00    -0.393 NA 
HETATM   24  H   UNL     1      -6.126  13.978  66.981  1.00  0.00     0.000 HD 
HETATM   25  C   UNL     1      -8.071  10.245  67.562  1.00  0.00    -0.110 A  
HETATM   26  C   UNL     1      -9.449  10.428  67.574  1.00  0.00    -0.167 A  
HETATM   27  F   UNL     1      -7.585   9.000  67.691  1.00  0.00    -0.088 F  
ENDBRANCH   8  11
ENDBRANCH   4   5
ENDBRANCH   2   4
TORSDOF 3
ENDMDL
MODEL       59
REMARK 921   NORMALIZED FREE ENERGY PREDICTED BY IDOCK:   -5.42 KCAL/MOL
REMARK 922        TOTAL FREE ENERGY PREDICTED BY IDOCK:   -6.76 KCAL/MOL
REMARK 923 INTER-LIGAND FREE ENERGY PREDICTED BY IDOCK:   -6.51 KCAL/MOL
REMARK 924 INTRA-LIGAND FREE ENERGY PREDICTED BY IDOCK:   -0.25 KCAL/MOL
REMARK 927      BINDING AFFINITY PREDICTED BY RF-SCORE:    0.00 PKD
ROOT
HETATM    1  C   UNL     1     -11.866  14.618  64.653  1.00  0.00    -0.452 C  
HETATM    2  N   UNL     1     -12.439  13.831  65.734  1.00  0.00    -0.479 NA 
HETATM    3  H   UNL     1     -12.449  12.836  65.510  1.00  0.00     0.000 HD 
ENDROOT
BRANCH   2   4
HETATM    4  C   UNL     1     -11.751  14.092  66.997  1.00  0.00    -0.405 C  
BRANCH   4   5
HETATM    5  C   UNL     1     -11.636  12.833  67.824  1.00  0.00    -0.405 A  
HETATM    6  C   UNL     1     -12.050  12.786  69.164  1.00  0.00    -0.206 A  
HETATM    7  C   UNL     1     -11.909  11.613  69.924  1.00  0.00    -0.434 A  
HETATM    8  C   UNL     1     -11.346  10.462  69.358  1.00  0.00    -0.310 A  
HETATM    9  C   UNL     1     -10.936  10.520  68.019  1.00  0.00    -0.345 A  
HETATM   10  C   UNL     1     -11.085  11.681  67.259  1.00  0.00    -0.346 A  
BRANCH   8  11
HETATM   11  C   UNL     1     -11.132   9.224  70.121  1.00  0.00    -0.230 A  
HETATM   12  C   UNL     1     -10.806   7.943  69.695  1.00  0.00    -0.177 A  
HETATM   13  C   UNL     1     -10.784   7.332  68.327  1.00  0.00    -0.174 C  
HETATM   14  C   UNL     1      -9.373   6.904  67.911  1.00  0.00    -0.118 C  
HETATM   15  N   UNL     1      -8.640   6.058  68.865  1.00  0.00    -0.115 N  
HETATM   16  C   UNL     1      -9.323   5.237  69.759  1.00  0.00    -0.134 C  
HETATM   17  H   UNL     1      -7.621   6.072  68.872  1.00  0.00     0.000 HD 
HETATM   18  O   UNL     1      -9.403   4.024  69.633  1.00  0.00    -0.138 OA 
HETATM   19  C   UNL     1      -9.840   5.917  70.976  1.00  0.00    -0.225 A  
HETATM   20  C   UNL     1     -10.422   7.190  70.839  1.00  0.00    -0.225 A  
HETATM   21  C   UNL     1     -10.767   7.928  71.961  1.00  0.00    -0.241 A  
HETATM   22  C   UNL     1     -10.648   7.386  73.249  1.00  0.00    -0.442 A  
HETATM   23  N   UNL     1     -11.165   9.163  71.507  1.00  0.00    -0.335 NA 
HETATM   24  H   UNL     1     -11.448   9.935  72.110  1.00  0.00     0.000 HD 
HETATM   25  C   UNL     1     -10.158   6.080  73.348  1.00  0.00    -0.198 A  
HETATM   26  C   UNL     1      -9.743   5.344  72.243  1.00  0.00    -0.187 A  
HETATM   27  F   UNL     1     -10.066   5.522  74.566  1.00  0.00    -0.187 F  
ENDBRANCH   8  11
ENDBRANCH   4   5
ENDBRANCH   2   4
TORSDOF 3
ENDMDL
MODEL       60
REMARK 921   NORMALIZED FREE ENERGY PREDICTED BY IDOCK:   -5.41 KCAL/MOL
REMARK 922        TOTAL FREE ENERGY PREDICTED BY IDOCK:   -6.75 KCAL/MOL
REMARK 923 INTER-LIGAND FREE ENERGY PREDICTED BY IDOCK:   -6.16 KCAL/MOL
REMARK 924 INTRA-LIGAND FREE ENERGY PREDICTED BY IDOCK:   -0.59 KCAL/MOL
REMARK 927      BINDING AFFINITY PREDICTED BY RF-SCORE:    0.00 PKD
ROOT
HETATM    1  C   UNL     1     -10.146  17.076  66.514  1.00  0.00    -0.314 C  
HETATM    2  N   UNL     1     -10.181  16.862  67.952  1.00  0.00    -0.295 NA 
HETATM    3  H   UNL     1     -10.141  17.743  68.465  1.00  0.00     0.000 HD 
ENDROOT
BRANCH   2   4
HETATM    4  C   UNL     1     -11.347  16.068  68.337  1.00  0.00    -0.355 C  
BRANCH   4   5
HETATM    5  C   UNL     1     -11.162  14.615  67.968  1.00  0.00    -0.307 A  
HETATM    6  C   UNL     1     -12.069  13.940  67.136  1.00  0.00    -0.422 A  
HETATM    7  C   UNL     1     -11.893  12.581  66.826  1.00  0.00    -0.416 A  
HETATM    8  C   UNL     1     -10.806  11.868  67.346  1.00  0.00    -0.289 A  
HETATM    9  C   UNL     1      -9.906  12.551  68.175  1.00  0.00    -0.221 A  
HETATM   10  C   UNL     1     -10.072  13.904  68.476  1.00  0.00    -0.234 A  
BRANCH   8  11
HETATM   11  C   UNL     1     -10.601  10.434  67.092  1.00  0.00    -0.261 A  
HETATM   12  C   UNL     1      -9.898   9.785  66.086  1.00  0.00    -0.329 A  
HETATM   13  C   UNL     1      -9.309  10.293  64.805  1.00  0.00    -0.313 C  
HETATM   14  C   UNL     1      -7.783  10.156  64.781  1.00  0.00    -0.141 C  
HETATM   15  N   UNL     1      -7.242   8.828  65.105  1.00  0.00    -0.086 N  
HETATM   16  C   UNL     1      -7.993   7.678  64.878  1.00  0.00    -0.135 C  
HETATM   17  H   UNL     1      -6.306   8.747  65.501  1.00  0.00     0.000 HD 
HETATM   18  O   UNL     1      -7.777   6.903  63.958  1.00  0.00    -0.106 OA 
HETATM   19  C   UNL     1      -9.006   7.365  65.921  1.00  0.00    -0.114 A  
HETATM   20  C   UNL     1      -9.761   8.420  66.464  1.00  0.00    -0.330 A  
HETATM   21  C   UNL     1     -10.594   8.200  67.549  1.00  0.00    -0.221 A  
HETATM   22  C   UNL     1     -10.791   6.910  68.062  1.00  0.00    -0.266 A  
HETATM   23  N   UNL     1     -11.069   9.434  67.931  1.00  0.00    -0.503 NA 
HETATM   24  H   UNL     1     -11.684   9.592  68.728  1.00  0.00     0.000 HD 
HETATM   25  C   UNL     1     -10.102   5.865  67.438  1.00  0.00    -0.169 A  
HETATM   26  C   UNL     1      -9.209   6.069  66.392  1.00  0.00    -0.163 A  
HETATM   27  F   UNL     1     -10.298   4.614  67.885  1.00  0.00    -0.168 F  
ENDBRANCH   8  11
ENDBRANCH   4   5
ENDBRANCH   2   4
TORSDOF 3
ENDMDL
MODEL       61
REMARK 921   NORMALIZED FREE ENERGY PREDICTED BY IDOCK:   -5.38 KCAL/MOL
REMARK 922        TOTAL FREE ENERGY PREDICTED BY IDOCK:   -6.71 KCAL/MOL
REMARK 923 INTER-LIGAND FREE ENERGY PREDICTED BY IDOCK:   -6.37 KCAL/MOL
REMARK 924 INTRA-LIGAND FREE ENERGY PREDICTED BY IDOCK:   -0.34 KCAL/MOL
REMARK 927      BINDING AFFINITY PREDICTED BY RF-SCORE:    0.00 PKD
ROOT
HETATM    1  C   UNL     1     -11.500   5.221  73.169  1.00  0.00    -0.246 C  
HETATM    2  N   UNL     1     -11.628   6.652  72.936  1.00  0.00    -0.492 NA 
HETATM    3  H   UNL     1     -10.720   7.116  72.938  1.00  0.00     0.000 HD 
ENDROOT
BRANCH   2   4
HETATM    4  C   UNL     1     -12.367   6.919  71.704  1.00  0.00    -0.371 C  
BRANCH   4   5
HETATM    5  C   UNL     1     -11.787   8.104  70.968  1.00  0.00    -0.279 A  
HETATM    6  C   UNL     1     -10.805   7.952  69.976  1.00  0.00    -0.238 A  
HETATM    7  C   UNL     1     -10.259   9.070  69.322  1.00  0.00    -0.210 A  
HETATM    8  C   UNL     1     -10.683  10.363  69.651  1.00  0.00    -0.304 A  
HETATM    9  C   UNL     1     -11.663  10.503  70.643  1.00  0.00    -0.453 A  
HETATM   10  C   UNL     1     -12.215   9.395  71.286  1.00  0.00    -0.425 A  
BRANCH   8  11
HETATM   11  C   UNL     1     -10.110  11.568  69.032  1.00  0.00    -0.054 A  
HETATM   12  C   UNL     1     -10.670  12.817  68.798  1.00  0.00    -0.246 A  
HETATM   13  C   UNL     1     -12.087  13.297  68.878  1.00  0.00    -0.260 C  
HETATM   14  C   UNL     1     -12.271  14.367  69.959  1.00  0.00    -0.351 C  
HETATM   15  N   UNL     1     -11.343  15.507  69.913  1.00  0.00    -0.285 N  
HETATM   16  C   UNL     1     -10.759  15.901  68.712  1.00  0.00    -0.265 C  
HETATM   17  H   UNL     1     -11.126  16.015  70.770  1.00  0.00     0.000 HD 
HETATM   18  O   UNL     1     -11.100  16.898  68.092  1.00  0.00    -0.347 OA 
HETATM   19  C   UNL     1      -9.576  15.104  68.290  1.00  0.00    -0.211 A  
HETATM   20  C   UNL     1      -9.614  13.708  68.455  1.00  0.00    -0.203 A  
HETATM   21  C   UNL     1      -8.479  12.945  68.230  1.00  0.00    -0.161 A  
HETATM   22  C   UNL     1      -7.304  13.524  67.731  1.00  0.00    -0.166 A  
HETATM   23  N   UNL     1      -8.791  11.661  68.613  1.00  0.00    -0.316 NA 
HETATM   24  H   UNL     1      -8.138  10.879  68.591  1.00  0.00     0.000 HD 
HETATM   25  C   UNL     1      -7.327  14.900  67.484  1.00  0.00    -0.204 A  
HETATM   26  C   UNL     1      -8.431  15.698  67.764  1.00  0.00    -0.158 A  
HETATM   27  F   UNL     1      -6.227  15.477  66.972  1.00  0.00    -0.124 F  
ENDBRANCH   8  11
ENDBRANCH   4   5
ENDBRANCH   2   4
TORSDOF 3
ENDMDL
MODEL       62
REMARK 921   NORMALIZED FREE ENERGY PREDICTED BY IDOCK:   -5.38 KCAL/MOL
REMARK 922        TOTAL FREE ENERGY PREDICTED BY IDOCK:   -6.70 KCAL/MOL
REMARK 923 INTER-LIGAND FREE ENERGY PREDICTED BY IDOCK:   -6.42 KCAL/MOL
REMARK 924 INTRA-LIGAND FREE ENERGY PREDICTED BY IDOCK:   -0.28 KCAL/MOL
REMARK 927      BINDING AFFINITY PREDICTED BY RF-SCORE:    0.00 PKD
ROOT
HETATM    1  C   UNL     1      -9.863   4.333  65.377  1.00  0.00    -0.211 C  
HETATM    2  N   UNL     1      -8.961   5.438  65.094  1.00  0.00    -0.299 NA 
HETATM    3  H   UNL     1      -9.382   6.114  64.456  1.00  0.00     0.000 HD 
ENDROOT
BRANCH   2   4
HETATM    4  C   UNL     1      -8.506   6.075  66.328  1.00  0.00    -0.130 C  
BRANCH   4   5
HETATM    5  C   UNL     1      -8.906   7.532  66.369  1.00  0.00    -0.178 A  
HETATM    6  C   UNL     1      -8.003   8.558  66.048  1.00  0.00    -0.107 A  
HETATM    7  C   UNL     1      -8.388   9.907  66.117  1.00  0.00    -0.123 A  
HETATM    8  C   UNL     1      -9.684  10.258  66.514  1.00  0.00    -0.243 A  
HETATM    9  C   UNL     1     -10.577   9.226  66.832  1.00  0.00    -0.239 A  
HETATM   10  C   UNL     1     -10.202   7.884  66.753  1.00  0.00    -0.358 A  
BRANCH   8  11
HETATM   11  C   UNL     1     -10.124  11.655  66.649  1.00  0.00    -0.208 A  
HETATM   12  C   UNL     1     -11.020  12.239  67.534  1.00  0.00    -0.298 A  
HETATM   13  C   UNL     1     -12.006  11.634  68.486  1.00  0.00    -0.284 C  
HETATM   14  C   UNL     1     -11.674  11.965  69.945  1.00  0.00    -0.308 C  
HETATM   15  N   UNL     1     -11.460  13.386  70.259  1.00  0.00    -0.509 N  
HETATM   16  C   UNL     1     -12.063  14.382  69.495  1.00  0.00    -0.322 C  
HETATM   17  H   UNL     1     -10.865  13.644  71.045  1.00  0.00     0.000 HD 
HETATM   18  O   UNL     1     -13.020  15.038  69.878  1.00  0.00    -0.085 OA 
HETATM   19  C   UNL     1     -11.374  14.706  68.218  1.00  0.00    -0.317 A  
HETATM   20  C   UNL     1     -10.862  13.650  67.443  1.00  0.00    -0.282 A  
HETATM   21  C   UNL     1     -10.072  13.912  66.335  1.00  0.00    -0.295 A  
HETATM   22  C   UNL     1      -9.856  15.225  65.894  1.00  0.00    -0.385 A  
HETATM   23  N   UNL     1      -9.613  12.695  65.888  1.00  0.00    -0.405 NA 
HETATM   24  H   UNL     1      -8.979  12.574  65.099  1.00  0.00     0.000 HD 
HETATM   25  C   UNL     1     -10.460  16.251  66.628  1.00  0.00    -0.290 A  
HETATM   26  C   UNL     1     -11.200  16.018  67.781  1.00  0.00    -0.231 A  
HETATM   27  F   UNL     1     -10.300  17.517  66.209  1.00  0.00    -0.320 F  
ENDBRANCH   8  11
ENDBRANCH   4   5
ENDBRANCH   2   4
TORSDOF 3
ENDMDL
MODEL       63
REMARK 921   NORMALIZED FREE ENERGY PREDICTED BY IDOCK:   -5.37 KCAL/MOL
REMARK 922        TOTAL FREE ENERGY PREDICTED BY IDOCK:   -6.69 KCAL/MOL
REMARK 923 INTER-LIGAND FREE ENERGY PREDICTED BY IDOCK:   -6.12 KCAL/MOL
REMARK 924 INTRA-LIGAND FREE ENERGY PREDICTED BY IDOCK:   -0.57 KCAL/MOL
REMARK 927      BINDING AFFINITY PREDICTED BY RF-SCORE:    0.00 PKD
ROOT
HETATM    1  C   UNL     1     -10.128   4.305  64.536  1.00  0.00    -0.096 C  
HETATM    2  N   UNL     1      -9.712   4.338  65.930  1.00  0.00    -0.191 NA 
HETATM    3  H   UNL     1      -9.555   3.399  66.298  1.00  0.00     0.000 HD 
ENDROOT
BRANCH   2   4
HETATM    4  C   UNL     1      -8.536   5.189  66.107  1.00  0.00    -0.117 C  
BRANCH   4   5
HETATM    5  C   UNL     1      -8.922   6.649  66.143  1.00  0.00    -0.157 A  
HETATM    6  C   UNL     1      -9.988   7.115  66.927  1.00  0.00    -0.293 A  
HETATM    7  C   UNL     1     -10.347   8.473  66.925  1.00  0.00    -0.367 A  
HETATM    8  C   UNL     1      -9.647   9.393  66.135  1.00  0.00    -0.311 A  
HETATM    9  C   UNL     1      -8.584   8.917  65.356  1.00  0.00    -0.200 A  
HETATM   10  C   UNL     1      -8.218   7.571  65.364  1.00  0.00    -0.136 A  
BRANCH   8  11
HETATM   11  C   UNL     1     -10.012  10.816  66.060  1.00  0.00    -0.242 A  
HETATM   12  C   UNL     1      -9.617  11.893  66.842  1.00  0.00    -0.208 A  
HETATM   13  C   UNL     1      -8.884  11.951  68.147  1.00  0.00    -0.178 C  
HETATM   14  C   UNL     1      -7.528  12.653  68.014  1.00  0.00    -0.120 C  
HETATM   15  N   UNL     1      -7.539  13.975  67.370  1.00  0.00    -0.272 N  
HETATM   16  C   UNL     1      -8.676  14.778  67.410  1.00  0.00    -0.198 C  
HETATM   17  H   UNL     1      -6.704  14.309  66.889  1.00  0.00     0.000 HD 
HETATM   18  O   UNL     1      -8.780  15.765  68.122  1.00  0.00    -0.169 OA 
HETATM   19  C   UNL     1      -9.726  14.440  66.412  1.00  0.00    -0.320 A  
HETATM   20  C   UNL     1     -10.014  13.084  66.172  1.00  0.00    -0.278 A  
HETATM   21  C   UNL     1     -10.863  12.720  65.138  1.00  0.00    -0.291 A  
HETATM   22  C   UNL     1     -11.539  13.687  64.381  1.00  0.00    -0.421 A  
HETATM   23  N   UNL     1     -10.824  11.347  65.069  1.00  0.00    -0.275 NA 
HETATM   24  H   UNL     1     -11.328  10.791  64.378  1.00  0.00     0.000 HD 
HETATM   25  C   UNL     1     -11.308  15.028  64.708  1.00  0.00    -0.406 A  
HETATM   26  C   UNL     1     -10.411  15.420  65.695  1.00  0.00    -0.395 A  
HETATM   27  F   UNL     1     -11.968  15.975  64.023  1.00  0.00    -0.482 F  
ENDBRANCH   8  11
ENDBRANCH   4   5
ENDBRANCH   2   4
TORSDOF 3
ENDMDL
MODEL       64
REMARK 921   NORMALIZED FREE ENERGY PREDICTED BY IDOCK:   -5.35 KCAL/MOL
REMARK 922        TOTAL FREE ENERGY PREDICTED BY IDOCK:   -6.68 KCAL/MOL
REMARK 923 INTER-LIGAND FREE ENERGY PREDICTED BY IDOCK:   -6.20 KCAL/MOL
REMARK 924 INTRA-LIGAND FREE ENERGY PREDICTED BY IDOCK:   -0.48 KCAL/MOL
REMARK 927      BINDING AFFINITY PREDICTED BY RF-SCORE:    0.00 PKD
ROOT
HETATM    1  C   UNL     1      -6.600   4.261  63.673  1.00  0.00    -0.041 C  
HETATM    2  N   UNL     1      -6.324   5.182  64.764  1.00  0.00    -0.033 NA 
HETATM    3  H   UNL     1      -6.200   6.138  64.428  1.00  0.00     0.000 HD 
ENDROOT
BRANCH   2   4
HETATM    4  C   UNL     1      -7.360   5.104  65.793  1.00  0.00    -0.077 C  
BRANCH   4   5
HETATM    5  C   UNL     1      -8.141   6.394  65.878  1.00  0.00    -0.124 A  
HETATM    6  C   UNL     1      -9.402   6.458  66.492  1.00  0.00    -0.181 A  
HETATM    7  C   UNL     1     -10.124   7.663  66.537  1.00  0.00    -0.205 A  
HETATM    8  C   UNL     1      -9.599   8.828  65.965  1.00  0.00    -0.297 A  
HETATM    9  C   UNL     1      -8.340   8.753  65.355  1.00  0.00    -0.159 A  
HETATM   10  C   UNL     1      -7.616   7.561  65.318  1.00  0.00    -0.097 A  
BRANCH   8  11
HETATM   11  C   UNL     1     -10.333  10.102  65.943  1.00  0.00    -0.151 A  
HETATM   12  C   UNL     1     -10.917  10.828  66.972  1.00  0.00    -0.292 A  
HETATM   13  C   UNL     1     -11.201  10.468  68.398  1.00  0.00    -0.339 C  
HETATM   14  C   UNL     1     -10.414  11.342  69.380  1.00  0.00     0.000 C  
HETATM   15  N   UNL     1     -10.518  12.796  69.186  1.00  0.00    -0.433 N  
HETATM   16  C   UNL     1     -11.644  13.356  68.587  1.00  0.00    -0.327 C  
HETATM   17  H   UNL     1      -9.758  13.402  69.494  1.00  0.00     0.000 HD 
HETATM   18  O   UNL     1     -12.506  13.960  69.207  1.00  0.00    -0.255 OA 
HETATM   19  C   UNL     1     -11.667  13.298  67.101  1.00  0.00    -0.425 A  
HETATM   20  C   UNL     1     -11.231  12.121  66.467  1.00  0.00    -0.378 A  
HETATM   21  C   UNL     1     -11.080  12.081  65.090  1.00  0.00    -0.318 A  
HETATM   22  C   UNL     1     -11.459  13.166  64.288  1.00  0.00    -0.428 A  
HETATM   23  N   UNL     1     -10.509  10.864  64.797  1.00  0.00    -0.325 NA 
HETATM   24  H   UNL     1     -10.249  10.562  63.859  1.00  0.00     0.000 HD 
HETATM   25  C   UNL     1     -11.982  14.288  64.940  1.00  0.00    -0.425 A  
HETATM   26  C   UNL     1     -12.081  14.379  66.324  1.00  0.00    -0.384 A  
HETATM   27  F   UNL     1     -12.386  15.330  64.195  1.00  0.00    -0.502 F  
ENDBRANCH   8  11
ENDBRANCH   4   5
ENDBRANCH   2   4
TORSDOF 3
ENDMDL
MODEL       65
REMARK 921   NORMALIZED FREE ENERGY PREDICTED BY IDOCK:   -5.30 KCAL/MOL
REMARK 922        TOTAL FREE ENERGY PREDICTED BY IDOCK:   -6.61 KCAL/MOL
REMARK 923 INTER-LIGAND FREE ENERGY PREDICTED BY IDOCK:   -6.28 KCAL/MOL
REMARK 924 INTRA-LIGAND FREE ENERGY PREDICTED BY IDOCK:   -0.33 KCAL/MOL
REMARK 927      BINDING AFFINITY PREDICTED BY RF-SCORE:    0.00 PKD
ROOT
HETATM    1  C   UNL     1     -12.526  12.591  63.473  1.00  0.00    -0.459 C  
HETATM    2  N   UNL     1     -11.593  13.366  64.277  1.00  0.00    -0.387 NA 
HETATM    3  H   UNL     1     -12.010  13.655  65.162  1.00  0.00     0.000 HD 
ENDROOT
BRANCH   2   4
HETATM    4  C   UNL     1     -10.344  12.635  64.483  1.00  0.00    -0.344 C  
BRANCH   4   5
HETATM    5  C   UNL     1     -10.464  11.667  65.636  1.00  0.00    -0.314 A  
HETATM    6  C   UNL     1     -11.333  11.901  66.713  1.00  0.00    -0.393 A  
HETATM    7  C   UNL     1     -11.410  11.000  67.789  1.00  0.00    -0.365 A  
HETATM    8  C   UNL     1     -10.615   9.848  67.810  1.00  0.00    -0.313 A  
HETATM    9  C   UNL     1      -9.750   9.624  66.730  1.00  0.00    -0.252 A  
HETATM   10  C   UNL     1      -9.680  10.511  65.655  1.00  0.00    -0.289 A  
BRANCH   8  11
HETATM   11  C   UNL     1     -10.621   8.898  68.933  1.00  0.00    -0.165 A  
HETATM   12  C   UNL     1     -10.389   7.530  68.962  1.00  0.00    -0.217 A  
HETATM   13  C   UNL     1     -10.283   6.522  67.858  1.00  0.00    -0.198 C  
HETATM   14  C   UNL     1      -8.888   5.890  67.790  1.00  0.00    -0.109 C  
HETATM   15  N   UNL     1      -8.361   5.336  69.046  1.00  0.00    -0.095 N  
HETATM   16  C   UNL     1      -9.223   4.884  70.042  1.00  0.00    -0.127 C  
HETATM   17  H   UNL     1      -7.353   5.281  69.189  1.00  0.00     0.000 HD 
HETATM   18  O   UNL     1      -9.419   3.701  70.278  1.00  0.00    -0.160 OA 
HETATM   19  C   UNL     1      -9.795   5.944  70.915  1.00  0.00    -0.224 A  
HETATM   20  C   UNL     1     -10.218   7.147  70.322  1.00  0.00    -0.207 A  
HETATM   21  C   UNL     1     -10.603   8.220  71.110  1.00  0.00    -0.214 A  
HETATM   22  C   UNL     1     -10.686   8.101  72.505  1.00  0.00    -0.419 A  
HETATM   23  N   UNL     1     -10.813   9.276  70.254  1.00  0.00    -0.234 NA 
HETATM   24  H   UNL     1     -11.076  10.215  70.552  1.00  0.00     0.000 HD 
HETATM   25  C   UNL     1     -10.353   6.861  73.059  1.00  0.00    -0.244 A  
HETATM   26  C   UNL     1      -9.901   5.791  72.296  1.00  0.00    -0.185 A  
HETATM   27  F   UNL     1     -10.458   6.707  74.389  1.00  0.00    -0.363 F  
ENDBRANCH   8  11
ENDBRANCH   4   5
ENDBRANCH   2   4
TORSDOF 3
ENDMDL
MODEL       66
REMARK 921   NORMALIZED FREE ENERGY PREDICTED BY IDOCK:   -5.24 KCAL/MOL
REMARK 922        TOTAL FREE ENERGY PREDICTED BY IDOCK:   -6.55 KCAL/MOL
REMARK 923 INTER-LIGAND FREE ENERGY PREDICTED BY IDOCK:   -6.27 KCAL/MOL
REMARK 924 INTRA-LIGAND FREE ENERGY PREDICTED BY IDOCK:   -0.28 KCAL/MOL
REMARK 927      BINDING AFFINITY PREDICTED BY RF-SCORE:    0.00 PKD
ROOT
HETATM    1  C   UNL     1     -12.282  14.564  64.274  1.00  0.00    -0.415 C  
HETATM    2  N   UNL     1     -12.857  13.962  65.468  1.00  0.00    -0.669 NA 
HETATM    3  H   UNL     1     -13.027  12.964  65.341  1.00  0.00     0.000 HD 
ENDROOT
BRANCH   2   4
HETATM    4  C   UNL     1     -12.023  14.221  66.640  1.00  0.00    -0.430 C  
BRANCH   4   5
HETATM    5  C   UNL     1     -11.702  12.939  67.374  1.00  0.00    -0.428 A  
HETATM    6  C   UNL     1     -11.893  12.810  68.758  1.00  0.00    -0.346 A  
HETATM    7  C   UNL     1     -11.563  11.618  69.425  1.00  0.00    -0.392 A  
HETATM    8  C   UNL     1     -11.032  10.532  68.720  1.00  0.00    -0.296 A  
HETATM    9  C   UNL     1     -10.845  10.672  67.338  1.00  0.00    -0.353 A  
HETATM   10  C   UNL     1     -11.182  11.850  66.671  1.00  0.00    -0.384 A  
BRANCH   8  11
HETATM   11  C   UNL     1     -10.625   9.280  69.376  1.00  0.00    -0.223 A  
HETATM   12  C   UNL     1     -10.358   8.026  68.844  1.00  0.00    -0.222 A  
HETATM   13  C   UNL     1     -10.606   7.457  67.481  1.00  0.00    -0.340 C  
HETATM   14  C   UNL     1      -9.301   7.093  66.764  1.00  0.00    -0.161 C  
HETATM   15  N   UNL     1      -8.360   6.246  67.512  1.00  0.00    -0.113 N  
HETATM   16  C   UNL     1      -8.815   5.375  68.498  1.00  0.00    -0.100 C  
HETATM   17  H   UNL     1      -7.363   6.297  67.306  1.00  0.00     0.000 HD 
HETATM   18  O   UNL     1      -8.884   4.164  68.347  1.00  0.00    -0.095 OA 
HETATM   19  C   UNL     1      -9.085   5.999  69.821  1.00  0.00    -0.145 A  
HETATM   20  C   UNL     1      -9.721   7.253  69.855  1.00  0.00    -0.174 A  
HETATM   21  C   UNL     1      -9.843   7.944  71.050  1.00  0.00    -0.170 A  
HETATM   22  C   UNL     1      -9.441   7.370  72.264  1.00  0.00    -0.180 A  
HETATM   23  N   UNL     1     -10.365   9.177  70.734  1.00  0.00    -0.236 NA 
HETATM   24  H   UNL     1     -10.538   9.920  71.411  1.00  0.00     0.000 HD 
HETATM   25  C   UNL     1      -8.902   6.080  72.210  1.00  0.00    -0.138 A  
HETATM   26  C   UNL     1      -8.707   5.393  71.017  1.00  0.00    -0.141 A  
HETATM   27  F   UNL     1      -8.540   5.490  73.361  1.00  0.00    -0.115 F  
ENDBRANCH   8  11
ENDBRANCH   4   5
ENDBRANCH   2   4
TORSDOF 3
ENDMDL
MODEL       67
REMARK 921   NORMALIZED FREE ENERGY PREDICTED BY IDOCK:   -5.22 KCAL/MOL
REMARK 922        TOTAL FREE ENERGY PREDICTED BY IDOCK:   -6.52 KCAL/MOL
REMARK 923 INTER-LIGAND FREE ENERGY PREDICTED BY IDOCK:   -6.03 KCAL/MOL
REMARK 924 INTRA-LIGAND FREE ENERGY PREDICTED BY IDOCK:   -0.50 KCAL/MOL
REMARK 927      BINDING AFFINITY PREDICTED BY RF-SCORE:    0.00 PKD
ROOT
HETATM    1  C   UNL     1      -9.056   3.983  66.264  1.00  0.00    -0.139 C  
HETATM    2  N   UNL     1     -10.347   4.578  66.575  1.00  0.00    -0.323 NA 
HETATM    3  H   UNL     1     -11.117   3.955  66.331  1.00  0.00     0.000 HD 
ENDROOT
BRANCH   2   4
HETATM    4  C   UNL     1     -10.411   4.992  67.975  1.00  0.00     0.044 C  
BRANCH   4   5
HETATM    5  C   UNL     1     -10.551   6.491  68.094  1.00  0.00    -0.307 A  
HETATM    6  C   UNL     1     -10.652   7.318  66.965  1.00  0.00    -0.415 A  
HETATM    7  C   UNL     1     -10.755   8.713  67.097  1.00  0.00    -0.199 A  
HETATM    8  C   UNL     1     -10.756   9.310  68.364  1.00  0.00    -0.192 A  
HETATM    9  C   UNL     1     -10.655   8.475  69.485  1.00  0.00    -0.215 A  
HETATM   10  C   UNL     1     -10.564   7.088  69.357  1.00  0.00    -0.248 A  
BRANCH   8  11
HETATM   11  C   UNL     1     -10.813  10.767  68.556  1.00  0.00    -0.228 A  
HETATM   12  C   UNL     1     -10.161  11.794  67.887  1.00  0.00    -0.203 A  
HETATM   13  C   UNL     1      -9.023  11.773  66.913  1.00  0.00    -0.195 C  
HETATM   14  C   UNL     1      -9.440  12.293  65.533  1.00  0.00    -0.017 C  
HETATM   15  N   UNL     1     -10.118  13.597  65.504  1.00  0.00    -0.399 N  
HETATM   16  C   UNL     1      -9.892  14.540  66.503  1.00  0.00    -0.285 C  
HETATM   17  H   UNL     1     -10.762  13.814  64.744  1.00  0.00     0.000 HD 
HETATM   18  O   UNL     1      -9.210  15.541  66.343  1.00  0.00    -0.254 OA 
HETATM   19  C   UNL     1     -10.657  14.327  67.761  1.00  0.00    -0.253 A  
HETATM   20  C   UNL     1     -10.787  13.017  68.256  1.00  0.00    -0.267 A  
HETATM   21  C   UNL     1     -11.625  12.753  69.327  1.00  0.00    -0.314 A  
HETATM   22  C   UNL     1     -12.275  13.789  70.012  1.00  0.00    -0.407 A  
HETATM   23  N   UNL     1     -11.650  11.385  69.474  1.00  0.00    -0.300 NA 
HETATM   24  H   UNL     1     -12.210  10.890  70.167  1.00  0.00     0.000 HD 
HETATM   25  C   UNL     1     -12.048  15.093  69.558  1.00  0.00    -0.283 A  
HETATM   26  C   UNL     1     -11.266  15.378  68.445  1.00  0.00    -0.318 A  
HETATM   27  F   UNL     1     -12.629  16.109  70.216  1.00  0.00    -0.311 F  
ENDBRANCH   8  11
ENDBRANCH   4   5
ENDBRANCH   2   4
TORSDOF 3
ENDMDL
MODEL       68
REMARK 921   NORMALIZED FREE ENERGY PREDICTED BY IDOCK:   -5.22 KCAL/MOL
REMARK 922        TOTAL FREE ENERGY PREDICTED BY IDOCK:   -6.52 KCAL/MOL
REMARK 923 INTER-LIGAND FREE ENERGY PREDICTED BY IDOCK:   -6.05 KCAL/MOL
REMARK 924 INTRA-LIGAND FREE ENERGY PREDICTED BY IDOCK:   -0.47 KCAL/MOL
REMARK 927      BINDING AFFINITY PREDICTED BY RF-SCORE:    0.00 PKD
ROOT
HETATM    1  C   UNL     1      -9.668   7.703  68.679  1.00  0.00    -0.155 C  
HETATM    2  N   UNL     1     -10.718   8.694  68.507  1.00  0.00    -0.416 NA 
HETATM    3  H   UNL     1     -10.645   9.443  69.197  1.00  0.00     0.000 HD 
ENDROOT
BRANCH   2   4
HETATM    4  C   UNL     1     -10.727   9.219  67.143  1.00  0.00    -0.152 C  
BRANCH   4   5
HETATM    5  C   UNL     1     -10.190  10.631  67.099  1.00  0.00    -0.261 A  
HETATM    6  C   UNL     1      -9.358  11.139  68.108  1.00  0.00    -0.176 A  
HETATM    7  C   UNL     1      -8.891  12.463  68.062  1.00  0.00    -0.187 A  
HETATM    8  C   UNL     1      -9.252  13.308  67.005  1.00  0.00    -0.237 A  
HETATM    9  C   UNL     1     -10.083  12.791  66.003  1.00  0.00    -0.277 A  
HETATM   10  C   UNL     1     -10.539  11.473  66.040  1.00  0.00    -0.310 A  
BRANCH   8  11
HETATM   11  C   UNL     1      -8.830  14.715  66.933  1.00  0.00    -0.242 A  
HETATM   12  C   UNL     1      -9.522  15.883  67.229  1.00  0.00    -0.217 A  
HETATM   13  C   UNL     1     -10.975  16.130  67.496  1.00  0.00    -0.238 C  
HETATM   14  C   UNL     1     -11.218  16.642  68.920  1.00  0.00    -0.200 C  
HETATM   15  N   UNL     1     -10.413  17.796  69.345  1.00  0.00    -0.330 N  
HETATM   16  C   UNL     1      -9.923  18.706  68.411  1.00  0.00    -0.387 C  
HETATM   17  H   UNL     1     -10.211  17.933  70.335  1.00  0.00     0.000 HD 
HETATM   18  O   UNL     1     -10.389  19.824  68.251  1.00  0.00    -0.435 OA 
HETATM   19  C   UNL     1      -8.686  18.282  67.702  1.00  0.00    -0.261 A  
HETATM   20  C   UNL     1      -8.576  16.945  67.281  1.00  0.00    -0.212 A  
HETATM   21  C   UNL     1      -7.381  16.468  66.766  1.00  0.00    -0.239 A  
HETATM   22  C   UNL     1      -6.293  17.324  66.549  1.00  0.00    -0.263 A  
HETATM   23  N   UNL     1      -7.546  15.114  66.591  1.00  0.00    -0.247 NA 
HETATM   24  H   UNL     1      -6.820  14.484  66.253  1.00  0.00     0.000 HD 
HETATM   25  C   UNL     1      -6.465  18.671  66.886  1.00  0.00    -0.187 A  
HETATM   26  C   UNL     1      -7.630  19.160  67.465  1.00  0.00    -0.260 A  
HETATM   27  F   UNL     1      -5.452  19.521  66.656  1.00  0.00    -0.163 F  
ENDBRANCH   8  11
ENDBRANCH   4   5
ENDBRANCH   2   4
TORSDOF 3
ENDMDL
MODEL       69
REMARK 921   NORMALIZED FREE ENERGY PREDICTED BY IDOCK:   -5.21 KCAL/MOL
REMARK 922        TOTAL FREE ENERGY PREDICTED BY IDOCK:   -6.52 KCAL/MOL
REMARK 923 INTER-LIGAND FREE ENERGY PREDICTED BY IDOCK:   -6.44 KCAL/MOL
REMARK 924 INTRA-LIGAND FREE ENERGY PREDICTED BY IDOCK:   -0.07 KCAL/MOL
REMARK 927      BINDING AFFINITY PREDICTED BY RF-SCORE:    0.00 PKD
ROOT
HETATM    1  C   UNL     1     -11.128  16.554  68.502  1.00  0.00    -0.335 C  
HETATM    2  N   UNL     1     -12.355  15.812  68.749  1.00  0.00    -0.447 NA 
HETATM    3  H   UNL     1     -12.526  15.116  68.024  1.00  0.00     0.000 HD 
ENDROOT
BRANCH   2   4
HETATM    4  C   UNL     1     -12.345  15.210  70.081  1.00  0.00    -0.341 C  
BRANCH   4   5
HETATM    5  C   UNL     1     -12.105  13.720  70.003  1.00  0.00    -0.416 A  
HETATM    6  C   UNL     1     -12.572  12.841  70.993  1.00  0.00    -0.362 A  
HETATM    7  C   UNL     1     -12.315  11.463  70.915  1.00  0.00    -0.483 A  
HETATM    8  C   UNL     1     -11.581  10.935  69.845  1.00  0.00    -0.410 A  
HETATM    9  C   UNL     1     -11.119  11.822  68.863  1.00  0.00    -0.297 A  
HETATM   10  C   UNL     1     -11.382  13.190  68.932  1.00  0.00    -0.335 A  
BRANCH   8  11
HETATM   11  C   UNL     1     -11.243   9.508  69.740  1.00  0.00    -0.144 A  
HETATM   12  C   UNL     1     -10.496   8.822  68.791  1.00  0.00    -0.214 A  
HETATM   13  C   UNL     1      -9.978   9.242  67.450  1.00  0.00    -0.253 C  
HETATM   14  C   UNL     1      -8.446   9.248  67.402  1.00  0.00    -0.122 C  
HETATM   15  N   UNL     1      -7.775   8.019  67.851  1.00  0.00    -0.112 N  
HETATM   16  C   UNL     1      -8.416   6.786  67.766  1.00  0.00    -0.122 C  
HETATM   17  H   UNL     1      -6.830   8.070  68.229  1.00  0.00     0.000 HD 
HETATM   18  O   UNL     1      -8.140   5.939  66.929  1.00  0.00    -0.102 OA 
HETATM   19  C   UNL     1      -9.377   6.493  68.863  1.00  0.00    -0.131 A  
HETATM   20  C   UNL     1     -10.222   7.526  69.309  1.00  0.00    -0.201 A  
HETATM   21  C   UNL     1     -11.014   7.347  70.433  1.00  0.00    -0.251 A  
HETATM   22  C   UNL     1     -11.078   6.108  71.085  1.00  0.00    -0.360 A  
HETATM   23  N   UNL     1     -11.599   8.564  70.693  1.00  0.00    -0.406 NA 
HETATM   24  H   UNL     1     -12.215   8.750  71.484  1.00  0.00     0.000 HD 
HETATM   25  C   UNL     1     -10.300   5.071  70.559  1.00  0.00    -0.215 A  
HETATM   26  C   UNL     1      -9.448   5.243  69.474  1.00  0.00    -0.192 A  
HETATM   27  F   UNL     1     -10.368   3.863  71.141  1.00  0.00    -0.193 F  
ENDBRANCH   8  11
ENDBRANCH   4   5
ENDBRANCH   2   4
TORSDOF 3
ENDMDL
MODEL       70
REMARK 921   NORMALIZED FREE ENERGY PREDICTED BY IDOCK:   -5.21 KCAL/MOL
REMARK 922        TOTAL FREE ENERGY PREDICTED BY IDOCK:   -6.51 KCAL/MOL
REMARK 923 INTER-LIGAND FREE ENERGY PREDICTED BY IDOCK:   -6.07 KCAL/MOL
REMARK 924 INTRA-LIGAND FREE ENERGY PREDICTED BY IDOCK:   -0.44 KCAL/MOL
REMARK 927      BINDING AFFINITY PREDICTED BY RF-SCORE:    0.00 PKD
ROOT
HETATM    1  C   UNL     1     -10.231   2.587  72.893  1.00  0.00    -0.148 C  
HETATM    2  N   UNL     1      -9.922   3.955  72.506  1.00  0.00    -0.155 NA 
HETATM    3  H   UNL     1      -9.751   4.033  71.503  1.00  0.00     0.000 HD 
ENDROOT
BRANCH   2   4
HETATM    4  C   UNL     1     -10.968   4.875  72.946  1.00  0.00    -0.262 C  
BRANCH   4   5
HETATM    5  C   UNL     1     -11.007   6.111  72.078  1.00  0.00    -0.305 A  
HETATM    6  C   UNL     1     -10.920   6.037  70.679  1.00  0.00    -0.376 A  
HETATM    7  C   UNL     1     -10.931   7.201  69.892  1.00  0.00    -0.278 A  
HETATM    8  C   UNL     1     -11.027   8.463  70.490  1.00  0.00    -0.258 A  
HETATM    9  C   UNL     1     -11.113   8.526  71.887  1.00  0.00    -0.395 A  
HETATM   10  C   UNL     1     -11.114   7.371  72.671  1.00  0.00    -0.378 A  
BRANCH   8  11
HETATM   11  C   UNL     1     -10.995   9.714  69.716  1.00  0.00    -0.240 A  
HETATM   12  C   UNL     1     -11.745  10.875  69.843  1.00  0.00    -0.418 A  
HETATM   13  C   UNL     1     -12.978  11.173  70.640  1.00  0.00    -0.164 C  
HETATM   14  C   UNL     1     -12.726  12.241  71.710  1.00  0.00    -0.152 C  
HETATM   15  N   UNL     1     -12.096  13.488  71.251  1.00  0.00    -0.370 N  
HETATM   16  C   UNL     1     -12.245  13.920  69.936  1.00  0.00    -0.333 C  
HETATM   17  H   UNL     1     -11.543  14.043  71.904  1.00  0.00     0.000 HD 
HETATM   18  O   UNL     1     -12.970  14.847  69.610  1.00  0.00     0.075 OA 
HETATM   19  C   UNL     1     -11.345  13.267  68.948  1.00  0.00    -0.333 A  
HETATM   20  C   UNL     1     -11.122  11.882  69.054  1.00  0.00    -0.300 A  
HETATM   21  C   UNL     1     -10.168  11.263  68.262  1.00  0.00    -0.186 A  
HETATM   22  C   UNL     1      -9.482  11.972  67.265  1.00  0.00    -0.181 A  
HETATM   23  N   UNL     1     -10.086   9.961  68.698  1.00  0.00    -0.168 NA 
HETATM   24  H   UNL     1      -9.440   9.267  68.322  1.00  0.00     0.000 HD 
HETATM   25  C   UNL     1      -9.796  13.327  67.118  1.00  0.00    -0.237 A  
HETATM   26  C   UNL     1     -10.700  13.987  67.944  1.00  0.00    -0.246 A  
HETATM   27  F   UNL     1      -9.181  14.024  66.149  1.00  0.00    -0.260 F  
ENDBRANCH   8  11
ENDBRANCH   4   5
ENDBRANCH   2   4
TORSDOF 3
ENDMDL
MODEL       71
REMARK 921   NORMALIZED FREE ENERGY PREDICTED BY IDOCK:   -5.20 KCAL/MOL
REMARK 922        TOTAL FREE ENERGY PREDICTED BY IDOCK:   -6.50 KCAL/MOL
REMARK 923 INTER-LIGAND FREE ENERGY PREDICTED BY IDOCK:   -6.02 KCAL/MOL
REMARK 924 INTRA-LIGAND FREE ENERGY PREDICTED BY IDOCK:   -0.48 KCAL/MOL
REMARK 927      BINDING AFFINITY PREDICTED BY RF-SCORE:    0.00 PKD
ROOT
HETATM    1  C   UNL     1     -10.967   5.903  70.068  1.00  0.00    -0.360 C  
HETATM    2  N   UNL     1     -11.411   6.710  68.941  1.00  0.00    -0.581 NA 
HETATM    3  H   UNL     1     -11.879   7.562  69.250  1.00  0.00     0.000 HD 
ENDROOT
BRANCH   2   4
HETATM    4  C   UNL     1     -10.302   7.002  68.036  1.00  0.00    -0.193 C  
BRANCH   4   5
HETATM    5  C   UNL     1      -9.977   8.478  68.032  1.00  0.00    -0.221 A  
HETATM    6  C   UNL     1      -9.671   9.166  66.847  1.00  0.00    -0.254 A  
HETATM    7  C   UNL     1      -9.346  10.533  66.869  1.00  0.00    -0.181 A  
HETATM    8  C   UNL     1      -9.317  11.238  68.078  1.00  0.00    -0.166 A  
HETATM    9  C   UNL     1      -9.625  10.541  69.254  1.00  0.00    -0.199 A  
HETATM   10  C   UNL     1      -9.959   9.187  69.235  1.00  0.00    -0.187 A  
BRANCH   8  11
HETATM   11  C   UNL     1      -8.937  12.657  68.162  1.00  0.00    -0.199 A  
HETATM   12  C   UNL     1      -9.618  13.800  67.767  1.00  0.00    -0.219 A  
HETATM   13  C   UNL     1     -10.845  13.979  66.926  1.00  0.00    -0.290 C  
HETATM   14  C   UNL     1     -11.998  14.604  67.719  1.00  0.00    -0.268 C  
HETATM   15  N   UNL     1     -11.691  15.842  68.452  1.00  0.00    -0.399 N  
HETATM   16  C   UNL     1     -10.674  16.690  68.022  1.00  0.00    -0.350 C  
HETATM   17  H   UNL     1     -12.229  16.082  69.283  1.00  0.00     0.000 HD 
HETATM   18  O   UNL     1     -10.877  17.757  67.463  1.00  0.00    -0.344 OA 
HETATM   19  C   UNL     1      -9.299  16.282  68.417  1.00  0.00    -0.210 A  
HETATM   20  C   UNL     1      -8.954  14.920  68.340  1.00  0.00    -0.183 A  
HETATM   21  C   UNL     1      -7.745  14.474  68.851  1.00  0.00    -0.132 A  
HETATM   22  C   UNL     1      -6.794  15.374  69.353  1.00  0.00    -0.174 A  
HETATM   23  N   UNL     1      -7.767  13.102  68.761  1.00  0.00    -0.292 NA 
HETATM   24  H   UNL     1      -7.021  12.490  69.091  1.00  0.00     0.000 HD 
HETATM   25  C   UNL     1      -7.126  16.732  69.326  1.00  0.00    -0.198 A  
HETATM   26  C   UNL     1      -8.358  17.199  68.881  1.00  0.00    -0.183 A  
HETATM   27  F   UNL     1      -6.221  17.620  69.767  1.00  0.00    -0.234 F  
ENDBRANCH   8  11
ENDBRANCH   4   5
ENDBRANCH   2   4
TORSDOF 3
ENDMDL
MODEL       72
REMARK 921   NORMALIZED FREE ENERGY PREDICTED BY IDOCK:   -5.19 KCAL/MOL
REMARK 922        TOTAL FREE ENERGY PREDICTED BY IDOCK:   -6.48 KCAL/MOL
REMARK 923 INTER-LIGAND FREE ENERGY PREDICTED BY IDOCK:   -5.92 KCAL/MOL
REMARK 924 INTRA-LIGAND FREE ENERGY PREDICTED BY IDOCK:   -0.56 KCAL/MOL
REMARK 927      BINDING AFFINITY PREDICTED BY RF-SCORE:    0.00 PKD
ROOT
HETATM    1  C   UNL     1     -12.529  12.124  63.331  1.00  0.00    -0.512 C  
HETATM    2  N   UNL     1     -11.672  13.090  64.002  1.00  0.00    -0.406 NA 
HETATM    3  H   UNL     1     -12.042  13.350  64.916  1.00  0.00     0.000 HD 
ENDROOT
BRANCH   2   4
HETATM    4  C   UNL     1     -10.299  12.596  64.097  1.00  0.00    -0.387 C  
BRANCH   4   5
HETATM    5  C   UNL     1     -10.171  11.550  65.179  1.00  0.00    -0.322 A  
HETATM    6  C   UNL     1      -9.782  10.232  64.894  1.00  0.00    -0.385 A  
HETATM    7  C   UNL     1      -9.694   9.268  65.911  1.00  0.00    -0.355 A  
HETATM    8  C   UNL     1      -9.998   9.602  67.237  1.00  0.00    -0.250 A  
HETATM    9  C   UNL     1     -10.386  10.921  67.511  1.00  0.00    -0.237 A  
HETATM   10  C   UNL     1     -10.463  11.884  66.504  1.00  0.00    -0.256 A  
BRANCH   8  11
HETATM   11  C   UNL     1      -9.969   8.620  68.331  1.00  0.00    -0.184 A  
HETATM   12  C   UNL     1      -8.907   8.136  69.084  1.00  0.00    -0.144 A  
HETATM   13  C   UNL     1      -7.426   8.264  68.900  1.00  0.00    -0.092 C  
HETATM   14  C   UNL     1      -6.769   9.038  70.048  1.00  0.00    -0.044 C  
HETATM   15  N   UNL     1      -7.082   8.577  71.409  1.00  0.00    -0.074 N  
HETATM   16  C   UNL     1      -7.434   7.251  71.648  1.00  0.00    -0.085 C  
HETATM   17  H   UNL     1      -7.038   9.235  72.186  1.00  0.00     0.000 HD 
HETATM   18  O   UNL     1      -6.685   6.438  72.167  1.00  0.00    -0.061 OA 
HETATM   19  C   UNL     1      -8.853   6.911  71.359  1.00  0.00    -0.133 A  
HETATM   20  C   UNL     1      -9.449   7.441  70.201  1.00  0.00    -0.165 A  
HETATM   21  C   UNL     1     -10.809   7.286  69.978  1.00  0.00    -0.253 A  
HETATM   22  C   UNL     1     -11.599   6.509  70.837  1.00  0.00    -0.417 A  
HETATM   23  N   UNL     1     -11.107   8.030  68.861  1.00  0.00    -0.407 NA 
HETATM   24  H   UNL     1     -12.044   8.134  68.472  1.00  0.00     0.000 HD 
HETATM   25  C   UNL     1     -10.958   5.912  71.927  1.00  0.00    -0.266 A  
HETATM   26  C   UNL     1      -9.610   6.107  72.209  1.00  0.00    -0.162 A  
HETATM   27  F   UNL     1     -11.682   5.133  72.746  1.00  0.00    -0.324 F  
ENDBRANCH   8  11
ENDBRANCH   4   5
ENDBRANCH   2   4
TORSDOF 3
ENDMDL
MODEL       73
REMARK 921   NORMALIZED FREE ENERGY PREDICTED BY IDOCK:   -5.15 KCAL/MOL
REMARK 922        TOTAL FREE ENERGY PREDICTED BY IDOCK:   -6.44 KCAL/MOL
REMARK 923 INTER-LIGAND FREE ENERGY PREDICTED BY IDOCK:   -5.89 KCAL/MOL
REMARK 924 INTRA-LIGAND FREE ENERGY PREDICTED BY IDOCK:   -0.55 KCAL/MOL
REMARK 927      BINDING AFFINITY PREDICTED BY RF-SCORE:    0.00 PKD
ROOT
HETATM    1  C   UNL     1     -11.431  15.598  68.321  1.00  0.00    -0.350 C  
HETATM    2  N   UNL     1     -12.111  14.314  68.270  1.00  0.00    -0.549 NA 
HETATM    3  H   UNL     1     -11.629  13.657  67.656  1.00  0.00     0.000 HD 
ENDROOT
BRANCH   2   4
HETATM    4  C   UNL     1     -12.293  13.762  69.611  1.00  0.00    -0.232 C  
BRANCH   4   5
HETATM    5  C   UNL     1     -11.701  12.375  69.714  1.00  0.00    -0.361 A  
HETATM    6  C   UNL     1     -10.595  11.982  68.945  1.00  0.00    -0.192 A  
HETATM    7  C   UNL     1     -10.077  10.680  69.036  1.00  0.00    -0.226 A  
HETATM    8  C   UNL     1     -10.658   9.742  69.898  1.00  0.00    -0.301 A  
HETATM    9  C   UNL     1     -11.762  10.144  70.662  1.00  0.00    -0.425 A  
HETATM   10  C   UNL     1     -12.272  11.441  70.581  1.00  0.00    -0.484 A  
BRANCH   8  11
HETATM   11  C   UNL     1     -10.186   8.353  69.997  1.00  0.00    -0.202 A  
HETATM   12  C   UNL     1      -9.435   7.720  70.979  1.00  0.00    -0.165 A  
HETATM   13  C   UNL     1      -8.664   8.269  72.141  1.00  0.00    -0.259 C  
HETATM   14  C   UNL     1      -9.236   7.799  73.483  1.00  0.00    -0.290 C  
HETATM   15  N   UNL     1      -9.435   6.350  73.635  1.00  0.00    -0.142 N  
HETATM   16  C   UNL     1      -8.660   5.445  72.915  1.00  0.00    -0.119 C  
HETATM   17  H   UNL     1     -10.149   6.004  74.276  1.00  0.00     0.000 HD 
HETATM   18  O   UNL     1      -7.757   4.787  73.411  1.00  0.00    -0.092 OA 
HETATM   19  C   UNL     1      -9.094   5.214  71.512  1.00  0.00    -0.169 A  
HETATM   20  C   UNL     1      -9.509   6.319  70.746  1.00  0.00    -0.185 A  
HETATM   21  C   UNL     1     -10.074   6.131  69.494  1.00  0.00    -0.185 A  
HETATM   22  C   UNL     1     -10.147   4.857  68.915  1.00  0.00    -0.185 A  
HETATM   23  N   UNL     1     -10.503   7.368  69.072  1.00  0.00    -0.211 NA 
HETATM   24  H   UNL     1     -10.991   7.540  68.194  1.00  0.00     0.000 HD 
HETATM   25  C   UNL     1      -9.637   3.789  69.661  1.00  0.00    -0.172 A  
HETATM   26  C   UNL     1      -9.126   3.941  70.945  1.00  0.00    -0.179 A  
HETATM   27  F   UNL     1      -9.660   2.561  69.117  1.00  0.00    -0.213 F  
ENDBRANCH   8  11
ENDBRANCH   4   5
ENDBRANCH   2   4
TORSDOF 3
ENDMDL
MODEL       74
REMARK 921   NORMALIZED FREE ENERGY PREDICTED BY IDOCK:   -5.13 KCAL/MOL
REMARK 922        TOTAL FREE ENERGY PREDICTED BY IDOCK:   -6.42 KCAL/MOL
REMARK 923 INTER-LIGAND FREE ENERGY PREDICTED BY IDOCK:   -6.00 KCAL/MOL
REMARK 924 INTRA-LIGAND FREE ENERGY PREDICTED BY IDOCK:   -0.42 KCAL/MOL
REMARK 927      BINDING AFFINITY PREDICTED BY RF-SCORE:    0.00 PKD
ROOT
HETATM    1  C   UNL     1     -11.356  15.972  70.395  1.00  0.00    -0.391 C  
HETATM    2  N   UNL     1     -10.424  16.505  69.412  1.00  0.00    -0.312 NA 
HETATM    3  H   UNL     1      -9.457  16.293  69.657  1.00  0.00     0.000 HD 
ENDROOT
BRANCH   2   4
HETATM    4  C   UNL     1     -10.754  16.037  68.067  1.00  0.00    -0.309 C  
BRANCH   4   5
HETATM    5  C   UNL     1     -10.742  14.528  67.998  1.00  0.00    -0.243 A  
HETATM    6  C   UNL     1     -11.915  13.786  67.789  1.00  0.00    -0.391 A  
HETATM    7  C   UNL     1     -11.886  12.382  67.754  1.00  0.00    -0.362 A  
HETATM    8  C   UNL     1     -10.681  11.691  67.932  1.00  0.00    -0.241 A  
HETATM    9  C   UNL     1      -9.516  12.441  68.141  1.00  0.00    -0.214 A  
HETATM   10  C   UNL     1      -9.540  13.836  68.164  1.00  0.00    -0.216 A  
BRANCH   8  11
HETATM   11  C   UNL     1     -10.602  10.222  67.953  1.00  0.00    -0.239 A  
HETATM   12  C   UNL     1     -10.135   9.328  66.999  1.00  0.00    -0.313 A  
HETATM   13  C   UNL     1      -9.771   9.520  65.558  1.00  0.00    -0.344 C  
HETATM   14  C   UNL     1      -8.286   9.246  65.299  1.00  0.00    -0.145 C  
HETATM   15  N   UNL     1      -7.764   7.964  65.796  1.00  0.00    -0.086 N  
HETATM   16  C   UNL     1      -8.603   6.864  65.948  1.00  0.00    -0.145 C  
HETATM   17  H   UNL     1      -6.775   7.880  66.031  1.00  0.00     0.000 HD 
HETATM   18  O   UNL     1      -8.604   5.907  65.188  1.00  0.00    -0.149 OA 
HETATM   19  C   UNL     1      -9.416   6.853  67.193  1.00  0.00    -0.168 A  
HETATM   20  C   UNL     1     -10.000   8.058  67.625  1.00  0.00    -0.234 A  
HETATM   21  C   UNL     1     -10.625   8.131  68.860  1.00  0.00    -0.140 A  
HETATM   22  C   UNL     1     -10.789   6.989  69.658  1.00  0.00    -0.275 A  
HETATM   23  N   UNL     1     -10.955   9.452  69.052  1.00  0.00    -0.411 NA 
HETATM   24  H   UNL     1     -11.401   9.818  69.892  1.00  0.00     0.000 HD 
HETATM   25  C   UNL     1     -10.284   5.785  69.157  1.00  0.00    -0.223 A  
HETATM   26  C   UNL     1      -9.594   5.698  67.953  1.00  0.00    -0.133 A  
HETATM   27  F   UNL     1     -10.457   4.669  69.883  1.00  0.00    -0.317 F  
ENDBRANCH   8  11
ENDBRANCH   4   5
ENDBRANCH   2   4
TORSDOF 3
ENDMDL
MODEL       75
REMARK 921   NORMALIZED FREE ENERGY PREDICTED BY IDOCK:   -5.11 KCAL/MOL
REMARK 922        TOTAL FREE ENERGY PREDICTED BY IDOCK:   -6.40 KCAL/MOL
REMARK 923 INTER-LIGAND FREE ENERGY PREDICTED BY IDOCK:   -5.93 KCAL/MOL
REMARK 924 INTRA-LIGAND FREE ENERGY PREDICTED BY IDOCK:   -0.47 KCAL/MOL
REMARK 927      BINDING AFFINITY PREDICTED BY RF-SCORE:    0.00 PKD
ROOT
HETATM    1  C   UNL     1      -9.824  20.635  67.254  1.00  0.00    -0.388 C  
HETATM    2  N   UNL     1     -10.426  19.342  67.540  1.00  0.00    -0.432 NA 
HETATM    3  H   UNL     1     -11.365  19.442  67.926  1.00  0.00     0.000 HD 
ENDROOT
BRANCH   2   4
HETATM    4  C   UNL     1     -10.420  18.486  66.355  1.00  0.00    -0.406 C  
BRANCH   4   5
HETATM    5  C   UNL     1     -10.098  17.055  66.719  1.00  0.00    -0.300 A  
HETATM    6  C   UNL     1     -10.037  16.040  65.751  1.00  0.00    -0.393 A  
HETATM    7  C   UNL     1      -9.762  14.711  66.114  1.00  0.00    -0.344 A  
HETATM    8  C   UNL     1      -9.546  14.370  67.455  1.00  0.00    -0.216 A  
HETATM    9  C   UNL     1      -9.610  15.391  68.413  1.00  0.00    -0.200 A  
HETATM   10  C   UNL     1      -9.872  16.714  68.054  1.00  0.00    -0.245 A  
BRANCH   8  11
HETATM   11  C   UNL     1      -9.302  12.988  67.894  1.00  0.00    -0.212 A  
HETATM   12  C   UNL     1      -9.862  11.791  67.467  1.00  0.00    -0.195 A  
HETATM   13  C   UNL     1     -11.046  11.509  66.594  1.00  0.00    -0.355 C  
HETATM   14  C   UNL     1     -10.648  10.795  65.298  1.00  0.00    -0.160 C  
HETATM   15  N   UNL     1      -9.819   9.589  65.446  1.00  0.00    -0.430 N  
HETATM   16  C   UNL     1      -9.874   8.826  66.609  1.00  0.00    -0.265 C  
HETATM   17  H   UNL     1      -9.198   9.309  64.688  1.00  0.00     0.000 HD 
HETATM   18  O   UNL     1     -10.437   7.744  66.679  1.00  0.00    -0.292 OA 
HETATM   19  C   UNL     1      -9.070   9.346  67.747  1.00  0.00    -0.134 A  
HETATM   20  C   UNL     1      -9.073  10.731  67.994  1.00  0.00    -0.150 A  
HETATM   21  C   UNL     1      -8.214  11.276  68.936  1.00  0.00    -0.079 A  
HETATM   22  C   UNL     1      -7.406  10.459  69.739  1.00  0.00    -0.157 A  
HETATM   23  N   UNL     1      -8.347  12.642  68.839  1.00  0.00    -0.341 NA 
HETATM   24  H   UNL     1      -7.813  13.313  69.389  1.00  0.00     0.000 HD 
HETATM   25  C   UNL     1      -7.498   9.078  69.538  1.00  0.00    -0.076 A  
HETATM   26  C   UNL     1      -8.301   8.511  68.555  1.00  0.00    -0.123 A  
HETATM   27  F   UNL     1      -6.763   8.268  70.317  1.00  0.00    -0.036 F  
ENDBRANCH   8  11
ENDBRANCH   4   5
ENDBRANCH   2   4
TORSDOF 3
ENDMDL
MODEL       76
REMARK 921   NORMALIZED FREE ENERGY PREDICTED BY IDOCK:   -5.05 KCAL/MOL
REMARK 922        TOTAL FREE ENERGY PREDICTED BY IDOCK:   -6.33 KCAL/MOL
REMARK 923 INTER-LIGAND FREE ENERGY PREDICTED BY IDOCK:   -5.78 KCAL/MOL
REMARK 924 INTRA-LIGAND FREE ENERGY PREDICTED BY IDOCK:   -0.55 KCAL/MOL
REMARK 927      BINDING AFFINITY PREDICTED BY RF-SCORE:    0.00 PKD
ROOT
HETATM    1  C   UNL     1      -8.023   2.083  64.686  1.00  0.00    -0.073 C  
HETATM    2  N   UNL     1      -8.571   2.411  65.993  1.00  0.00    -0.105 NA 
HETATM    3  H   UNL     1      -8.832   1.573  66.513  1.00  0.00     0.000 HD 
ENDROOT
BRANCH   2   4
HETATM    4  C   UNL     1      -7.648   3.251  66.753  1.00  0.00    -0.076 C  
BRANCH   4   5
HETATM    5  C   UNL     1      -8.353   4.465  67.314  1.00  0.00    -0.100 A  
HETATM    6  C   UNL     1      -7.726   5.332  68.222  1.00  0.00    -0.080 A  
HETATM    7  C   UNL     1      -8.408   6.440  68.752  1.00  0.00    -0.121 A  
HETATM    8  C   UNL     1      -9.734   6.701  68.385  1.00  0.00    -0.126 A  
HETATM    9  C   UNL     1     -10.350   5.829  67.477  1.00  0.00    -0.274 A  
HETATM   10  C   UNL     1      -9.672   4.734  66.941  1.00  0.00    -0.204 A  
BRANCH   8  11
HETATM   11  C   UNL     1     -10.509   7.819  68.945  1.00  0.00    -0.194 A  
HETATM   12  C   UNL     1     -11.502   7.834  69.916  1.00  0.00     0.101 A  
HETATM   13  C   UNL     1     -12.278   6.722  70.554  1.00  0.00    -0.253 C  
HETATM   14  C   UNL     1     -12.003   6.619  72.058  1.00  0.00    -0.319 C  
HETATM   15  N   UNL     1     -12.148   7.860  72.834  1.00  0.00    -0.613 N  
HETATM   16  C   UNL     1     -13.002   8.872  72.405  1.00  0.00    -0.404 C  
HETATM   17  H   UNL     1     -11.617   7.980  73.696  1.00  0.00     0.000 HD 
HETATM   18  O   UNL     1     -14.084   9.106  72.923  1.00  0.00    -0.478 OA 
HETATM   19  C   UNL     1     -12.450   9.764  71.350  1.00  0.00    -0.482 A  
HETATM   20  C   UNL     1     -11.707   9.187  70.304  1.00  0.00    -0.047 A  
HETATM   21  C   UNL     1     -11.038   9.990  69.394  1.00  0.00    -0.223 A  
HETATM   22  C   UNL     1     -11.172  11.386  69.424  1.00  0.00    -0.333 A  
HETATM   23  N   UNL     1     -10.297   9.146  68.601  1.00  0.00    -0.205 NA 
HETATM   24  H   UNL     1      -9.674   9.454  67.856  1.00  0.00     0.000 HD 
HETATM   25  C   UNL     1     -11.997  11.925  70.416  1.00  0.00    -0.311 A  
HETATM   26  C   UNL     1     -12.625  11.146  71.381  1.00  0.00    -0.479 A  
HETATM   27  F   UNL     1     -12.173  13.256  70.447  1.00  0.00    -0.377 F  
ENDBRANCH   8  11
ENDBRANCH   4   5
ENDBRANCH   2   4
TORSDOF 3
ENDMDL
MODEL       77
REMARK 921   NORMALIZED FREE ENERGY PREDICTED BY IDOCK:   -4.96 KCAL/MOL
REMARK 922        TOTAL FREE ENERGY PREDICTED BY IDOCK:   -6.21 KCAL/MOL
REMARK 923 INTER-LIGAND FREE ENERGY PREDICTED BY IDOCK:   -5.68 KCAL/MOL
REMARK 924 INTRA-LIGAND FREE ENERGY PREDICTED BY IDOCK:   -0.53 KCAL/MOL
REMARK 927      BINDING AFFINITY PREDICTED BY RF-SCORE:    0.00 PKD
ROOT
HETATM    1  C   UNL     1      -7.708   2.456  63.949  1.00  0.00    -0.068 C  
HETATM    2  N   UNL     1      -7.417   2.708  65.352  1.00  0.00    -0.071 NA 
HETATM    3  H   UNL     1      -7.227   3.696  65.525  1.00  0.00     0.000 HD 
ENDROOT
BRANCH   2   4
HETATM    4  C   UNL     1      -8.490   2.209  66.210  1.00  0.00    -0.102 C  
BRANCH   4   5
HETATM    5  C   UNL     1      -9.117   3.329  67.006  1.00  0.00    -0.196 A  
HETATM    6  C   UNL     1      -9.868   4.344  66.393  1.00  0.00    -0.245 A  
HETATM    7  C   UNL     1     -10.420   5.392  67.148  1.00  0.00    -0.298 A  
HETATM    8  C   UNL     1     -10.228   5.447  68.534  1.00  0.00    -0.237 A  
HETATM    9  C   UNL     1      -9.476   4.430  69.136  1.00  0.00    -0.240 A  
HETATM   10  C   UNL     1      -8.936   3.382  68.390  1.00  0.00    -0.185 A  
BRANCH   8  11
HETATM   11  C   UNL     1     -10.744   6.547  69.364  1.00  0.00    -0.277 A  
HETATM   12  C   UNL     1     -10.618   7.922  69.224  1.00  0.00    -0.195 A  
HETATM   13  C   UNL     1      -9.741   8.748  68.333  1.00  0.00    -0.175 C  
HETATM   14  C   UNL     1     -10.557   9.584  67.340  1.00  0.00    -0.271 C  
HETATM   15  N   UNL     1     -11.634  10.407  67.911  1.00  0.00    -0.395 N  
HETATM   16  C   UNL     1     -11.563  10.860  69.226  1.00  0.00    -0.318 C  
HETATM   17  H   UNL     1     -12.441  10.650  67.338  1.00  0.00     0.000 HD 
HETATM   18  O   UNL     1     -11.307  12.016  69.528  1.00  0.00    -0.267 OA 
HETATM   19  C   UNL     1     -11.964   9.870  70.260  1.00  0.00    -0.209 A  
HETATM   20  C   UNL     1     -11.545   8.535  70.112  1.00  0.00     0.096 A  
HETATM   21  C   UNL     1     -12.029   7.550  70.958  1.00  0.00    -0.290 A  
HETATM   22  C   UNL     1     -12.856   7.870  72.044  1.00  0.00    -0.287 A  
HETATM   23  N   UNL     1     -11.557   6.353  70.471  1.00  0.00    -0.382 NA 
HETATM   24  H   UNL     1     -11.776   5.442  70.872  1.00  0.00     0.000 HD 
HETATM   25  C   UNL     1     -13.176   9.219  72.225  1.00  0.00    -0.460 A  
HETATM   26  C   UNL     1     -12.758  10.217  71.352  1.00  0.00    -0.547 A  
HETATM   27  F   UNL     1     -13.937   9.560  73.277  1.00  0.00    -0.065 F  
ENDBRANCH   8  11
ENDBRANCH   4   5
ENDBRANCH   2   4
TORSDOF 3
ENDMDL
MODEL       78
REMARK 921   NORMALIZED FREE ENERGY PREDICTED BY IDOCK:   -4.95 KCAL/MOL
REMARK 922        TOTAL FREE ENERGY PREDICTED BY IDOCK:   -6.20 KCAL/MOL
REMARK 923 INTER-LIGAND FREE ENERGY PREDICTED BY IDOCK:   -5.67 KCAL/MOL
REMARK 924 INTRA-LIGAND FREE ENERGY PREDICTED BY IDOCK:   -0.53 KCAL/MOL
REMARK 927      BINDING AFFINITY PREDICTED BY RF-SCORE:    0.00 PKD
ROOT
HETATM    1  C   UNL     1     -10.526   7.553  68.836  1.00  0.00    -0.203 C  
HETATM    2  N   UNL     1     -10.151   8.939  69.074  1.00  0.00    -0.192 NA 
HETATM    3  H   UNL     1      -9.140   9.069  69.023  1.00  0.00     0.000 HD 
ENDROOT
BRANCH   2   4
HETATM    4  C   UNL     1     -10.855   9.838  68.162  1.00  0.00    -0.214 C  
BRANCH   4   5
HETATM    5  C   UNL     1     -10.266  11.229  68.205  1.00  0.00    -0.198 A  
HETATM    6  C   UNL     1     -11.066  12.368  68.385  1.00  0.00    -0.288 A  
HETATM    7  C   UNL     1     -10.500  13.654  68.396  1.00  0.00    -0.251 A  
HETATM    8  C   UNL     1      -9.122  13.826  68.223  1.00  0.00    -0.195 A  
HETATM    9  C   UNL     1      -8.332  12.682  68.044  1.00  0.00    -0.175 A  
HETATM   10  C   UNL     1      -8.889  11.403  68.044  1.00  0.00    -0.155 A  
BRANCH   8  11
HETATM   11  C   UNL     1      -8.486  15.152  68.178  1.00  0.00    -0.152 A  
HETATM   12  C   UNL     1      -8.662  16.210  67.296  1.00  0.00    -0.202 A  
HETATM   13  C   UNL     1      -9.370  16.291  65.979  1.00  0.00    -0.361 C  
HETATM   14  C   UNL     1     -10.562  17.253  66.026  1.00  0.00    -0.217 C  
HETATM   15  N   UNL     1     -10.292  18.601  66.550  1.00  0.00    -0.401 N  
HETATM   16  C   UNL     1      -9.020  19.159  66.459  1.00  0.00    -0.341 C  
HETATM   17  H   UNL     1     -11.046  19.133  66.985  1.00  0.00     0.000 HD 
HETATM   18  O   UNL     1      -8.726  20.039  65.663  1.00  0.00    -0.246 OA 
HETATM   19  C   UNL     1      -8.056  18.714  67.501  1.00  0.00    -0.262 A  
HETATM   20  C   UNL     1      -8.039  17.356  67.865  1.00  0.00    -0.220 A  
HETATM   21  C   UNL     1      -7.278  16.928  68.941  1.00  0.00    -0.231 A  
HETATM   22  C   UNL     1      -6.425  17.809  69.621  1.00  0.00    -0.130 A  
HETATM   23  N   UNL     1      -7.584  15.601  69.132  1.00  0.00    -0.190 NA 
HETATM   24  H   UNL     1      -7.199  15.022  69.877  1.00  0.00     0.000 HD 
HETATM   25  C   UNL     1      -6.389  19.134  69.173  1.00  0.00    -0.277 A  
HETATM   26  C   UNL     1      -7.193  19.602  68.139  1.00  0.00    -0.337 A  
HETATM   27  F   UNL     1      -5.556  19.992  69.782  1.00  0.00    -0.233 F  
ENDBRANCH   8  11
ENDBRANCH   4   5
ENDBRANCH   2   4
TORSDOF 3
ENDMDL
MODEL       79
REMARK 921   NORMALIZED FREE ENERGY PREDICTED BY IDOCK:   -4.90 KCAL/MOL
REMARK 922        TOTAL FREE ENERGY PREDICTED BY IDOCK:   -6.14 KCAL/MOL
REMARK 923 INTER-LIGAND FREE ENERGY PREDICTED BY IDOCK:   -5.61 KCAL/MOL
REMARK 924 INTRA-LIGAND FREE ENERGY PREDICTED BY IDOCK:   -0.53 KCAL/MOL
REMARK 927      BINDING AFFINITY PREDICTED BY RF-SCORE:    0.00 PKD
ROOT
HETATM    1  C   UNL     1      -6.371  20.490  67.255  1.00  0.00    -0.230 C  
HETATM    2  N   UNL     1      -7.000  19.308  67.824  1.00  0.00    -0.224 NA 
HETATM    3  H   UNL     1      -7.278  19.460  68.794  1.00  0.00     0.000 HD 
ENDROOT
BRANCH   2   4
HETATM    4  C   UNL     1      -8.126  18.865  67.004  1.00  0.00    -0.261 C  
BRANCH   4   5
HETATM    5  C   UNL     1      -8.680  17.551  67.504  1.00  0.00    -0.225 A  
HETATM    6  C   UNL     1      -7.862  16.585  68.110  1.00  0.00    -0.168 A  
HETATM    7  C   UNL     1      -8.393  15.358  68.544  1.00  0.00    -0.151 A  
HETATM    8  C   UNL     1      -9.753  15.073  68.377  1.00  0.00    -0.216 A  
HETATM    9  C   UNL     1     -10.560  16.045  67.770  1.00  0.00    -0.309 A  
HETATM   10  C   UNL     1     -10.039  17.268  67.349  1.00  0.00    -0.307 A  
BRANCH   8  11
HETATM   11  C   UNL     1     -10.350  13.787  68.769  1.00  0.00    -0.192 A  
HETATM   12  C   UNL     1     -10.124  12.502  68.292  1.00  0.00    -0.228 A  
HETATM   13  C   UNL     1      -9.386  12.012  67.085  1.00  0.00    -0.187 C  
HETATM   14  C   UNL     1      -8.168  11.162  67.463  1.00  0.00    -0.119 C  
HETATM   15  N   UNL     1      -8.410  10.057  68.403  1.00  0.00    -0.109 N  
HETATM   16  C   UNL     1      -9.663   9.457  68.489  1.00  0.00    -0.149 C  
HETATM   17  H   UNL     1      -7.651   9.726  68.998  1.00  0.00     0.000 HD 
HETATM   18  O   UNL     1      -9.915   8.353  68.030  1.00  0.00    -0.167 OA 
HETATM   19  C   UNL     1     -10.662  10.189  69.313  1.00  0.00    -0.259 A  
HETATM   20  C   UNL     1     -10.726  11.590  69.204  1.00  0.00    -0.210 A  
HETATM   21  C   UNL     1     -11.522  12.325  70.068  1.00  0.00    -0.053 A  
HETATM   22  C   UNL     1     -12.363  11.692  70.993  1.00  0.00    -0.405 A  
HETATM   23  N   UNL     1     -11.258  13.650  69.808  1.00  0.00    -0.468 NA 
HETATM   24  H   UNL     1     -11.676  14.430  70.314  1.00  0.00     0.000 HD 
HETATM   25  C   UNL     1     -12.352  10.293  71.012  1.00  0.00    -0.381 A  
HETATM   26  C   UNL     1     -11.513   9.535  70.202  1.00  0.00    -0.205 A  
HETATM   27  F   UNL     1     -13.173   9.658  71.863  1.00  0.00    -0.389 F  
ENDBRANCH   8  11
ENDBRANCH   4   5
ENDBRANCH   2   4
TORSDOF 3
ENDMDL
MODEL       80
REMARK 921   NORMALIZED FREE ENERGY PREDICTED BY IDOCK:   -4.90 KCAL/MOL
REMARK 922        TOTAL FREE ENERGY PREDICTED BY IDOCK:   -6.14 KCAL/MOL
REMARK 923 INTER-LIGAND FREE ENERGY PREDICTED BY IDOCK:   -5.84 KCAL/MOL
REMARK 924 INTRA-LIGAND FREE ENERGY PREDICTED BY IDOCK:   -0.30 KCAL/MOL
REMARK 927      BINDING AFFINITY PREDICTED BY RF-SCORE:    0.00 PKD
ROOT
HETATM    1  C   UNL     1     -11.526  14.654  64.637  1.00  0.00    -0.388 C  
HETATM    2  N   UNL     1     -10.422  14.530  65.576  1.00  0.00    -0.333 NA 
HETATM    3  H   UNL     1      -9.665  15.177  65.355  1.00  0.00     0.000 HD 
ENDROOT
BRANCH   2   4
HETATM    4  C   UNL     1     -10.884  14.693  66.954  1.00  0.00    -0.305 C  
BRANCH   4   5
HETATM    5  C   UNL     1     -10.757  13.402  67.727  1.00  0.00    -0.259 A  
HETATM    6  C   UNL     1      -9.564  12.662  67.743  1.00  0.00    -0.197 A  
HETATM    7  C   UNL     1      -9.475  11.449  68.447  1.00  0.00    -0.194 A  
HETATM    8  C   UNL     1     -10.580  10.950  69.147  1.00  0.00    -0.253 A  
HETATM    9  C   UNL     1     -11.766  11.697  69.124  1.00  0.00    -0.390 A  
HETATM   10  C   UNL     1     -11.854  12.907  68.435  1.00  0.00    -0.357 A  
BRANCH   8  11
HETATM   11  C   UNL     1     -10.556   9.664  69.860  1.00  0.00    -0.249 A  
HETATM   12  C   UNL     1      -9.487   8.897  70.304  1.00  0.00    -0.212 A  
HETATM   13  C   UNL     1      -8.019   8.987  70.019  1.00  0.00    -0.113 C  
HETATM   14  C   UNL     1      -7.207   9.302  71.280  1.00  0.00     0.020 C  
HETATM   15  N   UNL     1      -7.453   8.439  72.446  1.00  0.00    -0.110 N  
HETATM   16  C   UNL     1      -7.906   7.133  72.283  1.00  0.00    -0.090 C  
HETATM   17  H   UNL     1      -7.290   8.803  73.385  1.00  0.00     0.000 HD 
HETATM   18  O   UNL     1      -7.195   6.150  72.433  1.00  0.00    -0.083 OA 
HETATM   19  C   UNL     1      -9.367   6.992  72.047  1.00  0.00    -0.149 A  
HETATM   20  C   UNL     1     -10.001   7.908  71.189  1.00  0.00    -0.198 A  
HETATM   21  C   UNL     1     -11.382   7.917  71.070  1.00  0.00    -0.274 A  
HETATM   22  C   UNL     1     -12.171   6.951  71.710  1.00  0.00    -0.396 A  
HETATM   23  N   UNL     1     -11.698   9.003  70.287  1.00  0.00    -0.468 NA 
HETATM   24  H   UNL     1     -12.648   9.286  70.050  1.00  0.00     0.000 HD 
HETATM   25  C   UNL     1     -11.504   5.992  72.479  1.00  0.00    -0.290 A  
HETATM   26  C   UNL     1     -10.126   6.002  72.668  1.00  0.00    -0.198 A  
HETATM   27  F   UNL     1     -12.230   5.033  73.076  1.00  0.00    -0.359 F  
ENDBRANCH   8  11
ENDBRANCH   4   5
ENDBRANCH   2   4
TORSDOF 3
ENDMDL
MODEL       81
REMARK 921   NORMALIZED FREE ENERGY PREDICTED BY IDOCK:   -4.86 KCAL/MOL
REMARK 922        TOTAL FREE ENERGY PREDICTED BY IDOCK:   -6.10 KCAL/MOL
REMARK 923 INTER-LIGAND FREE ENERGY PREDICTED BY IDOCK:   -5.90 KCAL/MOL
REMARK 924 INTRA-LIGAND FREE ENERGY PREDICTED BY IDOCK:   -0.20 KCAL/MOL
REMARK 927      BINDING AFFINITY PREDICTED BY RF-SCORE:    0.00 PKD
ROOT
HETATM    1  C   UNL     1     -12.659  13.872  65.903  1.00  0.00    -0.456 C  
HETATM    2  N   UNL     1     -12.060  12.624  66.350  1.00  0.00    -0.565 NA 
HETATM    3  H   UNL     1     -11.382  12.270  65.676  1.00  0.00     0.000 HD 
ENDROOT
BRANCH   2   4
HETATM    4  C   UNL     1     -11.471  12.771  67.680  1.00  0.00    -0.334 C  
BRANCH   4   5
HETATM    5  C   UNL     1     -11.377  11.437  68.384  1.00  0.00    -0.346 A  
HETATM    6  C   UNL     1     -11.851  11.254  69.692  1.00  0.00    -0.430 A  
HETATM    7  C   UNL     1     -11.729  10.013  70.339  1.00  0.00    -0.365 A  
HETATM    8  C   UNL     1     -11.126   8.929  69.689  1.00  0.00    -0.056 A  
HETATM    9  C   UNL     1     -10.656   9.123  68.383  1.00  0.00    -0.217 A  
HETATM   10  C   UNL     1     -10.786  10.351  67.734  1.00  0.00    -0.327 A  
BRANCH   8  11
HETATM   11  C   UNL     1     -10.930   7.623  70.336  1.00  0.00    -0.247 A  
HETATM   12  C   UNL     1     -10.042   6.595  70.048  1.00  0.00    -0.199 A  
HETATM   13  C   UNL     1      -9.152   6.360  68.866  1.00  0.00    -0.129 C  
HETATM   14  C   UNL     1      -7.669   6.379  69.252  1.00  0.00    -0.101 C  
HETATM   15  N   UNL     1      -7.276   5.513  70.374  1.00  0.00    -0.065 N  
HETATM   16  C   UNL     1      -8.003   4.365  70.677  1.00  0.00    -0.060 C  
HETATM   17  H   UNL     1      -6.460   5.756  70.936  1.00  0.00     0.000 HD 
HETATM   18  O   UNL     1      -7.614   3.234  70.424  1.00  0.00    -0.043 OA 
HETATM   19  C   UNL     1      -9.242   4.590  71.469  1.00  0.00    -0.186 A  
HETATM   20  C   UNL     1     -10.055   5.691  71.146  1.00  0.00    -0.262 A  
HETATM   21  C   UNL     1     -11.126   6.033  71.958  1.00  0.00    -0.274 A  
HETATM   22  C   UNL     1     -11.491   5.233  73.050  1.00  0.00    -0.340 A  
HETATM   23  N   UNL     1     -11.622   7.218  71.468  1.00  0.00    -0.264 NA 
HETATM   24  H   UNL     1     -12.398   7.733  71.883  1.00  0.00     0.000 HD 
HETATM   25  C   UNL     1     -10.722   4.089  73.288  1.00  0.00    -0.201 A  
HETATM   26  C   UNL     1      -9.604   3.761  72.529  1.00  0.00    -0.190 A  
HETATM   27  F   UNL     1     -11.070   3.285  74.305  1.00  0.00    -0.241 F  
ENDBRANCH   8  11
ENDBRANCH   4   5
ENDBRANCH   2   4
TORSDOF 3
ENDMDL
MODEL       82
REMARK 921   NORMALIZED FREE ENERGY PREDICTED BY IDOCK:   -4.86 KCAL/MOL
REMARK 922        TOTAL FREE ENERGY PREDICTED BY IDOCK:   -6.10 KCAL/MOL
REMARK 923 INTER-LIGAND FREE ENERGY PREDICTED BY IDOCK:   -5.53 KCAL/MOL
REMARK 924 INTRA-LIGAND FREE ENERGY PREDICTED BY IDOCK:   -0.57 KCAL/MOL
REMARK 927      BINDING AFFINITY PREDICTED BY RF-SCORE:    0.00 PKD
ROOT
HETATM    1  C   UNL     1     -10.872  15.807  67.366  1.00  0.00    -0.306 C  
HETATM    2  N   UNL     1     -11.882  14.845  67.781  1.00  0.00    -0.471 NA 
HETATM    3  H   UNL     1     -12.766  15.302  68.007  1.00  0.00     0.000 HD 
ENDROOT
BRANCH   2   4
HETATM    4  C   UNL     1     -12.058  13.801  66.774  1.00  0.00    -0.418 C  
BRANCH   4   5
HETATM    5  C   UNL     1     -11.498  12.482  67.254  1.00  0.00    -0.416 A  
HETATM    6  C   UNL     1     -10.904  11.564  66.374  1.00  0.00    -0.334 A  
HETATM    7  C   UNL     1     -10.414  10.331  66.837  1.00  0.00    -0.291 A  
HETATM    8  C   UNL     1     -10.511   9.991  68.192  1.00  0.00    -0.250 A  
HETATM    9  C   UNL     1     -11.105  10.915  69.062  1.00  0.00    -0.302 A  
HETATM   10  C   UNL     1     -11.583  12.144  68.607  1.00  0.00    -0.372 A  
BRANCH   8  11
HETATM   11  C   UNL     1     -10.057   8.696  68.720  1.00  0.00    -0.196 A  
HETATM   12  C   UNL     1      -8.858   8.333  69.318  1.00  0.00    -0.143 A  
HETATM   13  C   UNL     1      -7.548   9.053  69.423  1.00  0.00    -0.078 C  
HETATM   14  C   UNL     1      -7.186   9.376  70.876  1.00  0.00    -0.081 C  
HETATM   15  N   UNL     1      -7.234   8.253  71.825  1.00  0.00    -0.081 N  
HETATM   16  C   UNL     1      -7.041   6.945  71.391  1.00  0.00    -0.074 C  
HETATM   17  H   UNL     1      -7.410   8.435  72.813  1.00  0.00     0.000 HD 
HETATM   18  O   UNL     1      -6.013   6.313  71.590  1.00  0.00    -0.034 OA 
HETATM   19  C   UNL     1      -8.233   6.296  70.782  1.00  0.00    -0.125 A  
HETATM   20  C   UNL     1      -9.040   7.054  69.914  1.00  0.00    -0.141 A  
HETATM   21  C   UNL     1     -10.245   6.546  69.455  1.00  0.00    -0.183 A  
HETATM   22  C   UNL     1     -10.637   5.232  69.750  1.00  0.00    -0.283 A  
HETATM   23  N   UNL     1     -10.857   7.563  68.761  1.00  0.00    -0.409 NA 
HETATM   24  H   UNL     1     -11.779   7.494  68.332  1.00  0.00     0.000 HD 
HETATM   25  C   UNL     1      -9.766   4.469  70.535  1.00  0.00    -0.220 A  
HETATM   26  C   UNL     1      -8.584   4.977  71.063  1.00  0.00    -0.130 A  
HETATM   27  F   UNL     1     -10.098   3.197  70.805  1.00  0.00    -0.189 F  
ENDBRANCH   8  11
ENDBRANCH   4   5
ENDBRANCH   2   4
TORSDOF 3
ENDMDL
MODEL       83
REMARK 921   NORMALIZED FREE ENERGY PREDICTED BY IDOCK:   -4.85 KCAL/MOL
REMARK 922        TOTAL FREE ENERGY PREDICTED BY IDOCK:   -6.09 KCAL/MOL
REMARK 923 INTER-LIGAND FREE ENERGY PREDICTED BY IDOCK:   -5.64 KCAL/MOL
REMARK 924 INTRA-LIGAND FREE ENERGY PREDICTED BY IDOCK:   -0.44 KCAL/MOL
REMARK 927      BINDING AFFINITY PREDICTED BY RF-SCORE:    0.00 PKD
ROOT
HETATM    1  C   UNL     1      -8.296  20.629  66.869  1.00  0.00    -0.115 C  
HETATM    2  N   UNL     1      -9.653  20.486  67.373  1.00  0.00    -0.444 NA 
HETATM    3  H   UNL     1     -10.084  21.392  67.555  1.00  0.00     0.000 HD 
ENDROOT
BRANCH   2   4
HETATM    4  C   UNL     1     -10.466  19.675  66.468  1.00  0.00    -0.503 C  
BRANCH   4   5
HETATM    5  C   UNL     1     -10.507  18.233  66.917  1.00  0.00    -0.396 A  
HETATM    6  C   UNL     1     -10.888  17.872  68.219  1.00  0.00    -0.127 A  
HETATM    7  C   UNL     1     -10.893  16.527  68.624  1.00  0.00    -0.345 A  
HETATM    8  C   UNL     1     -10.513  15.515  67.734  1.00  0.00    -0.273 A  
HETATM    9  C   UNL     1     -10.134  15.886  66.437  1.00  0.00    -0.306 A  
HETATM   10  C   UNL     1     -10.139  17.220  66.028  1.00  0.00    -0.275 A  
BRANCH   8  11
HETATM   11  C   UNL     1     -10.455  14.097  68.121  1.00  0.00    -0.244 A  
HETATM   12  C   UNL     1      -9.444  13.158  67.966  1.00  0.00    -0.220 A  
HETATM   13  C   UNL     1      -8.180  13.190  67.164  1.00  0.00    -0.127 C  
HETATM   14  C   UNL     1      -6.934  13.121  68.054  1.00  0.00    -0.116 C  
HETATM   15  N   UNL     1      -6.893  12.027  69.035  1.00  0.00    -0.104 N  
HETATM   16  C   UNL     1      -7.587  10.841  68.809  1.00  0.00    -0.113 C  
HETATM   17  H   UNL     1      -6.350  12.137  69.891  1.00  0.00     0.000 HD 
HETATM   18  O   UNL     1      -7.046   9.795  68.484  1.00  0.00    -0.067 OA 
HETATM   19  C   UNL     1      -9.039  10.885  69.129  1.00  0.00    -0.058 A  
HETATM   20  C   UNL     1      -9.772  12.032  68.772  1.00  0.00    -0.029 A  
HETATM   21  C   UNL     1     -11.083  12.186  69.195  1.00  0.00    -0.205 A  
HETATM   22  C   UNL     1     -11.745  11.164  69.889  1.00  0.00    -0.433 A  
HETATM   23  N   UNL     1     -11.467  13.451  68.817  1.00  0.00    -0.282 NA 
HETATM   24  H   UNL     1     -12.377  13.862  69.022  1.00  0.00     0.000 HD 
HETATM   25  C   UNL     1     -11.021   9.995  70.145  1.00  0.00    -0.310 A  
HETATM   26  C   UNL     1      -9.685   9.842  69.790  1.00  0.00    -0.266 A  
HETATM   27  F   UNL     1     -11.640   8.985  70.777  1.00  0.00    -0.285 F  
ENDBRANCH   8  11
ENDBRANCH   4   5
ENDBRANCH   2   4
TORSDOF 3
ENDMDL
MODEL       84
REMARK 921   NORMALIZED FREE ENERGY PREDICTED BY IDOCK:   -4.84 KCAL/MOL
REMARK 922        TOTAL FREE ENERGY PREDICTED BY IDOCK:   -6.07 KCAL/MOL
REMARK 923 INTER-LIGAND FREE ENERGY PREDICTED BY IDOCK:   -5.77 KCAL/MOL
REMARK 924 INTRA-LIGAND FREE ENERGY PREDICTED BY IDOCK:   -0.30 KCAL/MOL
REMARK 927      BINDING AFFINITY PREDICTED BY RF-SCORE:    0.00 PKD
ROOT
HETATM    1  C   UNL     1     -12.659  12.284  63.593  1.00  0.00    -0.490 C  
HETATM    2  N   UNL     1     -12.493  13.235  64.681  1.00  0.00    -0.588 NA 
HETATM    3  H   UNL     1     -13.205  13.111  65.401  1.00  0.00     0.000 HD 
ENDROOT
BRANCH   2   4
HETATM    4  C   UNL     1     -11.144  13.165  65.240  1.00  0.00    -0.283 C  
BRANCH   4   5
HETATM    5  C   UNL     1     -10.818  11.763  65.698  1.00  0.00    -0.342 A  
HETATM    6  C   UNL     1     -11.284  11.256  66.921  1.00  0.00    -0.300 A  
HETATM    7  C   UNL     1     -10.947   9.958  67.342  1.00  0.00    -0.214 A  
HETATM    8  C   UNL     1     -10.132   9.142  66.547  1.00  0.00    -0.357 A  
HETATM    9  C   UNL     1      -9.672   9.659  65.328  1.00  0.00    -0.330 A  
HETATM   10  C   UNL     1     -10.015  10.943  64.902  1.00  0.00    -0.361 A  
BRANCH   8  11
HETATM   11  C   UNL     1      -9.710   7.796  66.961  1.00  0.00    -0.197 A  
HETATM   12  C   UNL     1      -9.028   7.370  68.092  1.00  0.00    -0.129 A  
HETATM   13  C   UNL     1      -8.294   8.135  69.151  1.00  0.00    -0.131 C  
HETATM   14  C   UNL     1      -8.943   7.974  70.530  1.00  0.00    -0.152 C  
HETATM   15  N   UNL     1      -9.197   6.595  70.974  1.00  0.00    -0.160 N  
HETATM   16  C   UNL     1      -8.419   5.540  70.503  1.00  0.00    -0.123 C  
HETATM   17  H   UNL     1      -9.951   6.409  71.635  1.00  0.00     0.000 HD 
HETATM   18  O   UNL     1      -7.562   4.983  71.173  1.00  0.00    -0.080 OA 
HETATM   19  C   UNL     1      -8.794   5.027  69.158  1.00  0.00    -0.114 A  
HETATM   20  C   UNL     1      -9.136   5.953  68.156  1.00  0.00    -0.117 A  
HETATM   21  C   UNL     1      -9.648   5.517  66.944  1.00  0.00    -0.141 A  
HETATM   22  C   UNL     1      -9.736   4.150  66.644  1.00  0.00    -0.233 A  
HETATM   23  N   UNL     1     -10.016   6.645  66.249  1.00  0.00    -0.410 NA 
HETATM   24  H   UNL     1     -10.456   6.637  65.330  1.00  0.00     0.000 HD 
HETATM   25  C   UNL     1      -9.296   3.253  67.624  1.00  0.00    -0.198 A  
HETATM   26  C   UNL     1      -8.841   3.663  68.872  1.00  0.00    -0.158 A  
HETATM   27  F   UNL     1      -9.334   1.939  67.351  1.00  0.00    -0.164 F  
ENDBRANCH   8  11
ENDBRANCH   4   5
ENDBRANCH   2   4
TORSDOF 3
ENDMDL
MODEL       85
REMARK 921   NORMALIZED FREE ENERGY PREDICTED BY IDOCK:   -4.83 KCAL/MOL
REMARK 922        TOTAL FREE ENERGY PREDICTED BY IDOCK:   -6.07 KCAL/MOL
REMARK 923 INTER-LIGAND FREE ENERGY PREDICTED BY IDOCK:   -5.54 KCAL/MOL
REMARK 924 INTRA-LIGAND FREE ENERGY PREDICTED BY IDOCK:   -0.53 KCAL/MOL
REMARK 927      BINDING AFFINITY PREDICTED BY RF-SCORE:    0.00 PKD
ROOT
HETATM    1  C   UNL     1      -9.047  19.724  68.208  1.00  0.00    -0.297 C  
HETATM    2  N   UNL     1     -10.272  19.045  68.603  1.00  0.00    -0.450 NA 
HETATM    3  H   UNL     1     -10.977  19.703  68.935  1.00  0.00     0.000 HD 
ENDROOT
BRANCH   2   4
HETATM    4  C   UNL     1     -10.784  18.211  67.517  1.00  0.00    -0.345 C  
BRANCH   4   5
HETATM    5  C   UNL     1     -10.721  16.746  67.879  1.00  0.00    -0.347 A  
HETATM    6  C   UNL     1     -10.334  16.315  69.158  1.00  0.00    -0.272 A  
HETATM    7  C   UNL     1     -10.256  14.946  69.467  1.00  0.00    -0.143 A  
HETATM    8  C   UNL     1     -10.562  13.981  68.500  1.00  0.00    -0.260 A  
HETATM    9  C   UNL     1     -10.947  14.422  67.227  1.00  0.00    -0.301 A  
HETATM   10  C   UNL     1     -11.036  15.780  66.921  1.00  0.00    -0.207 A  
BRANCH   8  11
HETATM   11  C   UNL     1     -10.451  12.536  68.756  1.00  0.00    -0.144 A  
HETATM   12  C   UNL     1      -9.556  11.596  68.263  1.00  0.00    -0.198 A  
HETATM   13  C   UNL     1      -8.558  11.671  67.148  1.00  0.00    -0.164 C  
HETATM   14  C   UNL     1      -7.120  11.515  67.653  1.00  0.00    -0.098 C  
HETATM   15  N   UNL     1      -6.852  10.347  68.507  1.00  0.00    -0.060 N  
HETATM   16  C   UNL     1      -7.623   9.194  68.399  1.00  0.00    -0.083 C  
HETATM   17  H   UNL     1      -6.092  10.383  69.185  1.00  0.00     0.000 HD 
HETATM   18  O   UNL     1      -7.230   8.167  67.865  1.00  0.00    -0.087 OA 
HETATM   19  C   UNL     1      -8.930   9.235  69.108  1.00  0.00    -0.144 A  
HETATM   20  C   UNL     1      -9.690  10.417  69.048  1.00  0.00    -0.216 A  
HETATM   21  C   UNL     1     -10.829  10.558  69.825  1.00  0.00    -0.281 A  
HETATM   22  C   UNL     1     -11.313   9.496  70.602  1.00  0.00    -0.364 A  
HETATM   23  N   UNL     1     -11.257  11.855  69.657  1.00  0.00    -0.455 NA 
HETATM   24  H   UNL     1     -12.061  12.262  70.132  1.00  0.00     0.000 HD 
HETATM   25  C   UNL     1     -10.589   8.299  70.565  1.00  0.00    -0.219 A  
HETATM   26  C   UNL     1      -9.407   8.154  69.847  1.00  0.00    -0.159 A  
HETATM   27  F   UNL     1     -11.047   7.254  71.272  1.00  0.00    -0.246 F  
ENDBRANCH   8  11
ENDBRANCH   4   5
ENDBRANCH   2   4
TORSDOF 3
ENDMDL
MODEL       86
REMARK 921   NORMALIZED FREE ENERGY PREDICTED BY IDOCK:   -4.83 KCAL/MOL
REMARK 922        TOTAL FREE ENERGY PREDICTED BY IDOCK:   -6.06 KCAL/MOL
REMARK 923 INTER-LIGAND FREE ENERGY PREDICTED BY IDOCK:   -5.82 KCAL/MOL
REMARK 924 INTRA-LIGAND FREE ENERGY PREDICTED BY IDOCK:   -0.25 KCAL/MOL
REMARK 927      BINDING AFFINITY PREDICTED BY RF-SCORE:    0.00 PKD
ROOT
HETATM    1  C   UNL     1     -13.019  15.656  71.067  1.00  0.00    -0.458 C  
HETATM    2  N   UNL     1     -11.882  15.142  70.319  1.00  0.00    -0.287 NA 
HETATM    3  H   UNL     1     -11.171  14.750  70.936  1.00  0.00     0.000 HD 
ENDROOT
BRANCH   2   4
HETATM    4  C   UNL     1     -12.311  14.175  69.310  1.00  0.00    -0.169 C  
BRANCH   4   5
HETATM    5  C   UNL     1     -12.031  12.760  69.759  1.00  0.00    -0.362 A  
HETATM    6  C   UNL     1     -12.621  12.218  70.911  1.00  0.00    -0.334 A  
HETATM    7  C   UNL     1     -12.327  10.908  71.326  1.00  0.00    -0.448 A  
HETATM    8  C   UNL     1     -11.432  10.115  70.597  1.00  0.00    -0.432 A  
HETATM    9  C   UNL     1     -10.849  10.667  69.448  1.00  0.00    -0.289 A  
HETATM   10  C   UNL     1     -11.148  11.963  69.028  1.00  0.00    -0.300 A  
BRANCH   8  11
HETATM   11  C   UNL     1     -11.053   8.757  71.013  1.00  0.00    -0.270 A  
HETATM   12  C   UNL     1      -9.815   8.129  71.032  1.00  0.00    -0.212 A  
HETATM   13  C   UNL     1      -8.499   8.521  70.433  1.00  0.00    -0.138 C  
HETATM   14  C   UNL     1      -7.431   8.768  71.505  1.00  0.00    -0.087 C  
HETATM   15  N   UNL     1      -7.247   7.701  72.500  1.00  0.00    -0.074 N  
HETATM   16  C   UNL     1      -7.552   6.379  72.191  1.00  0.00    -0.094 C  
HETATM   17  H   UNL     1      -6.891   7.933  73.427  1.00  0.00     0.000 HD 
HETATM   18  O   UNL     1      -6.705   5.525  71.972  1.00  0.00    -0.055 OA 
HETATM   19  C   UNL     1      -8.993   6.022  72.283  1.00  0.00    -0.141 A  
HETATM   20  C   UNL     1      -9.944   6.937  71.798  1.00  0.00    -0.183 A  
HETATM   21  C   UNL     1     -11.297   6.721  72.011  1.00  0.00    -0.272 A  
HETATM   22  C   UNL     1     -11.756   5.541  72.614  1.00  0.00    -0.240 A  
HETATM   23  N   UNL     1     -11.947   7.845  71.557  1.00  0.00    -0.292 NA 
HETATM   24  H   UNL     1     -12.954   7.990  71.612  1.00  0.00     0.000 HD 
HETATM   25  C   UNL     1     -10.791   4.605  72.998  1.00  0.00    -0.247 A  
HETATM   26  C   UNL     1      -9.426   4.827  72.856  1.00  0.00    -0.150 A  
HETATM   27  F   UNL     1     -11.203   3.450  73.545  1.00  0.00    -0.283 F  
ENDBRANCH   8  11
ENDBRANCH   4   5
ENDBRANCH   2   4
TORSDOF 3
ENDMDL
MODEL       87
REMARK 921   NORMALIZED FREE ENERGY PREDICTED BY IDOCK:   -4.79 KCAL/MOL
REMARK 922        TOTAL FREE ENERGY PREDICTED BY IDOCK:   -6.02 KCAL/MOL
REMARK 923 INTER-LIGAND FREE ENERGY PREDICTED BY IDOCK:   -5.54 KCAL/MOL
REMARK 924 INTRA-LIGAND FREE ENERGY PREDICTED BY IDOCK:   -0.48 KCAL/MOL
REMARK 927      BINDING AFFINITY PREDICTED BY RF-SCORE:    0.00 PKD
ROOT
HETATM    1  C   UNL     1      -6.688   7.507  68.910  1.00  0.00    -0.049 C  
HETATM    2  N   UNL     1      -7.085   8.862  69.258  1.00  0.00    -0.057 NA 
HETATM    3  H   UNL     1      -6.360   9.540  69.020  1.00  0.00     0.000 HD 
ENDROOT
BRANCH   2   4
HETATM    4  C   UNL     1      -8.367   9.208  68.646  1.00  0.00    -0.126 C  
BRANCH   4   5
HETATM    5  C   UNL     1      -8.404  10.665  68.247  1.00  0.00    -0.122 A  
HETATM    6  C   UNL     1      -9.351  11.160  67.337  1.00  0.00    -0.172 A  
HETATM    7  C   UNL     1      -9.352  12.513  66.959  1.00  0.00    -0.210 A  
HETATM    8  C   UNL     1      -8.402  13.398  67.483  1.00  0.00    -0.190 A  
HETATM    9  C   UNL     1      -7.461  12.893  68.390  1.00  0.00    -0.124 A  
HETATM   10  C   UNL     1      -7.465  11.552  68.776  1.00  0.00    -0.119 A  
BRANCH   8  11
HETATM   11  C   UNL     1      -8.328  14.812  67.085  1.00  0.00    -0.214 A  
HETATM   12  C   UNL     1      -9.285  15.817  67.136  1.00  0.00    -0.224 A  
HETATM   13  C   UNL     1     -10.761  15.765  67.390  1.00  0.00    -0.317 C  
HETATM   14  C   UNL     1     -11.149  16.510  68.672  1.00  0.00    -0.329 C  
HETATM   15  N   UNL     1     -10.653  17.888  68.801  1.00  0.00    -0.356 N  
HETATM   16  C   UNL     1     -10.376  18.654  67.672  1.00  0.00    -0.412 C  
HETATM   17  H   UNL     1     -10.511  18.287  69.728  1.00  0.00     0.000 HD 
HETATM   18  O   UNL     1     -11.093  19.564  67.283  1.00  0.00    -0.444 OA 
HETATM   19  C   UNL     1      -9.059  18.390  67.033  1.00  0.00    -0.274 A  
HETATM   20  C   UNL     1      -8.623  17.057  66.918  1.00  0.00    -0.250 A  
HETATM   21  C   UNL     1      -7.338  16.776  66.482  1.00  0.00    -0.271 A  
HETATM   22  C   UNL     1      -6.482  17.795  66.043  1.00  0.00    -0.294 A  
HETATM   23  N   UNL     1      -7.170  15.417  66.619  1.00  0.00    -0.216 NA 
HETATM   24  H   UNL     1      -6.307  14.919  66.405  1.00  0.00     0.000 HD 
HETATM   25  C   UNL     1      -6.979  19.102  66.077  1.00  0.00    -0.256 A  
HETATM   26  C   UNL     1      -8.239  19.418  66.572  1.00  0.00    -0.326 A  
HETATM   27  F   UNL     1      -6.195  20.096  65.629  1.00  0.00    -0.191 F  
ENDBRANCH   8  11
ENDBRANCH   4   5
ENDBRANCH   2   4
TORSDOF 3
ENDMDL
MODEL       88
REMARK 921   NORMALIZED FREE ENERGY PREDICTED BY IDOCK:   -4.79 KCAL/MOL
REMARK 922        TOTAL FREE ENERGY PREDICTED BY IDOCK:   -6.02 KCAL/MOL
REMARK 923 INTER-LIGAND FREE ENERGY PREDICTED BY IDOCK:   -5.48 KCAL/MOL
REMARK 924 INTRA-LIGAND FREE ENERGY PREDICTED BY IDOCK:   -0.55 KCAL/MOL
REMARK 927      BINDING AFFINITY PREDICTED BY RF-SCORE:    0.00 PKD
ROOT
HETATM    1  C   UNL     1     -10.160   4.644  73.469  1.00  0.00    -0.156 C  
HETATM    2  N   UNL     1      -9.810   5.095  72.130  1.00  0.00    -0.169 NA 
HETATM    3  H   UNL     1      -9.115   4.486  71.698  1.00  0.00     0.000 HD 
ENDROOT
BRANCH   2   4
HETATM    4  C   UNL     1     -11.000   5.232  71.294  1.00  0.00     0.011 C  
BRANCH   4   5
HETATM    5  C   UNL     1     -10.975   6.529  70.519  1.00  0.00    -0.348 A  
HETATM    6  C   UNL     1     -10.739   6.562  69.136  1.00  0.00    -0.323 A  
HETATM    7  C   UNL     1     -10.694   7.781  68.440  1.00  0.00    -0.088 A  
HETATM    8  C   UNL     1     -10.881   8.994  69.115  1.00  0.00    -0.110 A  
HETATM    9  C   UNL     1     -11.115   8.949  70.496  1.00  0.00    -0.288 A  
HETATM   10  C   UNL     1     -11.172   7.739  71.188  1.00  0.00    -0.285 A  
BRANCH   8  11
HETATM   11  C   UNL     1     -10.796  10.299  68.443  1.00  0.00    -0.245 A  
HETATM   12  C   UNL     1      -9.767  11.231  68.404  1.00  0.00    -0.194 A  
HETATM   13  C   UNL     1      -8.502  11.341  69.199  1.00  0.00     0.088 C  
HETATM   14  C   UNL     1      -7.256  11.201  68.318  1.00  0.00    -0.083 C  
HETATM   15  N   UNL     1      -7.195  12.067  67.132  1.00  0.00    -0.205 N  
HETATM   16  C   UNL     1      -7.866  13.287  67.105  1.00  0.00    -0.033 C  
HETATM   17  H   UNL     1      -6.655  11.772  66.319  1.00  0.00     0.000 HD 
HETATM   18  O   UNL     1      -7.304  14.368  67.208  1.00  0.00    -0.176 OA 
HETATM   19  C   UNL     1      -9.319  13.205  66.797  1.00  0.00    -0.244 A  
HETATM   20  C   UNL     1     -10.073  12.171  67.381  1.00  0.00    -0.208 A  
HETATM   21  C   UNL     1     -11.387  11.958  66.995  1.00  0.00    -0.329 A  
HETATM   22  C   UNL     1     -12.030  12.827  66.102  1.00  0.00    -0.476 A  
HETATM   23  N   UNL     1     -11.795  10.806  67.625  1.00  0.00    -0.605 NA 
HETATM   24  H   UNL     1     -12.713  10.379  67.507  1.00  0.00     0.000 HD 
HETATM   25  C   UNL     1     -11.284  13.904  65.613  1.00  0.00    -0.306 A  
HETATM   26  C   UNL     1      -9.945  14.101  65.932  1.00  0.00    -0.331 A  
HETATM   27  F   UNL     1     -11.883  14.773  64.783  1.00  0.00    -0.372 F  
ENDBRANCH   8  11
ENDBRANCH   4   5
ENDBRANCH   2   4
TORSDOF 3
ENDMDL
MODEL       89
REMARK 921   NORMALIZED FREE ENERGY PREDICTED BY IDOCK:   -4.77 KCAL/MOL
REMARK 922        TOTAL FREE ENERGY PREDICTED BY IDOCK:   -6.00 KCAL/MOL
REMARK 923 INTER-LIGAND FREE ENERGY PREDICTED BY IDOCK:   -5.73 KCAL/MOL
REMARK 924 INTRA-LIGAND FREE ENERGY PREDICTED BY IDOCK:   -0.27 KCAL/MOL
REMARK 927      BINDING AFFINITY PREDICTED BY RF-SCORE:    0.00 PKD
ROOT
HETATM    1  C   UNL     1     -11.716  15.417  64.361  1.00  0.00    -0.258 C  
HETATM    2  N   UNL     1     -11.849  14.106  64.978  1.00  0.00    -0.370 NA 
HETATM    3  H   UNL     1     -12.770  13.701  64.807  1.00  0.00     0.000 HD 
ENDROOT
BRANCH   2   4
HETATM    4  C   UNL     1     -10.778  13.210  64.545  1.00  0.00    -0.398 C  
BRANCH   4   5
HETATM    5  C   UNL     1     -10.691  11.994  65.437  1.00  0.00    -0.330 A  
HETATM    6  C   UNL     1     -11.227  11.988  66.735  1.00  0.00    -0.376 A  
HETATM    7  C   UNL     1     -11.112  10.856  67.559  1.00  0.00    -0.375 A  
HETATM    8  C   UNL     1     -10.454   9.707  67.101  1.00  0.00    -0.317 A  
HETATM    9  C   UNL     1      -9.923   9.725  65.804  1.00  0.00    -0.349 A  
HETATM   10  C   UNL     1     -10.046  10.844  64.980  1.00  0.00    -0.362 A  
BRANCH   8  11
HETATM   11  C   UNL     1     -10.264   8.513  67.938  1.00  0.00    -0.218 A  
HETATM   12  C   UNL     1      -9.227   7.591  67.976  1.00  0.00    -0.137 A  
HETATM   13  C   UNL     1      -8.076   7.358  67.045  1.00  0.00    -0.113 C  
HETATM   14  C   UNL     1      -6.727   7.617  67.723  1.00  0.00    -0.067 C  
HETATM   15  N   UNL     1      -6.499   6.933  69.005  1.00  0.00    -0.035 N  
HETATM   16  C   UNL     1      -7.144   5.734  69.297  1.00  0.00    -0.065 C  
HETATM   17  H   UNL     1      -5.860   7.340  69.687  1.00  0.00     0.000 HD 
HETATM   18  O   UNL     1      -6.587   4.647  69.279  1.00  0.00    -0.038 OA 
HETATM   19  C   UNL     1      -8.544   5.869  69.780  1.00  0.00    -0.129 A  
HETATM   20  C   UNL     1      -9.383   6.811  69.156  1.00  0.00    -0.135 A  
HETATM   21  C   UNL     1     -10.637   7.087  69.678  1.00  0.00    -0.234 A  
HETATM   22  C   UNL     1     -11.145   6.362  70.765  1.00  0.00    -0.365 A  
HETATM   23  N   UNL     1     -11.140   8.137  68.946  1.00  0.00    -0.403 NA 
HETATM   24  H   UNL     1     -12.040   8.582  69.121  1.00  0.00     0.000 HD 
HETATM   25  C   UNL     1     -10.327   5.363  71.302  1.00  0.00    -0.228 A  
HETATM   26  C   UNL     1      -9.039   5.113  70.841  1.00  0.00    -0.175 A  
HETATM   27  F   UNL     1     -10.800   4.628  72.322  1.00  0.00    -0.258 F  
ENDBRANCH   8  11
ENDBRANCH   4   5
ENDBRANCH   2   4
TORSDOF 3
ENDMDL
MODEL       90
REMARK 921   NORMALIZED FREE ENERGY PREDICTED BY IDOCK:   -4.77 KCAL/MOL
REMARK 922        TOTAL FREE ENERGY PREDICTED BY IDOCK:   -5.99 KCAL/MOL
REMARK 923 INTER-LIGAND FREE ENERGY PREDICTED BY IDOCK:   -5.55 KCAL/MOL
REMARK 924 INTRA-LIGAND FREE ENERGY PREDICTED BY IDOCK:   -0.44 KCAL/MOL
REMARK 927      BINDING AFFINITY PREDICTED BY RF-SCORE:    0.00 PKD
ROOT
HETATM    1  C   UNL     1      -8.465  15.457  68.761  1.00  0.00    -0.188 C  
HETATM    2  N   UNL     1      -9.799  14.976  69.084  1.00  0.00    -0.229 NA 
HETATM    3  H   UNL     1     -10.452  15.747  69.229  1.00  0.00     0.000 HD 
ENDROOT
BRANCH   2   4
HETATM    4  C   UNL     1     -10.283  14.045  68.067  1.00  0.00    -0.238 C  
BRANCH   4   5
HETATM    5  C   UNL     1     -10.087  12.612  68.504  1.00  0.00    -0.183 A  
HETATM    6  C   UNL     1      -8.858  11.951  68.351  1.00  0.00    -0.159 A  
HETATM    7  C   UNL     1      -8.704  10.610  68.739  1.00  0.00    -0.157 A  
HETATM    8  C   UNL     1      -9.780   9.901  69.286  1.00  0.00    -0.218 A  
HETATM    9  C   UNL     1     -11.003  10.569  69.435  1.00  0.00    -0.297 A  
HETATM   10  C   UNL     1     -11.155  11.905  69.060  1.00  0.00    -0.300 A  
BRANCH   8  11
HETATM   11  C   UNL     1      -9.687   8.482  69.665  1.00  0.00    -0.179 A  
HETATM   12  C   UNL     1     -10.048   7.834  70.839  1.00  0.00    -0.195 A  
HETATM   13  C   UNL     1     -10.434   8.367  72.184  1.00  0.00    -0.396 C  
HETATM   14  C   UNL     1     -11.878   8.008  72.552  1.00  0.00    -0.361 C  
HETATM   15  N   UNL     1     -12.246   6.589  72.435  1.00  0.00    -0.531 N  
HETATM   16  C   UNL     1     -11.284   5.590  72.561  1.00  0.00    -0.274 C  
HETATM   17  H   UNL     1     -13.218   6.333  72.261  1.00  0.00     0.000 HD 
HETATM   18  O   UNL     1     -11.173   4.882  73.551  1.00  0.00    -0.323 OA 
HETATM   19  C   UNL     1     -10.473   5.334  71.341  1.00  0.00    -0.273 A  
HETATM   20  C   UNL     1     -10.033   6.434  70.583  1.00  0.00    -0.213 A  
HETATM   21  C   UNL     1      -9.419   6.239  69.356  1.00  0.00    -0.139 A  
HETATM   22  C   UNL     1      -9.122   4.950  68.891  1.00  0.00    -0.149 A  
HETATM   23  N   UNL     1      -9.245   7.488  68.805  1.00  0.00    -0.145 NA 
HETATM   24  H   UNL     1      -8.843   7.660  67.884  1.00  0.00     0.000 HD 
HETATM   25  C   UNL     1      -9.483   3.878  69.713  1.00  0.00    -0.193 A  
HETATM   26  C   UNL     1     -10.160   4.044  70.916  1.00  0.00    -0.061 A  
HETATM   27  F   UNL     1      -9.180   2.634  69.310  1.00  0.00    -0.147 F  
ENDBRANCH   8  11
ENDBRANCH   4   5
ENDBRANCH   2   4
TORSDOF 3
ENDMDL
MODEL       91
REMARK 921   NORMALIZED FREE ENERGY PREDICTED BY IDOCK:   -4.77 KCAL/MOL
REMARK 922        TOTAL FREE ENERGY PREDICTED BY IDOCK:   -5.99 KCAL/MOL
REMARK 923 INTER-LIGAND FREE ENERGY PREDICTED BY IDOCK:   -5.45 KCAL/MOL
REMARK 924 INTRA-LIGAND FREE ENERGY PREDICTED BY IDOCK:   -0.53 KCAL/MOL
REMARK 927      BINDING AFFINITY PREDICTED BY RF-SCORE:    0.00 PKD
ROOT
HETATM    1  C   UNL     1      -9.244  20.258  67.613  1.00  0.00    -0.328 C  
HETATM    2  N   UNL     1     -10.296  19.254  67.631  1.00  0.00    -0.403 NA 
HETATM    3  H   UNL     1     -11.180  19.641  67.964  1.00  0.00     0.000 HD 
ENDROOT
BRANCH   2   4
HETATM    4  C   UNL     1     -10.444  18.624  66.320  1.00  0.00    -0.424 C  
BRANCH   4   5
HETATM    5  C   UNL     1     -10.189  17.137  66.399  1.00  0.00    -0.331 A  
HETATM    6  C   UNL     1     -10.316  16.303  65.277  1.00  0.00    -0.247 A  
HETATM    7  C   UNL     1     -10.100  14.918  65.378  1.00  0.00    -0.400 A  
HETATM    8  C   UNL     1      -9.757  14.339  66.606  1.00  0.00    -0.297 A  
HETATM    9  C   UNL     1      -9.634  15.181  67.720  1.00  0.00    -0.203 A  
HETATM   10  C   UNL     1      -9.836  16.558  67.620  1.00  0.00    -0.247 A  
BRANCH   8  11
HETATM   11  C   UNL     1      -9.568  12.890  66.777  1.00  0.00    -0.246 A  
HETATM   12  C   UNL     1      -8.508  12.174  67.316  1.00  0.00    -0.178 A  
HETATM   13  C   UNL     1      -7.120  12.596  67.693  1.00  0.00    -0.139 C  
HETATM   14  C   UNL     1      -6.865  12.451  69.197  1.00  0.00    -0.069 C  
HETATM   15  N   UNL     1      -7.185  11.144  69.790  1.00  0.00    -0.354 N  
HETATM   16  C   UNL     1      -7.154   9.985  69.019  1.00  0.00    -0.069 C  
HETATM   17  H   UNL     1      -7.432  11.085  70.777  1.00  0.00     0.000 HD 
HETATM   18  O   UNL     1      -6.263   9.151  69.092  1.00  0.00    -0.042 OA 
HETATM   19  C   UNL     1      -8.362   9.745  68.186  1.00  0.00    -0.110 A  
HETATM   20  C   UNL     1      -8.947  10.837  67.520  1.00  0.00    -0.132 A  
HETATM   21  C   UNL     1     -10.163  10.691  66.869  1.00  0.00    -0.223 A  
HETATM   22  C   UNL     1     -10.782   9.438  66.763  1.00  0.00    -0.129 A  
HETATM   23  N   UNL     1     -10.534  11.949  66.454  1.00  0.00    -0.217 NA 
HETATM   24  H   UNL     1     -11.406  12.161  65.970  1.00  0.00     0.000 HD 
HETATM   25  C   UNL     1     -10.127   8.352  67.352  1.00  0.00    -0.236 A  
HETATM   26  C   UNL     1      -8.942   8.483  68.067  1.00  0.00    -0.141 A  
HETATM   27  F   UNL     1     -10.679   7.133  67.236  1.00  0.00    -0.289 F  
ENDBRANCH   8  11
ENDBRANCH   4   5
ENDBRANCH   2   4
TORSDOF 3
ENDMDL
MODEL       92
REMARK 921   NORMALIZED FREE ENERGY PREDICTED BY IDOCK:   -4.75 KCAL/MOL
REMARK 922        TOTAL FREE ENERGY PREDICTED BY IDOCK:   -5.97 KCAL/MOL
REMARK 923 INTER-LIGAND FREE ENERGY PREDICTED BY IDOCK:   -5.44 KCAL/MOL
REMARK 924 INTRA-LIGAND FREE ENERGY PREDICTED BY IDOCK:   -0.53 KCAL/MOL
REMARK 927      BINDING AFFINITY PREDICTED BY RF-SCORE:    0.00 PKD
ROOT
HETATM    1  C   UNL     1      -9.408   3.190  72.110  1.00  0.00    -0.119 C  
HETATM    2  N   UNL     1      -8.380   3.562  71.150  1.00  0.00    -0.066 NA 
HETATM    3  H   UNL     1      -7.503   3.072  71.330  1.00  0.00     0.000 HD 
ENDROOT
BRANCH   2   4
HETATM    4  C   UNL     1      -8.842   3.352  69.779  1.00  0.00    -0.092 C  
BRANCH   4   5
HETATM    5  C   UNL     1      -9.182   4.665  69.113  1.00  0.00    -0.184 A  
HETATM    6  C   UNL     1     -10.492   5.169  69.094  1.00  0.00    -0.170 A  
HETATM    7  C   UNL     1     -10.792   6.379  68.446  1.00  0.00    -0.383 A  
HETATM    8  C   UNL     1      -9.786   7.108  67.801  1.00  0.00    -0.175 A  
HETATM    9  C   UNL     1      -8.482   6.596  67.825  1.00  0.00    -0.122 A  
HETATM   10  C   UNL     1      -8.179   5.401  68.478  1.00  0.00    -0.094 A  
BRANCH   8  11
HETATM   11  C   UNL     1     -10.054   8.355  67.067  1.00  0.00    -0.284 A  
HETATM   12  C   UNL     1     -10.516   9.586  67.515  1.00  0.00    -0.336 A  
HETATM   13  C   UNL     1     -11.109  10.002  68.826  1.00  0.00    -0.219 C  
HETATM   14  C   UNL     1     -10.235  11.030  69.552  1.00  0.00     0.005 C  
HETATM   15  N   UNL     1      -9.831  12.209  68.771  1.00  0.00    -0.407 N  
HETATM   16  C   UNL     1     -10.612  12.664  67.713  1.00  0.00    -0.220 C  
HETATM   17  H   UNL     1      -8.969  12.700  69.009  1.00  0.00     0.000 HD 
HETATM   18  O   UNL     1     -11.313  13.664  67.773  1.00  0.00    -0.279 OA 
HETATM   19  C   UNL     1     -10.432  11.931  66.431  1.00  0.00    -0.258 A  
HETATM   20  C   UNL     1     -10.315  10.530  66.469  1.00  0.00    -0.294 A  
HETATM   21  C   UNL     1      -9.983   9.823  65.324  1.00  0.00    -0.181 A  
HETATM   22  C   UNL     1      -9.866  10.466  64.084  1.00  0.00    -0.379 A  
HETATM   23  N   UNL     1      -9.802   8.516  65.713  1.00  0.00    -0.423 NA 
HETATM   24  H   UNL     1      -9.518   7.763  65.087  1.00  0.00     0.000 HD 
HETATM   25  C   UNL     1     -10.085  11.847  64.060  1.00  0.00    -0.334 A  
HETATM   26  C   UNL     1     -10.353  12.589  65.205  1.00  0.00    -0.310 A  
HETATM   27  F   UNL     1     -10.014  12.485  62.880  1.00  0.00    -0.113 F  
ENDBRANCH   8  11
ENDBRANCH   4   5
ENDBRANCH   2   4
TORSDOF 3
ENDMDL
MODEL       93
REMARK 921   NORMALIZED FREE ENERGY PREDICTED BY IDOCK:   -4.73 KCAL/MOL
REMARK 922        TOTAL FREE ENERGY PREDICTED BY IDOCK:   -5.95 KCAL/MOL
REMARK 923 INTER-LIGAND FREE ENERGY PREDICTED BY IDOCK:   -5.40 KCAL/MOL
REMARK 924 INTRA-LIGAND FREE ENERGY PREDICTED BY IDOCK:   -0.55 KCAL/MOL
REMARK 927      BINDING AFFINITY PREDICTED BY RF-SCORE:    0.00 PKD
ROOT
HETATM    1  C   UNL     1      -9.290   2.834  71.217  1.00  0.00    -0.138 C  
HETATM    2  N   UNL     1      -8.735   3.437  70.015  1.00  0.00    -0.066 NA 
HETATM    3  H   UNL     1      -9.467   3.714  69.361  1.00  0.00     0.000 HD 
ENDROOT
BRANCH   2   4
HETATM    4  C   UNL     1      -7.856   4.557  70.347  1.00  0.00    -0.053 C  
BRANCH   4   5
HETATM    5  C   UNL     1      -8.239   5.796  69.571  1.00  0.00    -0.108 A  
HETATM    6  C   UNL     1      -7.976   7.086  70.059  1.00  0.00    -0.115 A  
HETATM    7  C   UNL     1      -8.364   8.225  69.334  1.00  0.00    -0.122 A  
HETATM    8  C   UNL     1      -9.026   8.097  68.107  1.00  0.00    -0.135 A  
HETATM    9  C   UNL     1      -9.283   6.804  67.630  1.00  0.00    -0.118 A  
HETATM   10  C   UNL     1      -8.890   5.671  68.342  1.00  0.00    -0.108 A  
BRANCH   8  11
HETATM   11  C   UNL     1      -9.496   9.255  67.332  1.00  0.00    -0.132 A  
HETATM   12  C   UNL     1      -9.098   9.735  66.091  1.00  0.00    -0.198 A  
HETATM   13  C   UNL     1      -7.921   9.391  65.230  1.00  0.00    -0.110 C  
HETATM   14  C   UNL     1      -8.349   8.769  63.896  1.00  0.00    -0.141 C  
HETATM   15  N   UNL     1      -9.354   9.513  63.122  1.00  0.00    -0.512 N  
HETATM   16  C   UNL     1      -9.477  10.893  63.256  1.00  0.00    -0.324 C  
HETATM   17  H   UNL     1      -9.967   9.013  62.480  1.00  0.00     0.000 HD 
HETATM   18  O   UNL     1      -9.085  11.690  62.416  1.00  0.00    -0.259 OA 
HETATM   19  C   UNL     1     -10.256  11.349  64.438  1.00  0.00    -0.361 A  
HETATM   20  C   UNL     1     -10.063  10.689  65.665  1.00  0.00    -0.335 A  
HETATM   21  C   UNL     1     -10.882  10.969  66.748  1.00  0.00    -0.251 A  
HETATM   22  C   UNL     1     -11.844  11.986  66.685  1.00  0.00    -0.239 A  
HETATM   23  N   UNL     1     -10.543  10.072  67.734  1.00  0.00    -0.242 NA 
HETATM   24  H   UNL     1     -11.001  10.015  68.643  1.00  0.00     0.000 HD 
HETATM   25  C   UNL     1     -11.947  12.692  65.482  1.00  0.00    -0.456 A  
HETATM   26  C   UNL     1     -11.184  12.386  64.361  1.00  0.00    -0.384 A  
HETATM   27  F   UNL     1     -12.836  13.695  65.403  1.00  0.00    -0.488 F  
ENDBRANCH   8  11
ENDBRANCH   4   5
ENDBRANCH   2   4
TORSDOF 3
ENDMDL
MODEL       94
REMARK 921   NORMALIZED FREE ENERGY PREDICTED BY IDOCK:   -4.73 KCAL/MOL
REMARK 922        TOTAL FREE ENERGY PREDICTED BY IDOCK:   -5.95 KCAL/MOL
REMARK 923 INTER-LIGAND FREE ENERGY PREDICTED BY IDOCK:   -5.44 KCAL/MOL
REMARK 924 INTRA-LIGAND FREE ENERGY PREDICTED BY IDOCK:   -0.51 KCAL/MOL
REMARK 927      BINDING AFFINITY PREDICTED BY RF-SCORE:    0.00 PKD
ROOT
HETATM    1  C   UNL     1     -10.615   6.222  68.071  1.00  0.00    -0.262 C  
HETATM    2  N   UNL     1      -9.796   7.325  67.595  1.00  0.00    -0.144 NA 
HETATM    3  H   UNL     1      -8.854   7.017  67.352  1.00  0.00     0.000 HD 
ENDROOT
BRANCH   2   4
HETATM    4  C   UNL     1     -10.441   8.016  66.480  1.00  0.00     0.048 C  
BRANCH   4   5
HETATM    5  C   UNL     1     -10.321   9.515  66.626  1.00  0.00    -0.280 A  
HETATM    6  C   UNL     1     -10.580  10.165  67.842  1.00  0.00    -0.294 A  
HETATM    7  C   UNL     1     -10.488  11.563  67.950  1.00  0.00    -0.211 A  
HETATM    8  C   UNL     1     -10.138  12.340  66.838  1.00  0.00    -0.224 A  
HETATM    9  C   UNL     1      -9.882  11.681  65.628  1.00  0.00    -0.270 A  
HETATM   10  C   UNL     1      -9.961  10.292  65.522  1.00  0.00    -0.364 A  
BRANCH   8  11
HETATM   11  C   UNL     1     -10.074  13.809  66.884  1.00  0.00    -0.260 A  
HETATM   12  C   UNL     1      -9.287  14.656  67.652  1.00  0.00    -0.200 A  
HETATM   13  C   UNL     1      -8.415  14.389  68.840  1.00  0.00    -0.069 C  
HETATM   14  C   UNL     1      -6.940  14.684  68.548  1.00  0.00    -0.110 C  
HETATM   15  N   UNL     1      -6.641  16.006  67.976  1.00  0.00    -0.124 N  
HETATM   16  C   UNL     1      -7.478  17.092  68.216  1.00  0.00    -0.217 C  
HETATM   17  H   UNL     1      -5.810  16.128  67.398  1.00  0.00     0.000 HD 
HETATM   18  O   UNL     1      -7.198  18.002  68.982  1.00  0.00    -0.264 OA 
HETATM   19  C   UNL     1      -8.695  17.156  67.363  1.00  0.00    -0.211 A  
HETATM   20  C   UNL     1      -9.396  15.964  67.103  1.00  0.00    -0.223 A  
HETATM   21  C   UNL     1     -10.434  15.949  66.185  1.00  0.00    -0.326 A  
HETATM   22  C   UNL     1     -10.883  17.130  65.579  1.00  0.00    -0.058 A  
HETATM   23  N   UNL     1     -10.810  14.633  66.045  1.00  0.00    -0.310 NA 
HETATM   24  H   UNL     1     -11.535  14.306  65.408  1.00  0.00     0.000 HD 
HETATM   25  C   UNL     1     -10.230  18.316  65.932  1.00  0.00    -0.226 A  
HETATM   26  C   UNL     1      -9.143  18.348  66.799  1.00  0.00    -0.293 A  
HETATM   27  F   UNL     1     -10.661  19.468  65.395  1.00  0.00    -0.547 F  
ENDBRANCH   8  11
ENDBRANCH   4   5
ENDBRANCH   2   4
TORSDOF 3
ENDMDL
MODEL       95
REMARK 921   NORMALIZED FREE ENERGY PREDICTED BY IDOCK:   -4.72 KCAL/MOL
REMARK 922        TOTAL FREE ENERGY PREDICTED BY IDOCK:   -5.94 KCAL/MOL
REMARK 923 INTER-LIGAND FREE ENERGY PREDICTED BY IDOCK:   -5.47 KCAL/MOL
REMARK 924 INTRA-LIGAND FREE ENERGY PREDICTED BY IDOCK:   -0.46 KCAL/MOL
REMARK 927      BINDING AFFINITY PREDICTED BY RF-SCORE:    0.00 PKD
ROOT
HETATM    1  C   UNL     1      -8.687  20.422  67.446  1.00  0.00    -0.320 C  
HETATM    2  N   UNL     1     -10.074  20.054  67.688  1.00  0.00    -0.413 NA 
HETATM    3  H   UNL     1     -10.657  20.875  67.853  1.00  0.00     0.000 HD 
ENDROOT
BRANCH   2   4
HETATM    4  C   UNL     1     -10.598  19.232  66.600  1.00  0.00    -0.438 C  
BRANCH   4   5
HETATM    5  C   UNL     1     -10.364  17.763  66.866  1.00  0.00    -0.344 A  
HETATM    6  C   UNL     1     -10.566  17.198  68.135  1.00  0.00    -0.380 A  
HETATM    7  C   UNL     1     -10.317  15.836  68.369  1.00  0.00    -0.233 A  
HETATM    8  C   UNL     1      -9.856  15.010  67.336  1.00  0.00    -0.224 A  
HETATM    9  C   UNL     1      -9.657  15.584  66.073  1.00  0.00    -0.380 A  
HETATM   10  C   UNL     1      -9.915  16.935  65.835  1.00  0.00    -0.274 A  
BRANCH   8  11
HETATM   11  C   UNL     1      -9.534  13.589  67.537  1.00  0.00    -0.222 A  
HETATM   12  C   UNL     1      -9.741  12.489  66.715  1.00  0.00    -0.234 A  
HETATM   13  C   UNL     1     -10.552  12.328  65.466  1.00  0.00    -0.304 C  
HETATM   14  C   UNL     1      -9.678  11.991  64.253  1.00  0.00    -0.078 C  
HETATM   15  N   UNL     1      -8.748  10.864  64.413  1.00  0.00    -0.358 N  
HETATM   16  C   UNL     1      -9.021   9.836  65.312  1.00  0.00    -0.193 C  
HETATM   17  H   UNL     1      -7.893  10.833  63.858  1.00  0.00     0.000 HD 
HETATM   18  O   UNL     1      -9.398   8.725  64.971  1.00  0.00    -0.013 OA 
HETATM   19  C   UNL     1      -8.687  10.130  66.731  1.00  0.00    -0.133 A  
HETATM   20  C   UNL     1      -8.984  11.406  67.242  1.00  0.00    -0.159 A  
HETATM   21  C   UNL     1      -8.543  11.777  68.502  1.00  0.00    -0.123 A  
HETATM   22  C   UNL     1      -7.890  10.861  69.340  1.00  0.00    -0.048 A  
HETATM   23  N   UNL     1      -8.860  13.107  68.649  1.00  0.00    -0.373 NA 
HETATM   24  H   UNL     1      -8.628  13.667  69.469  1.00  0.00     0.000 HD 
HETATM   25  C   UNL     1      -7.695   9.569  68.841  1.00  0.00    -0.076 A  
HETATM   26  C   UNL     1      -8.068   9.192  67.556  1.00  0.00    -0.104 A  
HETATM   27  F   UNL     1      -7.103   8.661  69.634  1.00  0.00    -0.050 F  
ENDBRANCH   8  11
ENDBRANCH   4   5
ENDBRANCH   2   4
TORSDOF 3
ENDMDL
MODEL       96
REMARK 921   NORMALIZED FREE ENERGY PREDICTED BY IDOCK:   -4.62 KCAL/MOL
REMARK 922        TOTAL FREE ENERGY PREDICTED BY IDOCK:   -5.82 KCAL/MOL
REMARK 923 INTER-LIGAND FREE ENERGY PREDICTED BY IDOCK:   -5.48 KCAL/MOL
REMARK 924 INTRA-LIGAND FREE ENERGY PREDICTED BY IDOCK:   -0.34 KCAL/MOL
REMARK 927      BINDING AFFINITY PREDICTED BY RF-SCORE:    0.00 PKD
ROOT
HETATM    1  C   UNL     1     -12.243  15.588  70.137  1.00  0.00    -0.376 C  
HETATM    2  N   UNL     1     -12.782  14.421  69.454  1.00  0.00    -0.471 NA 
HETATM    3  H   UNL     1     -12.490  14.389  68.477  1.00  0.00     0.000 HD 
ENDROOT
BRANCH   2   4
HETATM    4  C   UNL     1     -12.434  13.191  70.162  1.00  0.00    -0.122 C  
BRANCH   4   5
HETATM    5  C   UNL     1     -11.659  12.250  69.269  1.00  0.00    -0.383 A  
HETATM    6  C   UNL     1     -11.601  12.428  67.878  1.00  0.00    -0.415 A  
HETATM    7  C   UNL     1     -10.896  11.527  67.062  1.00  0.00    -0.320 A  
HETATM    8  C   UNL     1     -10.237  10.426  67.623  1.00  0.00    -0.240 A  
HETATM    9  C   UNL     1     -10.302  10.258  69.013  1.00  0.00    -0.229 A  
HETATM   10  C   UNL     1     -10.992  11.157  69.827  1.00  0.00    -0.216 A  
BRANCH   8  11
HETATM   11  C   UNL     1      -9.526   9.427  66.811  1.00  0.00    -0.165 A  
HETATM   12  C   UNL     1      -9.471   8.044  66.923  1.00  0.00    -0.244 A  
HETATM   13  C   UNL     1      -9.915   7.122  68.018  1.00  0.00    -0.184 C  
HETATM   14  C   UNL     1     -11.035   6.183  67.558  1.00  0.00    -0.307 C  
HETATM   15  N   UNL     1     -10.788   5.430  66.319  1.00  0.00    -0.697 N  
HETATM   16  C   UNL     1      -9.490   5.126  65.917  1.00  0.00    -0.156 C  
HETATM   17  H   UNL     1     -11.576   5.126  65.748  1.00  0.00     0.000 HD 
HETATM   18  O   UNL     1      -9.000   4.010  66.009  1.00  0.00    -0.119 OA 
HETATM   19  C   UNL     1      -8.766   6.226  65.226  1.00  0.00    -0.007 A  
HETATM   20  C   UNL     1      -8.899   7.535  65.724  1.00  0.00    -0.122 A  
HETATM   21  C   UNL     1      -8.378   8.609  65.019  1.00  0.00    -0.171 A  
HETATM   22  C   UNL     1      -7.617   8.413  63.858  1.00  0.00    -0.135 A  
HETATM   23  N   UNL     1      -8.794   9.743  65.677  1.00  0.00    -0.146 NA 
HETATM   24  H   UNL     1      -8.590  10.694  65.370  1.00  0.00     0.000 HD 
HETATM   25  C   UNL     1      -7.419   7.093  63.442  1.00  0.00    -0.096 A  
HETATM   26  C   UNL     1      -7.986   6.003  64.093  1.00  0.00    -0.119 A  
HETATM   27  F   UNL     1      -6.664   6.872  62.353  1.00  0.00    -0.044 F  
ENDBRANCH   8  11
ENDBRANCH   4   5
ENDBRANCH   2   4
TORSDOF 3
ENDMDL
MODEL       97
REMARK 921   NORMALIZED FREE ENERGY PREDICTED BY IDOCK:   -4.54 KCAL/MOL
REMARK 922        TOTAL FREE ENERGY PREDICTED BY IDOCK:   -5.73 KCAL/MOL
REMARK 923 INTER-LIGAND FREE ENERGY PREDICTED BY IDOCK:   -5.38 KCAL/MOL
REMARK 924 INTRA-LIGAND FREE ENERGY PREDICTED BY IDOCK:   -0.35 KCAL/MOL
REMARK 927      BINDING AFFINITY PREDICTED BY RF-SCORE:    0.00 PKD
ROOT
HETATM    1  C   UNL     1      -7.917   8.049  70.887  1.00  0.00    -0.094 C  
HETATM    2  N   UNL     1      -6.574   8.610  70.893  1.00  0.00    -0.044 NA 
HETATM    3  H   UNL     1      -5.939   8.058  71.470  1.00  0.00     0.000 HD 
ENDROOT
BRANCH   2   4
HETATM    4  C   UNL     1      -6.065   8.769  69.532  1.00  0.00    -0.036 C  
BRANCH   4   5
HETATM    5  C   UNL     1      -6.756   9.909  68.822  1.00  0.00    -0.050 A  
HETATM    6  C   UNL     1      -7.115   9.830  67.467  1.00  0.00    -0.088 A  
HETATM    7  C   UNL     1      -7.733  10.912  66.819  1.00  0.00    -0.141 A  
HETATM    8  C   UNL     1      -8.001  12.098  67.513  1.00  0.00    -0.163 A  
HETATM    9  C   UNL     1      -7.638  12.167  68.865  1.00  0.00     0.003 A  
HETATM   10  C   UNL     1      -7.034  11.090  69.515  1.00  0.00    -0.126 A  
BRANCH   8  11
HETATM   11  C   UNL     1      -8.602  13.277  66.870  1.00  0.00    -0.105 A  
HETATM   12  C   UNL     1      -9.662  13.380  65.980  1.00  0.00    -0.228 A  
HETATM   13  C   UNL     1     -10.401  12.336  65.198  1.00  0.00    -0.316 C  
HETATM   14  C   UNL     1     -11.874  12.247  65.610  1.00  0.00    -0.360 C  
HETATM   15  N   UNL     1     -12.626  13.511  65.622  1.00  0.00    -0.473 N  
HETATM   16  C   UNL     1     -12.253  14.569  64.798  1.00  0.00    -0.431 C  
HETATM   17  H   UNL     1     -13.430  13.613  66.240  1.00  0.00     0.000 HD 
HETATM   18  O   UNL     1     -12.865  14.885  63.788  1.00  0.00    -0.662 OA 
HETATM   19  C   UNL     1     -11.126  15.399  65.301  1.00  0.00    -0.367 A  
HETATM   20  C   UNL     1     -10.031  14.751  65.901  1.00  0.00    -0.351 A  
HETATM   21  C   UNL     1      -9.039  15.489  66.529  1.00  0.00    -0.302 A  
HETATM   22  C   UNL     1      -9.043  16.890  66.489  1.00  0.00    -0.302 A  
HETATM   23  N   UNL     1      -8.202  14.579  67.133  1.00  0.00    -0.276 NA 
HETATM   24  H   UNL     1      -7.393  14.830  67.700  1.00  0.00     0.000 HD 
HETATM   25  C   UNL     1     -10.094  17.505  65.801  1.00  0.00    -0.105 A  
HETATM   26  C   UNL     1     -11.136  16.790  65.220  1.00  0.00     0.005 A  
HETATM   27  F   UNL     1     -10.105  18.845  65.716  1.00  0.00    -0.371 F  
ENDBRANCH   8  11
ENDBRANCH   4   5
ENDBRANCH   2   4
TORSDOF 3
ENDMDL
MODEL       98
REMARK 921   NORMALIZED FREE ENERGY PREDICTED BY IDOCK:   -4.54 KCAL/MOL
REMARK 922        TOTAL FREE ENERGY PREDICTED BY IDOCK:   -5.72 KCAL/MOL
REMARK 923 INTER-LIGAND FREE ENERGY PREDICTED BY IDOCK:   -5.18 KCAL/MOL
REMARK 924 INTRA-LIGAND FREE ENERGY PREDICTED BY IDOCK:   -0.53 KCAL/MOL
REMARK 927      BINDING AFFINITY PREDICTED BY RF-SCORE:    0.00 PKD
ROOT
HETATM    1  C   UNL     1     -12.730  12.195  63.332  1.00  0.00    -0.381 C  
HETATM    2  N   UNL     1     -12.828  12.290  64.780  1.00  0.00    -0.666 NA 
HETATM    3  H   UNL     1     -13.222  11.442  65.187  1.00  0.00     0.000 HD 
ENDROOT
BRANCH   2   4
HETATM    4  C   UNL     1     -11.533  12.621  65.374  1.00  0.00    -0.338 C  
BRANCH   4   5
HETATM    5  C   UNL     1     -10.959  11.439  66.120  1.00  0.00    -0.294 A  
HETATM    6  C   UNL     1     -10.295  10.395  65.456  1.00  0.00    -0.265 A  
HETATM    7  C   UNL     1      -9.792   9.292  66.166  1.00  0.00    -0.363 A  
HETATM    8  C   UNL     1      -9.947   9.209  67.555  1.00  0.00    -0.258 A  
HETATM    9  C   UNL     1     -10.611  10.256  68.207  1.00  0.00    -0.255 A  
HETATM   10  C   UNL     1     -11.102  11.358  67.507  1.00  0.00    -0.339 A  
BRANCH   8  11
HETATM   11  C   UNL     1      -9.481   8.055  68.339  1.00  0.00    -0.145 A  
HETATM   12  C   UNL     1      -9.733   6.698  68.187  1.00  0.00    -0.130 A  
HETATM   13  C   UNL     1     -10.725   5.966  67.337  1.00  0.00    -0.370 C  
HETATM   14  C   UNL     1     -10.042   5.082  66.288  1.00  0.00    -0.247 C  
HETATM   15  N   UNL     1      -9.009   4.160  66.784  1.00  0.00    -0.119 N  
HETATM   16  C   UNL     1      -9.044   3.690  68.094  1.00  0.00    -0.149 C  
HETATM   17  H   UNL     1      -8.260   3.860  66.162  1.00  0.00     0.000 HD 
HETATM   18  O   UNL     1      -9.382   2.555  68.395  1.00  0.00    -0.183 OA 
HETATM   19  C   UNL     1      -8.502   4.624  69.117  1.00  0.00    -0.089 A  
HETATM   20  C   UNL     1      -8.813   5.992  69.012  1.00  0.00    -0.121 A  
HETATM   21  C   UNL     1      -8.199   6.916  69.842  1.00  0.00    -0.127 A  
HETATM   22  C   UNL     1      -7.343   6.507  70.874  1.00  0.00    -0.083 A  
HETATM   23  N   UNL     1      -8.593   8.158  69.400  1.00  0.00    -0.134 NA 
HETATM   24  H   UNL     1      -8.274   9.039  69.800  1.00  0.00     0.000 HD 
HETATM   25  C   UNL     1      -7.130   5.133  71.017  1.00  0.00    -0.059 A  
HETATM   26  C   UNL     1      -7.680   4.190  70.156  1.00  0.00    -0.049 A  
HETATM   27  F   UNL     1      -6.342   4.709  72.019  1.00  0.00    -0.018 F  
ENDBRANCH   8  11
ENDBRANCH   4   5
ENDBRANCH   2   4
TORSDOF 3
ENDMDL
MODEL       99
REMARK 921   NORMALIZED FREE ENERGY PREDICTED BY IDOCK:   -4.53 KCAL/MOL
REMARK 922        TOTAL FREE ENERGY PREDICTED BY IDOCK:   -5.71 KCAL/MOL
REMARK 923 INTER-LIGAND FREE ENERGY PREDICTED BY IDOCK:   -5.37 KCAL/MOL
REMARK 924 INTRA-LIGAND FREE ENERGY PREDICTED BY IDOCK:   -0.34 KCAL/MOL
REMARK 927      BINDING AFFINITY PREDICTED BY RF-SCORE:    0.00 PKD
ROOT
HETATM    1  C   UNL     1      -8.495   5.633  72.636  1.00  0.00    -0.120 C  
HETATM    2  N   UNL     1      -8.655   6.694  71.653  1.00  0.00    -0.124 NA 
HETATM    3  H   UNL     1      -9.517   7.219  71.804  1.00  0.00     0.000 HD 
ENDROOT
BRANCH   2   4
HETATM    4  C   UNL     1      -7.487   7.572  71.631  1.00  0.00    -0.083 C  
BRANCH   4   5
HETATM    5  C   UNL     1      -7.740   8.794  70.779  1.00  0.00    -0.108 A  
HETATM    6  C   UNL     1      -8.996   9.053  70.209  1.00  0.00    -0.221 A  
HETATM    7  C   UNL     1      -9.203  10.181  69.398  1.00  0.00    -0.229 A  
HETATM    8  C   UNL     1      -8.154  11.071  69.136  1.00  0.00    -0.066 A  
HETATM    9  C   UNL     1      -6.904  10.802  69.709  1.00  0.00    -0.151 A  
HETATM   10  C   UNL     1      -6.698   9.689  70.525  1.00  0.00    -0.119 A  
BRANCH   8  11
HETATM   11  C   UNL     1      -8.304  12.239  68.255  1.00  0.00    -0.174 A  
HETATM   12  C   UNL     1      -9.250  12.520  67.278  1.00  0.00    -0.190 A  
HETATM   13  C   UNL     1     -10.288  11.656  66.630  1.00  0.00    -0.257 C  
HETATM   14  C   UNL     1     -11.709  12.142  66.932  1.00  0.00    -0.301 C  
HETATM   15  N   UNL     1     -11.983  13.562  66.667  1.00  0.00    -0.396 N  
HETATM   16  C   UNL     1     -11.257  14.261  65.707  1.00  0.00    -0.317 C  
HETATM   17  H   UNL     1     -12.714  14.041  67.193  1.00  0.00     0.000 HD 
HETATM   18  O   UNL     1     -11.706  14.568  64.613  1.00  0.00    -0.400 OA 
HETATM   19  C   UNL     1      -9.922  14.746  66.151  1.00  0.00    -0.324 A  
HETATM   20  C   UNL     1      -9.125  13.896  66.937  1.00  0.00    -0.257 A  
HETATM   21  C   UNL     1      -7.952  14.364  67.508  1.00  0.00    -0.192 A  
HETATM   22  C   UNL     1      -7.475  15.653  67.229  1.00  0.00    -0.257 A  
HETATM   23  N   UNL     1      -7.487  13.359  68.323  1.00  0.00    -0.118 NA 
HETATM   24  H   UNL     1      -6.651  13.427  68.902  1.00  0.00     0.000 HD 
HETATM   25  C   UNL     1      -8.240  16.442  66.364  1.00  0.00    -0.331 A  
HETATM   26  C   UNL     1      -9.453  16.020  65.832  1.00  0.00    -0.351 A  
HETATM   27  F   UNL     1      -7.790  17.668  66.051  1.00  0.00    -0.287 F  
ENDBRANCH   8  11
ENDBRANCH   4   5
ENDBRANCH   2   4
TORSDOF 3
ENDMDL
MODEL      100
REMARK 921   NORMALIZED FREE ENERGY PREDICTED BY IDOCK:   -4.53 KCAL/MOL
REMARK 922        TOTAL FREE ENERGY PREDICTED BY IDOCK:   -5.71 KCAL/MOL
REMARK 923 INTER-LIGAND FREE ENERGY PREDICTED BY IDOCK:   -5.15 KCAL/MOL
REMARK 924 INTRA-LIGAND FREE ENERGY PREDICTED BY IDOCK:   -0.56 KCAL/MOL
REMARK 927      BINDING AFFINITY PREDICTED BY RF-SCORE:    0.00 PKD
ROOT
HETATM    1  C   UNL     1      -6.622   2.802  64.050  1.00  0.00    -0.031 C  
HETATM    2  N   UNL     1      -5.996   3.286  65.271  1.00  0.00    -0.019 NA 
HETATM    3  H   UNL     1      -5.690   4.255  65.178  1.00  0.00     0.000 HD 
ENDROOT
BRANCH   2   4
HETATM    4  C   UNL     1      -6.880   3.107  66.421  1.00  0.00    -0.053 C  
BRANCH   4   5
HETATM    5  C   UNL     1      -7.638   4.378  66.727  1.00  0.00    -0.086 A  
HETATM    6  C   UNL     1      -6.983   5.551  67.136  1.00  0.00    -0.065 A  
HETATM    7  C   UNL     1      -7.708   6.714  67.442  1.00  0.00    -0.109 A  
HETATM    8  C   UNL     1      -9.106   6.727  67.348  1.00  0.00    -0.117 A  
HETATM    9  C   UNL     1      -9.749   5.551  66.939  1.00  0.00    -0.163 A  
HETATM   10  C   UNL     1      -9.030   4.397  66.624  1.00  0.00    -0.117 A  
BRANCH   8  11
HETATM   11  C   UNL     1      -9.916   7.903  67.702  1.00  0.00    -0.181 A  
HETATM   12  C   UNL     1     -10.630   8.194  68.856  1.00  0.00    -0.161 A  
HETATM   13  C   UNL     1     -11.011   7.339  70.026  1.00  0.00    -0.273 C  
HETATM   14  C   UNL     1     -10.368   7.828  71.328  1.00  0.00    -0.198 C  
HETATM   15  N   UNL     1     -10.549   9.251  71.650  1.00  0.00    -0.348 N  
HETATM   16  C   UNL     1     -11.653   9.954  71.176  1.00  0.00    -0.389 C  
HETATM   17  H   UNL     1      -9.858   9.729  72.228  1.00  0.00     0.000 HD 
HETATM   18  O   UNL     1     -12.602  10.271  71.878  1.00  0.00    -0.400 OA 
HETATM   19  C   UNL     1     -11.546  10.431  69.772  1.00  0.00    -0.339 A  
HETATM   20  C   UNL     1     -10.983   9.572  68.811  1.00  0.00    -0.116 A  
HETATM   21  C   UNL     1     -10.713  10.032  67.531  1.00  0.00    -0.281 A  
HETATM   22  C   UNL     1     -11.092  11.320  67.130  1.00  0.00    -0.364 A  
HETATM   23  N   UNL     1     -10.042   9.018  66.887  1.00  0.00    -0.244 NA 
HETATM   24  H   UNL     1      -9.684   9.079  65.935  1.00  0.00     0.000 HD 
HETATM   25  C   UNL     1     -11.739  12.119  68.079  1.00  0.00    -0.344 A  
HETATM   26  C   UNL     1     -11.961  11.705  69.387  1.00  0.00    -0.381 A  
HETATM   27  F   UNL     1     -12.145  13.345  67.712  1.00  0.00    -0.371 F  
ENDBRANCH   8  11
ENDBRANCH   4   5
ENDBRANCH   2   4
TORSDOF 3
ENDMDL
MODEL      101
REMARK 921   NORMALIZED FREE ENERGY PREDICTED BY IDOCK:   -4.51 KCAL/MOL
REMARK 922        TOTAL FREE ENERGY PREDICTED BY IDOCK:   -5.68 KCAL/MOL
REMARK 923 INTER-LIGAND FREE ENERGY PREDICTED BY IDOCK:   -5.15 KCAL/MOL
REMARK 924 INTRA-LIGAND FREE ENERGY PREDICTED BY IDOCK:   -0.54 KCAL/MOL
REMARK 927      BINDING AFFINITY PREDICTED BY RF-SCORE:    0.00 PKD
ROOT
HETATM    1  C   UNL     1      -5.563  17.044  70.305  1.00  0.00    -0.212 C  
HETATM    2  N   UNL     1      -6.054  15.690  70.097  1.00  0.00    -0.146 NA 
HETATM    3  H   UNL     1      -6.491  15.315  70.940  1.00  0.00     0.000 HD 
ENDROOT
BRANCH   2   4
HETATM    4  C   UNL     1      -6.957  15.629  68.950  1.00  0.00    -0.130 C  
BRANCH   4   5
HETATM    5  C   UNL     1      -7.468  14.224  68.733  1.00  0.00    -0.129 A  
HETATM    6  C   UNL     1      -8.755  13.972  68.233  1.00  0.00    -0.182 A  
HETATM    7  C   UNL     1      -9.220  12.657  68.063  1.00  0.00    -0.208 A  
HETATM    8  C   UNL     1      -8.406  11.567  68.395  1.00  0.00    -0.154 A  
HETATM    9  C   UNL     1      -7.123  11.830  68.894  1.00  0.00    -0.114 A  
HETATM   10  C   UNL     1      -6.655  13.134  69.052  1.00  0.00    -0.105 A  
BRANCH   8  11
HETATM   11  C   UNL     1      -8.861  10.172  68.282  1.00  0.00    -0.124 A  
HETATM   12  C   UNL     1      -9.404   9.318  69.233  1.00  0.00    -0.160 A  
HETATM   13  C   UNL     1      -9.502   9.433  70.724  1.00  0.00    -0.307 C  
HETATM   14  C   UNL     1     -10.958   9.500  71.200  1.00  0.00    -0.368 C  
HETATM   15  N   UNL     1     -11.855   8.445  70.704  1.00  0.00    -0.473 N  
HETATM   16  C   UNL     1     -11.355   7.198  70.340  1.00  0.00    -0.289 C  
HETATM   17  H   UNL     1     -12.855   8.630  70.627  1.00  0.00     0.000 HD 
HETATM   18  O   UNL     1     -11.493   6.192  71.019  1.00  0.00    -0.309 OA 
HETATM   19  C   UNL     1     -10.753   7.128  68.981  1.00  0.00    -0.204 A  
HETATM   20  C   UNL     1      -9.946   8.195  68.548  1.00  0.00    -0.204 A  
HETATM   21  C   UNL     1      -9.501   8.250  67.236  1.00  0.00    -0.151 A  
HETATM   22  C   UNL     1      -9.748   7.198  66.343  1.00  0.00    -0.139 A  
HETATM   23  N   UNL     1      -8.873   9.465  67.089  1.00  0.00    -0.127 NA 
HETATM   24  H   UNL     1      -8.470   9.803  66.216  1.00  0.00     0.000 HD 
HETATM   25  C   UNL     1     -10.470   6.104  66.831  1.00  0.00    -0.276 A  
HETATM   26  C   UNL     1     -10.984   6.055  68.122  1.00  0.00    -0.340 A  
HETATM   27  F   UNL     1     -10.691   5.066  66.009  1.00  0.00    -0.294 F  
ENDBRANCH   8  11
ENDBRANCH   4   5
ENDBRANCH   2   4
TORSDOF 3
ENDMDL
MODEL      102
REMARK 921   NORMALIZED FREE ENERGY PREDICTED BY IDOCK:   -4.48 KCAL/MOL
REMARK 922        TOTAL FREE ENERGY PREDICTED BY IDOCK:   -5.65 KCAL/MOL
REMARK 923 INTER-LIGAND FREE ENERGY PREDICTED BY IDOCK:   -5.69 KCAL/MOL
REMARK 924 INTRA-LIGAND FREE ENERGY PREDICTED BY IDOCK:    0.04 KCAL/MOL
REMARK 927      BINDING AFFINITY PREDICTED BY RF-SCORE:    0.00 PKD
ROOT
HETATM    1  C   UNL     1     -10.087  19.804  68.702  1.00  0.00    -0.440 C  
HETATM    2  N   UNL     1      -9.597  20.468  67.504  1.00  0.00    -0.422 NA 
HETATM    3  H   UNL     1      -8.622  20.753  67.604  1.00  0.00     0.000 HD 
ENDROOT
BRANCH   2   4
HETATM    4  C   UNL     1      -9.794  19.631  66.322  1.00  0.00    -0.447 C  
BRANCH   4   5
HETATM    5  C   UNL     1      -9.426  18.193  66.605  1.00  0.00    -0.303 A  
HETATM    6  C   UNL     1      -8.091  17.763  66.638  1.00  0.00    -0.288 A  
HETATM    7  C   UNL     1      -7.771  16.416  66.876  1.00  0.00    -0.276 A  
HETATM    8  C   UNL     1      -8.783  15.470  67.083  1.00  0.00    -0.234 A  
HETATM    9  C   UNL     1     -10.113  15.911  67.047  1.00  0.00    -0.268 A  
HETATM   10  C   UNL     1     -10.433  17.250  66.822  1.00  0.00    -0.261 A  
BRANCH   8  11
HETATM   11  C   UNL     1      -8.506  14.041  67.289  1.00  0.00    -0.207 A  
HETATM   12  C   UNL     1      -9.279  13.044  67.869  1.00  0.00    -0.208 A  
HETATM   13  C   UNL     1     -10.539  13.114  68.677  1.00  0.00    -0.259 C  
HETATM   14  C   UNL     1     -11.712  12.425  67.973  1.00  0.00    -0.356 C  
HETATM   15  N   UNL     1     -11.476  11.050  67.505  1.00  0.00    -0.259 N  
HETATM   16  C   UNL     1     -10.536  10.237  68.131  1.00  0.00    -0.190 C  
HETATM   17  H   UNL     1     -12.008  10.689  66.714  1.00  0.00     0.000 HD 
HETATM   18  O   UNL     1     -10.832   9.315  68.877  1.00  0.00    -0.194 OA 
HETATM   19  C   UNL     1      -9.124  10.468  67.722  1.00  0.00    -0.140 A  
HETATM   20  C   UNL     1      -8.683  11.792  67.550  1.00  0.00    -0.159 A  
HETATM   21  C   UNL     1      -7.431  12.049  67.013  1.00  0.00    -0.106 A  
HETATM   22  C   UNL     1      -6.535  11.008  66.733  1.00  0.00    -0.124 A  
HETATM   23  N   UNL     1      -7.356  13.411  66.836  1.00  0.00    -0.294 NA 
HETATM   24  H   UNL     1      -6.558  13.895  66.426  1.00  0.00     0.000 HD 
HETATM   25  C   UNL     1      -6.966   9.706  67.007  1.00  0.00    -0.085 A  
HETATM   26  C   UNL     1      -8.240   9.417  67.483  1.00  0.00    -0.117 A  
HETATM   27  F   UNL     1      -6.117   8.690  66.782  1.00  0.00    -0.052 F  
ENDBRANCH   8  11
ENDBRANCH   4   5
ENDBRANCH   2   4
TORSDOF 3
ENDMDL
MODEL      103
REMARK 921   NORMALIZED FREE ENERGY PREDICTED BY IDOCK:   -4.46 KCAL/MOL
REMARK 922        TOTAL FREE ENERGY PREDICTED BY IDOCK:   -5.63 KCAL/MOL
REMARK 923 INTER-LIGAND FREE ENERGY PREDICTED BY IDOCK:   -5.09 KCAL/MOL
REMARK 924 INTRA-LIGAND FREE ENERGY PREDICTED BY IDOCK:   -0.53 KCAL/MOL
REMARK 927      BINDING AFFINITY PREDICTED BY RF-SCORE:    0.00 PKD
ROOT
HETATM    1  C   UNL     1     -11.535  15.449  68.184  1.00  0.00    -0.343 C  
HETATM    2  N   UNL     1     -12.209  14.160  68.181  1.00  0.00    -0.560 NA 
HETATM    3  H   UNL     1     -11.719  13.481  67.598  1.00  0.00     0.000 HD 
ENDROOT
BRANCH   2   4
HETATM    4  C   UNL     1     -12.397  13.663  69.543  1.00  0.00    -0.182 C  
BRANCH   4   5
HETATM    5  C   UNL     1     -11.727  12.321  69.730  1.00  0.00    -0.368 A  
HETATM    6  C   UNL     1     -12.101  11.443  70.759  1.00  0.00    -0.433 A  
HETATM    7  C   UNL     1     -11.448  10.212  70.932  1.00  0.00    -0.444 A  
HETATM    8  C   UNL     1     -10.403   9.835  70.079  1.00  0.00    -0.307 A  
HETATM    9  C   UNL     1     -10.037  10.719  69.055  1.00  0.00    -0.225 A  
HETATM   10  C   UNL     1     -10.692  11.938  68.874  1.00  0.00    -0.236 A  
BRANCH   8  11
HETATM   11  C   UNL     1      -9.654   8.580  70.245  1.00  0.00    -0.167 A  
HETATM   12  C   UNL     1      -9.976   7.280  69.881  1.00  0.00    -0.183 A  
HETATM   13  C   UNL     1     -11.264   6.675  69.412  1.00  0.00    -0.356 C  
HETATM   14  C   UNL     1     -11.159   6.138  67.981  1.00  0.00    -0.214 C  
HETATM   15  N   UNL     1     -10.034   5.232  67.705  1.00  0.00    -0.156 N  
HETATM   16  C   UNL     1      -9.473   4.464  68.721  1.00  0.00    -0.162 C  
HETATM   17  H   UNL     1      -9.662   5.165  66.758  1.00  0.00     0.000 HD 
HETATM   18  O   UNL     1      -9.659   3.262  68.839  1.00  0.00    -0.159 OA 
HETATM   19  C   UNL     1      -8.501   5.178  69.592  1.00  0.00    -0.093 A  
HETATM   20  C   UNL     1      -8.796   6.493  69.992  1.00  0.00    -0.144 A  
HETATM   21  C   UNL     1      -7.849   7.251  70.663  1.00  0.00    -0.094 A  
HETATM   22  C   UNL     1      -6.623   6.696  71.056  1.00  0.00    -0.053 A  
HETATM   23  N   UNL     1      -8.376   8.517  70.780  1.00  0.00    -0.126 NA 
HETATM   24  H   UNL     1      -7.889   9.305  71.205  1.00  0.00     0.000 HD 
HETATM   25  C   UNL     1      -6.397   5.355  70.730  1.00  0.00    -0.031 A  
HETATM   26  C   UNL     1      -7.303   4.594  70.000  1.00  0.00    -0.054 A  
HETATM   27  F   UNL     1      -5.247   4.786  71.125  1.00  0.00    -0.003 F  
ENDBRANCH   8  11
ENDBRANCH   4   5
ENDBRANCH   2   4
TORSDOF 3
ENDMDL
MODEL      104
REMARK 921   NORMALIZED FREE ENERGY PREDICTED BY IDOCK:   -4.40 KCAL/MOL
REMARK 922        TOTAL FREE ENERGY PREDICTED BY IDOCK:   -5.56 KCAL/MOL
REMARK 923 INTER-LIGAND FREE ENERGY PREDICTED BY IDOCK:   -5.17 KCAL/MOL
REMARK 924 INTRA-LIGAND FREE ENERGY PREDICTED BY IDOCK:   -0.39 KCAL/MOL
REMARK 927      BINDING AFFINITY PREDICTED BY RF-SCORE:    0.00 PKD
ROOT
HETATM    1  C   UNL     1     -10.009  16.560  66.840  1.00  0.00    -0.271 C  
HETATM    2  N   UNL     1     -10.067  15.708  65.662  1.00  0.00    -0.347 NA 
HETATM    3  H   UNL     1      -9.179  15.231  65.498  1.00  0.00     0.000 HD 
ENDROOT
BRANCH   2   4
HETATM    4  C   UNL     1     -11.177  14.761  65.752  1.00  0.00    -0.337 C  
BRANCH   4   5
HETATM    5  C   UNL     1     -10.837  13.609  66.669  1.00  0.00    -0.283 A  
HETATM    6  C   UNL     1      -9.552  13.047  66.707  1.00  0.00    -0.248 A  
HETATM    7  C   UNL     1      -9.263  11.959  67.548  1.00  0.00    -0.177 A  
HETATM    8  C   UNL     1     -10.258  11.409  68.366  1.00  0.00    -0.206 A  
HETATM    9  C   UNL     1     -11.538  11.978  68.320  1.00  0.00    -0.394 A  
HETATM   10  C   UNL     1     -11.824  13.066  67.494  1.00  0.00    -0.408 A  
BRANCH   8  11
HETATM   11  C   UNL     1     -10.022  10.241  69.228  1.00  0.00    -0.227 A  
HETATM   12  C   UNL     1      -9.162   9.161  69.074  1.00  0.00    -0.143 A  
HETATM   13  C   UNL     1      -8.361   8.697  67.896  1.00  0.00    -0.123 C  
HETATM   14  C   UNL     1      -6.854   8.759  68.167  1.00  0.00    -0.069 C  
HETATM   15  N   UNL     1      -6.385   8.108  69.399  1.00  0.00    -0.034 N  
HETATM   16  C   UNL     1      -7.094   7.049  69.959  1.00  0.00    -0.070 C  
HETATM   17  H   UNL     1      -5.530   8.435  69.848  1.00  0.00     0.000 HD 
HETATM   18  O   UNL     1      -6.729   5.884  69.893  1.00  0.00    -0.048 OA 
HETATM   19  C   UNL     1      -8.271   7.438  70.781  1.00  0.00    -0.111 A  
HETATM   20  C   UNL     1      -9.100   8.475  70.319  1.00  0.00    -0.158 A  
HETATM   21  C   UNL     1     -10.107   8.980  71.126  1.00  0.00    -0.295 A  
HETATM   22  C   UNL     1     -10.397   8.402  72.370  1.00  0.00    -0.399 A  
HETATM   23  N   UNL     1     -10.632  10.064  70.461  1.00  0.00    -0.362 NA 
HETATM   24  H   UNL     1     -11.373  10.660  70.828  1.00  0.00     0.000 HD 
HETATM   25  C   UNL     1      -9.618   7.308  72.760  1.00  0.00    -0.158 A  
HETATM   26  C   UNL     1      -8.559   6.825  71.999  1.00  0.00    -0.122 A  
HETATM   27  F   UNL     1      -9.895   6.711  73.931  1.00  0.00    -0.180 F  
ENDBRANCH   8  11
ENDBRANCH   4   5
ENDBRANCH   2   4
TORSDOF 3
ENDMDL
MODEL      105
REMARK 921   NORMALIZED FREE ENERGY PREDICTED BY IDOCK:   -4.35 KCAL/MOL
REMARK 922        TOTAL FREE ENERGY PREDICTED BY IDOCK:   -5.50 KCAL/MOL
REMARK 923 INTER-LIGAND FREE ENERGY PREDICTED BY IDOCK:   -5.00 KCAL/MOL
REMARK 924 INTRA-LIGAND FREE ENERGY PREDICTED BY IDOCK:   -0.50 KCAL/MOL
REMARK 927      BINDING AFFINITY PREDICTED BY RF-SCORE:    0.00 PKD
ROOT
HETATM    1  C   UNL     1     -10.858   2.982  73.598  1.00  0.00    -0.217 C  
HETATM    2  N   UNL     1     -10.285   4.075  72.829  1.00  0.00    -0.159 NA 
HETATM    3  H   UNL     1     -10.491   3.983  71.834  1.00  0.00     0.000 HD 
ENDROOT
BRANCH   2   4
HETATM    4  C   UNL     1     -10.718   5.369  73.351  1.00  0.00    -0.276 C  
BRANCH   4   5
HETATM    5  C   UNL     1     -10.601   6.448  72.299  1.00  0.00    -0.242 A  
HETATM    6  C   UNL     1      -9.561   6.453  71.356  1.00  0.00    -0.173 A  
HETATM    7  C   UNL     1      -9.455   7.480  70.403  1.00  0.00    -0.161 A  
HETATM    8  C   UNL     1     -10.386   8.525  70.377  1.00  0.00    -0.222 A  
HETATM    9  C   UNL     1     -11.420   8.510  71.323  1.00  0.00    -0.329 A  
HETATM   10  C   UNL     1     -11.534   7.486  72.264  1.00  0.00    -0.348 A  
BRANCH   8  11
HETATM   11  C   UNL     1     -10.294   9.649  69.432  1.00  0.00    -0.213 A  
HETATM   12  C   UNL     1      -9.227  10.479  69.115  1.00  0.00    -0.183 A  
HETATM   13  C   UNL     1      -7.895  10.670  69.773  1.00  0.00     0.029 C  
HETATM   14  C   UNL     1      -6.738  10.262  68.855  1.00  0.00    -0.057 C  
HETATM   15  N   UNL     1      -6.736  10.849  67.507  1.00  0.00    -0.072 N  
HETATM   16  C   UNL     1      -7.345  12.078  67.264  1.00  0.00    -0.151 C  
HETATM   17  H   UNL     1      -6.283  10.352  66.741  1.00  0.00     0.000 HD 
HETATM   18  O   UNL     1      -6.723  13.115  67.088  1.00  0.00    -0.152 OA 
HETATM   19  C   UNL     1      -8.821  12.030  67.088  1.00  0.00    -0.188 A  
HETATM   20  C   UNL     1      -9.573  11.198  67.938  1.00  0.00    -0.181 A  
HETATM   21  C   UNL     1     -10.924  10.997  67.705  1.00  0.00    -0.275 A  
HETATM   22  C   UNL     1     -11.597  11.697  66.693  1.00  0.00    -0.194 A  
HETATM   23  N   UNL     1     -11.334  10.036  68.599  1.00  0.00    -0.494 NA 
HETATM   24  H   UNL     1     -12.279   9.657  68.644  1.00  0.00     0.000 HD 
HETATM   25  C   UNL     1     -10.843  12.592  65.928  1.00  0.00    -0.269 A  
HETATM   26  C   UNL     1      -9.473  12.761  66.098  1.00  0.00    -0.169 A  
HETATM   27  F   UNL     1     -11.468  13.302  64.975  1.00  0.00    -0.306 F  
ENDBRANCH   8  11
ENDBRANCH   4   5
ENDBRANCH   2   4
TORSDOF 3
ENDMDL
MODEL      106
REMARK 921   NORMALIZED FREE ENERGY PREDICTED BY IDOCK:   -4.33 KCAL/MOL
REMARK 922        TOTAL FREE ENERGY PREDICTED BY IDOCK:   -5.47 KCAL/MOL
REMARK 923 INTER-LIGAND FREE ENERGY PREDICTED BY IDOCK:   -5.49 KCAL/MOL
REMARK 924 INTRA-LIGAND FREE ENERGY PREDICTED BY IDOCK:    0.02 KCAL/MOL
REMARK 927      BINDING AFFINITY PREDICTED BY RF-SCORE:    0.00 PKD
ROOT
HETATM    1  C   UNL     1      -6.052  21.335  66.107  1.00  0.00    -0.236 C  
HETATM    2  N   UNL     1      -6.539  21.356  67.478  1.00  0.00    -0.557 NA 
HETATM    3  H   UNL     1      -6.401  22.268  67.913  1.00  0.00     0.000 HD 
ENDROOT
BRANCH   2   4
HETATM    4  C   UNL     1      -7.937  20.933  67.545  1.00  0.00    -0.092 C  
BRANCH   4   5
HETATM    5  C   UNL     1      -8.057  19.430  67.448  1.00  0.00    -0.313 A  
HETATM    6  C   UNL     1      -7.414  18.699  66.437  1.00  0.00    -0.275 A  
HETATM    7  C   UNL     1      -7.560  17.305  66.349  1.00  0.00    -0.349 A  
HETATM    8  C   UNL     1      -8.356  16.613  67.270  1.00  0.00    -0.198 A  
HETATM    9  C   UNL     1      -8.994  17.353  68.275  1.00  0.00    -0.268 A  
HETATM   10  C   UNL     1      -8.842  18.736  68.372  1.00  0.00    -0.375 A  
BRANCH   8  11
HETATM   11  C   UNL     1      -8.581  15.162  67.194  1.00  0.00    -0.223 A  
HETATM   12  C   UNL     1      -7.761  14.100  67.551  1.00  0.00    -0.201 A  
HETATM   13  C   UNL     1      -6.308  14.051  67.912  1.00  0.00    -0.169 C  
HETATM   14  C   UNL     1      -6.090  13.588  69.357  1.00  0.00    -0.103 C  
HETATM   15  N   UNL     1      -6.761  12.339  69.749  1.00  0.00    -0.350 N  
HETATM   16  C   UNL     1      -7.064  11.365  68.801  1.00  0.00    -0.102 C  
HETATM   17  H   UNL     1      -7.006  12.184  70.726  1.00  0.00     0.000 HD 
HETATM   18  O   UNL     1      -6.444  10.318  68.689  1.00  0.00    -0.051 OA 
HETATM   19  C   UNL     1      -8.298  11.613  68.009  1.00  0.00    -0.148 A  
HETATM   20  C   UNL     1      -8.558  12.921  67.561  1.00  0.00    -0.188 A  
HETATM   21  C   UNL     1      -9.770  13.230  66.965  1.00  0.00    -0.238 A  
HETATM   22  C   UNL     1     -10.719  12.234  66.694  1.00  0.00    -0.276 A  
HETATM   23  N   UNL     1      -9.776  14.593  66.778  1.00  0.00    -0.247 NA 
HETATM   24  H   UNL     1     -10.557  15.117  66.385  1.00  0.00     0.000 HD 
HETATM   25  C   UNL     1     -10.391  10.925  67.062  1.00  0.00    -0.231 A  
HETATM   26  C   UNL     1      -9.211  10.600  67.721  1.00  0.00    -0.151 A  
HETATM   27  F   UNL     1     -11.265   9.944  66.783  1.00  0.00    -0.150 F  
ENDBRANCH   8  11
ENDBRANCH   4   5
ENDBRANCH   2   4
TORSDOF 3
ENDMDL
MODEL      107
REMARK 921   NORMALIZED FREE ENERGY PREDICTED BY IDOCK:   -4.26 KCAL/MOL
REMARK 922        TOTAL FREE ENERGY PREDICTED BY IDOCK:   -5.39 KCAL/MOL
REMARK 923 INTER-LIGAND FREE ENERGY PREDICTED BY IDOCK:   -5.31 KCAL/MOL
REMARK 924 INTRA-LIGAND FREE ENERGY PREDICTED BY IDOCK:   -0.08 KCAL/MOL
REMARK 927      BINDING AFFINITY PREDICTED BY RF-SCORE:    0.00 PKD
ROOT
HETATM    1  C   UNL     1      -8.032   6.773  63.718  1.00  0.00    -0.065 C  
HETATM    2  N   UNL     1      -6.981   5.939  64.280  1.00  0.00    -0.049 NA 
HETATM    3  H   UNL     1      -6.075   6.408  64.255  1.00  0.00     0.000 HD 
ENDROOT
BRANCH   2   4
HETATM    4  C   UNL     1      -7.323   5.502  65.632  1.00  0.00    -0.073 C  
BRANCH   4   5
HETATM    5  C   UNL     1      -7.976   6.617  66.416  1.00  0.00    -0.106 A  
HETATM    6  C   UNL     1      -7.245   7.719  66.886  1.00  0.00    -0.089 A  
HETATM    7  C   UNL     1      -7.866   8.731  67.636  1.00  0.00    -0.102 A  
HETATM    8  C   UNL     1      -9.233   8.660  67.933  1.00  0.00    -0.148 A  
HETATM    9  C   UNL     1      -9.953   7.555  67.458  1.00  0.00    -0.228 A  
HETATM   10  C   UNL     1      -9.341   6.554  66.704  1.00  0.00    -0.184 A  
BRANCH   8  11
HETATM   11  C   UNL     1      -9.922   9.668  68.753  1.00  0.00    -0.173 A  
HETATM   12  C   UNL     1      -9.873  11.055  68.713  1.00  0.00    -0.206 A  
HETATM   13  C   UNL     1      -8.949  11.990  67.994  1.00  0.00    -0.187 C  
HETATM   14  C   UNL     1      -9.689  12.841  66.955  1.00  0.00    -0.224 C  
HETATM   15  N   UNL     1     -10.882  13.558  67.430  1.00  0.00    -0.266 N  
HETATM   16  C   UNL     1     -11.008  13.924  68.767  1.00  0.00    -0.263 C  
HETATM   17  H   UNL     1     -11.625  13.791  66.772  1.00  0.00     0.000 HD 
HETATM   18  O   UNL     1     -10.870  15.071  69.168  1.00  0.00    -0.232 OA 
HETATM   19  C   UNL     1     -11.468  12.844  69.680  1.00  0.00    -0.251 A  
HETATM   20  C   UNL     1     -10.944  11.550  69.508  1.00  0.00    -0.186 A  
HETATM   21  C   UNL     1     -11.463  10.482  70.223  1.00  0.00    -0.333 A  
HETATM   22  C   UNL     1     -12.439  10.678  71.210  1.00  0.00    -0.515 A  
HETATM   23  N   UNL     1     -10.853   9.352  69.732  1.00  0.00    -0.233 NA 
HETATM   24  H   UNL     1     -11.059   8.404  70.046  1.00  0.00     0.000 HD 
HETATM   25  C   UNL     1     -12.871  11.991  71.428  1.00  0.00    -0.288 A  
HETATM   26  C   UNL     1     -12.415  13.069  70.677  1.00  0.00    -0.347 A  
HETATM   27  F   UNL     1     -13.780  12.213  72.390  1.00  0.00    -0.561 F  
ENDBRANCH   8  11
ENDBRANCH   4   5
ENDBRANCH   2   4
TORSDOF 3
ENDMDL
MODEL      108
REMARK 921   NORMALIZED FREE ENERGY PREDICTED BY IDOCK:   -4.26 KCAL/MOL
REMARK 922        TOTAL FREE ENERGY PREDICTED BY IDOCK:   -5.39 KCAL/MOL
REMARK 923 INTER-LIGAND FREE ENERGY PREDICTED BY IDOCK:   -5.05 KCAL/MOL
REMARK 924 INTRA-LIGAND FREE ENERGY PREDICTED BY IDOCK:   -0.34 KCAL/MOL
REMARK 927      BINDING AFFINITY PREDICTED BY RF-SCORE:    0.00 PKD
ROOT
HETATM    1  C   UNL     1      -9.138   2.022  70.571  1.00  0.00    -0.096 C  
HETATM    2  N   UNL     1      -9.940   3.235  70.594  1.00  0.00     0.061 NA 
HETATM    3  H   UNL     1      -9.920   3.682  71.511  1.00  0.00     0.000 HD 
ENDROOT
BRANCH   2   4
HETATM    4  C   UNL     1      -9.529   4.157  69.537  1.00  0.00    -0.184 C  
BRANCH   4   5
HETATM    5  C   UNL     1     -10.036   5.555  69.806  1.00  0.00    -0.302 A  
HETATM    6  C   UNL     1     -10.056   6.541  68.807  1.00  0.00    -0.178 A  
HETATM    7  C   UNL     1     -10.507   7.842  69.086  1.00  0.00    -0.218 A  
HETATM    8  C   UNL     1     -10.944   8.184  70.371  1.00  0.00    -0.248 A  
HETATM    9  C   UNL     1     -10.919   7.192  71.361  1.00  0.00    -0.258 A  
HETATM   10  C   UNL     1     -10.483   5.895  71.085  1.00  0.00    -0.291 A  
BRANCH   8  11
HETATM   11  C   UNL     1     -11.380   9.542  70.728  1.00  0.00    -0.321 A  
HETATM   12  C   UNL     1     -11.157  10.759  70.097  1.00  0.00    -0.298 A  
HETATM   13  C   UNL     1     -10.223  11.141  68.989  1.00  0.00    -0.194 C  
HETATM   14  C   UNL     1     -10.977  11.606  67.738  1.00  0.00    -0.233 C  
HETATM   15  N   UNL     1     -11.993  12.650  67.939  1.00  0.00    -0.324 N  
HETATM   16  C   UNL     1     -11.891  13.548  68.998  1.00  0.00    -0.343 C  
HETATM   17  H   UNL     1     -12.780  12.718  67.295  1.00  0.00     0.000 HD 
HETATM   18  O   UNL     1     -11.553  14.715  68.862  1.00  0.00    -0.279 OA 
HETATM   19  C   UNL     1     -12.362  13.035  70.312  1.00  0.00    -0.311 A  
HETATM   20  C   UNL     1     -12.038  11.715  70.674  1.00  0.00    -0.432 A  
HETATM   21  C   UNL     1     -12.592  11.143  71.808  1.00  0.00    -0.177 A  
HETATM   22  C   UNL     1     -13.395  11.893  72.680  1.00  0.00     0.792 A  
HETATM   23  N   UNL     1     -12.206   9.823  71.807  1.00  0.00    -0.388 NA 
HETATM   24  H   UNL     1     -12.490   9.139  72.507  1.00  0.00     0.000 HD 
HETATM   25  C   UNL     1     -13.619  13.233  72.345  1.00  0.00    -0.594 A  
HETATM   26  C   UNL     1     -13.130  13.811  71.179  1.00  0.00    -0.324 A  
HETATM   27  F   UNL     1     -14.354  13.985  73.179  1.00  0.00     0.085 F  
ENDBRANCH   8  11
ENDBRANCH   4   5
ENDBRANCH   2   4
TORSDOF 3
ENDMDL
MODEL      109
REMARK 921   NORMALIZED FREE ENERGY PREDICTED BY IDOCK:   -4.24 KCAL/MOL
REMARK 922        TOTAL FREE ENERGY PREDICTED BY IDOCK:   -5.37 KCAL/MOL
REMARK 923 INTER-LIGAND FREE ENERGY PREDICTED BY IDOCK:   -4.82 KCAL/MOL
REMARK 924 INTRA-LIGAND FREE ENERGY PREDICTED BY IDOCK:   -0.55 KCAL/MOL
REMARK 927      BINDING AFFINITY PREDICTED BY RF-SCORE:    0.00 PKD
ROOT
HETATM    1  C   UNL     1     -12.673  15.130  70.857  1.00  0.00    -0.401 C  
HETATM    2  N   UNL     1     -11.918  13.916  71.127  1.00  0.00    -0.467 NA 
HETATM    3  H   UNL     1     -11.382  13.992  71.993  1.00  0.00     0.000 HD 
ENDROOT
BRANCH   2   4
HETATM    4  C   UNL     1     -12.791  12.744  71.135  1.00  0.00    -0.226 C  
BRANCH   4   5
HETATM    5  C   UNL     1     -12.120  11.560  70.480  1.00  0.00    -0.472 A  
HETATM    6  C   UNL     1     -12.134  10.284  71.063  1.00  0.00    -0.487 A  
HETATM    7  C   UNL     1     -11.480   9.202  70.450  1.00  0.00    -0.228 A  
HETATM    8  C   UNL     1     -10.795   9.377  69.241  1.00  0.00    -0.190 A  
HETATM    9  C   UNL     1     -10.787  10.656  68.667  1.00  0.00    -0.266 A  
HETATM   10  C   UNL     1     -11.445  11.730  69.268  1.00  0.00    -0.369 A  
BRANCH   8  11
HETATM   11  C   UNL     1     -10.055   8.290  68.582  1.00  0.00    -0.197 A  
HETATM   12  C   UNL     1      -8.986   7.525  69.027  1.00  0.00    -0.131 A  
HETATM   13  C   UNL     1      -8.081   7.684  70.210  1.00  0.00    -0.114 C  
HETATM   14  C   UNL     1      -8.216   6.519  71.197  1.00  0.00    -0.121 C  
HETATM   15  N   UNL     1      -8.092   5.167  70.632  1.00  0.00    -0.103 N  
HETATM   16  C   UNL     1      -7.351   4.945  69.475  1.00  0.00    -0.056 C  
HETATM   17  H   UNL     1      -8.553   4.384  71.094  1.00  0.00     0.000 HD 
HETATM   18  O   UNL     1      -6.247   4.420  69.471  1.00  0.00    -0.025 OA 
HETATM   19  C   UNL     1      -8.054   5.259  68.202  1.00  0.00    -0.095 A  
HETATM   20  C   UNL     1      -8.842   6.422  68.139  1.00  0.00    -0.114 A  
HETATM   21  C   UNL     1      -9.643   6.668  67.034  1.00  0.00    -0.150 A  
HETATM   22  C   UNL     1      -9.605   5.829  65.911  1.00  0.00    -0.023 A  
HETATM   23  N   UNL     1     -10.388   7.784  67.334  1.00  0.00    -0.257 NA 
HETATM   24  H   UNL     1     -11.095   8.187  66.719  1.00  0.00     0.000 HD 
HETATM   25  C   UNL     1      -8.737   4.733  65.964  1.00  0.00    -0.118 A  
HETATM   26  C   UNL     1      -7.974   4.428  67.086  1.00  0.00    -0.101 A  
HETATM   27  F   UNL     1      -8.653   3.932  64.890  1.00  0.00    -0.108 F  
ENDBRANCH   8  11
ENDBRANCH   4   5
ENDBRANCH   2   4
TORSDOF 3
ENDMDL
MODEL      110
REMARK 921   NORMALIZED FREE ENERGY PREDICTED BY IDOCK:   -4.22 KCAL/MOL
REMARK 922        TOTAL FREE ENERGY PREDICTED BY IDOCK:   -5.34 KCAL/MOL
REMARK 923 INTER-LIGAND FREE ENERGY PREDICTED BY IDOCK:   -4.83 KCAL/MOL
REMARK 924 INTRA-LIGAND FREE ENERGY PREDICTED BY IDOCK:   -0.52 KCAL/MOL
REMARK 927      BINDING AFFINITY PREDICTED BY RF-SCORE:    0.00 PKD
ROOT
HETATM    1  C   UNL     1     -11.455  14.639  66.522  1.00  0.00    -0.351 C  
HETATM    2  N   UNL     1     -11.144  13.813  67.679  1.00  0.00    -0.267 NA 
HETATM    3  H   UNL     1     -11.166  14.354  68.543  1.00  0.00     0.000 HD 
ENDROOT
BRANCH   2   4
HETATM    4  C   UNL     1     -12.030  12.652  67.749  1.00  0.00    -0.243 C  
BRANCH   4   5
HETATM    5  C   UNL     1     -11.386  11.523  68.520  1.00  0.00    -0.337 A  
HETATM    6  C   UNL     1     -10.537  10.592  67.901  1.00  0.00    -0.266 A  
HETATM    7  C   UNL     1      -9.971   9.534  68.631  1.00  0.00    -0.181 A  
HETATM    8  C   UNL     1     -10.246   9.384  69.996  1.00  0.00    -0.262 A  
HETATM    9  C   UNL     1     -11.095  10.319  70.603  1.00  0.00    -0.358 A  
HETATM   10  C   UNL     1     -11.650  11.377  69.884  1.00  0.00    -0.402 A  
BRANCH   8  11
HETATM   11  C   UNL     1      -9.718   8.268  70.795  1.00  0.00    -0.172 A  
HETATM   12  C   UNL     1     -10.032   6.915  70.779  1.00  0.00    -0.201 A  
HETATM   13  C   UNL     1     -11.154   6.169  70.124  1.00  0.00    -0.448 C  
HETATM   14  C   UNL     1     -10.648   5.187  69.062  1.00  0.00     0.009 C  
HETATM   15  N   UNL     1      -9.589   4.258  69.485  1.00  0.00    -0.192 N  
HETATM   16  C   UNL     1      -9.462   3.882  70.819  1.00  0.00    -0.163 C  
HETATM   17  H   UNL     1      -8.941   3.884  68.793  1.00  0.00     0.000 HD 
HETATM   18  O   UNL     1      -9.793   2.785  71.245  1.00  0.00    -0.155 OA 
HETATM   19  C   UNL     1      -8.756   4.860  71.690  1.00  0.00    -0.137 A  
HETATM   20  C   UNL     1      -9.033   6.229  71.525  1.00  0.00    -0.142 A  
HETATM   21  C   UNL     1      -8.283   7.182  72.195  1.00  0.00    -0.098 A  
HETATM   22  C   UNL     1      -7.309   6.809  73.133  1.00  0.00    -0.075 A  
HETATM   23  N   UNL     1      -8.692   8.406  71.718  1.00  0.00    -0.163 NA 
HETATM   24  H   UNL     1      -8.293   9.298  72.006  1.00  0.00     0.000 HD 
HETATM   25  C   UNL     1      -7.124   5.440  73.348  1.00  0.00    -0.086 A  
HETATM   26  C   UNL     1      -7.817   4.464  72.640  1.00  0.00    -0.086 A  
HETATM   27  F   UNL     1      -6.223   5.053  74.266  1.00  0.00    -0.051 F  
ENDBRANCH   8  11
ENDBRANCH   4   5
ENDBRANCH   2   4
TORSDOF 3
ENDMDL
MODEL      111
REMARK 921   NORMALIZED FREE ENERGY PREDICTED BY IDOCK:   -4.20 KCAL/MOL
REMARK 922        TOTAL FREE ENERGY PREDICTED BY IDOCK:   -5.32 KCAL/MOL
REMARK 923 INTER-LIGAND FREE ENERGY PREDICTED BY IDOCK:   -5.13 KCAL/MOL
REMARK 924 INTRA-LIGAND FREE ENERGY PREDICTED BY IDOCK:   -0.19 KCAL/MOL
REMARK 927      BINDING AFFINITY PREDICTED BY RF-SCORE:    0.00 PKD
ROOT
HETATM    1  C   UNL     1     -10.636  16.657  65.733  1.00  0.00    -0.268 C  
HETATM    2  N   UNL     1     -10.884  15.269  66.094  1.00  0.00    -0.320 NA 
HETATM    3  H   UNL     1     -11.673  15.183  66.735  1.00  0.00     0.000 HD 
ENDROOT
BRANCH   2   4
HETATM    4  C   UNL     1     -11.065  14.441  64.903  1.00  0.00    -0.398 C  
BRANCH   4   5
HETATM    5  C   UNL     1     -10.570  13.033  65.139  1.00  0.00    -0.327 A  
HETATM    6  C   UNL     1     -10.056  12.244  64.098  1.00  0.00    -0.329 A  
HETATM    7  C   UNL     1      -9.626  10.928  64.333  1.00  0.00    -0.312 A  
HETATM    8  C   UNL     1      -9.705  10.373  65.616  1.00  0.00    -0.294 A  
HETATM    9  C   UNL     1     -10.220  11.169  66.648  1.00  0.00    -0.274 A  
HETATM   10  C   UNL     1     -10.637  12.480  66.419  1.00  0.00    -0.271 A  
BRANCH   8  11
HETATM   11  C   UNL     1      -9.313   8.985  65.907  1.00  0.00    -0.242 A  
HETATM   12  C   UNL     1      -9.503   8.211  67.044  1.00  0.00    -0.226 A  
HETATM   13  C   UNL     1      -9.954   8.577  68.425  1.00  0.00    -0.208 C  
HETATM   14  C   UNL     1     -11.283   7.908  68.791  1.00  0.00     0.477 C  
HETATM   15  N   UNL     1     -11.356   6.452  68.594  1.00  0.00    -0.559 N  
HETATM   16  C   UNL     1     -10.206   5.668  68.646  1.00  0.00    -0.200 C  
HETATM   17  H   UNL     1     -12.259   6.012  68.419  1.00  0.00     0.000 HD 
HETATM   18  O   UNL     1      -9.926   4.944  69.589  1.00  0.00    -0.200 OA 
HETATM   19  C   UNL     1      -9.392   5.654  67.401  1.00  0.00    -0.113 A  
HETATM   20  C   UNL     1      -9.207   6.862  66.704  1.00  0.00    -0.185 A  
HETATM   21  C   UNL     1      -8.599   6.867  65.459  1.00  0.00    -0.077 A  
HETATM   22  C   UNL     1      -8.056   5.695  64.913  1.00  0.00    -0.127 A  
HETATM   23  N   UNL     1      -8.699   8.153  64.982  1.00  0.00    -0.381 NA 
HETATM   24  H   UNL     1      -8.365   8.456  64.068  1.00  0.00     0.000 HD 
HETATM   25  C   UNL     1      -8.168   4.527  65.674  1.00  0.00    -0.110 A  
HETATM   26  C   UNL     1      -8.833   4.482  66.895  1.00  0.00    -0.112 A  
HETATM   27  F   UNL     1      -7.626   3.396  65.193  1.00  0.00    -0.074 F  
ENDBRANCH   8  11
ENDBRANCH   4   5
ENDBRANCH   2   4
TORSDOF 3
ENDMDL
MODEL      112
REMARK 921   NORMALIZED FREE ENERGY PREDICTED BY IDOCK:   -4.18 KCAL/MOL
REMARK 922        TOTAL FREE ENERGY PREDICTED BY IDOCK:   -5.30 KCAL/MOL
REMARK 923 INTER-LIGAND FREE ENERGY PREDICTED BY IDOCK:   -4.77 KCAL/MOL
REMARK 924 INTRA-LIGAND FREE ENERGY PREDICTED BY IDOCK:   -0.53 KCAL/MOL
REMARK 927      BINDING AFFINITY PREDICTED BY RF-SCORE:    0.00 PKD
ROOT
HETATM    1  C   UNL     1     -10.847  19.029  65.911  1.00  0.00    -0.192 C  
HETATM    2  N   UNL     1     -10.497  17.686  65.473  1.00  0.00    -0.638 NA 
HETATM    3  H   UNL     1     -10.403  17.634  64.459  1.00  0.00     0.000 HD 
ENDROOT
BRANCH   2   4
HETATM    4  C   UNL     1      -9.293  17.209  66.151  1.00  0.00    -0.192 C  
BRANCH   4   5
HETATM    5  C   UNL     1      -9.324  15.709  66.325  1.00  0.00    -0.358 A  
HETATM    6  C   UNL     1     -10.146  14.888  65.536  1.00  0.00    -0.400 A  
HETATM    7  C   UNL     1     -10.180  13.497  65.732  1.00  0.00    -0.305 A  
HETATM    8  C   UNL     1      -9.395  12.900  66.725  1.00  0.00    -0.243 A  
HETATM    9  C   UNL     1      -8.578  13.728  67.507  1.00  0.00    -0.194 A  
HETATM   10  C   UNL     1      -8.534  15.108  67.307  1.00  0.00    -0.220 A  
BRANCH   8  11
HETATM   11  C   UNL     1      -9.429  11.456  67.004  1.00  0.00    -0.173 A  
HETATM   12  C   UNL     1      -8.695  10.412  66.456  1.00  0.00    -0.143 A  
HETATM   13  C   UNL     1      -7.800  10.355  65.256  1.00  0.00    -0.137 C  
HETATM   14  C   UNL     1      -6.349  10.038  65.637  1.00  0.00    -0.094 C  
HETATM   15  N   UNL     1      -6.142   8.858  66.490  1.00  0.00    -0.059 N  
HETATM   16  C   UNL     1      -7.048   7.801  66.476  1.00  0.00    -0.078 C  
HETATM   17  H   UNL     1      -5.325   8.813  67.099  1.00  0.00     0.000 HD 
HETATM   18  O   UNL     1      -6.825   6.729  65.934  1.00  0.00    -0.053 OA 
HETATM   19  C   UNL     1      -8.272   8.004  67.297  1.00  0.00    -0.122 A  
HETATM   20  C   UNL     1      -8.894   9.266  67.276  1.00  0.00    -0.132 A  
HETATM   21  C   UNL     1      -9.935   9.549  68.146  1.00  0.00    -0.165 A  
HETATM   22  C   UNL     1     -10.466   8.560  68.987  1.00  0.00    -0.216 A  
HETATM   23  N   UNL     1     -10.223  10.884  67.987  1.00  0.00    -0.173 NA 
HETATM   24  H   UNL     1     -10.929  11.389  68.521  1.00  0.00     0.000 HD 
HETATM   25  C   UNL     1      -9.891   7.287  68.914  1.00  0.00    -0.158 A  
HETATM   26  C   UNL     1      -8.803   6.996  68.099  1.00  0.00    -0.129 A  
HETATM   27  F   UNL     1     -10.402   6.311  69.682  1.00  0.00    -0.197 F  
ENDBRANCH   8  11
ENDBRANCH   4   5
ENDBRANCH   2   4
TORSDOF 3
ENDMDL
MODEL      113
REMARK 921   NORMALIZED FREE ENERGY PREDICTED BY IDOCK:   -4.17 KCAL/MOL
REMARK 922        TOTAL FREE ENERGY PREDICTED BY IDOCK:   -5.29 KCAL/MOL
REMARK 923 INTER-LIGAND FREE ENERGY PREDICTED BY IDOCK:   -4.75 KCAL/MOL
REMARK 924 INTRA-LIGAND FREE ENERGY PREDICTED BY IDOCK:   -0.54 KCAL/MOL
REMARK 927      BINDING AFFINITY PREDICTED BY RF-SCORE:    0.00 PKD
ROOT
HETATM    1  C   UNL     1     -10.293   2.688  72.802  1.00  0.00    -0.154 C  
HETATM    2  N   UNL     1      -9.626   3.763  72.084  1.00  0.00    -0.139 NA 
HETATM    3  H   UNL     1     -10.034   3.909  71.161  1.00  0.00     0.000 HD 
ENDROOT
BRANCH   2   4
HETATM    4  C   UNL     1      -9.622   4.995  72.871  1.00  0.00    -0.143 C  
BRANCH   4   5
HETATM    5  C   UNL     1      -9.489   6.209  71.981  1.00  0.00    -0.161 A  
HETATM    6  C   UNL     1      -9.252   6.094  70.602  1.00  0.00    -0.163 A  
HETATM    7  C   UNL     1      -9.104   7.236  69.796  1.00  0.00    -0.141 A  
HETATM    8  C   UNL     1      -9.188   8.517  70.356  1.00  0.00    -0.173 A  
HETATM    9  C   UNL     1      -9.425   8.620  71.733  1.00  0.00    -0.354 A  
HETATM   10  C   UNL     1      -9.583   7.488  72.534  1.00  0.00    -0.214 A  
BRANCH   8  11
HETATM   11  C   UNL     1      -8.994   9.743  69.567  1.00  0.00    -0.204 A  
HETATM   12  C   UNL     1      -9.917  10.574  68.945  1.00  0.00    -0.213 A  
HETATM   13  C   UNL     1     -11.378  10.395  68.667  1.00  0.00    -0.277 C  
HETATM   14  C   UNL     1     -12.234  11.427  69.409  1.00  0.00    -0.221 C  
HETATM   15  N   UNL     1     -11.847  12.836  69.242  1.00  0.00    -0.310 N  
HETATM   16  C   UNL     1     -11.178  13.260  68.097  1.00  0.00    -0.270 C  
HETATM   17  H   UNL     1     -12.071  13.510  69.973  1.00  0.00     0.000 HD 
HETATM   18  O   UNL     1     -11.710  13.903  67.205  1.00  0.00    -0.345 OA 
HETATM   19  C   UNL     1      -9.713  13.003  68.087  1.00  0.00    -0.228 A  
HETATM   20  C   UNL     1      -9.243  11.772  68.578  1.00  0.00    -0.152 A  
HETATM   21  C   UNL     1      -7.884  11.554  68.740  1.00  0.00    -0.117 A  
HETATM   22  C   UNL     1      -6.943  12.505  68.319  1.00  0.00    -0.089 A  
HETATM   23  N   UNL     1      -7.756  10.336  69.366  1.00  0.00    -0.131 NA 
HETATM   24  H   UNL     1      -6.868   9.922  69.645  1.00  0.00     0.000 HD 
HETATM   25  C   UNL     1      -7.437  13.680  67.744  1.00  0.00    -0.168 A  
HETATM   26  C   UNL     1      -8.797  13.950  67.632  1.00  0.00    -0.191 A  
HETATM   27  F   UNL     1      -6.559  14.593  67.300  1.00  0.00    -0.190 F  
ENDBRANCH   8  11
ENDBRANCH   4   5
ENDBRANCH   2   4
TORSDOF 3
ENDMDL
MODEL      114
REMARK 921   NORMALIZED FREE ENERGY PREDICTED BY IDOCK:   -4.17 KCAL/MOL
REMARK 922        TOTAL FREE ENERGY PREDICTED BY IDOCK:   -5.29 KCAL/MOL
REMARK 923 INTER-LIGAND FREE ENERGY PREDICTED BY IDOCK:   -4.83 KCAL/MOL
REMARK 924 INTRA-LIGAND FREE ENERGY PREDICTED BY IDOCK:   -0.45 KCAL/MOL
REMARK 927      BINDING AFFINITY PREDICTED BY RF-SCORE:    0.00 PKD
ROOT
HETATM    1  C   UNL     1      -7.590   3.359  62.686  1.00  0.00    -0.054 C  
HETATM    2  N   UNL     1      -7.170   3.008  64.034  1.00  0.00    -0.056 NA 
HETATM    3  H   UNL     1      -6.881   3.830  64.565  1.00  0.00     0.000 HD 
ENDROOT
BRANCH   2   4
HETATM    4  C   UNL     1      -8.214   2.258  64.731  1.00  0.00    -0.086 C  
BRANCH   4   5
HETATM    5  C   UNL     1      -8.675   2.990  65.970  1.00  0.00    -0.135 A  
HETATM    6  C   UNL     1      -8.837   2.334  67.200  1.00  0.00    -0.153 A  
HETATM    7  C   UNL     1      -9.292   3.028  68.334  1.00  0.00    -0.248 A  
HETATM    8  C   UNL     1      -9.599   4.392  68.258  1.00  0.00    -0.199 A  
HETATM    9  C   UNL     1      -9.435   5.036  67.024  1.00  0.00    -0.150 A  
HETATM   10  C   UNL     1      -8.972   4.352  65.899  1.00  0.00    -0.124 A  
BRANCH   8  11
HETATM   11  C   UNL     1     -10.125   5.153  69.401  1.00  0.00    -0.234 A  
HETATM   12  C   UNL     1      -9.618   5.327  70.682  1.00  0.00    -0.235 A  
HETATM   13  C   UNL     1      -8.507   4.631  71.408  1.00  0.00    -0.113 C  
HETATM   14  C   UNL     1      -7.358   5.586  71.750  1.00  0.00    -0.091 C  
HETATM   15  N   UNL     1      -7.728   6.829  72.444  1.00  0.00    -0.093 N  
HETATM   16  C   UNL     1      -8.870   6.890  73.237  1.00  0.00    -0.127 C  
HETATM   17  H   UNL     1      -7.140   7.656  72.343  1.00  0.00     0.000 HD 
HETATM   18  O   UNL     1      -8.843   6.899  74.459  1.00  0.00    -0.175 OA 
HETATM   19  C   UNL     1     -10.146   7.089  72.498  1.00  0.00    -0.198 A  
HETATM   20  C   UNL     1     -10.343   6.386  71.296  1.00  0.00    -0.244 A  
HETATM   21  C   UNL     1     -11.439   6.663  70.493  1.00  0.00    -0.376 A  
HETATM   22  C   UNL     1     -12.430   7.565  70.906  1.00  0.00    -0.163 A  
HETATM   23  N   UNL     1     -11.272   5.930  69.341  1.00  0.00    -0.328 NA 
HETATM   24  H   UNL     1     -11.910   5.955  68.546  1.00  0.00     0.000 HD 
HETATM   25  C   UNL     1     -12.255   8.176  72.152  1.00  0.00    -0.350 A  
HETATM   26  C   UNL     1     -11.133   7.965  72.945  1.00  0.00    -0.442 A  
HETATM   27  F   UNL     1     -13.206   9.017  72.590  1.00  0.00    -0.456 F  
ENDBRANCH   8  11
ENDBRANCH   4   5
ENDBRANCH   2   4
TORSDOF 3
ENDMDL
MODEL      115
REMARK 921   NORMALIZED FREE ENERGY PREDICTED BY IDOCK:   -4.16 KCAL/MOL
REMARK 922        TOTAL FREE ENERGY PREDICTED BY IDOCK:   -5.28 KCAL/MOL
REMARK 923 INTER-LIGAND FREE ENERGY PREDICTED BY IDOCK:   -4.77 KCAL/MOL
REMARK 924 INTRA-LIGAND FREE ENERGY PREDICTED BY IDOCK:   -0.51 KCAL/MOL
REMARK 927      BINDING AFFINITY PREDICTED BY RF-SCORE:    0.00 PKD
ROOT
HETATM    1  C   UNL     1      -8.647   4.627  69.005  1.00  0.00    -0.084 C  
HETATM    2  N   UNL     1      -7.864   5.035  67.848  1.00  0.00    -0.090 NA 
HETATM    3  H   UNL     1      -7.300   4.265  67.486  1.00  0.00     0.000 HD 
ENDROOT
BRANCH   2   4
HETATM    4  C   UNL     1      -8.719   5.610  66.811  1.00  0.00    -0.115 C  
BRANCH   4   5
HETATM    5  C   UNL     1      -8.744   7.118  66.902  1.00  0.00    -0.126 A  
HETATM    6  C   UNL     1      -9.694   7.797  67.681  1.00  0.00    -0.193 A  
HETATM    7  C   UNL     1      -9.717   9.201  67.731  1.00  0.00    -0.188 A  
HETATM    8  C   UNL     1      -8.792   9.954  66.998  1.00  0.00    -0.144 A  
HETATM    9  C   UNL     1      -7.849   9.266  66.223  1.00  0.00    -0.103 A  
HETATM   10  C   UNL     1      -7.816   7.872  66.181  1.00  0.00    -0.094 A  
BRANCH   8  11
HETATM   11  C   UNL     1      -8.803  11.425  66.977  1.00  0.00    -0.168 A  
HETATM   12  C   UNL     1      -9.581  12.313  66.246  1.00  0.00    -0.248 A  
HETATM   13  C   UNL     1     -10.498  12.097  65.082  1.00  0.00    -0.317 C  
HETATM   14  C   UNL     1     -11.952  12.442  65.425  1.00  0.00    -0.398 C  
HETATM   15  N   UNL     1     -12.184  13.764  66.026  1.00  0.00    -0.438 N  
HETATM   16  C   UNL     1     -11.316  14.822  65.776  1.00  0.00    -0.336 C  
HETATM   17  H   UNL     1     -12.992  13.907  66.632  1.00  0.00     0.000 HD 
HETATM   18  O   UNL     1     -11.585  15.754  65.033  1.00  0.00    -0.154 OA 
HETATM   19  C   UNL     1     -10.071  14.827  66.591  1.00  0.00    -0.269 A  
HETATM   20  C   UNL     1      -9.407  13.607  66.812  1.00  0.00    -0.269 A  
HETATM   21  C   UNL     1      -8.343  13.539  67.696  1.00  0.00    -0.179 A  
HETATM   22  C   UNL     1      -7.831  14.693  68.306  1.00  0.00    -0.128 A  
HETATM   23  N   UNL     1      -8.011  12.208  67.804  1.00  0.00    -0.139 NA 
HETATM   24  H   UNL     1      -7.279  11.844  68.413  1.00  0.00     0.000 HD 
HETATM   25  C   UNL     1      -8.451  15.907  67.990  1.00  0.00    -0.162 A  
HETATM   26  C   UNL     1      -9.562  15.994  67.159  1.00  0.00    -0.224 A  
HETATM   27  F   UNL     1      -7.961  17.034  68.531  1.00  0.00    -0.206 F  
ENDBRANCH   8  11
ENDBRANCH   4   5
ENDBRANCH   2   4
TORSDOF 3
ENDMDL
MODEL      116
REMARK 921   NORMALIZED FREE ENERGY PREDICTED BY IDOCK:   -4.16 KCAL/MOL
REMARK 922        TOTAL FREE ENERGY PREDICTED BY IDOCK:   -5.28 KCAL/MOL
REMARK 923 INTER-LIGAND FREE ENERGY PREDICTED BY IDOCK:   -4.75 KCAL/MOL
REMARK 924 INTRA-LIGAND FREE ENERGY PREDICTED BY IDOCK:   -0.53 KCAL/MOL
REMARK 927      BINDING AFFINITY PREDICTED BY RF-SCORE:    0.00 PKD
ROOT
HETATM    1  C   UNL     1     -12.224  13.416  63.930  1.00  0.00    -0.415 C  
HETATM    2  N   UNL     1     -11.009  13.294  64.721  1.00  0.00    -0.331 NA 
HETATM    3  H   UNL     1     -11.203  13.362  65.721  1.00  0.00     0.000 HD 
ENDROOT
BRANCH   2   4
HETATM    4  C   UNL     1     -10.292  12.063  64.394  1.00  0.00    -0.305 C  
BRANCH   4   5
HETATM    5  C   UNL     1      -9.925  11.298  65.645  1.00  0.00    -0.292 A  
HETATM    6  C   UNL     1      -9.875   9.896  65.669  1.00  0.00    -0.368 A  
HETATM    7  C   UNL     1      -9.557   9.204  66.849  1.00  0.00    -0.233 A  
HETATM    8  C   UNL     1      -9.286   9.902  68.032  1.00  0.00    -0.129 A  
HETATM    9  C   UNL     1      -9.338  11.302  67.997  1.00  0.00    -0.166 A  
HETATM   10  C   UNL     1      -9.642  11.993  66.824  1.00  0.00    -0.215 A  
BRANCH   8  11
HETATM   11  C   UNL     1      -8.995   9.226  69.306  1.00  0.00    -0.147 A  
HETATM   12  C   UNL     1      -9.688   8.230  69.980  1.00  0.00    -0.176 A  
HETATM   13  C   UNL     1     -11.062   7.669  69.773  1.00  0.00    -0.115 C  
HETATM   14  C   UNL     1     -11.024   6.188  69.383  1.00  0.00    -0.385 C  
HETATM   15  N   UNL     1     -10.232   5.304  70.251  1.00  0.00    -0.256 N  
HETATM   16  C   UNL     1     -10.027   5.620  71.592  1.00  0.00    -0.174 C  
HETATM   17  H   UNL     1      -9.829   4.450  69.868  1.00  0.00     0.000 HD 
HETATM   18  O   UNL     1     -10.598   5.053  72.512  1.00  0.00    -0.207 OA 
HETATM   19  C   UNL     1      -8.948   6.609  71.852  1.00  0.00    -0.136 A  
HETATM   20  C   UNL     1      -8.835   7.721  70.998  1.00  0.00    -0.145 A  
HETATM   21  C   UNL     1      -7.750   8.577  71.102  1.00  0.00    -0.103 A  
HETATM   22  C   UNL     1      -6.801   8.424  72.123  1.00  0.00    -0.095 A  
HETATM   23  N   UNL     1      -7.850   9.461  70.053  1.00  0.00    -0.113 NA 
HETATM   24  H   UNL     1      -7.170  10.193  69.850  1.00  0.00     0.000 HD 
HETATM   25  C   UNL     1      -6.994   7.366  73.018  1.00  0.00    -0.069 A  
HETATM   26  C   UNL     1      -8.036   6.455  72.895  1.00  0.00    -0.106 A  
HETATM   27  F   UNL     1      -6.121   7.216  74.027  1.00  0.00    -0.066 F  
ENDBRANCH   8  11
ENDBRANCH   4   5
ENDBRANCH   2   4
TORSDOF 3
ENDMDL
MODEL      117
REMARK 921   NORMALIZED FREE ENERGY PREDICTED BY IDOCK:   -4.14 KCAL/MOL
REMARK 922        TOTAL FREE ENERGY PREDICTED BY IDOCK:   -5.25 KCAL/MOL
REMARK 923 INTER-LIGAND FREE ENERGY PREDICTED BY IDOCK:   -4.75 KCAL/MOL
REMARK 924 INTRA-LIGAND FREE ENERGY PREDICTED BY IDOCK:   -0.50 KCAL/MOL
REMARK 927      BINDING AFFINITY PREDICTED BY RF-SCORE:    0.00 PKD
ROOT
HETATM    1  C   UNL     1     -11.260  12.357  63.264  1.00  0.00    -0.309 C  
HETATM    2  N   UNL     1      -9.985  12.101  63.916  1.00  0.00    -0.529 NA 
HETATM    3  H   UNL     1     -10.023  12.318  64.913  1.00  0.00     0.000 HD 
ENDROOT
BRANCH   2   4
HETATM    4  C   UNL     1      -9.540  10.729  63.680  1.00  0.00    -0.305 C  
BRANCH   4   5
HETATM    5  C   UNL     1      -9.443   9.958  64.976  1.00  0.00    -0.343 A  
HETATM    6  C   UNL     1      -8.689   8.779  65.082  1.00  0.00    -0.202 A  
HETATM    7  C   UNL     1      -8.633   8.062  66.289  1.00  0.00    -0.156 A  
HETATM    8  C   UNL     1      -9.334   8.510  67.415  1.00  0.00    -0.178 A  
HETATM    9  C   UNL     1     -10.084   9.688  67.298  1.00  0.00    -0.267 A  
HETATM   10  C   UNL     1     -10.132  10.408  66.104  1.00  0.00    -0.299 A  
BRANCH   8  11
HETATM   11  C   UNL     1      -9.348   7.773  68.688  1.00  0.00    -0.148 A  
HETATM   12  C   UNL     1      -9.606   6.436  68.956  1.00  0.00    -0.136 A  
HETATM   13  C   UNL     1     -10.174   5.347  68.097  1.00  0.00    -0.226 C  
HETATM   14  C   UNL     1      -9.165   4.218  67.859  1.00  0.00    -0.142 C  
HETATM   15  N   UNL     1      -8.528   3.650  69.056  1.00  0.00    -0.071 N  
HETATM   16  C   UNL     1      -9.171   3.687  70.291  1.00  0.00    -0.152 C  
HETATM   17  H   UNL     1      -7.605   3.224  68.982  1.00  0.00     0.000 HD 
HETATM   18  O   UNL     1      -9.688   2.710  70.811  1.00  0.00    -0.136 OA 
HETATM   19  C   UNL     1      -9.067   4.979  71.021  1.00  0.00    -0.178 A  
HETATM   20  C   UNL     1      -9.198   6.175  70.293  1.00  0.00    -0.165 A  
HETATM   21  C   UNL     1      -8.946   7.396  70.900  1.00  0.00    -0.149 A  
HETATM   22  C   UNL     1      -8.665   7.479  72.271  1.00  0.00    -0.148 A  
HETATM   23  N   UNL     1      -9.013   8.345  69.907  1.00  0.00    -0.140 NA 
HETATM   24  H   UNL     1      -8.839   9.339  70.048  1.00  0.00     0.000 HD 
HETATM   25  C   UNL     1      -8.638   6.279  72.990  1.00  0.00    -0.121 A  
HETATM   26  C   UNL     1      -8.821   5.037  72.392  1.00  0.00    -0.133 A  
HETATM   27  F   UNL     1      -8.406   6.331  74.311  1.00  0.00    -0.116 F  
ENDBRANCH   8  11
ENDBRANCH   4   5
ENDBRANCH   2   4
TORSDOF 3
ENDMDL
MODEL      118
REMARK 921   NORMALIZED FREE ENERGY PREDICTED BY IDOCK:   -4.08 KCAL/MOL
REMARK 922        TOTAL FREE ENERGY PREDICTED BY IDOCK:   -5.18 KCAL/MOL
REMARK 923 INTER-LIGAND FREE ENERGY PREDICTED BY IDOCK:   -4.69 KCAL/MOL
REMARK 924 INTRA-LIGAND FREE ENERGY PREDICTED BY IDOCK:   -0.49 KCAL/MOL
REMARK 927      BINDING AFFINITY PREDICTED BY RF-SCORE:    0.00 PKD
ROOT
HETATM    1  C   UNL     1      -8.669   4.438  65.116  1.00  0.00    -0.130 C  
HETATM    2  N   UNL     1      -9.449   5.659  65.251  1.00  0.00    -0.355 NA 
HETATM    3  H   UNL     1     -10.373   5.564  64.829  1.00  0.00     0.000 HD 
ENDROOT
BRANCH   2   4
HETATM    4  C   UNL     1      -9.535   6.076  66.649  1.00  0.00    -0.149 C  
BRANCH   4   5
HETATM    5  C   UNL     1      -9.474   7.581  66.773  1.00  0.00    -0.230 A  
HETATM    6  C   UNL     1      -8.287   8.295  66.549  1.00  0.00    -0.112 A  
HETATM    7  C   UNL     1      -8.245   9.692  66.696  1.00  0.00    -0.120 A  
HETATM    8  C   UNL     1      -9.391  10.402  67.074  1.00  0.00    -0.176 A  
HETATM    9  C   UNL     1     -10.571   9.679  67.295  1.00  0.00    -0.315 A  
HETATM   10  C   UNL     1     -10.618   8.293  67.139  1.00  0.00    -0.340 A  
BRANCH   8  11
HETATM   11  C   UNL     1      -9.391  11.857  67.288  1.00  0.00    -0.177 A  
HETATM   12  C   UNL     1      -8.499  12.669  67.976  1.00  0.00    -0.177 A  
HETATM   13  C   UNL     1      -7.380  12.336  68.914  1.00  0.00    -0.041 C  
HETATM   14  C   UNL     1      -6.019  12.771  68.362  1.00  0.00    -0.068 C  
HETATM   15  N   UNL     1      -5.913  14.166  67.910  1.00  0.00    -0.143 N  
HETATM   16  C   UNL     1      -6.731  15.154  68.452  1.00  0.00    -0.110 C  
HETATM   17  H   UNL     1      -5.233  14.413  67.191  1.00  0.00     0.000 HD 
HETATM   18  O   UNL     1      -6.337  15.991  69.250  1.00  0.00    -0.138 OA 
HETATM   19  C   UNL     1      -8.104  15.222  67.885  1.00  0.00    -0.146 A  
HETATM   20  C   UNL     1      -8.786  14.019  67.629  1.00  0.00    -0.190 A  
HETATM   21  C   UNL     1      -9.996  14.029  66.951  1.00  0.00    -0.263 A  
HETATM   22  C   UNL     1     -10.621  15.235  66.604  1.00  0.00    -0.304 A  
HETATM   23  N   UNL     1     -10.328  12.713  66.730  1.00  0.00    -0.233 NA 
HETATM   24  H   UNL     1     -11.157  12.407  66.221  1.00  0.00     0.000 HD 
HETATM   25  C   UNL     1      -9.966  16.418  66.960  1.00  0.00    -0.261 A  
HETATM   26  C   UNL     1      -8.721  16.434  67.579  1.00  0.00    -0.188 A  
HETATM   27  F   UNL     1     -10.558  17.588  66.672  1.00  0.00    -0.325 F  
ENDBRANCH   8  11
ENDBRANCH   4   5
ENDBRANCH   2   4
TORSDOF 3
ENDMDL
MODEL      119
REMARK 921   NORMALIZED FREE ENERGY PREDICTED BY IDOCK:   -4.06 KCAL/MOL
REMARK 922        TOTAL FREE ENERGY PREDICTED BY IDOCK:   -5.15 KCAL/MOL
REMARK 923 INTER-LIGAND FREE ENERGY PREDICTED BY IDOCK:   -4.87 KCAL/MOL
REMARK 924 INTRA-LIGAND FREE ENERGY PREDICTED BY IDOCK:   -0.29 KCAL/MOL
REMARK 927      BINDING AFFINITY PREDICTED BY RF-SCORE:    0.00 PKD
ROOT
HETATM    1  C   UNL     1     -11.364  15.531  68.249  1.00  0.00    -0.357 C  
HETATM    2  N   UNL     1     -12.012  14.230  68.180  1.00  0.00    -0.490 NA 
HETATM    3  H   UNL     1     -11.486  13.579  67.596  1.00  0.00     0.000 HD 
ENDROOT
BRANCH   2   4
HETATM    4  C   UNL     1     -12.242  13.687  69.518  1.00  0.00    -0.264 C  
BRANCH   4   5
HETATM    5  C   UNL     1     -11.650  12.303  69.653  1.00  0.00    -0.348 A  
HETATM    6  C   UNL     1     -10.698  11.813  68.745  1.00  0.00    -0.255 A  
HETATM    7  C   UNL     1     -10.180  10.513  68.873  1.00  0.00    -0.223 A  
HETATM    8  C   UNL     1     -10.608   9.676  69.911  1.00  0.00    -0.281 A  
HETATM    9  C   UNL     1     -11.559  10.176  70.811  1.00  0.00    -0.445 A  
HETATM   10  C   UNL     1     -12.067  11.470  70.693  1.00  0.00    -0.450 A  
BRANCH   8  11
HETATM   11  C   UNL     1     -10.133   8.292  70.063  1.00  0.00    -0.196 A  
HETATM   12  C   UNL     1      -9.246   7.551  69.293  1.00  0.00    -0.144 A  
HETATM   13  C   UNL     1      -8.653   7.811  67.943  1.00  0.00    -0.122 C  
HETATM   14  C   UNL     1      -7.130   7.968  68.006  1.00  0.00    -0.086 C  
HETATM   15  N   UNL     1      -6.392   6.899  68.695  1.00  0.00    -0.030 N  
HETATM   16  C   UNL     1      -6.908   5.607  68.764  1.00  0.00    -0.059 C  
HETATM   17  H   UNL     1      -5.492   7.105  69.127  1.00  0.00     0.000 HD 
HETATM   18  O   UNL     1      -6.484   4.676  68.096  1.00  0.00    -0.039 OA 
HETATM   19  C   UNL     1      -7.931   5.389  69.821  1.00  0.00    -0.088 A  
HETATM   20  C   UNL     1      -8.902   6.384  70.032  1.00  0.00    -0.143 A  
HETATM   21  C   UNL     1      -9.771   6.299  71.109  1.00  0.00    -0.175 A  
HETATM   22  C   UNL     1      -9.779   5.174  71.946  1.00  0.00    -0.211 A  
HETATM   23  N   UNL     1     -10.485   7.475  71.127  1.00  0.00    -0.206 NA 
HETATM   24  H   UNL     1     -11.182   7.714  71.831  1.00  0.00     0.000 HD 
HETATM   25  C   UNL     1      -8.867   4.155  71.652  1.00  0.00    -0.113 A  
HETATM   26  C   UNL     1      -7.942   4.246  70.619  1.00  0.00    -0.063 A  
HETATM   27  F   UNL     1      -8.876   3.050  72.415  1.00  0.00    -0.081 F  
ENDBRANCH   8  11
ENDBRANCH   4   5
ENDBRANCH   2   4
TORSDOF 3
ENDMDL
MODEL      120
REMARK 921   NORMALIZED FREE ENERGY PREDICTED BY IDOCK:   -4.06 KCAL/MOL
REMARK 922        TOTAL FREE ENERGY PREDICTED BY IDOCK:   -5.15 KCAL/MOL
REMARK 923 INTER-LIGAND FREE ENERGY PREDICTED BY IDOCK:   -4.67 KCAL/MOL
REMARK 924 INTRA-LIGAND FREE ENERGY PREDICTED BY IDOCK:   -0.48 KCAL/MOL
REMARK 927      BINDING AFFINITY PREDICTED BY RF-SCORE:    0.00 PKD
ROOT
HETATM    1  C   UNL     1      -9.038  17.935  68.163  1.00  0.00    -0.278 C  
HETATM    2  N   UNL     1     -10.391  17.425  68.001  1.00  0.00    -0.345 NA 
HETATM    3  H   UNL     1     -11.087  18.163  68.104  1.00  0.00     0.000 HD 
ENDROOT
BRANCH   2   4
HETATM    4  C   UNL     1     -10.537  16.721  66.728  1.00  0.00    -0.203 C  
BRANCH   4   5
HETATM    5  C   UNL     1     -10.347  15.233  66.903  1.00  0.00    -0.278 A  
HETATM    6  C   UNL     1     -10.244  14.643  68.173  1.00  0.00    -0.231 A  
HETATM    7  C   UNL     1     -10.040  13.260  68.313  1.00  0.00    -0.250 A  
HETATM    8  C   UNL     1      -9.931  12.439  67.184  1.00  0.00    -0.211 A  
HETATM    9  C   UNL     1     -10.035  13.038  65.922  1.00  0.00    -0.270 A  
HETATM   10  C   UNL     1     -10.249  14.409  65.779  1.00  0.00    -0.355 A  
BRANCH   8  11
HETATM   11  C   UNL     1      -9.671  10.994  67.275  1.00  0.00    -0.166 A  
HETATM   12  C   UNL     1      -8.651  10.297  67.910  1.00  0.00    -0.118 A  
HETATM   13  C   UNL     1      -7.363  10.764  68.515  1.00  0.00    -0.096 C  
HETATM   14  C   UNL     1      -7.313  10.511  70.025  1.00  0.00    -0.052 C  
HETATM   15  N   UNL     1      -7.625   9.143  70.468  1.00  0.00    -0.109 N  
HETATM   16  C   UNL     1      -7.406   8.055  69.627  1.00  0.00    -0.085 C  
HETATM   17  H   UNL     1      -8.004   8.990  71.402  1.00  0.00     0.000 HD 
HETATM   18  O   UNL     1      -6.481   7.270  69.768  1.00  0.00    -0.034 OA 
HETATM   19  C   UNL     1      -8.466   7.817  68.611  1.00  0.00    -0.129 A  
HETATM   20  C   UNL     1      -9.024   8.925  67.948  1.00  0.00    -0.142 A  
HETATM   21  C   UNL     1     -10.122   8.765  67.118  1.00  0.00    -0.252 A  
HETATM   22  C   UNL     1     -10.635   7.492  66.832  1.00  0.00    -0.367 A  
HETATM   23  N   UNL     1     -10.515  10.029  66.746  1.00  0.00    -0.221 NA 
HETATM   24  H   UNL     1     -11.322  10.231  66.157  1.00  0.00     0.000 HD 
HETATM   25  C   UNL     1      -9.997   6.399  67.429  1.00  0.00    -0.138 A  
HETATM   26  C   UNL     1      -8.937   6.538  68.317  1.00  0.00    -0.121 A  
HETATM   27  F   UNL     1     -10.444   5.165  67.145  1.00  0.00    -0.220 F  
ENDBRANCH   8  11
ENDBRANCH   4   5
ENDBRANCH   2   4
TORSDOF 3
ENDMDL
MODEL      121
REMARK 921   NORMALIZED FREE ENERGY PREDICTED BY IDOCK:   -3.98 KCAL/MOL
REMARK 922        TOTAL FREE ENERGY PREDICTED BY IDOCK:   -5.06 KCAL/MOL
REMARK 923 INTER-LIGAND FREE ENERGY PREDICTED BY IDOCK:   -4.53 KCAL/MOL
REMARK 924 INTRA-LIGAND FREE ENERGY PREDICTED BY IDOCK:   -0.54 KCAL/MOL
REMARK 927      BINDING AFFINITY PREDICTED BY RF-SCORE:    0.00 PKD
ROOT
HETATM    1  C   UNL     1      -5.766  20.298  70.489  1.00  0.00    -0.332 C  
HETATM    2  N   UNL     1      -5.641  18.976  69.895  1.00  0.00    -0.217 NA 
HETATM    3  H   UNL     1      -5.844  18.239  70.570  1.00  0.00     0.000 HD 
ENDROOT
BRANCH   2   4
HETATM    4  C   UNL     1      -6.475  18.856  68.700  1.00  0.00    -0.248 C  
BRANCH   4   5
HETATM    5  C   UNL     1      -6.656  17.408  68.306  1.00  0.00    -0.174 A  
HETATM    6  C   UNL     1      -7.671  17.001  67.427  1.00  0.00    -0.192 A  
HETATM    7  C   UNL     1      -7.838  15.646  67.094  1.00  0.00    -0.253 A  
HETATM    8  C   UNL     1      -6.995  14.670  67.639  1.00  0.00    -0.205 A  
HETATM    9  C   UNL     1      -5.985  15.088  68.516  1.00  0.00    -0.094 A  
HETATM   10  C   UNL     1      -5.809  16.434  68.839  1.00  0.00    -0.132 A  
BRANCH   8  11
HETATM   11  C   UNL     1      -7.157  13.235  67.362  1.00  0.00    -0.099 A  
HETATM   12  C   UNL     1      -8.246  12.394  67.551  1.00  0.00    -0.173 A  
HETATM   13  C   UNL     1      -9.529  12.592  68.299  1.00  0.00    -0.203 C  
HETATM   14  C   UNL     1     -10.747  12.550  67.370  1.00  0.00    -0.229 C  
HETATM   15  N   UNL     1     -10.846  11.387  66.476  1.00  0.00    -0.281 N  
HETATM   16  C   UNL     1     -10.259  10.172  66.821  1.00  0.00    -0.228 C  
HETATM   17  H   UNL     1     -11.351  11.470  65.594  1.00  0.00     0.000 HD 
HETATM   18  O   UNL     1     -10.895   9.202  67.205  1.00  0.00    -0.233 OA 
HETATM   19  C   UNL     1      -8.799  10.075  66.554  1.00  0.00    -0.154 A  
HETATM   20  C   UNL     1      -7.987  11.185  66.849  1.00  0.00    -0.151 A  
HETATM   21  C   UNL     1      -6.655  11.199  66.466  1.00  0.00    -0.124 A  
HETATM   22  C   UNL     1      -6.057  10.075  65.879  1.00  0.00    -0.080 A  
HETATM   23  N   UNL     1      -6.180  12.457  66.758  1.00  0.00    -0.492 NA 
HETATM   24  H   UNL     1      -5.233  12.776  66.557  1.00  0.00     0.000 HD 
HETATM   25  C   UNL     1      -6.866   8.950  65.688  1.00  0.00    -0.076 A  
HETATM   26  C   UNL     1      -8.220   8.933  66.002  1.00  0.00    -0.117 A  
HETATM   27  F   UNL     1      -6.312   7.846  65.161  1.00  0.00    -0.041 F  
ENDBRANCH   8  11
ENDBRANCH   4   5
ENDBRANCH   2   4
TORSDOF 3
ENDMDL
MODEL      122
REMARK 921   NORMALIZED FREE ENERGY PREDICTED BY IDOCK:   -3.87 KCAL/MOL
REMARK 922        TOTAL FREE ENERGY PREDICTED BY IDOCK:   -4.94 KCAL/MOL
REMARK 923 INTER-LIGAND FREE ENERGY PREDICTED BY IDOCK:   -4.41 KCAL/MOL
REMARK 924 INTRA-LIGAND FREE ENERGY PREDICTED BY IDOCK:   -0.53 KCAL/MOL
REMARK 927      BINDING AFFINITY PREDICTED BY RF-SCORE:    0.00 PKD
ROOT
HETATM    1  C   UNL     1      -6.006  20.398  69.886  1.00  0.00    -0.348 C  
HETATM    2  N   UNL     1      -5.856  19.238  69.021  1.00  0.00    -0.213 NA 
HETATM    3  H   UNL     1      -5.589  18.407  69.549  1.00  0.00     0.000 HD 
ENDROOT
BRANCH   2   4
HETATM    4  C   UNL     1      -7.066  19.009  68.233  1.00  0.00    -0.268 C  
BRANCH   4   5
HETATM    5  C   UNL     1      -7.386  17.535  68.143  1.00  0.00    -0.218 A  
HETATM    6  C   UNL     1      -7.352  16.699  69.270  1.00  0.00    -0.184 A  
HETATM    7  C   UNL     1      -7.627  15.326  69.160  1.00  0.00    -0.192 A  
HETATM    8  C   UNL     1      -7.938  14.760  67.917  1.00  0.00    -0.147 A  
HETATM    9  C   UNL     1      -7.968  15.603  66.798  1.00  0.00    -0.246 A  
HETATM   10  C   UNL     1      -7.706  16.970  66.907  1.00  0.00    -0.251 A  
BRANCH   8  11
HETATM   11  C   UNL     1      -8.187  13.321  67.738  1.00  0.00    -0.168 A  
HETATM   12  C   UNL     1      -7.429  12.219  68.112  1.00  0.00    -0.112 A  
HETATM   13  C   UNL     1      -6.020  12.111  68.608  1.00  0.00    -0.055 C  
HETATM   14  C   UNL     1      -5.955  11.564  70.038  1.00  0.00    -0.143 C  
HETATM   15  N   UNL     1      -6.688  10.315  70.293  1.00  0.00    -0.142 N  
HETATM   16  C   UNL     1      -6.919   9.403  69.267  1.00  0.00    -0.053 C  
HETATM   17  H   UNL     1      -7.031  10.114  71.232  1.00  0.00     0.000 HD 
HETATM   18  O   UNL     1      -6.315   8.346  69.156  1.00  0.00    -0.041 OA 
HETATM   19  C   UNL     1      -8.064   9.728  68.375  1.00  0.00    -0.104 A  
HETATM   20  C   UNL     1      -8.249  11.064  67.979  1.00  0.00    -0.123 A  
HETATM   21  C   UNL     1      -9.391  11.439  67.287  1.00  0.00    -0.167 A  
HETATM   22  C   UNL     1     -10.330  10.485  66.870  1.00  0.00    -0.293 A  
HETATM   23  N   UNL     1      -9.347  12.809  67.178  1.00  0.00    -0.209 NA 
HETATM   24  H   UNL     1     -10.074  13.375  66.742  1.00  0.00     0.000 HD 
HETATM   25  C   UNL     1     -10.069   9.150  67.194  1.00  0.00    -0.236 A  
HETATM   26  C   UNL     1      -8.967   8.757  67.944  1.00  0.00    -0.142 A  
HETATM   27  F   UNL     1     -10.934   8.211  66.777  1.00  0.00    -0.352 F  
ENDBRANCH   8  11
ENDBRANCH   4   5
ENDBRANCH   2   4
TORSDOF 3
ENDMDL
MODEL      123
REMARK 921   NORMALIZED FREE ENERGY PREDICTED BY IDOCK:   -3.87 KCAL/MOL
REMARK 922        TOTAL FREE ENERGY PREDICTED BY IDOCK:   -4.94 KCAL/MOL
REMARK 923 INTER-LIGAND FREE ENERGY PREDICTED BY IDOCK:   -4.51 KCAL/MOL
REMARK 924 INTRA-LIGAND FREE ENERGY PREDICTED BY IDOCK:   -0.43 KCAL/MOL
REMARK 927      BINDING AFFINITY PREDICTED BY RF-SCORE:    0.00 PKD
ROOT
HETATM    1  C   UNL     1      -7.540  20.292  68.490  1.00  0.00     0.007 C  
HETATM    2  N   UNL     1      -7.127  19.221  67.597  1.00  0.00    -0.223 NA 
HETATM    3  H   UNL     1      -6.532  18.542  68.073  1.00  0.00     0.000 HD 
ENDROOT
BRANCH   2   4
HETATM    4  C   UNL     1      -8.284  18.580  66.975  1.00  0.00    -0.247 C  
BRANCH   4   5
HETATM    5  C   UNL     1      -8.397  17.133  67.396  1.00  0.00    -0.203 A  
HETATM    6  C   UNL     1      -8.292  16.743  68.740  1.00  0.00    -0.248 A  
HETATM    7  C   UNL     1      -8.373  15.389  69.108  1.00  0.00    -0.242 A  
HETATM    8  C   UNL     1      -8.557  14.398  68.136  1.00  0.00    -0.166 A  
HETATM    9  C   UNL     1      -8.660  14.799  66.797  1.00  0.00    -0.226 A  
HETATM   10  C   UNL     1      -8.591  16.143  66.430  1.00  0.00    -0.365 A  
BRANCH   8  11
HETATM   11  C   UNL     1      -8.601  12.964  68.461  1.00  0.00    -0.042 A  
HETATM   12  C   UNL     1      -9.420  11.952  67.979  1.00  0.00    -0.197 A  
HETATM   13  C   UNL     1     -10.668  12.000  67.152  1.00  0.00    -0.277 C  
HETATM   14  C   UNL     1     -10.480  11.326  65.789  1.00  0.00    -0.254 C  
HETATM   15  N   UNL     1      -9.925   9.964  65.806  1.00  0.00    -0.284 N  
HETATM   16  C   UNL     1     -10.101   9.137  66.912  1.00  0.00    -0.258 C  
HETATM   17  H   UNL     1      -9.407   9.621  64.997  1.00  0.00     0.000 HD 
HETATM   18  O   UNL     1     -10.881   8.197  66.933  1.00  0.00    -0.250 OA 
HETATM   19  C   UNL     1      -9.164   9.381  68.041  1.00  0.00    -0.137 A  
HETATM   20  C   UNL     1      -8.859  10.709  68.386  1.00  0.00    -0.145 A  
HETATM   21  C   UNL     1      -7.869  10.982  69.318  1.00  0.00    -0.052 A  
HETATM   22  C   UNL     1      -7.228   9.949  70.017  1.00  0.00    -0.146 A  
HETATM   23  N   UNL     1      -7.709  12.348  69.327  1.00  0.00    -0.289 NA 
HETATM   24  H   UNL     1      -7.023  12.844  69.895  1.00  0.00     0.000 HD 
HETATM   25  C   UNL     1      -7.623   8.640  69.723  1.00  0.00    -0.079 A  
HETATM   26  C   UNL     1      -8.564   8.338  68.745  1.00  0.00    -0.133 A  
HETATM   27  F   UNL     1      -7.051   7.632  70.401  1.00  0.00    -0.054 F  
ENDBRANCH   8  11
ENDBRANCH   4   5
ENDBRANCH   2   4
TORSDOF 3
ENDMDL
MODEL      124
REMARK 921   NORMALIZED FREE ENERGY PREDICTED BY IDOCK:   -3.85 KCAL/MOL
REMARK 922        TOTAL FREE ENERGY PREDICTED BY IDOCK:   -4.91 KCAL/MOL
REMARK 923 INTER-LIGAND FREE ENERGY PREDICTED BY IDOCK:   -4.48 KCAL/MOL
REMARK 924 INTRA-LIGAND FREE ENERGY PREDICTED BY IDOCK:   -0.43 KCAL/MOL
REMARK 927      BINDING AFFINITY PREDICTED BY RF-SCORE:    0.00 PKD
ROOT
HETATM    1  C   UNL     1      -8.692  10.999  62.565  1.00  0.00    -0.287 C  
HETATM    2  N   UNL     1      -8.064   9.688  62.493  1.00  0.00    -0.125 NA 
HETATM    3  H   UNL     1      -7.696   9.498  61.561  1.00  0.00     0.000 HD 
ENDROOT
BRANCH   2   4
HETATM    4  C   UNL     1      -7.033   9.542  63.519  1.00  0.00    -0.103 C  
BRANCH   4   5
HETATM    5  C   UNL     1      -7.624   9.049  64.819  1.00  0.00    -0.105 A  
HETATM    6  C   UNL     1      -8.928   8.535  64.892  1.00  0.00     0.061 A  
HETATM    7  C   UNL     1      -9.468   8.106  66.116  1.00  0.00    -0.217 A  
HETATM    8  C   UNL     1      -8.715   8.187  67.294  1.00  0.00    -0.125 A  
HETATM    9  C   UNL     1      -7.414   8.703  67.209  1.00  0.00    -0.089 A  
HETATM   10  C   UNL     1      -6.871   9.119  65.993  1.00  0.00    -0.084 A  
BRANCH   8  11
HETATM   11  C   UNL     1      -9.249   7.797  68.607  1.00  0.00    -0.138 A  
HETATM   12  C   UNL     1      -9.957   8.531  69.550  1.00  0.00    -0.193 A  
HETATM   13  C   UNL     1     -10.220  10.001  69.664  1.00  0.00    -0.267 C  
HETATM   14  C   UNL     1     -11.713  10.328  69.546  1.00  0.00    -0.122 C  
HETATM   15  N   UNL     1     -12.617   9.574  70.427  1.00  0.00    -0.467 N  
HETATM   16  C   UNL     1     -12.166   9.060  71.639  1.00  0.00    -0.348 C  
HETATM   17  H   UNL     1     -13.586   9.425  70.146  1.00  0.00     0.000 HD 
HETATM   18  O   UNL     1     -12.452   9.545  72.724  1.00  0.00     0.025 OA 
HETATM   19  C   UNL     1     -11.416   7.779  71.546  1.00  0.00    -0.298 A  
HETATM   20  C   UNL     1     -10.492   7.616  70.499  1.00  0.00    -0.221 A  
HETATM   21  C   UNL     1      -9.895   6.385  70.277  1.00  0.00    -0.168 A  
HETATM   22  C   UNL     1     -10.108   5.308  71.149  1.00  0.00    -0.284 A  
HETATM   23  N   UNL     1      -9.171   6.508  69.113  1.00  0.00    -0.135 NA 
HETATM   24  H   UNL     1      -8.646   5.750  68.679  1.00  0.00     0.000 HD 
HETATM   25  C   UNL     1     -10.956   5.530  72.239  1.00  0.00    -0.239 A  
HETATM   26  C   UNL     1     -11.619   6.734  72.446  1.00  0.00    -0.284 A  
HETATM   27  F   UNL     1     -11.151   4.528  73.111  1.00  0.00    -0.271 F  
ENDBRANCH   8  11
ENDBRANCH   4   5
ENDBRANCH   2   4
TORSDOF 3
ENDMDL
MODEL      125
REMARK 921   NORMALIZED FREE ENERGY PREDICTED BY IDOCK:   -3.74 KCAL/MOL
REMARK 922        TOTAL FREE ENERGY PREDICTED BY IDOCK:   -4.79 KCAL/MOL
REMARK 923 INTER-LIGAND FREE ENERGY PREDICTED BY IDOCK:   -4.23 KCAL/MOL
REMARK 924 INTRA-LIGAND FREE ENERGY PREDICTED BY IDOCK:   -0.55 KCAL/MOL
REMARK 927      BINDING AFFINITY PREDICTED BY RF-SCORE:    0.00 PKD
ROOT
HETATM    1  C   UNL     1     -11.158  11.655  63.851  1.00  0.00    -0.401 C  
HETATM    2  N   UNL     1      -9.770  11.738  64.277  1.00  0.00    -0.419 NA 
HETATM    3  H   UNL     1      -9.685  12.151  65.206  1.00  0.00     0.000 HD 
ENDROOT
BRANCH   2   4
HETATM    4  C   UNL     1      -9.120  10.430  64.208  1.00  0.00    -0.238 C  
BRANCH   4   5
HETATM    5  C   UNL     1      -8.929   9.845  65.588  1.00  0.00    -0.205 A  
HETATM    6  C   UNL     1      -8.523  10.632  66.677  1.00  0.00    -0.137 A  
HETATM    7  C   UNL     1      -8.325  10.063  67.946  1.00  0.00    -0.117 A  
HETATM    8  C   UNL     1      -8.525   8.692  68.150  1.00  0.00    -0.131 A  
HETATM    9  C   UNL     1      -8.930   7.916  67.056  1.00  0.00    -0.145 A  
HETATM   10  C   UNL     1      -9.138   8.480  65.797  1.00  0.00    -0.222 A  
BRANCH   8  11
HETATM   11  C   UNL     1      -8.286   8.038  69.446  1.00  0.00    -0.131 A  
HETATM   12  C   UNL     1      -8.980   8.125  70.645  1.00  0.00    -0.153 A  
HETATM   13  C   UNL     1     -10.052   9.069  71.101  1.00  0.00    -0.365 C  
HETATM   14  C   UNL     1     -11.374   8.345  71.377  1.00  0.00    -0.264 C  
HETATM   15  N   UNL     1     -11.304   7.176  72.267  1.00  0.00    -0.257 N  
HETATM   16  C   UNL     1     -10.302   7.071  73.227  1.00  0.00    -0.309 C  
HETATM   17  H   UNL     1     -11.999   6.435  72.179  1.00  0.00     0.000 HD 
HETATM   18  O   UNL     1     -10.493   7.243  74.422  1.00  0.00    -0.060 OA 
HETATM   19  C   UNL     1      -8.989   6.588  72.723  1.00  0.00    -0.127 A  
HETATM   20  C   UNL     1      -8.523   7.075  71.488  1.00  0.00    -0.116 A  
HETATM   21  C   UNL     1      -7.389   6.532  70.904  1.00  0.00    -0.083 A  
HETATM   22  C   UNL     1      -6.619   5.569  71.572  1.00  0.00    -0.045 A  
HETATM   23  N   UNL     1      -7.281   7.106  69.659  1.00  0.00    -0.074 NA 
HETATM   24  H   UNL     1      -6.556   6.877  68.980  1.00  0.00     0.000 HD 
HETATM   25  C   UNL     1      -7.054   5.176  72.842  1.00  0.00    -0.087 A  
HETATM   26  C   UNL     1      -8.223   5.656  73.421  1.00  0.00    -0.113 A  
HETATM   27  F   UNL     1      -6.318   4.281  73.521  1.00  0.00    -0.035 F  
ENDBRANCH   8  11
ENDBRANCH   4   5
ENDBRANCH   2   4
TORSDOF 3
ENDMDL
MODEL      126
REMARK 921   NORMALIZED FREE ENERGY PREDICTED BY IDOCK:   -3.74 KCAL/MOL
REMARK 922        TOTAL FREE ENERGY PREDICTED BY IDOCK:   -4.78 KCAL/MOL
REMARK 923 INTER-LIGAND FREE ENERGY PREDICTED BY IDOCK:   -4.28 KCAL/MOL
REMARK 924 INTRA-LIGAND FREE ENERGY PREDICTED BY IDOCK:   -0.50 KCAL/MOL
REMARK 927      BINDING AFFINITY PREDICTED BY RF-SCORE:    0.00 PKD
ROOT
HETATM    1  C   UNL     1      -6.945  15.271  69.551  1.00  0.00    -0.191 C  
HETATM    2  N   UNL     1      -8.344  14.910  69.378  1.00  0.00    -0.379 NA 
HETATM    3  H   UNL     1      -8.952  15.728  69.428  1.00  0.00     0.000 HD 
ENDROOT
BRANCH   2   4
HETATM    4  C   UNL     1      -8.545  14.164  68.138  1.00  0.00    -0.175 C  
BRANCH   4   5
HETATM    5  C   UNL     1      -8.755  12.694  68.415  1.00  0.00    -0.118 A  
HETATM    6  C   UNL     1      -7.695  11.848  68.775  1.00  0.00    -0.074 A  
HETATM    7  C   UNL     1      -7.907  10.478  69.003  1.00  0.00    -0.129 A  
HETATM    8  C   UNL     1      -9.187   9.926  68.870  1.00  0.00    -0.160 A  
HETATM    9  C   UNL     1     -10.239  10.779  68.510  1.00  0.00    -0.192 A  
HETATM   10  C   UNL     1     -10.033  12.142  68.294  1.00  0.00    -0.212 A  
BRANCH   8  11
HETATM   11  C   UNL     1      -9.456   8.491  69.050  1.00  0.00    -0.150 A  
HETATM   12  C   UNL     1      -9.625   7.478  68.115  1.00  0.00    -0.155 A  
HETATM   13  C   UNL     1      -9.818   7.526  66.630  1.00  0.00    -0.274 C  
HETATM   14  C   UNL     1      -8.663   6.856  65.879  1.00  0.00    -0.134 C  
HETATM   15  N   UNL     1      -8.307   5.496  66.308  1.00  0.00    -0.111 N  
HETATM   16  C   UNL     1      -9.254   4.665  66.901  1.00  0.00    -0.127 C  
HETATM   17  H   UNL     1      -7.356   5.156  66.170  1.00  0.00     0.000 HD 
HETATM   18  O   UNL     1      -9.778   3.723  66.325  1.00  0.00    -0.189 OA 
HETATM   19  C   UNL     1      -9.494   4.907  68.348  1.00  0.00    -0.187 A  
HETATM   20  C   UNL     1      -9.560   6.236  68.806  1.00  0.00    -0.128 A  
HETATM   21  C   UNL     1      -9.616   6.508  70.164  1.00  0.00    -0.160 A  
HETATM   22  C   UNL     1      -9.720   5.475  71.106  1.00  0.00    -0.226 A  
HETATM   23  N   UNL     1      -9.523   7.874  70.291  1.00  0.00    -0.163 NA 
HETATM   24  H   UNL     1      -9.505   8.369  71.182  1.00  0.00     0.000 HD 
HETATM   25  C   UNL     1      -9.751   4.165  70.614  1.00  0.00    -0.203 A  
HETATM   26  C   UNL     1      -9.629   3.864  69.263  1.00  0.00    -0.232 A  
HETATM   27  F   UNL     1      -9.885   3.157  71.491  1.00  0.00    -0.215 F  
ENDBRANCH   8  11
ENDBRANCH   4   5
ENDBRANCH   2   4
TORSDOF 3
ENDMDL
MODEL      127
REMARK 921   NORMALIZED FREE ENERGY PREDICTED BY IDOCK:   -3.73 KCAL/MOL
REMARK 922        TOTAL FREE ENERGY PREDICTED BY IDOCK:   -4.77 KCAL/MOL
REMARK 923 INTER-LIGAND FREE ENERGY PREDICTED BY IDOCK:   -4.47 KCAL/MOL
REMARK 924 INTRA-LIGAND FREE ENERGY PREDICTED BY IDOCK:   -0.31 KCAL/MOL
REMARK 927      BINDING AFFINITY PREDICTED BY RF-SCORE:    0.00 PKD
ROOT
HETATM    1  C   UNL     1      -7.812   6.549  72.486  1.00  0.00    -0.103 C  
HETATM    2  N   UNL     1      -6.362   6.523  72.373  1.00  0.00    -0.053 NA 
HETATM    3  H   UNL     1      -5.961   5.722  72.861  1.00  0.00     0.000 HD 
ENDROOT
BRANCH   2   4
HETATM    4  C   UNL     1      -5.943   6.567  70.974  1.00  0.00    -0.028 C  
BRANCH   4   5
HETATM    5  C   UNL     1      -6.496   7.789  70.278  1.00  0.00    -0.037 A  
HETATM    6  C   UNL     1      -6.089   9.087  70.624  1.00  0.00    -0.040 A  
HETATM    7  C   UNL     1      -6.636  10.211  69.982  1.00  0.00    -0.117 A  
HETATM    8  C   UNL     1      -7.605  10.058  68.983  1.00  0.00    -0.090 A  
HETATM    9  C   UNL     1      -8.003   8.758  68.645  1.00  0.00    -0.107 A  
HETATM   10  C   UNL     1      -7.454   7.639  69.273  1.00  0.00    -0.094 A  
BRANCH   8  11
HETATM   11  C   UNL     1      -8.243  11.202  68.314  1.00  0.00    -0.134 A  
HETATM   12  C   UNL     1      -8.587  11.394  66.982  1.00  0.00    -0.157 A  
HETATM   13  C   UNL     1      -8.230  10.623  65.748  1.00  0.00    -0.161 C  
HETATM   14  C   UNL     1      -9.462   9.997  65.085  1.00  0.00    -0.270 C  
HETATM   15  N   UNL     1     -10.590  10.903  64.818  1.00  0.00    -0.292 N  
HETATM   16  C   UNL     1     -10.379  12.265  64.625  1.00  0.00    -0.301 C  
HETATM   17  H   UNL     1     -11.537  10.528  64.774  1.00  0.00     0.000 HD 
HETATM   18  O   UNL     1     -10.438  12.807  63.531  1.00  0.00    -0.333 OA 
HETATM   19  C   UNL     1     -10.215  13.064  65.868  1.00  0.00    -0.298 A  
HETATM   20  C   UNL     1      -9.442  12.529  66.915  1.00  0.00    -0.219 A  
HETATM   21  C   UNL     1      -9.398  13.161  68.148  1.00  0.00    -0.217 A  
HETATM   22  C   UNL     1     -10.025  14.398  68.351  1.00  0.00    -0.241 A  
HETATM   23  N   UNL     1      -8.693  12.328  68.986  1.00  0.00    -0.281 NA 
HETATM   24  H   UNL     1      -8.524  12.515  69.974  1.00  0.00     0.000 HD 
HETATM   25  C   UNL     1     -10.704  14.954  67.261  1.00  0.00    -0.294 A  
HETATM   26  C   UNL     1     -10.820  14.309  66.035  1.00  0.00    -0.303 A  
HETATM   27  F   UNL     1     -11.285  16.155  67.416  1.00  0.00    -0.295 F  
ENDBRANCH   8  11
ENDBRANCH   4   5
ENDBRANCH   2   4
TORSDOF 3
ENDMDL
MODEL      128
REMARK 921   NORMALIZED FREE ENERGY PREDICTED BY IDOCK:   -3.71 KCAL/MOL
REMARK 922        TOTAL FREE ENERGY PREDICTED BY IDOCK:   -4.75 KCAL/MOL
REMARK 923 INTER-LIGAND FREE ENERGY PREDICTED BY IDOCK:   -4.31 KCAL/MOL
REMARK 924 INTRA-LIGAND FREE ENERGY PREDICTED BY IDOCK:   -0.44 KCAL/MOL
REMARK 927      BINDING AFFINITY PREDICTED BY RF-SCORE:    0.00 PKD
ROOT
HETATM    1  C   UNL     1      -9.545   6.106  67.936  1.00  0.00    -0.118 C  
HETATM    2  N   UNL     1      -8.102   6.096  68.122  1.00  0.00    -0.110 NA 
HETATM    3  H   UNL     1      -7.608   6.192  67.235  1.00  0.00     0.000 HD 
ENDROOT
BRANCH   2   4
HETATM    4  C   UNL     1      -7.689   7.116  69.083  1.00  0.00    -0.109 C  
BRANCH   4   5
HETATM    5  C   UNL     1      -8.104   8.495  68.625  1.00  0.00    -0.121 A  
HETATM    6  C   UNL     1      -7.618   9.058  67.434  1.00  0.00    -0.088 A  
HETATM    7  C   UNL     1      -7.995  10.352  67.040  1.00  0.00    -0.116 A  
HETATM    8  C   UNL     1      -8.865  11.112  67.832  1.00  0.00    -0.136 A  
HETATM    9  C   UNL     1      -9.344  10.540  69.018  1.00  0.00    -0.205 A  
HETATM   10  C   UNL     1      -8.980   9.251  69.407  1.00  0.00    -0.147 A  
BRANCH   8  11
HETATM   11  C   UNL     1      -9.255  12.488  67.490  1.00  0.00    -0.188 A  
HETATM   12  C   UNL     1      -8.868  13.702  68.043  1.00  0.00    -0.187 A  
HETATM   13  C   UNL     1      -8.119  14.020  69.301  1.00  0.00     0.293 C  
HETATM   14  C   UNL     1      -6.777  14.702  69.013  1.00  0.00    -0.103 C  
HETATM   15  N   UNL     1      -6.819  15.875  68.127  1.00  0.00    -0.116 N  
HETATM   16  C   UNL     1      -7.969  16.654  68.030  1.00  0.00    -0.171 C  
HETATM   17  H   UNL     1      -5.996  16.121  67.578  1.00  0.00     0.000 HD 
HETATM   18  O   UNL     1      -8.079  17.759  68.541  1.00  0.00    -0.284 OA 
HETATM   19  C   UNL     1      -9.026  16.115  67.133  1.00  0.00    -0.218 A  
HETATM   20  C   UNL     1      -9.294  14.735  67.163  1.00  0.00    -0.233 A  
HETATM   21  C   UNL     1     -10.149  14.167  66.232  1.00  0.00    -0.300 A  
HETATM   22  C   UNL     1     -10.851  14.960  65.314  1.00  0.00    -0.398 A  
HETATM   23  N   UNL     1     -10.089  12.807  66.428  1.00  0.00    -0.254 NA 
HETATM   24  H   UNL     1     -10.592  12.121  65.866  1.00  0.00     0.000 HD 
HETATM   25  C   UNL     1     -10.639  16.341  65.373  1.00  0.00    -0.352 A  
HETATM   26  C   UNL     1      -9.736  16.929  66.252  1.00  0.00    -0.301 A  
HETATM   27  F   UNL     1     -11.324  17.130  64.529  1.00  0.00    -0.348 F  
ENDBRANCH   8  11
ENDBRANCH   4   5
ENDBRANCH   2   4
TORSDOF 3
ENDMDL
MODEL      129
REMARK 921   NORMALIZED FREE ENERGY PREDICTED BY IDOCK:   -3.69 KCAL/MOL
REMARK 922        TOTAL FREE ENERGY PREDICTED BY IDOCK:   -4.72 KCAL/MOL
REMARK 923 INTER-LIGAND FREE ENERGY PREDICTED BY IDOCK:   -4.18 KCAL/MOL
REMARK 924 INTRA-LIGAND FREE ENERGY PREDICTED BY IDOCK:   -0.54 KCAL/MOL
REMARK 927      BINDING AFFINITY PREDICTED BY RF-SCORE:    0.00 PKD
ROOT
HETATM    1  C   UNL     1      -6.783  15.556  69.636  1.00  0.00    -0.180 C  
HETATM    2  N   UNL     1      -8.016  14.791  69.532  1.00  0.00    -0.393 NA 
HETATM    3  H   UNL     1      -8.819  15.325  69.862  1.00  0.00     0.000 HD 
ENDROOT
BRANCH   2   4
HETATM    4  C   UNL     1      -8.217  14.303  68.169  1.00  0.00    -0.146 C  
BRANCH   4   5
HETATM    5  C   UNL     1      -8.313  12.795  68.139  1.00  0.00    -0.172 A  
HETATM    6  C   UNL     1      -7.266  11.977  68.592  1.00  0.00    -0.110 A  
HETATM    7  C   UNL     1      -7.364  10.577  68.531  1.00  0.00    -0.088 A  
HETATM    8  C   UNL     1      -8.512   9.967  68.010  1.00  0.00    -0.117 A  
HETATM    9  C   UNL     1      -9.551  10.793  67.560  1.00  0.00    -0.176 A  
HETATM   10  C   UNL     1      -9.461  12.184  67.630  1.00  0.00    -0.187 A  
BRANCH   8  11
HETATM   11  C   UNL     1      -8.647   8.508  67.879  1.00  0.00    -0.134 A  
HETATM   12  C   UNL     1      -8.847   7.528  68.842  1.00  0.00    -0.135 A  
HETATM   13  C   UNL     1      -8.766   7.580  70.337  1.00  0.00    -0.144 C  
HETATM   14  C   UNL     1     -10.119   7.293  70.996  1.00  0.00    -0.191 C  
HETATM   15  N   UNL     1     -10.810   6.070  70.560  1.00  0.00    -0.294 N  
HETATM   16  C   UNL     1     -10.093   4.984  70.067  1.00  0.00    -0.272 C  
HETATM   17  H   UNL     1     -11.827   6.018  70.620  1.00  0.00     0.000 HD 
HETATM   18  O   UNL     1      -9.904   3.957  70.702  1.00  0.00    -0.189 OA 
HETATM   19  C   UNL     1      -9.681   5.090  68.642  1.00  0.00    -0.221 A  
HETATM   20  C   UNL     1      -9.205   6.327  68.170  1.00  0.00    -0.110 A  
HETATM   21  C   UNL     1      -8.967   6.516  66.818  1.00  0.00    -0.131 A  
HETATM   22  C   UNL     1      -9.085   5.457  65.906  1.00  0.00    -0.162 A  
HETATM   23  N   UNL     1      -8.659   7.847  66.659  1.00  0.00    -0.129 NA 
HETATM   24  H   UNL     1      -8.466   8.291  65.762  1.00  0.00     0.000 HD 
HETATM   25  C   UNL     1      -9.465   4.213  66.420  1.00  0.00    -0.189 A  
HETATM   26  C   UNL     1      -9.774   4.014  67.761  1.00  0.00    -0.155 A  
HETATM   27  F   UNL     1      -9.552   3.172  65.576  1.00  0.00    -0.160 F  
ENDBRANCH   8  11
ENDBRANCH   4   5
ENDBRANCH   2   4
TORSDOF 3
ENDMDL
MODEL      130
REMARK 921   NORMALIZED FREE ENERGY PREDICTED BY IDOCK:   -3.67 KCAL/MOL
REMARK 922        TOTAL FREE ENERGY PREDICTED BY IDOCK:   -4.70 KCAL/MOL
REMARK 923 INTER-LIGAND FREE ENERGY PREDICTED BY IDOCK:   -4.16 KCAL/MOL
REMARK 924 INTRA-LIGAND FREE ENERGY PREDICTED BY IDOCK:   -0.54 KCAL/MOL
REMARK 927      BINDING AFFINITY PREDICTED BY RF-SCORE:    0.00 PKD
ROOT
HETATM    1  C   UNL     1     -11.900  15.834  68.845  1.00  0.00    -0.341 C  
HETATM    2  N   UNL     1     -12.097  14.466  68.390  1.00  0.00    -0.574 NA 
HETATM    3  H   UNL     1     -11.678  14.311  67.472  1.00  0.00     0.000 HD 
ENDROOT
BRANCH   2   4
HETATM    4  C   UNL     1     -11.601  13.508  69.376  1.00  0.00    -0.312 C  
BRANCH   4   5
HETATM    5  C   UNL     1     -10.990  12.301  68.703  1.00  0.00    -0.276 A  
HETATM    6  C   UNL     1     -11.706  11.107  68.530  1.00  0.00    -0.368 A  
HETATM    7  C   UNL     1     -11.111   9.988  67.926  1.00  0.00    -0.260 A  
HETATM    8  C   UNL     1      -9.782  10.040  67.485  1.00  0.00    -0.189 A  
HETATM    9  C   UNL     1      -9.076  11.237  67.663  1.00  0.00    -0.149 A  
HETATM   10  C   UNL     1      -9.669  12.354  68.253  1.00  0.00    -0.218 A  
BRANCH   8  11
HETATM   11  C   UNL     1      -9.096   8.883  66.890  1.00  0.00    -0.133 A  
HETATM   12  C   UNL     1      -8.608   8.683  65.605  1.00  0.00    -0.191 A  
HETATM   13  C   UNL     1      -8.808   9.461  64.340  1.00  0.00    -0.225 C  
HETATM   14  C   UNL     1      -7.496  10.060  63.822  1.00  0.00    -0.141 C  
HETATM   15  N   UNL     1      -6.365   9.132  63.682  1.00  0.00    -0.089 N  
HETATM   16  C   UNL     1      -6.581   7.774  63.463  1.00  0.00    -0.062 C  
HETATM   17  H   UNL     1      -5.411   9.486  63.746  1.00  0.00     0.000 HD 
HETATM   18  O   UNL     1      -6.410   7.230  62.382  1.00  0.00    -0.058 OA 
HETATM   19  C   UNL     1      -6.901   6.978  64.679  1.00  0.00    -0.050 A  
HETATM   20  C   UNL     1      -7.775   7.531  65.632  1.00  0.00    -0.100 A  
HETATM   21  C   UNL     1      -7.972   6.900  66.851  1.00  0.00    -0.109 A  
HETATM   22  C   UNL     1      -7.397   5.650  67.121  1.00  0.00    -0.080 A  
HETATM   23  N   UNL     1      -8.748   7.747  67.606  1.00  0.00    -0.126 NA 
HETATM   24  H   UNL     1      -9.032   7.564  68.568  1.00  0.00     0.000 HD 
HETATM   25  C   UNL     1      -6.612   5.079  66.114  1.00  0.00    -0.048 A  
HETATM   26  C   UNL     1      -6.345   5.722  64.910  1.00  0.00    -0.037 A  
HETATM   27  F   UNL     1      -6.077   3.867  66.330  1.00  0.00    -0.027 F  
ENDBRANCH   8  11
ENDBRANCH   4   5
ENDBRANCH   2   4
TORSDOF 3
ENDMDL
MODEL      131
REMARK 921   NORMALIZED FREE ENERGY PREDICTED BY IDOCK:   -3.66 KCAL/MOL
REMARK 922        TOTAL FREE ENERGY PREDICTED BY IDOCK:   -4.68 KCAL/MOL
REMARK 923 INTER-LIGAND FREE ENERGY PREDICTED BY IDOCK:   -4.13 KCAL/MOL
REMARK 924 INTRA-LIGAND FREE ENERGY PREDICTED BY IDOCK:   -0.55 KCAL/MOL
REMARK 927      BINDING AFFINITY PREDICTED BY RF-SCORE:    0.00 PKD
ROOT
HETATM    1  C   UNL     1     -10.464   4.462  74.201  1.00  0.00    -0.256 C  
HETATM    2  N   UNL     1     -11.304   5.328  73.388  1.00  0.00    -0.486 NA 
HETATM    3  H   UNL     1     -12.275   5.311  73.701  1.00  0.00     0.000 HD 
ENDROOT
BRANCH   2   4
HETATM    4  C   UNL     1     -10.775   6.690  73.351  1.00  0.00    -0.289 C  
BRANCH   4   5
HETATM    5  C   UNL     1     -10.348   7.070  71.952  1.00  0.00    -0.213 A  
HETATM    6  C   UNL     1     -10.610   6.244  70.847  1.00  0.00    -0.293 A  
HETATM    7  C   UNL     1     -10.182   6.604  69.559  1.00  0.00    -0.208 A  
HETATM    8  C   UNL     1      -9.479   7.797  69.350  1.00  0.00    -0.156 A  
HETATM    9  C   UNL     1      -9.223   8.614  70.459  1.00  0.00    -0.201 A  
HETATM   10  C   UNL     1      -9.657   8.265  71.739  1.00  0.00    -0.274 A  
BRANCH   8  11
HETATM   11  C   UNL     1      -8.967   8.197  68.030  1.00  0.00    -0.134 A  
HETATM   12  C   UNL     1      -9.589   8.862  66.982  1.00  0.00    -0.232 A  
HETATM   13  C   UNL     1     -11.030   9.192  66.738  1.00  0.00     0.247 C  
HETATM   14  C   UNL     1     -11.275  10.705  66.711  1.00  0.00     0.076 C  
HETATM   15  N   UNL     1     -10.408  11.491  65.820  1.00  0.00    -0.240 N  
HETATM   16  C   UNL     1      -9.839  10.913  64.689  1.00  0.00    -0.294 C  
HETATM   17  H   UNL     1     -10.223  12.470  66.033  1.00  0.00     0.000 HD 
HETATM   18  O   UNL     1     -10.228  11.132  63.551  1.00  0.00    -0.333 OA 
HETATM   19  C   UNL     1      -8.614  10.106  64.937  1.00  0.00    -0.188 A  
HETATM   20  C   UNL     1      -8.580   9.266  66.064  1.00  0.00    -0.158 A  
HETATM   21  C   UNL     1      -7.405   8.624  66.425  1.00  0.00    -0.080 A  
HETATM   22  C   UNL     1      -6.259   8.706  65.622  1.00  0.00    -0.052 A  
HETATM   23  N   UNL     1      -7.652   8.009  67.630  1.00  0.00    -0.100 NA 
HETATM   24  H   UNL     1      -6.959   7.483  68.161  1.00  0.00     0.000 HD 
HETATM   25  C   UNL     1      -6.353   9.470  64.454  1.00  0.00    -0.093 A  
HETATM   26  C   UNL     1      -7.498  10.177  64.105  1.00  0.00    -0.114 A  
HETATM   27  F   UNL     1      -5.282   9.538  63.647  1.00  0.00    -0.061 F  
ENDBRANCH   8  11
ENDBRANCH   4   5
ENDBRANCH   2   4
TORSDOF 3
ENDMDL
MODEL      132
REMARK 921   NORMALIZED FREE ENERGY PREDICTED BY IDOCK:   -3.65 KCAL/MOL
REMARK 922        TOTAL FREE ENERGY PREDICTED BY IDOCK:   -4.67 KCAL/MOL
REMARK 923 INTER-LIGAND FREE ENERGY PREDICTED BY IDOCK:   -4.20 KCAL/MOL
REMARK 924 INTRA-LIGAND FREE ENERGY PREDICTED BY IDOCK:   -0.47 KCAL/MOL
REMARK 927      BINDING AFFINITY PREDICTED BY RF-SCORE:    0.00 PKD
ROOT
HETATM    1  C   UNL     1      -8.953   3.486  62.573  1.00  0.00    -0.089 C  
HETATM    2  N   UNL     1      -8.127   4.053  63.627  1.00  0.00    -0.088 NA 
HETATM    3  H   UNL     1      -7.630   4.886  63.308  1.00  0.00     0.000 HD 
ENDROOT
BRANCH   2   4
HETATM    4  C   UNL     1      -8.917   4.324  64.826  1.00  0.00    -0.145 C  
BRANCH   4   5
HETATM    5  C   UNL     1      -8.789   5.770  65.247  1.00  0.00    -0.057 A  
HETATM    6  C   UNL     1      -9.189   6.209  66.519  1.00  0.00    -0.161 A  
HETATM    7  C   UNL     1      -9.086   7.563  66.881  1.00  0.00    -0.166 A  
HETATM    8  C   UNL     1      -8.584   8.505  65.975  1.00  0.00    -0.162 A  
HETATM    9  C   UNL     1      -8.189   8.056  64.708  1.00  0.00    -0.124 A  
HETATM   10  C   UNL     1      -8.279   6.710  64.350  1.00  0.00     0.007 A  
BRANCH   8  11
HETATM   11  C   UNL     1      -8.501   9.941  66.286  1.00  0.00    -0.128 A  
HETATM   12  C   UNL     1      -9.076  11.037  65.658  1.00  0.00    -0.223 A  
HETATM   13  C   UNL     1      -9.778  11.166  64.341  1.00  0.00    -0.312 C  
HETATM   14  C   UNL     1     -11.246  11.574  64.510  1.00  0.00    -0.231 C  
HETATM   15  N   UNL     1     -11.502  12.755  65.348  1.00  0.00    -0.314 N  
HETATM   16  C   UNL     1     -10.539  13.750  65.490  1.00  0.00    -0.307 C  
HETATM   17  H   UNL     1     -12.396  12.847  65.829  1.00  0.00     0.000 HD 
HETATM   18  O   UNL     1     -10.610  14.841  64.944  1.00  0.00    -0.414 OA 
HETATM   19  C   UNL     1      -9.466  13.457  66.478  1.00  0.00    -0.252 A  
HETATM   20  C   UNL     1      -8.930  12.158  66.522  1.00  0.00    -0.179 A  
HETATM   21  C   UNL     1      -8.050  11.797  67.531  1.00  0.00    -0.152 A  
HETATM   22  C   UNL     1      -7.588  12.738  68.461  1.00  0.00    -0.120 A  
HETATM   23  N   UNL     1      -7.827  10.447  67.388  1.00  0.00    -0.102 NA 
HETATM   24  H   UNL     1      -7.242   9.891  68.010  1.00  0.00     0.000 HD 
HETATM   25  C   UNL     1      -8.064  14.047  68.332  1.00  0.00    -0.148 A  
HETATM   26  C   UNL     1      -8.998  14.419  67.371  1.00  0.00    -0.204 A  
HETATM   27  F   UNL     1      -7.612  14.979  69.187  1.00  0.00    -0.127 F  
ENDBRANCH   8  11
ENDBRANCH   4   5
ENDBRANCH   2   4
TORSDOF 3
ENDMDL
MODEL      133
REMARK 921   NORMALIZED FREE ENERGY PREDICTED BY IDOCK:   -3.62 KCAL/MOL
REMARK 922        TOTAL FREE ENERGY PREDICTED BY IDOCK:   -4.64 KCAL/MOL
REMARK 923 INTER-LIGAND FREE ENERGY PREDICTED BY IDOCK:   -4.31 KCAL/MOL
REMARK 924 INTRA-LIGAND FREE ENERGY PREDICTED BY IDOCK:   -0.33 KCAL/MOL
REMARK 927      BINDING AFFINITY PREDICTED BY RF-SCORE:    0.00 PKD
ROOT
HETATM    1  C   UNL     1      -8.903   5.133  72.033  1.00  0.00    -0.130 C  
HETATM    2  N   UNL     1      -8.378   5.315  70.688  1.00  0.00    -0.111 NA 
HETATM    3  H   UNL     1      -7.603   4.679  70.498  1.00  0.00     0.000 HD 
ENDROOT
BRANCH   2   4
HETATM    4  C   UNL     1      -9.437   5.188  69.689  1.00  0.00    -0.143 C  
BRANCH   4   5
HETATM    5  C   UNL     1      -9.824   6.537  69.131  1.00  0.00    -0.156 A  
HETATM    6  C   UNL     1      -8.982   7.249  68.262  1.00  0.00    -0.125 A  
HETATM    7  C   UNL     1      -9.349   8.514  67.775  1.00  0.00    -0.153 A  
HETATM    8  C   UNL     1     -10.566   9.096  68.152  1.00  0.00    -0.235 A  
HETATM    9  C   UNL     1     -11.398   8.378  69.020  1.00  0.00     0.549 A  
HETATM   10  C   UNL     1     -11.042   7.115  69.496  1.00  0.00    -0.170 A  
BRANCH   8  11
HETATM   11  C   UNL     1     -10.976  10.438  67.710  1.00  0.00    -0.309 A  
HETATM   12  C   UNL     1     -11.667  11.439  68.380  1.00  0.00    -0.373 A  
HETATM   13  C   UNL     1     -12.423  11.423  69.673  1.00  0.00    -0.133 C  
HETATM   14  C   UNL     1     -11.789  12.345  70.720  1.00  0.00     0.218 C  
HETATM   15  N   UNL     1     -11.524  13.728  70.295  1.00  0.00    -0.510 N  
HETATM   16  C   UNL     1     -12.283  14.323  69.291  1.00  0.00    -0.252 C  
HETATM   17  H   UNL     1     -10.776  14.258  70.742  1.00  0.00     0.000 HD 
HETATM   18  O   UNL     1     -13.141  15.166  69.505  1.00  0.00     0.314 OA 
HETATM   19  C   UNL     1     -11.885  13.969  67.902  1.00  0.00    -0.411 A  
HETATM   20  C   UNL     1     -11.542  12.635  67.620  1.00  0.00    -0.414 A  
HETATM   21  C   UNL     1     -11.010  12.294  66.386  1.00  0.00    -0.287 A  
HETATM   22  C   UNL     1     -10.902  13.240  65.357  1.00  0.00    -0.304 A  
HETATM   23  N   UNL     1     -10.648  10.970  66.472  1.00  0.00    -0.258 NA 
HETATM   24  H   UNL     1     -10.196  10.447  65.722  1.00  0.00     0.000 HD 
HETATM   25  C   UNL     1     -11.343  14.537  65.636  1.00  0.00    -0.336 A  
HETATM   26  C   UNL     1     -11.818  14.920  66.885  1.00  0.00    -0.202 A  
HETATM   27  F   UNL     1     -11.285  15.456  64.658  1.00  0.00    -0.381 F  
ENDBRANCH   8  11
ENDBRANCH   4   5
ENDBRANCH   2   4
TORSDOF 3
ENDMDL
MODEL      134
REMARK 921   NORMALIZED FREE ENERGY PREDICTED BY IDOCK:   -3.61 KCAL/MOL
REMARK 922        TOTAL FREE ENERGY PREDICTED BY IDOCK:   -4.62 KCAL/MOL
REMARK 923 INTER-LIGAND FREE ENERGY PREDICTED BY IDOCK:   -4.40 KCAL/MOL
REMARK 924 INTRA-LIGAND FREE ENERGY PREDICTED BY IDOCK:   -0.22 KCAL/MOL
REMARK 927      BINDING AFFINITY PREDICTED BY RF-SCORE:    0.00 PKD
ROOT
HETATM    1  C   UNL     1      -9.038   3.948  64.667  1.00  0.00    -0.137 C  
HETATM    2  N   UNL     1      -8.840   3.587  66.062  1.00  0.00    -0.123 NA 
HETATM    3  H   UNL     1      -8.013   4.040  66.454  1.00  0.00     0.000 HD 
ENDROOT
BRANCH   2   4
HETATM    4  C   UNL     1     -10.035   3.871  66.854  1.00  0.00     0.066 C  
BRANCH   4   5
HETATM    5  C   UNL     1     -10.077   5.321  67.276  1.00  0.00    -0.234 A  
HETATM    6  C   UNL     1      -9.849   5.714  68.604  1.00  0.00    -0.190 A  
HETATM    7  C   UNL     1      -9.919   7.066  68.980  1.00  0.00    -0.164 A  
HETATM    8  C   UNL     1     -10.222   8.053  68.034  1.00  0.00    -0.260 A  
HETATM    9  C   UNL     1     -10.448   7.650  66.711  1.00  0.00    -0.319 A  
HETATM   10  C   UNL     1     -10.368   6.309  66.332  1.00  0.00    -0.072 A  
BRANCH   8  11
HETATM   11  C   UNL     1     -10.354   9.475  68.384  1.00  0.00    -0.206 A  
HETATM   12  C   UNL     1      -9.392  10.467  68.519  1.00  0.00    -0.160 A  
HETATM   13  C   UNL     1      -7.897  10.391  68.582  1.00  0.00    -0.108 C  
HETATM   14  C   UNL     1      -7.236  11.106  67.398  1.00  0.00    -0.107 C  
HETATM   15  N   UNL     1      -7.671  12.487  67.144  1.00  0.00    -0.313 N  
HETATM   16  C   UNL     1      -8.167  13.279  68.177  1.00  0.00    -0.160 C  
HETATM   17  H   UNL     1      -7.609  12.870  66.201  1.00  0.00     0.000 HD 
HETATM   18  O   UNL     1      -7.533  14.188  68.693  1.00  0.00    -0.114 OA 
HETATM   19  C   UNL     1      -9.593  13.044  68.528  1.00  0.00    -0.113 A  
HETATM   20  C   UNL     1     -10.065  11.719  68.571  1.00  0.00    -0.212 A  
HETATM   21  C   UNL     1     -11.417  11.462  68.731  1.00  0.00    -0.290 A  
HETATM   22  C   UNL     1     -12.330  12.501  68.964  1.00  0.00     0.167 A  
HETATM   23  N   UNL     1     -11.575  10.104  68.586  1.00  0.00    -0.532 NA 
HETATM   24  H   UNL     1     -12.472   9.621  68.621  1.00  0.00     0.000 HD 
HETATM   25  C   UNL     1     -11.816  13.801  69.013  1.00  0.00    -0.357 A  
HETATM   26  C   UNL     1     -10.475  14.091  68.789  1.00  0.00    -0.238 A  
HETATM   27  F   UNL     1     -12.661  14.813  69.269  1.00  0.00    -0.227 F  
ENDBRANCH   8  11
ENDBRANCH   4   5
ENDBRANCH   2   4
TORSDOF 3
ENDMDL
MODEL      135
REMARK 921   NORMALIZED FREE ENERGY PREDICTED BY IDOCK:   -3.58 KCAL/MOL
REMARK 922        TOTAL FREE ENERGY PREDICTED BY IDOCK:   -4.59 KCAL/MOL
REMARK 923 INTER-LIGAND FREE ENERGY PREDICTED BY IDOCK:   -4.35 KCAL/MOL
REMARK 924 INTRA-LIGAND FREE ENERGY PREDICTED BY IDOCK:   -0.24 KCAL/MOL
REMARK 927      BINDING AFFINITY PREDICTED BY RF-SCORE:    0.00 PKD
ROOT
HETATM    1  C   UNL     1      -8.374  16.883  67.101  1.00  0.00    -0.193 C  
HETATM    2  N   UNL     1      -9.724  16.812  67.639  1.00  0.00    -0.248 NA 
HETATM    3  H   UNL     1     -10.112  17.740  67.806  1.00  0.00     0.000 HD 
ENDROOT
BRANCH   2   4
HETATM    4  C   UNL     1     -10.592  16.012  66.776  1.00  0.00    -0.297 C  
BRANCH   4   5
HETATM    5  C   UNL     1     -10.207  14.552  66.820  1.00  0.00    -0.266 A  
HETATM    6  C   UNL     1      -9.828  13.921  68.015  1.00  0.00    -0.234 A  
HETATM    7  C   UNL     1      -9.448  12.569  68.029  1.00  0.00    -0.209 A  
HETATM    8  C   UNL     1      -9.437  11.820  66.846  1.00  0.00    -0.200 A  
HETATM    9  C   UNL     1      -9.818  12.460  65.659  1.00  0.00    -0.235 A  
HETATM   10  C   UNL     1     -10.206  13.800  65.643  1.00  0.00    -0.326 A  
BRANCH   8  11
HETATM   11  C   UNL     1      -9.003  10.416  66.798  1.00  0.00    -0.140 A  
HETATM   12  C   UNL     1      -9.038   9.424  67.769  1.00  0.00    -0.134 A  
HETATM   13  C   UNL     1      -9.307   9.492  69.241  1.00  0.00    -0.171 C  
HETATM   14  C   UNL     1     -10.573   8.721  69.630  1.00  0.00    -0.219 C  
HETATM   15  N   UNL     1     -10.662   7.332  69.153  1.00  0.00    -0.308 N  
HETATM   16  C   UNL     1      -9.512   6.591  68.898  1.00  0.00    -0.129 C  
HETATM   17  H   UNL     1     -11.578   6.907  69.008  1.00  0.00     0.000 HD 
HETATM   18  O   UNL     1      -9.107   5.702  69.632  1.00  0.00    -0.127 OA 
HETATM   19  C   UNL     1      -8.868   6.852  67.583  1.00  0.00    -0.118 A  
HETATM   20  C   UNL     1      -8.783   8.180  67.128  1.00  0.00    -0.130 A  
HETATM   21  C   UNL     1      -8.342   8.454  65.842  1.00  0.00    -0.134 A  
HETATM   22  C   UNL     1      -7.869   7.433  65.006  1.00  0.00    -0.124 A  
HETATM   23  N   UNL     1      -8.511   9.806  65.653  1.00  0.00    -0.134 NA 
HETATM   24  H   UNL     1      -8.302  10.296  64.784  1.00  0.00     0.000 HD 
HETATM   25  C   UNL     1      -7.875   6.133  65.522  1.00  0.00    -0.103 A  
HETATM   26  C   UNL     1      -8.373   5.824  66.782  1.00  0.00    -0.109 A  
HETATM   27  F   UNL     1      -7.395   5.140  64.757  1.00  0.00    -0.061 F  
ENDBRANCH   8  11
ENDBRANCH   4   5
ENDBRANCH   2   4
TORSDOF 3
ENDMDL
MODEL      136
REMARK 921   NORMALIZED FREE ENERGY PREDICTED BY IDOCK:   -3.49 KCAL/MOL
REMARK 922        TOTAL FREE ENERGY PREDICTED BY IDOCK:   -4.48 KCAL/MOL
REMARK 923 INTER-LIGAND FREE ENERGY PREDICTED BY IDOCK:   -3.93 KCAL/MOL
REMARK 924 INTRA-LIGAND FREE ENERGY PREDICTED BY IDOCK:   -0.56 KCAL/MOL
REMARK 927      BINDING AFFINITY PREDICTED BY RF-SCORE:    0.00 PKD
ROOT
HETATM    1  C   UNL     1     -10.602   4.464  74.277  1.00  0.00    -0.258 C  
HETATM    2  N   UNL     1     -11.521   5.231  73.449  1.00  0.00    -0.497 NA 
HETATM    3  H   UNL     1     -12.469   5.213  73.824  1.00  0.00     0.000 HD 
ENDROOT
BRANCH   2   4
HETATM    4  C   UNL     1     -11.041   6.599  73.261  1.00  0.00    -0.120 C  
BRANCH   4   5
HETATM    5  C   UNL     1     -10.453   6.784  71.882  1.00  0.00    -0.221 A  
HETATM    6  C   UNL     1      -9.066   6.792  71.663  1.00  0.00    -0.144 A  
HETATM    7  C   UNL     1      -8.539   6.992  70.376  1.00  0.00    -0.142 A  
HETATM    8  C   UNL     1      -9.389   7.194  69.282  1.00  0.00    -0.146 A  
HETATM    9  C   UNL     1     -10.771   7.185  69.512  1.00  0.00    -0.255 A  
HETATM   10  C   UNL     1     -11.299   6.974  70.787  1.00  0.00    -0.339 A  
BRANCH   8  11
HETATM   11  C   UNL     1      -8.889   7.456  67.924  1.00  0.00    -0.132 A  
HETATM   12  C   UNL     1      -8.399   6.588  66.957  1.00  0.00    -0.113 A  
HETATM   13  C   UNL     1      -8.000   5.146  67.035  1.00  0.00    -0.100 C  
HETATM   14  C   UNL     1      -8.887   4.256  66.157  1.00  0.00    -0.116 C  
HETATM   15  N   UNL     1      -9.044   4.673  64.756  1.00  0.00    -0.156 N  
HETATM   16  C   UNL     1      -8.058   5.422  64.120  1.00  0.00    -0.123 C  
HETATM   17  H   UNL     1      -9.886   4.409  64.243  1.00  0.00     0.000 HD 
HETATM   18  O   UNL     1      -7.289   4.958  63.291  1.00  0.00    -0.047 OA 
HETATM   19  C   UNL     1      -8.085   6.881  64.409  1.00  0.00    -0.052 A  
HETATM   20  C   UNL     1      -8.334   7.300  65.728  1.00  0.00    -0.140 A  
HETATM   21  C   UNL     1      -8.531   8.643  66.011  1.00  0.00    -0.141 A  
HETATM   22  C   UNL     1      -8.379   9.622  65.019  1.00  0.00    -0.146 A  
HETATM   23  N   UNL     1      -8.894   8.712  67.336  1.00  0.00    -0.133 NA 
HETATM   24  H   UNL     1      -9.135   9.575  67.822  1.00  0.00     0.000 HD 
HETATM   25  C   UNL     1      -8.033   9.182  63.737  1.00  0.00    -0.146 A  
HETATM   26  C   UNL     1      -7.896   7.837  63.413  1.00  0.00    -0.131 A  
HETATM   27  F   UNL     1      -7.846  10.100  62.775  1.00  0.00    -0.127 F  
ENDBRANCH   8  11
ENDBRANCH   4   5
ENDBRANCH   2   4
TORSDOF 3
ENDMDL
MODEL      137
REMARK 921   NORMALIZED FREE ENERGY PREDICTED BY IDOCK:   -3.45 KCAL/MOL
REMARK 922        TOTAL FREE ENERGY PREDICTED BY IDOCK:   -4.45 KCAL/MOL
REMARK 923 INTER-LIGAND FREE ENERGY PREDICTED BY IDOCK:   -4.41 KCAL/MOL
REMARK 924 INTRA-LIGAND FREE ENERGY PREDICTED BY IDOCK:   -0.04 KCAL/MOL
REMARK 927      BINDING AFFINITY PREDICTED BY RF-SCORE:    0.00 PKD
ROOT
HETATM    1  C   UNL     1     -12.472  12.983  62.880  1.00  0.00     0.455 C  
HETATM    2  N   UNL     1     -12.286  13.920  63.978  1.00  0.00    -0.718 NA 
HETATM    3  H   UNL     1     -13.030  13.839  64.672  1.00  0.00     0.000 HD 
ENDROOT
BRANCH   2   4
HETATM    4  C   UNL     1     -10.965  13.763  64.584  1.00  0.00    -0.400 C  
BRANCH   4   5
HETATM    5  C   UNL     1     -10.755  12.349  65.072  1.00  0.00    -0.329 A  
HETATM    6  C   UNL     1     -11.296  11.896  66.285  1.00  0.00    -0.394 A  
HETATM    7  C   UNL     1     -11.066  10.585  66.734  1.00  0.00    -0.061 A  
HETATM    8  C   UNL     1     -10.285   9.701  65.979  1.00  0.00    -0.255 A  
HETATM    9  C   UNL     1      -9.749  10.164  64.770  1.00  0.00    -0.389 A  
HETATM   10  C   UNL     1      -9.985  11.462  64.316  1.00  0.00    -0.329 A  
BRANCH   8  11
HETATM   11  C   UNL     1      -9.974   8.335  66.426  1.00  0.00    -0.194 A  
HETATM   12  C   UNL     1      -8.861   7.538  66.193  1.00  0.00    -0.185 A  
HETATM   13  C   UNL     1      -7.717   7.694  65.238  1.00  0.00    -0.110 C  
HETATM   14  C   UNL     1      -6.380   7.860  65.967  1.00  0.00    -0.045 C  
HETATM   15  N   UNL     1      -6.064   6.850  66.989  1.00  0.00    -0.034 N  
HETATM   16  C   UNL     1      -6.597   5.567  66.911  1.00  0.00    -0.056 C  
HETATM   17  H   UNL     1      -5.447   7.093  67.763  1.00  0.00     0.000 HD 
HETATM   18  O   UNL     1      -5.950   4.587  66.573  1.00  0.00    -0.025 OA 
HETATM   19  C   UNL     1      -7.993   5.429  67.407  1.00  0.00    -0.101 A  
HETATM   20  C   UNL     1      -8.923   6.434  67.088  1.00  0.00    -0.109 A  
HETATM   21  C   UNL     1     -10.184   6.431  67.664  1.00  0.00    -0.169 A  
HETATM   22  C   UNL     1     -10.602   5.375  68.486  1.00  0.00    -0.153 A  
HETATM   23  N   UNL     1     -10.792   7.602  67.275  1.00  0.00    -0.533 NA 
HETATM   24  H   UNL     1     -11.722   7.894  67.571  1.00  0.00     0.000 HD 
HETATM   25  C   UNL     1      -9.689   4.339  68.706  1.00  0.00    -0.114 A  
HETATM   26  C   UNL     1      -8.396   4.352  68.195  1.00  0.00    -0.096 A  
HETATM   27  F   UNL     1     -10.074   3.297  69.460  1.00  0.00    -0.066 F  
ENDBRANCH   8  11
ENDBRANCH   4   5
ENDBRANCH   2   4
TORSDOF 3
ENDMDL
MODEL      138
REMARK 921   NORMALIZED FREE ENERGY PREDICTED BY IDOCK:   -3.42 KCAL/MOL
REMARK 922        TOTAL FREE ENERGY PREDICTED BY IDOCK:   -4.41 KCAL/MOL
REMARK 923 INTER-LIGAND FREE ENERGY PREDICTED BY IDOCK:   -3.87 KCAL/MOL
REMARK 924 INTRA-LIGAND FREE ENERGY PREDICTED BY IDOCK:   -0.53 KCAL/MOL
REMARK 927      BINDING AFFINITY PREDICTED BY RF-SCORE:    0.00 PKD
ROOT
HETATM    1  C   UNL     1      -8.960   3.618  62.730  1.00  0.00    -0.096 C  
HETATM    2  N   UNL     1      -8.140   4.520  63.524  1.00  0.00    -0.088 NA 
HETATM    3  H   UNL     1      -7.997   5.413  63.052  1.00  0.00     0.000 HD 
ENDROOT
BRANCH   2   4
HETATM    4  C   UNL     1      -8.702   4.701  64.861  1.00  0.00    -0.145 C  
BRANCH   4   5
HETATM    5  C   UNL     1      -8.728   6.162  65.247  1.00  0.00    -0.033 A  
HETATM    6  C   UNL     1      -8.301   7.168  64.367  1.00  0.00     0.109 A  
HETATM    7  C   UNL     1      -8.308   8.519  64.756  1.00  0.00    -0.163 A  
HETATM    8  C   UNL     1      -8.739   8.888  66.036  1.00  0.00    -0.185 A  
HETATM    9  C   UNL     1      -9.162   7.875  66.906  1.00  0.00    -0.191 A  
HETATM   10  C   UNL     1      -9.167   6.534  66.519  1.00  0.00    -0.179 A  
BRANCH   8  11
HETATM   11  C   UNL     1      -8.721  10.281  66.509  1.00  0.00    -0.131 A  
HETATM   12  C   UNL     1      -9.741  11.078  67.013  1.00  0.00    -0.208 A  
HETATM   13  C   UNL     1     -11.226  10.886  67.035  1.00  0.00    -0.211 C  
HETATM   14  C   UNL     1     -11.770  10.777  68.463  1.00  0.00    -0.189 C  
HETATM   15  N   UNL     1     -11.375  11.844  69.395  1.00  0.00    -0.342 N  
HETATM   16  C   UNL     1     -11.051  13.114  68.926  1.00  0.00    -0.266 C  
HETATM   17  H   UNL     1     -11.338  11.651  70.395  1.00  0.00     0.000 HD 
HETATM   18  O   UNL     1     -11.788  14.082  69.040  1.00  0.00    -0.312 OA 
HETATM   19  C   UNL     1      -9.670  13.261  68.394  1.00  0.00    -0.198 A  
HETATM   20  C   UNL     1      -9.142  12.227  67.600  1.00  0.00    -0.184 A  
HETATM   21  C   UNL     1      -7.809  12.245  67.221  1.00  0.00    -0.171 A  
HETATM   22  C   UNL     1      -6.985  13.338  67.523  1.00  0.00    -0.152 A  
HETATM   23  N   UNL     1      -7.568  11.047  66.589  1.00  0.00    -0.141 NA 
HETATM   24  H   UNL     1      -6.660  10.760  66.227  1.00  0.00     0.000 HD 
HETATM   25  C   UNL     1      -7.564  14.397  68.230  1.00  0.00    -0.124 A  
HETATM   26  C   UNL     1      -8.880  14.373  68.679  1.00  0.00    -0.167 A  
HETATM   27  F   UNL     1      -6.809  15.473  68.503  1.00  0.00    -0.106 F  
ENDBRANCH   8  11
ENDBRANCH   4   5
ENDBRANCH   2   4
TORSDOF 3
ENDMDL
MODEL      139
REMARK 921   NORMALIZED FREE ENERGY PREDICTED BY IDOCK:   -3.32 KCAL/MOL
REMARK 922        TOTAL FREE ENERGY PREDICTED BY IDOCK:   -4.29 KCAL/MOL
REMARK 923 INTER-LIGAND FREE ENERGY PREDICTED BY IDOCK:   -3.81 KCAL/MOL
REMARK 924 INTRA-LIGAND FREE ENERGY PREDICTED BY IDOCK:   -0.48 KCAL/MOL
REMARK 927      BINDING AFFINITY PREDICTED BY RF-SCORE:    0.00 PKD
ROOT
HETATM    1  C   UNL     1     -11.235   1.736  74.043  1.00  0.00    -0.137 C  
HETATM    2  N   UNL     1     -10.523   2.788  73.335  1.00  0.00    -0.135 NA 
HETATM    3  H   UNL     1     -10.279   2.505  72.385  1.00  0.00     0.000 HD 
ENDROOT
BRANCH   2   4
HETATM    4  C   UNL     1     -11.283   4.036  73.346  1.00  0.00    -0.217 C  
BRANCH   4   5
HETATM    5  C   UNL     1     -10.685   5.046  72.394  1.00  0.00    -0.262 A  
HETATM    6  C   UNL     1      -9.320   5.041  72.069  1.00  0.00    -0.168 A  
HETATM    7  C   UNL     1      -8.779   6.005  71.203  1.00  0.00    -0.132 A  
HETATM    8  C   UNL     1      -9.594   6.999  70.647  1.00  0.00    -0.165 A  
HETATM    9  C   UNL     1     -10.956   6.995  70.978  1.00  0.00    -0.279 A  
HETATM   10  C   UNL     1     -11.498   6.032  71.829  1.00  0.00    -0.314 A  
BRANCH   8  11
HETATM   11  C   UNL     1      -9.070   8.060  69.773  1.00  0.00    -0.149 A  
HETATM   12  C   UNL     1      -8.386   7.983  68.567  1.00  0.00    -0.127 A  
HETATM   13  C   UNL     1      -7.752   6.823  67.863  1.00  0.00    -0.112 C  
HETATM   14  C   UNL     1      -8.424   6.531  66.516  1.00  0.00    -0.120 C  
HETATM   15  N   UNL     1      -8.571   7.672  65.600  1.00  0.00    -0.219 N  
HETATM   16  C   UNL     1      -7.693   8.750  65.659  1.00  0.00    -0.091 C  
HETATM   17  H   UNL     1      -9.325   7.672  64.914  1.00  0.00     0.000 HD 
HETATM   18  O   UNL     1      -6.811   8.947  64.836  1.00  0.00    -0.072 OA 
HETATM   19  C   UNL     1      -7.984   9.748  66.723  1.00  0.00    -0.105 A  
HETATM   20  C   UNL     1      -8.375   9.284  67.991  1.00  0.00    -0.120 A  
HETATM   21  C   UNL     1      -8.813  10.174  68.959  1.00  0.00    -0.166 A  
HETATM   22  C   UNL     1      -8.775  11.558  68.741  1.00  0.00    -0.048 A  
HETATM   23  N   UNL     1      -9.256   9.413  70.016  1.00  0.00    -0.202 NA 
HETATM   24  H   UNL     1      -9.668   9.793  70.867  1.00  0.00     0.000 HD 
HETATM   25  C   UNL     1      -8.288  11.995  67.505  1.00  0.00    -0.166 A  
HETATM   26  C   UNL     1      -7.906  11.121  66.493  1.00  0.00    -0.151 A  
HETATM   27  F   UNL     1      -8.206  13.316  67.280  1.00  0.00    -0.157 F  
ENDBRANCH   8  11
ENDBRANCH   4   5
ENDBRANCH   2   4
TORSDOF 3
ENDMDL
MODEL      140
REMARK 921   NORMALIZED FREE ENERGY PREDICTED BY IDOCK:   -3.28 KCAL/MOL
REMARK 922        TOTAL FREE ENERGY PREDICTED BY IDOCK:   -4.25 KCAL/MOL
REMARK 923 INTER-LIGAND FREE ENERGY PREDICTED BY IDOCK:   -3.90 KCAL/MOL
REMARK 924 INTRA-LIGAND FREE ENERGY PREDICTED BY IDOCK:   -0.34 KCAL/MOL
REMARK 927      BINDING AFFINITY PREDICTED BY RF-SCORE:    0.00 PKD
ROOT
HETATM    1  C   UNL     1      -7.261   5.923  68.167  1.00  0.00    -0.079 C  
HETATM    2  N   UNL     1      -7.644   7.323  68.267  1.00  0.00    -0.115 NA 
HETATM    3  H   UNL     1      -8.327   7.474  69.009  1.00  0.00     0.000 HD 
ENDROOT
BRANCH   2   4
HETATM    4  C   UNL     1      -6.470   8.178  68.433  1.00  0.00    -0.058 C  
BRANCH   4   5
HETATM    5  C   UNL     1      -6.852   9.639  68.400  1.00  0.00    -0.061 A  
HETATM    6  C   UNL     1      -6.497  10.522  69.432  1.00  0.00    -0.062 A  
HETATM    7  C   UNL     1      -6.885  11.871  69.395  1.00  0.00    -0.048 A  
HETATM    8  C   UNL     1      -7.642  12.365  68.325  1.00  0.00    -0.131 A  
HETATM    9  C   UNL     1      -7.991  11.475  67.300  1.00  0.00    -0.153 A  
HETATM   10  C   UNL     1      -7.597  10.137  67.328  1.00  0.00    -0.095 A  
BRANCH   8  11
HETATM   11  C   UNL     1      -8.115  13.756  68.260  1.00  0.00    -0.150 A  
HETATM   12  C   UNL     1      -7.518  14.935  68.687  1.00  0.00    -0.124 A  
HETATM   13  C   UNL     1      -6.318  15.179  69.550  1.00  0.00    -0.139 C  
HETATM   14  C   UNL     1      -5.198  15.895  68.787  1.00  0.00    -0.104 C  
HETATM   15  N   UNL     1      -5.577  17.123  68.072  1.00  0.00    -0.118 N  
HETATM   16  C   UNL     1      -6.655  17.892  68.501  1.00  0.00    -0.215 C  
HETATM   17  H   UNL     1      -5.044  17.414  67.253  1.00  0.00     0.000 HD 
HETATM   18  O   UNL     1      -6.532  18.960  69.083  1.00  0.00    -0.269 OA 
HETATM   19  C   UNL     1      -7.994  17.401  68.077  1.00  0.00    -0.224 A  
HETATM   20  C   UNL     1      -8.248  16.018  68.124  1.00  0.00    -0.152 A  
HETATM   21  C   UNL     1      -9.416  15.502  67.587  1.00  0.00    -0.208 A  
HETATM   22  C   UNL     1     -10.418  16.346  67.086  1.00  0.00    -0.297 A  
HETATM   23  N   UNL     1      -9.303  14.133  67.652  1.00  0.00    -0.203 NA 
HETATM   24  H   UNL     1     -10.002  13.480  67.299  1.00  0.00     0.000 HD 
HETATM   25  C   UNL     1     -10.179  17.722  67.143  1.00  0.00    -0.353 A  
HETATM   26  C   UNL     1      -8.987  18.262  67.615  1.00  0.00    -0.271 A  
HETATM   27  F   UNL     1     -11.135  18.556  66.703  1.00  0.00    -0.275 F  
ENDBRANCH   8  11
ENDBRANCH   4   5
ENDBRANCH   2   4
TORSDOF 3
ENDMDL
MODEL      141
REMARK 921   NORMALIZED FREE ENERGY PREDICTED BY IDOCK:   -3.22 KCAL/MOL
REMARK 922        TOTAL FREE ENERGY PREDICTED BY IDOCK:   -4.17 KCAL/MOL
REMARK 923 INTER-LIGAND FREE ENERGY PREDICTED BY IDOCK:   -3.61 KCAL/MOL
REMARK 924 INTRA-LIGAND FREE ENERGY PREDICTED BY IDOCK:   -0.56 KCAL/MOL
REMARK 927      BINDING AFFINITY PREDICTED BY RF-SCORE:    0.00 PKD
ROOT
HETATM    1  C   UNL     1     -11.233  16.353  68.542  1.00  0.00    -0.334 C  
HETATM    2  N   UNL     1     -10.505  15.235  69.122  1.00  0.00    -0.236 NA 
HETATM    3  H   UNL     1     -11.039  14.367  69.062  1.00  0.00     0.000 HD 
ENDROOT
BRANCH   2   4
HETATM    4  C   UNL     1      -9.183  15.096  68.513  1.00  0.00    -0.192 C  
BRANCH   4   5
HETATM    5  C   UNL     1      -8.989  13.711  67.942  1.00  0.00    -0.195 A  
HETATM    6  C   UNL     1     -10.068  12.840  67.726  1.00  0.00    -0.224 A  
HETATM    7  C   UNL     1      -9.863  11.547  67.219  1.00  0.00    -0.208 A  
HETATM    8  C   UNL     1      -8.571  11.097  66.920  1.00  0.00    -0.148 A  
HETATM    9  C   UNL     1      -7.501  11.974  67.139  1.00  0.00    -0.138 A  
HETATM   10  C   UNL     1      -7.703  13.263  67.633  1.00  0.00    -0.171 A  
BRANCH   8  11
HETATM   11  C   UNL     1      -8.296   9.736  66.432  1.00  0.00    -0.120 A  
HETATM   12  C   UNL     1      -8.290   8.520  67.101  1.00  0.00    -0.111 A  
HETATM   13  C   UNL     1      -8.330   8.195  68.563  1.00  0.00    -0.126 C  
HETATM   14  C   UNL     1      -9.598   7.424  68.945  1.00  0.00    -0.148 C  
HETATM   15  N   UNL     1      -9.900   6.228  68.144  1.00  0.00    -0.125 N  
HETATM   16  C   UNL     1      -8.882   5.519  67.512  1.00  0.00    -0.105 C  
HETATM   17  H   UNL     1     -10.865   5.915  68.051  1.00  0.00     0.000 HD 
HETATM   18  O   UNL     1      -8.467   4.439  67.907  1.00  0.00    -0.097 OA 
HETATM   19  C   UNL     1      -8.416   6.093  66.221  1.00  0.00    -0.132 A  
HETATM   20  C   UNL     1      -8.262   7.487  66.123  1.00  0.00    -0.125 A  
HETATM   21  C   UNL     1      -7.990   8.077  64.898  1.00  0.00    -0.138 A  
HETATM   22  C   UNL     1      -7.753   7.300  63.756  1.00  0.00    -0.120 A  
HETATM   23  N   UNL     1      -8.044   9.437  65.101  1.00  0.00    -0.121 NA 
HETATM   24  H   UNL     1      -7.916  10.134  64.369  1.00  0.00     0.000 HD 
HETATM   25  C   UNL     1      -7.817   5.911  63.906  1.00  0.00    -0.119 A  
HETATM   26  C   UNL     1      -8.153   5.297  65.108  1.00  0.00    -0.122 A  
HETATM   27  F   UNL     1      -7.560   5.140  62.838  1.00  0.00    -0.053 F  
ENDBRANCH   8  11
ENDBRANCH   4   5
ENDBRANCH   2   4
TORSDOF 3
ENDMDL
MODEL      142
REMARK 921   NORMALIZED FREE ENERGY PREDICTED BY IDOCK:   -3.22 KCAL/MOL
REMARK 922        TOTAL FREE ENERGY PREDICTED BY IDOCK:   -4.17 KCAL/MOL
REMARK 923 INTER-LIGAND FREE ENERGY PREDICTED BY IDOCK:   -3.73 KCAL/MOL
REMARK 924 INTRA-LIGAND FREE ENERGY PREDICTED BY IDOCK:   -0.44 KCAL/MOL
REMARK 927      BINDING AFFINITY PREDICTED BY RF-SCORE:    0.00 PKD
ROOT
HETATM    1  C   UNL     1     -14.380  15.189  70.644  1.00  0.00     0.514 C  
HETATM    2  N   UNL     1     -13.071  14.830  71.169  1.00  0.00    -0.361 NA 
HETATM    3  H   UNL     1     -13.058  13.874  71.526  1.00  0.00     0.000 HD 
ENDROOT
BRANCH   2   4
HETATM    4  C   UNL     1     -12.027  15.046  70.170  1.00  0.00    -0.320 C  
BRANCH   4   5
HETATM    5  C   UNL     1     -11.567  13.737  69.571  1.00  0.00    -0.355 A  
HETATM    6  C   UNL     1     -11.581  12.541  70.305  1.00  0.00    -0.052 A  
HETATM    7  C   UNL     1     -11.124  11.340  69.737  1.00  0.00    -0.238 A  
HETATM    8  C   UNL     1     -10.641  11.312  68.423  1.00  0.00    -0.226 A  
HETATM    9  C   UNL     1     -10.632  12.512  67.700  1.00  0.00    -0.234 A  
HETATM   10  C   UNL     1     -11.095  13.705  68.257  1.00  0.00    -0.281 A  
BRANCH   8  11
HETATM   11  C   UNL     1     -10.107  10.092  67.798  1.00  0.00    -0.180 A  
HETATM   12  C   UNL     1      -8.891   9.855  67.171  1.00  0.00    -0.146 A  
HETATM   13  C   UNL     1      -7.815  10.792  66.715  1.00  0.00    -0.135 C  
HETATM   14  C   UNL     1      -6.498  10.562  67.465  1.00  0.00    -0.058 C  
HETATM   15  N   UNL     1      -5.998   9.179  67.495  1.00  0.00    -0.049 N  
HETATM   16  C   UNL     1      -6.327   8.280  66.484  1.00  0.00    -0.054 C  
HETATM   17  H   UNL     1      -5.403   8.875  68.265  1.00  0.00     0.000 HD 
HETATM   18  O   UNL     1      -5.545   7.930  65.613  1.00  0.00    -0.035 OA 
HETATM   19  C   UNL     1      -7.668   7.649  66.608  1.00  0.00    -0.098 A  
HETATM   20  C   UNL     1      -8.753   8.448  67.012  1.00  0.00    -0.132 A  
HETATM   21  C   UNL     1      -9.980   7.871  67.299  1.00  0.00    -0.215 A  
HETATM   22  C   UNL     1     -10.204   6.503  67.091  1.00  0.00    -0.257 A  
HETATM   23  N   UNL     1     -10.774   8.876  67.800  1.00  0.00    -0.453 NA 
HETATM   24  H   UNL     1     -11.730   8.745  68.130  1.00  0.00     0.000 HD 
HETATM   25  C   UNL     1      -9.134   5.751  66.594  1.00  0.00    -0.132 A  
HETATM   26  C   UNL     1      -7.875   6.293  66.362  1.00  0.00    -0.104 A  
HETATM   27  F   UNL     1      -9.329   4.445  66.351  1.00  0.00    -0.125 F  
ENDBRANCH   8  11
ENDBRANCH   4   5
ENDBRANCH   2   4
TORSDOF 3
ENDMDL
MODEL      143
REMARK 921   NORMALIZED FREE ENERGY PREDICTED BY IDOCK:   -3.18 KCAL/MOL
REMARK 922        TOTAL FREE ENERGY PREDICTED BY IDOCK:   -4.12 KCAL/MOL
REMARK 923 INTER-LIGAND FREE ENERGY PREDICTED BY IDOCK:   -3.58 KCAL/MOL
REMARK 924 INTRA-LIGAND FREE ENERGY PREDICTED BY IDOCK:   -0.54 KCAL/MOL
REMARK 927      BINDING AFFINITY PREDICTED BY RF-SCORE:    0.00 PKD
ROOT
HETATM    1  C   UNL     1      -5.364  14.256  73.484  1.00  0.00    -0.309 C  
HETATM    2  N   UNL     1      -6.082  13.927  72.263  1.00  0.00    -0.392 NA 
HETATM    3  H   UNL     1      -6.802  14.618  72.052  1.00  0.00     0.000 HD 
ENDROOT
BRANCH   2   4
HETATM    4  C   UNL     1      -5.160  13.749  71.143  1.00  0.00    -0.136 C  
BRANCH   4   5
HETATM    5  C   UNL     1      -5.578  12.587  70.273  1.00  0.00    -0.155 A  
HETATM    6  C   UNL     1      -6.271  12.775  69.067  1.00  0.00    -0.095 A  
HETATM    7  C   UNL     1      -6.674  11.679  68.285  1.00  0.00    -0.064 A  
HETATM    8  C   UNL     1      -6.394  10.371  68.698  1.00  0.00    -0.051 A  
HETATM    9  C   UNL     1      -5.702  10.194  69.904  1.00  0.00    -0.045 A  
HETATM   10  C   UNL     1      -5.291  11.281  70.676  1.00  0.00    -0.124 A  
BRANCH   8  11
HETATM   11  C   UNL     1      -6.835   9.188  67.943  1.00  0.00    -0.069 A  
HETATM   12  C   UNL     1      -7.981   8.414  68.063  1.00  0.00    -0.119 A  
HETATM   13  C   UNL     1      -9.036   8.368  69.125  1.00  0.00    -0.147 C  
HETATM   14  C   UNL     1     -10.410   8.786  68.589  1.00  0.00    -0.205 C  
HETATM   15  N   UNL     1     -10.872   8.099  67.374  1.00  0.00    -0.509 N  
HETATM   16  C   UNL     1     -10.428   6.816  67.068  1.00  0.00    -0.299 C  
HETATM   17  H   UNL     1     -11.527   8.568  66.749  1.00  0.00     0.000 HD 
HETATM   18  O   UNL     1     -11.117   5.815  67.198  1.00  0.00    -0.200 OA 
HETATM   19  C   UNL     1      -9.087   6.745  66.428  1.00  0.00    -0.175 A  
HETATM   20  C   UNL     1      -8.066   7.584  66.910  1.00  0.00    -0.116 A  
HETATM   21  C   UNL     1      -6.855   7.671  66.241  1.00  0.00    -0.062 A  
HETATM   22  C   UNL     1      -6.576   6.850  65.139  1.00  0.00    -0.046 A  
HETATM   23  N   UNL     1      -6.138   8.666  66.863  1.00  0.00    -0.057 NA 
HETATM   24  H   UNL     1      -5.214   8.979  66.569  1.00  0.00     0.000 HD 
HETATM   25  C   UNL     1      -7.575   5.955  64.742  1.00  0.00    -0.088 A  
HETATM   26  C   UNL     1      -8.822   5.896  65.355  1.00  0.00    -0.071 A  
HETATM   27  F   UNL     1      -7.323   5.132  63.712  1.00  0.00    -0.047 F  
ENDBRANCH   8  11
ENDBRANCH   4   5
ENDBRANCH   2   4
TORSDOF 3
ENDMDL
MODEL      144
REMARK 921   NORMALIZED FREE ENERGY PREDICTED BY IDOCK:   -3.17 KCAL/MOL
REMARK 922        TOTAL FREE ENERGY PREDICTED BY IDOCK:   -4.11 KCAL/MOL
REMARK 923 INTER-LIGAND FREE ENERGY PREDICTED BY IDOCK:   -3.91 KCAL/MOL
REMARK 924 INTRA-LIGAND FREE ENERGY PREDICTED BY IDOCK:   -0.20 KCAL/MOL
REMARK 927      BINDING AFFINITY PREDICTED BY RF-SCORE:    0.00 PKD
ROOT
HETATM    1  C   UNL     1     -12.480  13.107  64.369  1.00  0.00    -0.310 C  
HETATM    2  N   UNL     1     -11.518  13.056  65.459  1.00  0.00    -0.311 NA 
HETATM    3  H   UNL     1     -11.847  12.465  66.223  1.00  0.00     0.000 HD 
ENDROOT
BRANCH   2   4
HETATM    4  C   UNL     1     -10.203  12.636  64.980  1.00  0.00    -0.273 C  
BRANCH   4   5
HETATM    5  C   UNL     1      -9.704  11.431  65.744  1.00  0.00    -0.263 A  
HETATM    6  C   UNL     1      -8.976  10.407  65.120  1.00  0.00    -0.217 A  
HETATM    7  C   UNL     1      -8.544   9.283  65.843  1.00  0.00    -0.163 A  
HETATM    8  C   UNL     1      -8.837   9.159  67.207  1.00  0.00    -0.132 A  
HETATM    9  C   UNL     1      -9.565  10.188  67.820  1.00  0.00    -0.168 A  
HETATM   10  C   UNL     1      -9.985  11.311  67.107  1.00  0.00    -0.219 A  
BRANCH   8  11
HETATM   11  C   UNL     1      -8.451   7.982  67.999  1.00  0.00    -0.126 A  
HETATM   12  C   UNL     1      -8.781   7.618  69.298  1.00  0.00    -0.136 A  
HETATM   13  C   UNL     1      -9.440   8.386  70.403  1.00  0.00    -0.179 C  
HETATM   14  C   UNL     1     -10.787   7.775  70.802  1.00  0.00    -0.239 C  
HETATM   15  N   UNL     1     -10.788   6.336  71.104  1.00  0.00    -0.254 N  
HETATM   16  C   UNL     1      -9.635   5.705  71.565  1.00  0.00    -0.152 C  
HETATM   17  H   UNL     1     -11.642   5.794  70.976  1.00  0.00     0.000 HD 
HETATM   18  O   UNL     1      -9.474   5.359  72.726  1.00  0.00    -0.145 OA 
HETATM   19  C   UNL     1      -8.649   5.340  70.513  1.00  0.00    -0.125 A  
HETATM   20  C   UNL     1      -8.400   6.259  69.477  1.00  0.00    -0.118 A  
HETATM   21  C   UNL     1      -7.617   5.897  68.392  1.00  0.00    -0.090 A  
HETATM   22  C   UNL     1      -6.966   4.656  68.351  1.00  0.00    -0.056 A  
HETATM   23  N   UNL     1      -7.685   6.940  67.498  1.00  0.00    -0.109 NA 
HETATM   24  H   UNL     1      -7.231   6.946  66.586  1.00  0.00     0.000 HD 
HETATM   25  C   UNL     1      -7.153   3.801  69.442  1.00  0.00    -0.046 A  
HETATM   26  C   UNL     1      -7.987   4.114  70.510  1.00  0.00    -0.055 A  
HETATM   27  F   UNL     1      -6.514   2.620  69.447  1.00  0.00    -0.027 F  
ENDBRANCH   8  11
ENDBRANCH   4   5
ENDBRANCH   2   4
TORSDOF 3
ENDMDL
MODEL      145
REMARK 921   NORMALIZED FREE ENERGY PREDICTED BY IDOCK:   -3.16 KCAL/MOL
REMARK 922        TOTAL FREE ENERGY PREDICTED BY IDOCK:   -4.10 KCAL/MOL
REMARK 923 INTER-LIGAND FREE ENERGY PREDICTED BY IDOCK:   -3.61 KCAL/MOL
REMARK 924 INTRA-LIGAND FREE ENERGY PREDICTED BY IDOCK:   -0.49 KCAL/MOL
REMARK 927      BINDING AFFINITY PREDICTED BY RF-SCORE:    0.00 PKD
ROOT
HETATM    1  C   UNL     1      -6.438  18.764  65.858  1.00  0.00    -0.235 C  
HETATM    2  N   UNL     1      -6.219  17.357  66.155  1.00  0.00    -0.207 NA 
HETATM    3  H   UNL     1      -5.335  17.024  65.768  1.00  0.00     0.000 HD 
ENDROOT
BRANCH   2   4
HETATM    4  C   UNL     1      -6.306  17.103  67.591  1.00  0.00    -0.143 C  
BRANCH   4   5
HETATM    5  C   UNL     1      -6.792  15.699  67.868  1.00  0.00    -0.159 A  
HETATM    6  C   UNL     1      -6.079  14.818  68.694  1.00  0.00    -0.087 A  
HETATM    7  C   UNL     1      -6.534  13.507  68.917  1.00  0.00    -0.102 A  
HETATM    8  C   UNL     1      -7.712  13.051  68.313  1.00  0.00    -0.141 A  
HETATM    9  C   UNL     1      -8.417  13.940  67.489  1.00  0.00    -0.200 A  
HETATM   10  C   UNL     1      -7.973  15.245  67.275  1.00  0.00    -0.231 A  
BRANCH   8  11
HETATM   11  C   UNL     1      -8.208  11.676  68.474  1.00  0.00    -0.144 A  
HETATM   12  C   UNL     1      -8.382  10.663  67.541  1.00  0.00    -0.115 A  
HETATM   13  C   UNL     1      -8.350  10.681  66.043  1.00  0.00    -0.160 C  
HETATM   14  C   UNL     1      -7.206   9.830  65.483  1.00  0.00    -0.108 C  
HETATM   15  N   UNL     1      -7.115   8.449  65.982  1.00  0.00    -0.068 N  
HETATM   16  C   UNL     1      -8.248   7.782  66.440  1.00  0.00    -0.116 C  
HETATM   17  H   UNL     1      -6.213   7.976  65.993  1.00  0.00     0.000 HD 
HETATM   18  O   UNL     1      -8.813   6.901  65.809  1.00  0.00    -0.145 OA 
HETATM   19  C   UNL     1      -8.657   8.109  67.832  1.00  0.00    -0.132 A  
HETATM   20  C   UNL     1      -8.598   9.450  68.253  1.00  0.00    -0.120 A  
HETATM   21  C   UNL     1      -8.811   9.777  69.583  1.00  0.00    -0.211 A  
HETATM   22  C   UNL     1      -9.197   8.805  70.516  1.00  0.00    -0.218 A  
HETATM   23  N   UNL     1      -8.541  11.121  69.701  1.00  0.00    -0.110 NA 
HETATM   24  H   UNL     1      -8.582  11.642  70.576  1.00  0.00     0.000 HD 
HETATM   25  C   UNL     1      -9.344   7.495  70.047  1.00  0.00    -0.154 A  
HETATM   26  C   UNL     1      -9.072   7.130  68.733  1.00  0.00    -0.134 A  
HETATM   27  F   UNL     1      -9.747   6.549  70.909  1.00  0.00    -0.172 F  
ENDBRANCH   8  11
ENDBRANCH   4   5
ENDBRANCH   2   4
TORSDOF 3
ENDMDL
MODEL      146
REMARK 921   NORMALIZED FREE ENERGY PREDICTED BY IDOCK:   -3.15 KCAL/MOL
REMARK 922        TOTAL FREE ENERGY PREDICTED BY IDOCK:   -4.08 KCAL/MOL
REMARK 923 INTER-LIGAND FREE ENERGY PREDICTED BY IDOCK:   -3.63 KCAL/MOL
REMARK 924 INTRA-LIGAND FREE ENERGY PREDICTED BY IDOCK:   -0.45 KCAL/MOL
REMARK 927      BINDING AFFINITY PREDICTED BY RF-SCORE:    0.00 PKD
ROOT
HETATM    1  C   UNL     1      -5.201  14.093  72.788  1.00  0.00    -0.238 C  
HETATM    2  N   UNL     1      -6.130  13.866  71.691  1.00  0.00    -0.542 NA 
HETATM    3  H   UNL     1      -6.708  14.688  71.512  1.00  0.00     0.000 HD 
ENDROOT
BRANCH   2   4
HETATM    4  C   UNL     1      -5.426  13.430  70.487  1.00  0.00    -0.150 C  
BRANCH   4   5
HETATM    5  C   UNL     1      -5.939  12.091  70.012  1.00  0.00    -0.159 A  
HETATM    6  C   UNL     1      -6.939  11.986  69.033  1.00  0.00    -0.094 A  
HETATM    7  C   UNL     1      -7.421  10.731  68.624  1.00  0.00    -0.102 A  
HETATM    8  C   UNL     1      -6.914   9.555  69.190  1.00  0.00    -0.057 A  
HETATM    9  C   UNL     1      -5.915   9.672  70.166  1.00  0.00    -0.050 A  
HETATM   10  C   UNL     1      -5.427  10.916  70.566  1.00  0.00    -0.105 A  
BRANCH   8  11
HETATM   11  C   UNL     1      -7.416   8.220  68.832  1.00  0.00    -0.092 A  
HETATM   12  C   UNL     1      -7.953   7.213  69.625  1.00  0.00    -0.124 A  
HETATM   13  C   UNL     1      -7.994   7.043  71.113  1.00  0.00    -0.104 C  
HETATM   14  C   UNL     1      -9.429   7.053  71.652  1.00  0.00    -0.156 C  
HETATM   15  N   UNL     1     -10.376   6.135  71.001  1.00  0.00    -0.203 N  
HETATM   16  C   UNL     1      -9.930   4.969  70.386  1.00  0.00    -0.247 C  
HETATM   17  H   UNL     1     -11.372   6.356  71.002  1.00  0.00     0.000 HD 
HETATM   18  O   UNL     1     -10.076   3.855  70.867  1.00  0.00    -0.129 OA 
HETATM   19  C   UNL     1      -9.379   5.146  69.016  1.00  0.00    -0.166 A  
HETATM   20  C   UNL     1      -8.554   6.256  68.761  1.00  0.00    -0.122 A  
HETATM   21  C   UNL     1      -8.154   6.550  67.467  1.00  0.00    -0.121 A  
HETATM   22  C   UNL     1      -8.466   5.694  66.401  1.00  0.00    -0.121 A  
HETATM   23  N   UNL     1      -7.494   7.755  67.528  1.00  0.00    -0.095 NA 
HETATM   24  H   UNL     1      -7.111   8.243  66.719  1.00  0.00     0.000 HD 
HETATM   25  C   UNL     1      -9.205   4.545  66.701  1.00  0.00    -0.134 A  
HETATM   26  C   UNL     1      -9.674   4.263  67.979  1.00  0.00    -0.168 A  
HETATM   27  F   UNL     1      -9.488   3.689  65.706  1.00  0.00    -0.151 F  
ENDBRANCH   8  11
ENDBRANCH   4   5
ENDBRANCH   2   4
TORSDOF 3
ENDMDL
MODEL      147
REMARK 921   NORMALIZED FREE ENERGY PREDICTED BY IDOCK:   -3.08 KCAL/MOL
REMARK 922        TOTAL FREE ENERGY PREDICTED BY IDOCK:   -4.01 KCAL/MOL
REMARK 923 INTER-LIGAND FREE ENERGY PREDICTED BY IDOCK:   -3.49 KCAL/MOL
REMARK 924 INTRA-LIGAND FREE ENERGY PREDICTED BY IDOCK:   -0.52 KCAL/MOL
REMARK 927      BINDING AFFINITY PREDICTED BY RF-SCORE:    0.00 PKD
ROOT
HETATM    1  C   UNL     1      -5.586  13.776  71.569  1.00  0.00    -0.217 C  
HETATM    2  N   UNL     1      -6.358  13.017  70.597  1.00  0.00    -0.471 NA 
HETATM    3  H   UNL     1      -6.731  13.618  69.862  1.00  0.00     0.000 HD 
ENDROOT
BRANCH   2   4
HETATM    4  C   UNL     1      -5.571  11.916  70.044  1.00  0.00    -0.124 C  
BRANCH   4   5
HETATM    5  C   UNL     1      -6.295  10.599  70.198  1.00  0.00    -0.139 A  
HETATM    6  C   UNL     1      -7.547  10.368  69.607  1.00  0.00    -0.158 A  
HETATM    7  C   UNL     1      -8.216   9.145  69.785  1.00  0.00    -0.128 A  
HETATM    8  C   UNL     1      -7.646   8.129  70.561  1.00  0.00    -0.079 A  
HETATM    9  C   UNL     1      -6.396   8.370  71.147  1.00  0.00    -0.039 A  
HETATM   10  C   UNL     1      -5.724   9.580  70.963  1.00  0.00    -0.065 A  
BRANCH   8  11
HETATM   11  C   UNL     1      -8.324   6.850  70.818  1.00  0.00    -0.127 A  
HETATM   12  C   UNL     1      -8.630   5.800  69.962  1.00  0.00    -0.128 A  
HETATM   13  C   UNL     1      -8.588   5.699  68.468  1.00  0.00    -0.107 C  
HETATM   14  C   UNL     1      -7.567   4.660  67.991  1.00  0.00    -0.077 C  
HETATM   15  N   UNL     1      -7.667   3.323  68.595  1.00  0.00    -0.055 N  
HETATM   16  C   UNL     1      -8.882   2.852  69.085  1.00  0.00    -0.097 C  
HETATM   17  H   UNL     1      -6.837   2.734  68.655  1.00  0.00     0.000 HD 
HETATM   18  O   UNL     1      -9.558   2.010  68.513  1.00  0.00    -0.184 OA 
HETATM   19  C   UNL     1      -9.251   3.337  70.441  1.00  0.00    -0.218 A  
HETATM   20  C   UNL     1      -9.012   4.686  70.760  1.00  0.00    -0.166 A  
HETATM   21  C   UNL     1      -9.185   5.141  72.058  1.00  0.00    -0.137 A  
HETATM   22  C   UNL     1      -9.705   4.304  73.056  1.00  0.00    -0.164 A  
HETATM   23  N   UNL     1      -8.737   6.441  72.078  1.00  0.00    -0.134 NA 
HETATM   24  H   UNL     1      -8.710   7.029  72.911  1.00  0.00     0.000 HD 
HETATM   25  C   UNL     1     -10.026   2.994  72.685  1.00  0.00    -0.152 A  
HETATM   26  C   UNL     1      -9.799   2.495  71.407  1.00  0.00    -0.165 A  
HETATM   27  F   UNL     1     -10.559   2.180  73.610  1.00  0.00    -0.156 F  
ENDBRANCH   8  11
ENDBRANCH   4   5
ENDBRANCH   2   4
TORSDOF 3
ENDMDL
MODEL      148
REMARK 921   NORMALIZED FREE ENERGY PREDICTED BY IDOCK:   -2.74 KCAL/MOL
REMARK 922        TOTAL FREE ENERGY PREDICTED BY IDOCK:   -3.61 KCAL/MOL
REMARK 923 INTER-LIGAND FREE ENERGY PREDICTED BY IDOCK:   -3.07 KCAL/MOL
REMARK 924 INTRA-LIGAND FREE ENERGY PREDICTED BY IDOCK:   -0.54 KCAL/MOL
REMARK 927      BINDING AFFINITY PREDICTED BY RF-SCORE:    0.00 PKD
ROOT
HETATM    1  C   UNL     1      -5.472  13.945  72.728  1.00  0.00    -0.098 C  
HETATM    2  N   UNL     1      -6.119  13.683  71.452  1.00  0.00    -0.567 NA 
HETATM    3  H   UNL     1      -6.603  14.509  71.099  1.00  0.00     0.000 HD 
ENDROOT
BRANCH   2   4
HETATM    4  C   UNL     1      -5.164  13.161  70.476  1.00  0.00    -0.122 C  
BRANCH   4   5
HETATM    5  C   UNL     1      -5.558  11.776  70.016  1.00  0.00    -0.121 A  
HETATM    6  C   UNL     1      -5.941  11.516  68.691  1.00  0.00    -0.046 A  
HETATM    7  C   UNL     1      -6.330  10.227  68.291  1.00  0.00    -0.048 A  
HETATM    8  C   UNL     1      -6.346   9.171  69.210  1.00  0.00    -0.041 A  
HETATM    9  C   UNL     1      -5.962   9.442  70.531  1.00  0.00    -0.055 A  
HETATM   10  C   UNL     1      -5.565  10.719  70.929  1.00  0.00    -0.092 A  
BRANCH   8  11
HETATM   11  C   UNL     1      -6.789   7.815  68.855  1.00  0.00    -0.058 A  
HETATM   12  C   UNL     1      -8.008   7.359  68.370  1.00  0.00    -0.124 A  
HETATM   13  C   UNL     1      -9.342   8.033  68.259  1.00  0.00    -0.143 C  
HETATM   14  C   UNL     1      -9.790   8.181  66.801  1.00  0.00    -0.259 C  
HETATM   15  N   UNL     1      -9.760   6.961  65.982  1.00  0.00    -0.396 N  
HETATM   16  C   UNL     1      -9.891   5.705  66.569  1.00  0.00    -0.168 C  
HETATM   17  H   UNL     1      -9.642   7.034  64.972  1.00  0.00     0.000 HD 
HETATM   18  O   UNL     1     -10.909   5.032  66.500  1.00  0.00    -0.226 OA 
HETATM   19  C   UNL     1      -8.651   5.157  67.179  1.00  0.00    -0.105 A  
HETATM   20  C   UNL     1      -7.821   6.026  67.911  1.00  0.00    -0.105 A  
HETATM   21  C   UNL     1      -6.579   5.600  68.355  1.00  0.00    -0.052 A  
HETATM   22  C   UNL     1      -6.165   4.271  68.186  1.00  0.00    -0.036 A  
HETATM   23  N   UNL     1      -5.960   6.703  68.896  1.00  0.00    -0.021 NA 
HETATM   24  H   UNL     1      -5.015   6.704  69.278  1.00  0.00     0.000 HD 
HETATM   25  C   UNL     1      -7.054   3.405  67.541  1.00  0.00    -0.058 A  
HETATM   26  C   UNL     1      -8.276   3.823  67.027  1.00  0.00    -0.095 A  
HETATM   27  F   UNL     1      -6.700   2.118  67.396  1.00  0.00    -0.036 F  
ENDBRANCH   8  11
ENDBRANCH   4   5
ENDBRANCH   2   4
TORSDOF 3
ENDMDL
MODEL      149
REMARK 921   NORMALIZED FREE ENERGY PREDICTED BY IDOCK:   -2.63 KCAL/MOL
REMARK 922        TOTAL FREE ENERGY PREDICTED BY IDOCK:   -3.48 KCAL/MOL
REMARK 923 INTER-LIGAND FREE ENERGY PREDICTED BY IDOCK:   -3.02 KCAL/MOL
REMARK 924 INTRA-LIGAND FREE ENERGY PREDICTED BY IDOCK:   -0.46 KCAL/MOL
REMARK 927      BINDING AFFINITY PREDICTED BY RF-SCORE:    0.00 PKD
ROOT
HETATM    1  C   UNL     1      -9.922   2.059  72.143  1.00  0.00    -0.155 C  
HETATM    2  N   UNL     1      -8.679   1.489  71.647  1.00  0.00    -0.054 NA 
HETATM    3  H   UNL     1      -8.531   0.544  72.002  1.00  0.00     0.000 HD 
ENDROOT
BRANCH   2   4
HETATM    4  C   UNL     1      -8.628   1.530  70.187  1.00  0.00    -0.049 C  
BRANCH   4   5
HETATM    5  C   UNL     1      -8.510   2.951  69.685  1.00  0.00    -0.101 A  
HETATM    6  C   UNL     1      -7.337   3.702  69.857  1.00  0.00    -0.042 A  
HETATM    7  C   UNL     1      -7.257   5.030  69.407  1.00  0.00    -0.056 A  
HETATM    8  C   UNL     1      -8.353   5.636  68.779  1.00  0.00    -0.103 A  
HETATM    9  C   UNL     1      -9.519   4.876  68.613  1.00  0.00    -0.198 A  
HETATM   10  C   UNL     1      -9.597   3.553  69.049  1.00  0.00    -0.143 A  
BRANCH   8  11
HETATM   11  C   UNL     1      -8.339   7.037  68.332  1.00  0.00    -0.124 A  
HETATM   12  C   UNL     1      -7.803   7.617  67.190  1.00  0.00    -0.117 A  
HETATM   13  C   UNL     1      -6.873   7.074  66.149  1.00  0.00    -0.057 C  
HETATM   14  C   UNL     1      -7.533   7.007  64.767  1.00  0.00    -0.096 C  
HETATM   15  N   UNL     1      -8.174   8.242  64.291  1.00  0.00    -0.284 N  
HETATM   16  C   UNL     1      -7.740   9.488  64.736  1.00  0.00    -0.119 C  
HETATM   17  H   UNL     1      -8.945   8.185  63.627  1.00  0.00     0.000 HD 
HETATM   18  O   UNL     1      -7.078  10.255  64.052  1.00  0.00    -0.126 OA 
HETATM   19  C   UNL     1      -8.256   9.901  66.068  1.00  0.00    -0.119 A  
HETATM   20  C   UNL     1      -8.319   8.939  67.092  1.00  0.00    -0.103 A  
HETATM   21  C   UNL     1      -8.944   9.235  68.294  1.00  0.00    -0.129 A  
HETATM   22  C   UNL     1      -9.427  10.524  68.562  1.00  0.00    -0.164 A  
HETATM   23  N   UNL     1      -8.971   8.065  69.017  1.00  0.00    -0.145 NA 
HETATM   24  H   UNL     1      -9.400   7.966  69.936  1.00  0.00     0.000 HD 
HETATM   25  C   UNL     1      -9.261  11.486  67.561  1.00  0.00    -0.166 A  
HETATM   26  C   UNL     1      -8.699  11.198  66.322  1.00  0.00    -0.183 A  
HETATM   27  F   UNL     1      -9.682  12.738  67.802  1.00  0.00    -0.186 F  
ENDBRANCH   8  11
ENDBRANCH   4   5
ENDBRANCH   2   4
TORSDOF 3
ENDMDL
MODEL      150
REMARK 921   NORMALIZED FREE ENERGY PREDICTED BY IDOCK:   -2.41 KCAL/MOL
REMARK 922        TOTAL FREE ENERGY PREDICTED BY IDOCK:   -3.22 KCAL/MOL
REMARK 923 INTER-LIGAND FREE ENERGY PREDICTED BY IDOCK:   -3.21 KCAL/MOL
REMARK 924 INTRA-LIGAND FREE ENERGY PREDICTED BY IDOCK:   -0.01 KCAL/MOL
REMARK 927      BINDING AFFINITY PREDICTED BY RF-SCORE:    0.00 PKD
ROOT
HETATM    1  C   UNL     1      -6.466  12.033  69.415  1.00  0.00    -0.115 C  
HETATM    2  N   UNL     1      -6.835  13.157  68.567  1.00  0.00    -0.091 NA 
HETATM    3  H   UNL     1      -6.079  13.411  67.931  1.00  0.00     0.000 HD 
ENDROOT
BRANCH   2   4
HETATM    4  C   UNL     1      -8.077  12.886  67.847  1.00  0.00    -0.161 C  
BRANCH   4   5
HETATM    5  C   UNL     1      -8.258  11.405  67.611  1.00  0.00    -0.128 A  
HETATM    6  C   UNL     1      -9.202  10.650  68.326  1.00  0.00    -0.153 A  
HETATM    7  C   UNL     1      -9.336   9.269  68.111  1.00  0.00    -0.143 A  
HETATM    8  C   UNL     1      -8.525   8.612  67.177  1.00  0.00    -0.114 A  
HETATM    9  C   UNL     1      -7.586   9.375  66.469  1.00  0.00    -0.093 A  
HETATM   10  C   UNL     1      -7.458  10.749  66.673  1.00  0.00    -0.135 A  
BRANCH   8  11
HETATM   11  C   UNL     1      -8.591   7.161  66.947  1.00  0.00    -0.124 A  
HETATM   12  C   UNL     1      -8.475   6.099  67.834  1.00  0.00    -0.116 A  
HETATM   13  C   UNL     1      -8.021   6.048  69.261  1.00  0.00    -0.103 C  
HETATM   14  C   UNL     1      -9.141   5.595  70.203  1.00  0.00    -0.138 C  
HETATM   15  N   UNL     1      -9.837   4.352  69.839  1.00  0.00    -0.221 N  
HETATM   16  C   UNL     1      -9.198   3.372  69.085  1.00  0.00    -0.160 C  
HETATM   17  H   UNL     1     -10.800   4.206  70.143  1.00  0.00     0.000 HD 
HETATM   18  O   UNL     1      -8.786   2.321  69.555  1.00  0.00    -0.069 OA 
HETATM   19  C   UNL     1      -9.168   3.618  67.619  1.00  0.00    -0.225 A  
HETATM   20  C   UNL     1      -8.911   4.923  67.162  1.00  0.00    -0.110 A  
HETATM   21  C   UNL     1      -9.036   5.232  65.816  1.00  0.00    -0.157 A  
HETATM   22  C   UNL     1      -9.311   4.237  64.867  1.00  0.00    -0.165 A  
HETATM   23  N   UNL     1      -8.868   6.593  65.712  1.00  0.00    -0.292 NA 
HETATM   24  H   UNL     1      -8.938   7.117  64.841  1.00  0.00     0.000 HD 
HETATM   25  C   UNL     1      -9.464   2.930  65.341  1.00  0.00    -0.039 A  
HETATM   26  C   UNL     1      -9.410   2.606  66.692  1.00  0.00    -0.026 A  
HETATM   27  F   UNL     1      -9.693   1.951  64.451  1.00  0.00    -0.133 F  
ENDBRANCH   8  11
ENDBRANCH   4   5
ENDBRANCH   2   4
TORSDOF 3
ENDMDL
MODEL      151
REMARK 921   NORMALIZED FREE ENERGY PREDICTED BY IDOCK:   -2.14 KCAL/MOL
REMARK 922        TOTAL FREE ENERGY PREDICTED BY IDOCK:   -2.90 KCAL/MOL
REMARK 923 INTER-LIGAND FREE ENERGY PREDICTED BY IDOCK:   -3.14 KCAL/MOL
REMARK 924 INTRA-LIGAND FREE ENERGY PREDICTED BY IDOCK:    0.25 KCAL/MOL
REMARK 927      BINDING AFFINITY PREDICTED BY RF-SCORE:    0.00 PKD
ROOT
HETATM    1  C   UNL     1      -9.936   2.059  72.149  1.00  0.00    -0.155 C  
HETATM    2  N   UNL     1      -8.681   1.585  71.586  1.00  0.00    -0.054 NA 
HETATM    3  H   UNL     1      -8.439   0.658  71.936  1.00  0.00     0.000 HD 
ENDROOT
BRANCH   2   4
HETATM    4  C   UNL     1      -8.714   1.619  70.125  1.00  0.00    -0.054 C  
BRANCH   4   5
HETATM    5  C   UNL     1      -8.827   3.036  69.616  1.00  0.00    -0.147 A  
HETATM    6  C   UNL     1      -9.888   3.876  69.989  1.00  0.00    -0.149 A  
HETATM    7  C   UNL     1      -9.989   5.182  69.482  1.00  0.00    -0.301 A  
HETATM    8  C   UNL     1      -9.030   5.674  68.588  1.00  0.00    -0.113 A  
HETATM    9  C   UNL     1      -7.975   4.828  68.222  1.00  0.00    -0.085 A  
HETATM   10  C   UNL     1      -7.866   3.534  68.732  1.00  0.00    -0.055 A  
BRANCH   8  11
HETATM   11  C   UNL     1      -9.114   7.016  67.992  1.00  0.00    -0.127 A  
HETATM   12  C   UNL     1      -8.770   8.259  68.508  1.00  0.00    -0.133 A  
HETATM   13  C   UNL     1      -8.420   8.688  69.899  1.00  0.00    -0.129 C  
HETATM   14  C   UNL     1      -6.980   9.205  69.995  1.00  0.00    -0.054 C  
HETATM   15  N   UNL     1      -6.592  10.238  69.024  1.00  0.00    -0.052 N  
HETATM   16  C   UNL     1      -7.545  11.091  68.472  1.00  0.00    -0.114 C  
HETATM   17  H   UNL     1      -5.614  10.332  68.752  1.00  0.00     0.000 HD 
HETATM   18  O   UNL     1      -7.669  12.263  68.797  1.00  0.00    -0.100 OA 
HETATM   19  C   UNL     1      -8.326  10.522  67.342  1.00  0.00    -0.121 A  
HETATM   20  C   UNL     1      -8.763   9.188  67.431  1.00  0.00    -0.118 A  
HETATM   21  C   UNL     1      -9.348   8.568  66.338  1.00  0.00    -0.213 A  
HETATM   22  C   UNL     1      -9.620   9.280  65.161  1.00  0.00    -0.103 A  
HETATM   23  N   UNL     1      -9.526   7.250  66.687  1.00  0.00    -0.173 NA 
HETATM   24  H   UNL     1      -9.910   6.537  66.069  1.00  0.00     0.000 HD 
HETATM   25  C   UNL     1      -9.263  10.632  65.137  1.00  0.00    -0.207 A  
HETATM   26  C   UNL     1      -8.614  11.259  66.195  1.00  0.00    -0.156 A  
HETATM   27  F   UNL     1      -9.543  11.348  64.036  1.00  0.00    -0.230 F  
ENDBRANCH   8  11
ENDBRANCH   4   5
ENDBRANCH   2   4
TORSDOF 3
ENDMDL
MODEL      152
REMARK 921   NORMALIZED FREE ENERGY PREDICTED BY IDOCK:   -2.05 KCAL/MOL
REMARK 922        TOTAL FREE ENERGY PREDICTED BY IDOCK:   -2.79 KCAL/MOL
REMARK 923 INTER-LIGAND FREE ENERGY PREDICTED BY IDOCK:   -2.57 KCAL/MOL
REMARK 924 INTRA-LIGAND FREE ENERGY PREDICTED BY IDOCK:   -0.22 KCAL/MOL
REMARK 927      BINDING AFFINITY PREDICTED BY RF-SCORE:    0.00 PKD
ROOT
HETATM    1  C   UNL     1      -9.845  12.784  66.739  1.00  0.00    -0.242 C  
HETATM    2  N   UNL     1      -8.546  13.437  66.696  1.00  0.00    -0.442 NA 
HETATM    3  H   UNL     1      -8.637  14.447  66.583  1.00  0.00     0.000 HD 
ENDROOT
BRANCH   2   4
HETATM    4  C   UNL     1      -7.747  13.097  67.871  1.00  0.00    -0.147 C  
BRANCH   4   5
HETATM    5  C   UNL     1      -7.563  11.601  67.989  1.00  0.00    -0.117 A  
HETATM    6  C   UNL     1      -6.643  10.903  67.193  1.00  0.00    -0.083 A  
HETATM    7  C   UNL     1      -6.506   9.509  67.300  1.00  0.00    -0.070 A  
HETATM    8  C   UNL     1      -7.292   8.784  68.205  1.00  0.00    -0.087 A  
HETATM    9  C   UNL     1      -8.208   9.492  68.995  1.00  0.00    -0.113 A  
HETATM   10  C   UNL     1      -8.337  10.878  68.899  1.00  0.00    -0.139 A  
BRANCH   8  11
HETATM   11  C   UNL     1      -7.223   7.320  68.323  1.00  0.00    -0.094 A  
HETATM   12  C   UNL     1      -7.245   6.501  69.444  1.00  0.00    -0.086 A  
HETATM   13  C   UNL     1      -7.115   6.818  70.902  1.00  0.00    -0.068 C  
HETATM   14  C   UNL     1      -8.388   6.469  71.681  1.00  0.00    -0.120 C  
HETATM   15  N   UNL     1      -8.914   5.109  71.495  1.00  0.00    -0.136 N  
HETATM   16  C   UNL     1      -8.069   4.060  71.143  1.00  0.00    -0.068 C  
HETATM   17  H   UNL     1      -9.910   4.932  71.625  1.00  0.00     0.000 HD 
HETATM   18  O   UNL     1      -7.713   3.191  71.925  1.00  0.00    -0.051 OA 
HETATM   19  C   UNL     1      -7.731   3.975  69.697  1.00  0.00    -0.052 A  
HETATM   20  C   UNL     1      -7.455   5.165  69.001  1.00  0.00    -0.069 A  
HETATM   21  C   UNL     1      -7.297   5.151  67.624  1.00  0.00    -0.075 A  
HETATM   22  C   UNL     1      -7.299   3.946  66.907  1.00  0.00    -0.072 A  
HETATM   23  N   UNL     1      -7.188   6.465  67.231  1.00  0.00    -0.076 NA 
HETATM   24  H   UNL     1      -7.094   6.771  66.263  1.00  0.00     0.000 HD 
HETATM   25  C   UNL     1      -7.478   2.769  67.640  1.00  0.00    -0.057 A  
HETATM   26  C   UNL     1      -7.705   2.762  69.012  1.00  0.00    -0.048 A  
HETATM   27  F   UNL     1      -7.449   1.597  66.985  1.00  0.00    -0.054 F  
ENDBRANCH   8  11
ENDBRANCH   4   5
ENDBRANCH   2   4
TORSDOF 3
ENDMDL
MODEL      153
REMARK 921   NORMALIZED FREE ENERGY PREDICTED BY IDOCK:   -1.99 KCAL/MOL
REMARK 922        TOTAL FREE ENERGY PREDICTED BY IDOCK:   -2.72 KCAL/MOL
REMARK 923 INTER-LIGAND FREE ENERGY PREDICTED BY IDOCK:   -3.17 KCAL/MOL
REMARK 924 INTRA-LIGAND FREE ENERGY PREDICTED BY IDOCK:    0.45 KCAL/MOL
REMARK 927      BINDING AFFINITY PREDICTED BY RF-SCORE:    0.00 PKD
ROOT
HETATM    1  C   UNL     1      -6.480  12.045  69.438  1.00  0.00    -0.115 C  
HETATM    2  N   UNL     1      -7.234  12.989  68.628  1.00  0.00    -0.102 NA 
HETATM    3  H   UNL     1      -6.706  13.285  67.807  1.00  0.00     0.000 HD 
ENDROOT
BRANCH   2   4
HETATM    4  C   UNL     1      -8.539  12.443  68.262  1.00  0.00    -0.172 C  
BRANCH   4   5
HETATM    5  C   UNL     1      -8.631  10.975  68.606  1.00  0.00    -0.157 A  
HETATM    6  C   UNL     1      -7.725  10.034  68.090  1.00  0.00    -0.085 A  
HETATM    7  C   UNL     1      -7.844   8.670  68.401  1.00  0.00    -0.105 A  
HETATM    8  C   UNL     1      -8.875   8.217  69.234  1.00  0.00    -0.143 A  
HETATM    9  C   UNL     1      -9.773   9.164  69.744  1.00  0.00    -0.191 A  
HETATM   10  C   UNL     1      -9.651  10.522  69.445  1.00  0.00    -0.170 A  
BRANCH   8  11
HETATM   11  C   UNL     1      -9.073   6.795  69.553  1.00  0.00    -0.141 A  
HETATM   12  C   UNL     1      -9.341   5.712  68.727  1.00  0.00    -0.145 A  
HETATM   13  C   UNL     1      -9.743   5.643  67.285  1.00  0.00    -0.147 C  
HETATM   14  C   UNL     1      -8.685   4.941  66.427  1.00  0.00    -0.113 C  
HETATM   15  N   UNL     1      -8.232   3.624  66.899  1.00  0.00    -0.095 N  
HETATM   16  C   UNL     1      -9.061   2.823  67.678  1.00  0.00    -0.181 C  
HETATM   17  H   UNL     1      -7.299   3.294  66.651  1.00  0.00     0.000 HD 
HETATM   18  O   UNL     1      -9.633   1.830  67.252  1.00  0.00     0.017 OA 
HETATM   19  C   UNL     1      -9.102   3.169  69.124  1.00  0.00    -0.201 A  
HETATM   20  C   UNL     1      -9.143   4.527  69.489  1.00  0.00    -0.167 A  
HETATM   21  C   UNL     1      -9.016   4.899  70.818  1.00  0.00    -0.131 A  
HETATM   22  C   UNL     1      -8.956   3.938  71.837  1.00  0.00    -0.153 A  
HETATM   23  N   UNL     1      -8.947   6.273  70.832  1.00  0.00    -0.146 NA 
HETATM   24  H   UNL     1      -8.819   6.834  71.673  1.00  0.00     0.000 HD 
HETATM   25  C   UNL     1      -9.017   2.595  71.451  1.00  0.00    -0.088 A  
HETATM   26  C   UNL     1      -9.076   2.195  70.121  1.00  0.00    -0.172 A  
HETATM   27  F   UNL     1      -8.997   1.654  72.408  1.00  0.00    -0.064 F  
ENDBRANCH   8  11
ENDBRANCH   4   5
ENDBRANCH   2   4
TORSDOF 3
ENDMDL
MODEL      154
REMARK 921   NORMALIZED FREE ENERGY PREDICTED BY IDOCK:   -1.97 KCAL/MOL
REMARK 922        TOTAL FREE ENERGY PREDICTED BY IDOCK:   -2.70 KCAL/MOL
REMARK 923 INTER-LIGAND FREE ENERGY PREDICTED BY IDOCK:   -2.17 KCAL/MOL
REMARK 924 INTRA-LIGAND FREE ENERGY PREDICTED BY IDOCK:   -0.53 KCAL/MOL
REMARK 927      BINDING AFFINITY PREDICTED BY RF-SCORE:    0.00 PKD
ROOT
HETATM    1  C   UNL     1      -6.348  12.026  70.366  1.00  0.00     0.249 C  
HETATM    2  N   UNL     1      -7.216  11.260  69.485  1.00  0.00    -0.316 NA 
HETATM    3  H   UNL     1      -6.781  11.098  68.576  1.00  0.00     0.000 HD 
ENDROOT
BRANCH   2   4
HETATM    4  C   UNL     1      -7.629  10.007  70.114  1.00  0.00    -0.155 C  
BRANCH   4   5
HETATM    5  C   UNL     1      -7.549   8.856  69.139  1.00  0.00    -0.080 A  
HETATM    6  C   UNL     1      -7.865   9.012  67.780  1.00  0.00    -0.101 A  
HETATM    7  C   UNL     1      -7.810   7.923  66.895  1.00  0.00    -0.104 A  
HETATM    8  C   UNL     1      -7.441   6.652  67.354  1.00  0.00    -0.096 A  
HETATM    9  C   UNL     1      -7.129   6.507  68.712  1.00  0.00    -0.082 A  
HETATM   10  C   UNL     1      -7.171   7.590  69.591  1.00  0.00    -0.077 A  
BRANCH   8  11
HETATM   11  C   UNL     1      -7.414   5.469  66.480  1.00  0.00    -0.087 A  
HETATM   12  C   UNL     1      -8.436   4.622  66.072  1.00  0.00    -0.115 A  
HETATM   13  C   UNL     1      -9.849   4.478  66.547  1.00  0.00    -0.244 C  
HETATM   14  C   UNL     1     -10.862   4.828  65.452  1.00  0.00     0.002 C  
HETATM   15  N   UNL     1     -10.683   4.153  64.158  1.00  0.00    -0.494 N  
HETATM   16  C   UNL     1     -10.061   2.910  64.083  1.00  0.00    -0.109 C  
HETATM   17  H   UNL     1     -11.019   4.600  63.306  1.00  0.00     0.000 HD 
HETATM   18  O   UNL     1     -10.664   1.865  63.889  1.00  0.00    -0.014 OA 
HETATM   19  C   UNL     1      -8.574   2.942  64.113  1.00  0.00    -0.090 A  
HETATM   20  C   UNL     1      -7.938   3.826  65.003  1.00  0.00    -0.090 A  
HETATM   21  C   UNL     1      -6.565   4.008  64.949  1.00  0.00    -0.043 A  
HETATM   22  C   UNL     1      -5.766   3.242  64.089  1.00  0.00    -0.010 A  
HETATM   23  N   UNL     1      -6.273   5.025  65.828  1.00  0.00    -0.033 NA 
HETATM   24  H   UNL     1      -5.339   5.404  65.980  1.00  0.00     0.000 HD 
HETATM   25  C   UNL     1      -6.416   2.300  63.285  1.00  0.00    -0.014 A  
HETATM   26  C   UNL     1      -7.798   2.145  63.273  1.00  0.00    -0.060 A  
HETATM   27  F   UNL     1      -5.673   1.527  62.477  1.00  0.00    -0.005 F  
ENDBRANCH   8  11
ENDBRANCH   4   5
ENDBRANCH   2   4
TORSDOF 3
ENDMDL
MODEL      155
REMARK 921   NORMALIZED FREE ENERGY PREDICTED BY IDOCK:   -1.93 KCAL/MOL
REMARK 922        TOTAL FREE ENERGY PREDICTED BY IDOCK:   -2.65 KCAL/MOL
REMARK 923 INTER-LIGAND FREE ENERGY PREDICTED BY IDOCK:   -3.89 KCAL/MOL
REMARK 924 INTRA-LIGAND FREE ENERGY PREDICTED BY IDOCK:    1.24 KCAL/MOL
REMARK 927      BINDING AFFINITY PREDICTED BY RF-SCORE:    0.00 PKD
ROOT
HETATM    1  C   UNL     1     -10.494   5.861  73.205  1.00  0.00    -0.228 C  
HETATM    2  N   UNL     1      -9.248   5.312  73.718  1.00  0.00    -0.125 NA 
HETATM    3  H   UNL     1      -8.984   4.457  73.229  1.00  0.00     0.000 HD 
ENDROOT
BRANCH   2   4
HETATM    4  C   UNL     1      -8.179   6.308  73.677  1.00  0.00    -0.113 C  
BRANCH   4   5
HETATM    5  C   UNL     1      -8.332   7.222  72.483  1.00  0.00    -0.124 A  
HETATM    6  C   UNL     1      -9.356   7.044  71.541  1.00  0.00    -0.154 A  
HETATM    7  C   UNL     1      -9.465   7.889  70.424  1.00  0.00    -0.163 A  
HETATM    8  C   UNL     1      -8.547   8.927  70.225  1.00  0.00    -0.178 A  
HETATM    9  C   UNL     1      -7.528   9.096  71.172  1.00  0.00    -0.091 A  
HETATM   10  C   UNL     1      -7.424   8.265  72.289  1.00  0.00    -0.149 A  
BRANCH   8  11
HETATM   11  C   UNL     1      -8.587   9.810  69.049  1.00  0.00    -0.146 A  
HETATM   12  C   UNL     1      -8.375   9.535  67.704  1.00  0.00    -0.125 A  
HETATM   13  C   UNL     1      -7.817   8.325  67.019  1.00  0.00    -0.096 C  
HETATM   14  C   UNL     1      -8.851   7.651  66.111  1.00  0.00    -0.164 C  
HETATM   15  N   UNL     1      -9.535   8.522  65.143  1.00  0.00    -0.267 N  
HETATM   16  C   UNL     1      -8.923   9.680  64.671  1.00  0.00    -0.231 C  
HETATM   17  H   UNL     1     -10.467   8.275  64.814  1.00  0.00     0.000 HD 
HETATM   18  O   UNL     1      -8.447   9.782  63.549  1.00  0.00    -0.153 OA 
HETATM   19  C   UNL     1      -9.008  10.857  65.576  1.00  0.00    -0.213 A  
HETATM   20  C   UNL     1      -8.824  10.658  66.956  1.00  0.00    -0.141 A  
HETATM   21  C   UNL     1      -9.057  11.692  67.850  1.00  0.00    -0.171 A  
HETATM   22  C   UNL     1      -9.371  12.982  67.401  1.00  0.00    -0.209 A  
HETATM   23  N   UNL     1      -8.937  11.151  69.109  1.00  0.00    -0.388 NA 
HETATM   24  H   UNL     1      -9.086  11.668  69.975  1.00  0.00     0.000 HD 
HETATM   25  C   UNL     1      -9.450  13.173  66.017  1.00  0.00    -0.089 A  
HETATM   26  C   UNL     1      -9.288  12.138  65.103  1.00  0.00     0.159 A  
HETATM   27  F   UNL     1      -9.715  14.405  65.556  1.00  0.00    -0.333 F  
ENDBRANCH   8  11
ENDBRANCH   4   5
ENDBRANCH   2   4
TORSDOF 3
ENDMDL
MODEL      156
REMARK 921   NORMALIZED FREE ENERGY PREDICTED BY IDOCK:   -1.73 KCAL/MOL
REMARK 922        TOTAL FREE ENERGY PREDICTED BY IDOCK:   -2.42 KCAL/MOL
REMARK 923 INTER-LIGAND FREE ENERGY PREDICTED BY IDOCK:   -2.42 KCAL/MOL
REMARK 924 INTRA-LIGAND FREE ENERGY PREDICTED BY IDOCK:   -0.00 KCAL/MOL
REMARK 927      BINDING AFFINITY PREDICTED BY RF-SCORE:    0.00 PKD
ROOT
HETATM    1  C   UNL     1      -6.167  11.691  69.367  1.00  0.00    -0.100 C  
HETATM    2  N   UNL     1      -6.875  12.876  68.909  1.00  0.00    -0.096 NA 
HETATM    3  H   UNL     1      -6.304  13.433  68.273  1.00  0.00     0.000 HD 
ENDROOT
BRANCH   2   4
HETATM    4  C   UNL     1      -8.161  12.522  68.310  1.00  0.00    -0.165 C  
BRANCH   4   5
HETATM    5  C   UNL     1      -8.120  11.133  67.716  1.00  0.00    -0.117 A  
HETATM    6  C   UNL     1      -8.603  10.015  68.414  1.00  0.00    -0.113 A  
HETATM    7  C   UNL     1      -8.532   8.728  67.854  1.00  0.00    -0.126 A  
HETATM    8  C   UNL     1      -7.972   8.534  66.586  1.00  0.00    -0.100 A  
HETATM    9  C   UNL     1      -7.493   9.658  65.898  1.00  0.00    -0.099 A  
HETATM   10  C   UNL     1      -7.572  10.938  66.447  1.00  0.00    -0.146 A  
BRANCH   8  11
HETATM   11  C   UNL     1      -7.829   7.204  65.975  1.00  0.00    -0.107 A  
HETATM   12  C   UNL     1      -7.051   6.116  66.348  1.00  0.00    -0.068 A  
HETATM   13  C   UNL     1      -5.937   5.992  67.341  1.00  0.00    -0.018 C  
HETATM   14  C   UNL     1      -6.294   5.040  68.488  1.00  0.00    -0.036 C  
HETATM   15  N   UNL     1      -6.790   3.710  68.101  1.00  0.00    -0.046 N  
HETATM   16  C   UNL     1      -6.427   3.141  66.884  1.00  0.00    -0.036 C  
HETATM   17  H   UNL     1      -7.406   3.199  68.733  1.00  0.00     0.000 HD 
HETATM   18  O   UNL     1      -5.618   2.231  66.779  1.00  0.00    -0.016 OA 
HETATM   19  C   UNL     1      -7.201   3.617  65.706  1.00  0.00    -0.071 A  
HETATM   20  C   UNL     1      -7.502   4.987  65.608  1.00  0.00    -0.081 A  
HETATM   21  C   UNL     1      -8.357   5.448  64.619  1.00  0.00    -0.141 A  
HETATM   22  C   UNL     1      -8.853   4.587  63.631  1.00  0.00    -0.140 A  
HETATM   23  N   UNL     1      -8.565   6.783  64.876  1.00  0.00    -0.351 NA 
HETATM   24  H   UNL     1      -9.180   7.386  64.330  1.00  0.00     0.000 HD 
HETATM   25  C   UNL     1      -8.457   3.247  63.697  1.00  0.00    -0.090 A  
HETATM   26  C   UNL     1      -7.655   2.746  64.717  1.00  0.00    -0.076 A  
HETATM   27  F   UNL     1      -8.888   2.405  62.744  1.00  0.00    -0.082 F  
ENDBRANCH   8  11
ENDBRANCH   4   5
ENDBRANCH   2   4
TORSDOF 3
ENDMDL
MODEL      157
REMARK 921   NORMALIZED FREE ENERGY PREDICTED BY IDOCK:   -1.36 KCAL/MOL
REMARK 922        TOTAL FREE ENERGY PREDICTED BY IDOCK:   -1.98 KCAL/MOL
REMARK 923 INTER-LIGAND FREE ENERGY PREDICTED BY IDOCK:   -1.47 KCAL/MOL
REMARK 924 INTRA-LIGAND FREE ENERGY PREDICTED BY IDOCK:   -0.51 KCAL/MOL
REMARK 927      BINDING AFFINITY PREDICTED BY RF-SCORE:    0.00 PKD
ROOT
HETATM    1  C   UNL     1      -5.625  12.647  72.511  1.00  0.00     0.949 C  
HETATM    2  N   UNL     1      -6.231  13.000  71.236  1.00  0.00    -0.365 NA 
HETATM    3  H   UNL     1      -6.473  13.990  71.196  1.00  0.00     0.000 HD 
ENDROOT
BRANCH   2   4
HETATM    4  C   UNL     1      -5.370  12.611  70.120  1.00  0.00    -0.112 C  
BRANCH   4   5
HETATM    5  C   UNL     1      -5.867  11.342  69.467  1.00  0.00    -0.070 A  
HETATM    6  C   UNL     1      -5.128  10.683  68.472  1.00  0.00    -0.034 A  
HETATM    7  C   UNL     1      -5.620   9.519  67.858  1.00  0.00    -0.040 A  
HETATM    8  C   UNL     1      -6.865   8.993  68.225  1.00  0.00    -0.065 A  
HETATM    9  C   UNL     1      -7.595   9.660  69.219  1.00  0.00    -0.091 A  
HETATM   10  C   UNL     1      -7.103  10.809  69.838  1.00  0.00    -0.099 A  
BRANCH   8  11
HETATM   11  C   UNL     1      -7.448   7.806  67.581  1.00  0.00    -0.104 A  
HETATM   12  C   UNL     1      -7.757   7.560  66.250  1.00  0.00    -0.089 A  
HETATM   13  C   UNL     1      -7.821   8.473  65.064  1.00  0.00    -0.112 C  
HETATM   14  C   UNL     1      -6.781   8.106  64.000  1.00  0.00    -0.066 C  
HETATM   15  N   UNL     1      -6.759   6.701  63.566  1.00  0.00    -0.047 N  
HETATM   16  C   UNL     1      -7.905   5.914  63.642  1.00  0.00    -0.104 C  
HETATM   17  H   UNL     1      -5.895   6.299  63.206  1.00  0.00     0.000 HD 
HETATM   18  O   UNL     1      -8.573   5.600  62.668  1.00  0.00    -0.090 OA 
HETATM   19  C   UNL     1      -8.198   5.348  64.986  1.00  0.00    -0.137 A  
HETATM   20  C   UNL     1      -8.013   6.167  66.115  1.00  0.00    -0.108 A  
HETATM   21  C   UNL     1      -8.114   5.634  67.391  1.00  0.00    -0.102 A  
HETATM   22  C   UNL     1      -8.509   4.304  67.592  1.00  0.00    -0.101 A  
HETATM   23  N   UNL     1      -7.740   6.633  68.260  1.00  0.00    -0.104 NA 
HETATM   24  H   UNL     1      -7.685   6.525  69.272  1.00  0.00     0.000 HD 
HETATM   25  C   UNL     1      -8.782   3.541  66.451  1.00  0.00    -0.124 A  
HETATM   26  C   UNL     1      -8.623   4.032  65.160  1.00  0.00    -0.114 A  
HETATM   27  F   UNL     1      -9.196   2.275  66.613  1.00  0.00    -0.143 F  
ENDBRANCH   8  11
ENDBRANCH   4   5
ENDBRANCH   2   4
TORSDOF 3
ENDMDL
MODEL      158
REMARK 921   NORMALIZED FREE ENERGY PREDICTED BY IDOCK:   -1.29 KCAL/MOL
REMARK 922        TOTAL FREE ENERGY PREDICTED BY IDOCK:   -1.90 KCAL/MOL
REMARK 923 INTER-LIGAND FREE ENERGY PREDICTED BY IDOCK:   -1.47 KCAL/MOL
REMARK 924 INTRA-LIGAND FREE ENERGY PREDICTED BY IDOCK:   -0.43 KCAL/MOL
REMARK 927      BINDING AFFINITY PREDICTED BY RF-SCORE:    0.00 PKD
ROOT
HETATM    1  C   UNL     1      -5.319  12.427  72.461  1.00  0.00     0.578 C  
HETATM    2  N   UNL     1      -5.961  12.800  71.210  1.00  0.00    -0.509 NA 
HETATM    3  H   UNL     1      -6.204  13.791  71.193  1.00  0.00     0.000 HD 
ENDROOT
BRANCH   2   4
HETATM    4  C   UNL     1      -5.132  12.431  70.063  1.00  0.00    -0.086 C  
BRANCH   4   5
HETATM    5  C   UNL     1      -5.656  11.182  69.393  1.00  0.00    -0.042 A  
HETATM    6  C   UNL     1      -6.479  10.268  70.069  1.00  0.00    -0.116 A  
HETATM    7  C   UNL     1      -6.933   9.099  69.435  1.00  0.00    -0.052 A  
HETATM    8  C   UNL     1      -6.569   8.820  68.112  1.00  0.00    -0.061 A  
HETATM    9  C   UNL     1      -5.747   9.740  67.447  1.00  0.00    -0.043 A  
HETATM   10  C   UNL     1      -5.304  10.907  68.070  1.00  0.00    -0.039 A  
BRANCH   8  11
HETATM   11  C   UNL     1      -6.978   7.589  67.418  1.00  0.00    -0.083 A  
HETATM   12  C   UNL     1      -6.759   6.256  67.738  1.00  0.00    -0.064 A  
HETATM   13  C   UNL     1      -5.856   5.617  68.748  1.00  0.00    -0.019 C  
HETATM   14  C   UNL     1      -6.642   4.855  69.820  1.00  0.00    -0.036 C  
HETATM   15  N   UNL     1      -7.637   3.888  69.335  1.00  0.00    -0.053 N  
HETATM   16  C   UNL     1      -7.492   3.279  68.091  1.00  0.00    -0.053 C  
HETATM   17  H   UNL     1      -8.444   3.660  69.916  1.00  0.00     0.000 HD 
HETATM   18  O   UNL     1      -7.144   2.116  67.947  1.00  0.00    -0.046 OA 
HETATM   19  C   UNL     1      -7.929   4.097  66.929  1.00  0.00    -0.097 A  
HETATM   20  C   UNL     1      -7.610   5.467  66.915  1.00  0.00    -0.092 A  
HETATM   21  C   UNL     1      -8.136   6.299  65.938  1.00  0.00    -0.123 A  
HETATM   22  C   UNL     1      -8.902   5.783  64.883  1.00  0.00     0.062 A  
HETATM   23  N   UNL     1      -7.766   7.579  66.277  1.00  0.00    -0.087 NA 
HETATM   24  H   UNL     1      -8.037   8.413  65.757  1.00  0.00     0.000 HD 
HETATM   25  C   UNL     1      -9.120   4.401  64.870  1.00  0.00    -0.151 A  
HETATM   26  C   UNL     1      -8.660   3.556  65.874  1.00  0.00    -0.116 A  
HETATM   27  F   UNL     1      -9.820   3.874  63.853  1.00  0.00    -0.145 F  
ENDBRANCH   8  11
ENDBRANCH   4   5
ENDBRANCH   2   4
TORSDOF 3
ENDMDL
MODEL      159
REMARK 921   NORMALIZED FREE ENERGY PREDICTED BY IDOCK:   -0.86 KCAL/MOL
REMARK 922        TOTAL FREE ENERGY PREDICTED BY IDOCK:   -1.40 KCAL/MOL
REMARK 923 INTER-LIGAND FREE ENERGY PREDICTED BY IDOCK:   -0.87 KCAL/MOL
REMARK 924 INTRA-LIGAND FREE ENERGY PREDICTED BY IDOCK:   -0.53 KCAL/MOL
REMARK 927      BINDING AFFINITY PREDICTED BY RF-SCORE:    0.00 PKD
ROOT
HETATM    1  C   UNL     1     -13.595  15.830  69.847  1.00  0.00     1.665 C  
HETATM    2  N   UNL     1     -12.334  15.525  70.506  1.00  0.00    -0.402 NA 
HETATM    3  H   UNL     1     -12.344  14.594  70.924  1.00  0.00     0.000 HD 
ENDROOT
BRANCH   2   4
HETATM    4  C   UNL     1     -11.208  15.691  69.589  1.00  0.00    -0.310 C  
BRANCH   4   5
HETATM    5  C   UNL     1     -10.602  14.356  69.224  1.00  0.00    -0.190 A  
HETATM    6  C   UNL     1     -11.131  13.147  69.700  1.00  0.00     0.014 A  
HETATM    7  C   UNL     1     -10.536  11.917  69.370  1.00  0.00     0.068 A  
HETATM    8  C   UNL     1      -9.396  11.874  68.559  1.00  0.00    -0.142 A  
HETATM    9  C   UNL     1      -8.875  13.088  68.089  1.00  0.00    -0.194 A  
HETATM   10  C   UNL     1      -9.471  14.309  68.406  1.00  0.00    -0.213 A  
BRANCH   8  11
HETATM   11  C   UNL     1      -8.706  10.619  68.223  1.00  0.00    -0.135 A  
HETATM   12  C   UNL     1      -7.700   9.934  68.890  1.00  0.00    -0.085 A  
HETATM   13  C   UNL     1      -6.821  10.336  70.035  1.00  0.00    -0.146 C  
HETATM   14  C   UNL     1      -7.057   9.464  71.273  1.00  0.00     0.072 C  
HETATM   15  N   UNL     1      -7.001   8.009  71.067  1.00  0.00    -0.048 N  
HETATM   16  C   UNL     1      -6.243   7.465  70.034  1.00  0.00    -0.027 C  
HETATM   17  H   UNL     1      -7.523   7.392  71.689  1.00  0.00     0.000 HD 
HETATM   18  O   UNL     1      -5.174   6.898  70.209  1.00  0.00    -0.018 OA 
HETATM   19  C   UNL     1      -6.888   7.488  68.694  1.00  0.00    -0.066 A  
HETATM   20  C   UNL     1      -7.600   8.638  68.311  1.00  0.00    -0.097 A  
HETATM   21  C   UNL     1      -8.351   8.642  67.146  1.00  0.00    -0.107 A  
HETATM   22  C   UNL     1      -8.334   7.548  66.269  1.00  0.00    -0.134 A  
HETATM   23  N   UNL     1      -9.034   9.835  67.127  1.00  0.00    -0.134 NA 
HETATM   24  H   UNL     1      -9.696  10.109  66.401  1.00  0.00     0.000 HD 
HETATM   25  C   UNL     1      -7.538   6.455  66.629  1.00  0.00    -0.094 A  
HETATM   26  C   UNL     1      -6.828   6.401  67.824  1.00  0.00    -0.070 A  
HETATM   27  F   UNL     1      -7.473   5.408  65.792  1.00  0.00    -0.075 F  
ENDBRANCH   8  11
ENDBRANCH   4   5
ENDBRANCH   2   4
TORSDOF 3
ENDMDL
MODEL      160
REMARK 921   NORMALIZED FREE ENERGY PREDICTED BY IDOCK:   -0.16 KCAL/MOL
REMARK 922        TOTAL FREE ENERGY PREDICTED BY IDOCK:   -0.57 KCAL/MOL
REMARK 923 INTER-LIGAND FREE ENERGY PREDICTED BY IDOCK:   -1.55 KCAL/MOL
REMARK 924 INTRA-LIGAND FREE ENERGY PREDICTED BY IDOCK:    0.98 KCAL/MOL
REMARK 927      BINDING AFFINITY PREDICTED BY RF-SCORE:    0.00 PKD
ROOT
HETATM    1  C   UNL     1     -13.149  13.565  73.664  1.00  0.00     2.766 C  
HETATM    2  N   UNL     1     -13.028  15.010  73.541  1.00  0.00    -0.506 NA 
HETATM    3  H   UNL     1     -12.166  15.352  73.966  1.00  0.00     0.000 HD 
ENDROOT
BRANCH   2   4
HETATM    4  C   UNL     1     -13.144  15.430  72.146  1.00  0.00    -0.406 C  
BRANCH   4   5
HETATM    5  C   UNL     1     -12.472  14.441  71.222  1.00  0.00    -0.423 A  
HETATM    6  C   UNL     1     -12.898  13.107  71.127  1.00  0.00    -0.349 A  
HETATM    7  C   UNL     1     -12.242  12.197  70.282  1.00  0.00    -0.344 A  
HETATM    8  C   UNL     1     -11.142  12.604  69.516  1.00  0.00    -0.054 A  
HETATM    9  C   UNL     1     -10.725  13.938  69.618  1.00  0.00     0.123 A  
HETATM   10  C   UNL     1     -11.382  14.847  70.448  1.00  0.00    -0.287 A  
BRANCH   8  11
HETATM   11  C   UNL     1     -10.390  11.681  68.652  1.00  0.00    -0.215 A  
HETATM   12  C   UNL     1      -9.316  11.910  67.802  1.00  0.00    -0.184 A  
HETATM   13  C   UNL     1      -8.707  13.183  67.300  1.00  0.00    -0.210 C  
HETATM   14  C   UNL     1      -7.261  13.355  67.778  1.00  0.00    -0.154 C  
HETATM   15  N   UNL     1      -6.356  12.221  67.539  1.00  0.00    -0.123 N  
HETATM   16  C   UNL     1      -6.583  11.338  66.487  1.00  0.00    -0.108 C  
HETATM   17  H   UNL     1      -5.551  12.081  68.150  1.00  0.00     0.000 HD 
HETATM   18  O   UNL     1      -5.925  11.333  65.457  1.00  0.00    -0.010 OA 
HETATM   19  C   UNL     1      -7.601  10.287  66.751  1.00  0.00    -0.107 A  
HETATM   20  C   UNL     1      -8.776  10.646  67.435  1.00  0.00    -0.125 A  
HETATM   21  C   UNL     1      -9.673   9.672  67.846  1.00  0.00    -0.146 A  
HETATM   22  C   UNL     1      -9.492   8.326  67.497  1.00  0.00    -0.182 A  
HETATM   23  N   UNL     1     -10.625  10.314  68.604  1.00  0.00    -0.196 NA 
HETATM   24  H   UNL     1     -11.401   9.847  69.070  1.00  0.00     0.000 HD 
HETATM   25  C   UNL     1      -8.365   8.013  66.731  1.00  0.00    -0.116 A  
HETATM   26  C   UNL     1      -7.415   8.961  66.364  1.00  0.00    -0.088 A  
HETATM   27  F   UNL     1      -8.183   6.738  66.352  1.00  0.00    -0.104 F  
ENDBRANCH   8  11
ENDBRANCH   4   5
ENDBRANCH   2   4
TORSDOF 3
ENDMDL
MODEL      161
REMARK 921   NORMALIZED FREE ENERGY PREDICTED BY IDOCK:    3.02 KCAL/MOL
REMARK 922        TOTAL FREE ENERGY PREDICTED BY IDOCK:    3.16 KCAL/MOL
REMARK 923 INTER-LIGAND FREE ENERGY PREDICTED BY IDOCK:    2.86 KCAL/MOL
REMARK 924 INTRA-LIGAND FREE ENERGY PREDICTED BY IDOCK:    0.30 KCAL/MOL
REMARK 927      BINDING AFFINITY PREDICTED BY RF-SCORE:    0.00 PKD
ROOT
HETATM    1  C   UNL     1     -10.916   7.466  70.574  1.00  0.00    -0.253 C  
HETATM    2  N   UNL     1     -11.690   7.637  69.354  1.00  0.00    -0.012 NA 
HETATM    3  H   UNL     1     -12.116   6.761  69.052  1.00  0.00     0.000 HD 
ENDROOT
BRANCH   2   4
HETATM    4  C   UNL     1     -12.687   8.695  69.508  1.00  0.00     3.059 C  
BRANCH   4   5
HETATM    5  C   UNL     1     -12.074  10.058  69.283  1.00  0.00     0.342 A  
HETATM    6  C   UNL     1     -12.746  11.064  68.571  1.00  0.00     1.685 A  
HETATM    7  C   UNL     1     -12.147  12.316  68.351  1.00  0.00    -0.107 A  
HETATM    8  C   UNL     1     -10.861  12.584  68.835  1.00  0.00    -0.238 A  
HETATM    9  C   UNL     1     -10.199  11.573  69.544  1.00  0.00     0.293 A  
HETATM   10  C   UNL     1     -10.796  10.332  69.774  1.00  0.00    -0.332 A  
BRANCH   8  11
HETATM   11  C   UNL     1     -10.170  13.860  68.591  1.00  0.00    -0.218 A  
HETATM   12  C   UNL     1      -8.816  14.149  68.488  1.00  0.00    -0.173 A  
HETATM   13  C   UNL     1      -7.603  13.332  68.811  1.00  0.00    -0.043 C  
HETATM   14  C   UNL     1      -6.759  13.040  67.565  1.00  0.00    -0.152 C  
HETATM   15  N   UNL     1      -6.393  14.200  66.739  1.00  0.00     1.049 N  
HETATM   16  C   UNL     1      -6.292  15.470  67.299  1.00  0.00     0.028 C  
HETATM   17  H   UNL     1      -6.211  14.072  65.744  1.00  0.00     0.000 HD 
HETATM   18  O   UNL     1      -5.227  16.025  67.523  1.00  0.00    -0.160 OA 
HETATM   19  C   UNL     1      -7.583  16.187  67.483  1.00  0.00    -0.173 A  
HETATM   20  C   UNL     1      -8.693  15.462  67.952  1.00  0.00    -0.160 A  
HETATM   21  C   UNL     1      -9.949  16.046  67.982  1.00  0.00    -0.229 A  
HETATM   22  C   UNL     1     -10.128  17.397  67.654  1.00  0.00    -0.327 A  
HETATM   23  N   UNL     1     -10.831  15.053  68.342  1.00  0.00    -0.249 NA 
HETATM   24  H   UNL     1     -11.840  15.179  68.416  1.00  0.00     0.000 HD 
HETATM   25  C   UNL     1      -8.989  18.119  67.285  1.00  0.00    -0.248 A  
HETATM   26  C   UNL     1      -7.729  17.540  67.183  1.00  0.00    -0.228 A  
HETATM   27  F   UNL     1      -9.124  19.424  66.999  1.00  0.00    -0.294 F  
ENDBRANCH   8  11
ENDBRANCH   4   5
ENDBRANCH   2   4
TORSDOF 3
ENDMDL
MODEL      162
REMARK 921   NORMALIZED FREE ENERGY PREDICTED BY IDOCK:    4.13 KCAL/MOL
REMARK 922        TOTAL FREE ENERGY PREDICTED BY IDOCK:    4.47 KCAL/MOL
REMARK 923 INTER-LIGAND FREE ENERGY PREDICTED BY IDOCK:    3.00 KCAL/MOL
REMARK 924 INTRA-LIGAND FREE ENERGY PREDICTED BY IDOCK:    1.46 KCAL/MOL
REMARK 927      BINDING AFFINITY PREDICTED BY RF-SCORE:    0.00 PKD
ROOT
HETATM    1  C   UNL     1     -10.500   5.854  73.195  1.00  0.00    -0.228 C  
HETATM    2  N   UNL     1      -9.223   5.331  73.654  1.00  0.00    -0.130 NA 
HETATM    3  H   UNL     1      -9.003   4.437  73.213  1.00  0.00     0.000 HD 
ENDROOT
BRANCH   2   4
HETATM    4  C   UNL     1      -8.153   6.306  73.454  1.00  0.00    -0.111 C  
BRANCH   4   5
HETATM    5  C   UNL     1      -8.380   7.115  72.199  1.00  0.00    -0.109 A  
HETATM    6  C   UNL     1      -9.494   6.902  71.371  1.00  0.00    -0.160 A  
HETATM    7  C   UNL     1      -9.673   7.647  70.194  1.00  0.00    -0.179 A  
HETATM    8  C   UNL     1      -8.738   8.619  69.818  1.00  0.00    -0.132 A  
HETATM    9  C   UNL     1      -7.630   8.824  70.651  1.00  0.00    -0.090 A  
HETATM   10  C   UNL     1      -7.455   8.093  71.827  1.00  0.00    -0.098 A  
BRANCH   8  11
HETATM   11  C   UNL     1      -8.853   9.393  68.573  1.00  0.00    -0.128 A  
HETATM   12  C   UNL     1      -8.377  10.655  68.245  1.00  0.00    -0.122 A  
HETATM   13  C   UNL     1      -7.794  11.743  69.095  1.00  0.00     0.159 C  
HETATM   14  C   UNL     1      -6.335  12.037  68.730  1.00  0.00    -0.071 C  
HETATM   15  N   UNL     1      -6.056  12.289  67.308  1.00  0.00    -0.150 N  
HETATM   16  C   UNL     1      -7.043  12.798  66.468  1.00  0.00     1.196 C  
HETATM   17  H   UNL     1      -5.129  12.090  66.933  1.00  0.00     0.000 HD 
HETATM   18  O   UNL     1      -7.062  13.954  66.073  1.00  0.00     2.976 OA 
HETATM   19  C   UNL     1      -8.016  11.797  65.954  1.00  0.00     0.489 A  
HETATM   20  C   UNL     1      -8.495  10.811  66.836  1.00  0.00    -0.131 A  
HETATM   21  C   UNL     1      -9.271   9.765  66.362  1.00  0.00    -0.160 A  
HETATM   22  C   UNL     1      -9.690   9.721  65.025  1.00  0.00    -0.303 A  
HETATM   23  N   UNL     1      -9.452   8.905  67.420  1.00  0.00    -0.141 NA 
HETATM   24  H   UNL     1      -9.960   8.023  67.365  1.00  0.00     0.000 HD 
HETATM   25  C   UNL     1      -9.280  10.769  64.194  1.00  0.00    -0.224 A  
HETATM   26  C   UNL     1      -8.446  11.793  64.629  1.00  0.00     1.118 A  
HETATM   27  F   UNL     1      -9.695  10.772  62.918  1.00  0.00    -0.266 F  
ENDBRANCH   8  11
ENDBRANCH   4   5
ENDBRANCH   2   4
TORSDOF 3
ENDMDL
MODEL      163
REMARK 921   NORMALIZED FREE ENERGY PREDICTED BY IDOCK:    4.72 KCAL/MOL
REMARK 922        TOTAL FREE ENERGY PREDICTED BY IDOCK:    5.16 KCAL/MOL
REMARK 923 INTER-LIGAND FREE ENERGY PREDICTED BY IDOCK:    5.36 KCAL/MOL
REMARK 924 INTRA-LIGAND FREE ENERGY PREDICTED BY IDOCK:   -0.20 KCAL/MOL
REMARK 927      BINDING AFFINITY PREDICTED BY RF-SCORE:    0.00 PKD
ROOT
HETATM    1  C   UNL     1     -11.144  13.389  74.106  1.00  0.00     8.745 C  
HETATM    2  N   UNL     1     -10.918  14.792  73.795  1.00  0.00     1.554 NA 
HETATM    3  H   UNL     1      -9.969  14.953  73.454  1.00  0.00     0.000 HD 
ENDROOT
BRANCH   2   4
HETATM    4  C   UNL     1     -11.919  15.290  72.853  1.00  0.00    -0.411 C  
BRANCH   4   5
HETATM    5  C   UNL     1     -11.724  14.687  71.482  1.00  0.00    -0.273 A  
HETATM    6  C   UNL     1     -10.982  15.339  70.484  1.00  0.00    -0.318 A  
HETATM    7  C   UNL     1     -10.835  14.773  69.207  1.00  0.00    -0.275 A  
HETATM    8  C   UNL     1     -11.432  13.544  68.900  1.00  0.00    -0.348 A  
HETATM    9  C   UNL     1     -12.171  12.902  69.903  1.00  0.00    -0.258 A  
HETATM   10  C   UNL     1     -12.309  13.456  71.176  1.00  0.00    -0.348 A  
BRANCH   8  11
HETATM   11  C   UNL     1     -11.349  12.931  67.566  1.00  0.00    -0.308 A  
HETATM   12  C   UNL     1     -11.990  13.260  66.378  1.00  0.00    -0.465 A  
HETATM   13  C   UNL     1     -13.137  14.182  66.097  1.00  0.00     0.393 C  
HETATM   14  C   UNL     1     -12.724  15.353  65.199  1.00  0.00     0.760 C  
HETATM   15  N   UNL     1     -12.025  15.005  63.953  1.00  0.00    -0.905 N  
HETATM   16  C   UNL     1     -12.228  13.770  63.344  1.00  0.00    -0.065 C  
HETATM   17  H   UNL     1     -11.385  15.676  63.529  1.00  0.00     0.000 HD 
HETATM   18  O   UNL     1     -12.895  13.619  62.331  1.00  0.00     0.468 OA 
HETATM   19  C   UNL     1     -11.455  12.641  63.927  1.00  0.00    -0.509 A  
HETATM   20  C   UNL     1     -11.342  12.556  65.326  1.00  0.00    -0.363 A  
HETATM   21  C   UNL     1     -10.499  11.620  65.906  1.00  0.00    -0.255 A  
HETATM   22  C   UNL     1      -9.826  10.669  65.126  1.00  0.00    -0.344 A  
HETATM   23  N   UNL     1     -10.495  11.883  67.256  1.00  0.00    -0.218 NA 
HETATM   24  H   UNL     1      -9.937  11.375  67.940  1.00  0.00     0.000 HD 
HETATM   25  C   UNL     1     -10.036  10.716  63.743  1.00  0.00    -0.317 A  
HETATM   26  C   UNL     1     -10.823  11.686  63.132  1.00  0.00    -0.281 A  
HETATM   27  F   UNL     1      -9.433   9.796  62.974  1.00  0.00    -0.303 F  
ENDBRANCH   8  11
ENDBRANCH   4   5
ENDBRANCH   2   4
TORSDOF 3
ENDMDL
MODEL      164
REMARK 921   NORMALIZED FREE ENERGY PREDICTED BY IDOCK:    7.97 KCAL/MOL
REMARK 922        TOTAL FREE ENERGY PREDICTED BY IDOCK:    8.98 KCAL/MOL
REMARK 923 INTER-LIGAND FREE ENERGY PREDICTED BY IDOCK:    8.66 KCAL/MOL
REMARK 924 INTRA-LIGAND FREE ENERGY PREDICTED BY IDOCK:    0.32 KCAL/MOL
REMARK 927      BINDING AFFINITY PREDICTED BY RF-SCORE:    0.00 PKD
ROOT
HETATM    1  C   UNL     1     -13.250  13.233  73.562  1.00  0.00     3.004 C  
HETATM    2  N   UNL     1     -12.750  14.160  74.565  1.00  0.00     1.261 NA 
HETATM    3  H   UNL     1     -11.782  13.956  74.816  1.00  0.00     0.000 HD 
ENDROOT
BRANCH   2   4
HETATM    4  C   UNL     1     -12.911  15.545  74.127  1.00  0.00    -0.087 C  
BRANCH   4   5
HETATM    5  C   UNL     1     -12.632  15.685  72.648  1.00  0.00    -0.532 A  
HETATM    6  C   UNL     1     -13.610  15.407  71.680  1.00  0.00    -0.603 A  
HETATM    7  C   UNL     1     -13.322  15.517  70.309  1.00  0.00     0.216 A  
HETATM    8  C   UNL     1     -12.047  15.905  69.880  1.00  0.00    -0.245 A  
HETATM    9  C   UNL     1     -11.078  16.180  70.855  1.00  0.00    -0.232 A  
HETATM   10  C   UNL     1     -11.365  16.082  72.217  1.00  0.00    -0.095 A  
BRANCH   8  11
HETATM   11  C   UNL     1     -11.678  15.990  68.458  1.00  0.00    -0.241 A  
HETATM   12  C   UNL     1     -10.697  16.737  67.821  1.00  0.00    -0.321 A  
HETATM   13  C   UNL     1      -9.842  17.866  68.309  1.00  0.00    -0.348 C  
HETATM   14  C   UNL     1      -8.354  17.500  68.311  1.00  0.00    -0.265 C  
HETATM   15  N   UNL     1      -7.816  16.952  67.057  1.00  0.00    -0.182 N  
HETATM   16  C   UNL     1      -8.397  17.270  65.832  1.00  0.00     0.021 C  
HETATM   17  H   UNL     1      -7.007  16.331  67.084  1.00  0.00     0.000 HD 
HETATM   18  O   UNL     1      -7.898  18.046  65.031  1.00  0.00     0.943 OA 
HETATM   19  C   UNL     1      -9.615  16.489  65.487  1.00  0.00     0.110 A  
HETATM   20  C   UNL     1     -10.559  16.233  66.498  1.00  0.00    -0.256 A  
HETATM   21  C   UNL     1     -11.622  15.375  66.263  1.00  0.00     0.107 A  
HETATM   22  C   UNL     1     -11.846  14.830  64.991  1.00  0.00    -0.343 A  
HETATM   23  N   UNL     1     -12.268  15.218  67.467  1.00  0.00    -0.154 NA 
HETATM   24  H   UNL     1     -13.076  14.614  67.613  1.00  0.00     0.000 HD 
HETATM   25  C   UNL     1     -10.946  15.181  63.980  1.00  0.00     0.790 A  
HETATM   26  C   UNL     1      -9.835  15.986  64.206  1.00  0.00     3.363 A  
HETATM   27  F   UNL     1     -11.156  14.703  62.743  1.00  0.00     2.746 F  
ENDBRANCH   8  11
ENDBRANCH   4   5
ENDBRANCH   2   4
TORSDOF 3
ENDMDL
MODEL      165
REMARK 921   NORMALIZED FREE ENERGY PREDICTED BY IDOCK:   14.85 KCAL/MOL
REMARK 922        TOTAL FREE ENERGY PREDICTED BY IDOCK:   17.07 KCAL/MOL
REMARK 923 INTER-LIGAND FREE ENERGY PREDICTED BY IDOCK:   15.39 KCAL/MOL
REMARK 924 INTRA-LIGAND FREE ENERGY PREDICTED BY IDOCK:    1.67 KCAL/MOL
REMARK 927      BINDING AFFINITY PREDICTED BY RF-SCORE:    0.00 PKD
ROOT
HETATM    1  C   UNL     1      -8.188  20.375  70.735  1.00  0.00     1.953 C  
HETATM    2  N   UNL     1      -9.265  20.797  71.617  1.00  0.00     0.985 NA 
HETATM    3  H   UNL     1      -9.738  21.629  71.262  1.00  0.00     0.000 HD 
ENDROOT
BRANCH   2   4
HETATM    4  C   UNL     1     -10.207  19.705  71.858  1.00  0.00     3.333 C  
BRANCH   4   5
HETATM    5  C   UNL     1     -10.011  18.588  70.859  1.00  0.00     3.030 A  
HETATM    6  C   UNL     1     -11.097  17.920  70.273  1.00  0.00     2.226 A  
HETATM    7  C   UNL     1     -10.893  16.866  69.367  1.00  0.00    -0.186 A  
HETATM    8  C   UNL     1      -9.597  16.457  69.032  1.00  0.00    -0.264 A  
HETATM    9  C   UNL     1      -8.520  17.131  69.623  1.00  0.00     0.865 A  
HETATM   10  C   UNL     1      -8.719  18.186  70.514  1.00  0.00     4.096 A  
BRANCH   8  11
HETATM   11  C   UNL     1      -9.328  15.329  68.126  1.00  0.00    -0.198 A  
HETATM   12  C   UNL     1      -8.436  14.271  68.240  1.00  0.00    -0.167 A  
HETATM   13  C   UNL     1      -7.299  14.034  69.186  1.00  0.00    -0.037 C  
HETATM   14  C   UNL     1      -7.537  12.807  70.074  1.00  0.00     1.880 C  
HETATM   15  N   UNL     1      -7.899  11.562  69.382  1.00  0.00    -0.353 N  
HETATM   16  C   UNL     1      -7.500  11.334  68.068  1.00  0.00    -0.095 C  
HETATM   17  H   UNL     1      -8.449  10.855  69.871  1.00  0.00     0.000 HD 
HETATM   18  O   UNL     1      -6.603  10.564  67.759  1.00  0.00    -0.060 OA 
HETATM   19  C   UNL     1      -8.338  11.990  67.028  1.00  0.00    -0.178 A  
HETATM   20  C   UNL     1      -8.780  13.306  67.252  1.00  0.00    -0.214 A  
HETATM   21  C   UNL     1      -9.694  13.895  66.392  1.00  0.00    -0.297 A  
HETATM   22  C   UNL     1     -10.115  13.242  65.225  1.00  0.00    -0.254 A  
HETATM   23  N   UNL     1     -10.034  15.103  66.954  1.00  0.00    -0.236 NA 
HETATM   24  H   UNL     1     -10.717  15.750  66.560  1.00  0.00     0.000 HD 
HETATM   25  C   UNL     1      -9.582  11.972  64.978  1.00  0.00    -0.046 A  
HETATM   26  C   UNL     1      -8.716  11.333  65.858  1.00  0.00    -0.146 A  
HETATM   27  F   UNL     1      -9.940  11.338  63.850  1.00  0.00    -0.243 F  
ENDBRANCH   8  11
ENDBRANCH   4   5
ENDBRANCH   2   4
TORSDOF 3
ENDMDL
MODEL      166
REMARK 921   NORMALIZED FREE ENERGY PREDICTED BY IDOCK:   56.14 KCAL/MOL
REMARK 922        TOTAL FREE ENERGY PREDICTED BY IDOCK:   65.60 KCAL/MOL
REMARK 923 INTER-LIGAND FREE ENERGY PREDICTED BY IDOCK:   65.53 KCAL/MOL
REMARK 924 INTRA-LIGAND FREE ENERGY PREDICTED BY IDOCK:    0.08 KCAL/MOL
REMARK 927      BINDING AFFINITY PREDICTED BY RF-SCORE:    0.00 PKD
ROOT
HETATM    1  C   UNL     1     -10.932  11.211  74.013  1.00  0.00    20.230 C  
HETATM    2  N   UNL     1     -10.055  12.364  73.887  1.00  0.00    18.997 NA 
HETATM    3  H   UNL     1      -9.088  12.085  73.720  1.00  0.00     0.000 HD 
ENDROOT
BRANCH   2   4
HETATM    4  C   UNL     1     -10.536  13.280  72.855  1.00  0.00    10.842 C  
BRANCH   4   5
HETATM    5  C   UNL     1     -10.325  12.704  71.474  1.00  0.00     9.296 A  
HETATM    6  C   UNL     1      -9.473  13.312  70.539  1.00  0.00     5.357 A  
HETATM    7  C   UNL     1      -9.311  12.775  69.252  1.00  0.00     0.901 A  
HETATM    8  C   UNL     1     -10.002  11.618  68.872  1.00  0.00    -0.083 A  
HETATM    9  C   UNL     1     -10.850  11.019  69.813  1.00  0.00    -0.205 A  
HETATM   10  C   UNL     1     -11.004  11.544  71.096  1.00  0.00     2.814 A  
BRANCH   8  11
HETATM   11  C   UNL     1      -9.906  11.041  67.522  1.00  0.00    -0.169 A  
HETATM   12  C   UNL     1     -10.589  11.353  66.354  1.00  0.00    -0.311 A  
HETATM   13  C   UNL     1     -11.797  12.205  66.114  1.00  0.00    -0.327 C  
HETATM   14  C   UNL     1     -11.478  13.420  65.236  1.00  0.00    -0.298 C  
HETATM   15  N   UNL     1     -10.782  13.145  63.970  1.00  0.00    -0.516 N  
HETATM   16  C   UNL     1     -10.916  11.913  63.337  1.00  0.00    -0.395 C  
HETATM   17  H   UNL     1     -10.194  13.866  63.552  1.00  0.00     0.000 HD 
HETATM   18  O   UNL     1     -11.590  11.741  62.332  1.00  0.00     1.118 OA 
HETATM   19  C   UNL     1     -10.061  10.824  63.880  1.00  0.00    -0.397 A  
HETATM   20  C   UNL     1      -9.916  10.716  65.275  1.00  0.00    -0.356 A  
HETATM   21  C   UNL     1      -9.003   9.825  65.818  1.00  0.00    -0.160 A  
HETATM   22  C   UNL     1      -8.286   8.936  65.004  1.00  0.00    -0.174 A  
HETATM   23  N   UNL     1      -8.991  10.058  67.173  1.00  0.00    -0.135 NA 
HETATM   24  H   UNL     1      -8.389   9.571  67.836  1.00  0.00     0.000 HD 
HETATM   25  C   UNL     1      -8.524   9.000  63.627  1.00  0.00    -0.167 A  
HETATM   26  C   UNL     1      -9.384   9.929  63.053  1.00  0.00    -0.226 A  
HETATM   27  F   UNL     1      -7.878   8.137  62.827  1.00  0.00    -0.110 F  
ENDBRANCH   8  11
ENDBRANCH   4   5
ENDBRANCH   2   4
TORSDOF 3
ENDMDL
MODEL      167
REMARK 921   NORMALIZED FREE ENERGY PREDICTED BY IDOCK:   70.69 KCAL/MOL
REMARK 922        TOTAL FREE ENERGY PREDICTED BY IDOCK:   82.70 KCAL/MOL
REMARK 923 INTER-LIGAND FREE ENERGY PREDICTED BY IDOCK:   82.55 KCAL/MOL
REMARK 924 INTRA-LIGAND FREE ENERGY PREDICTED BY IDOCK:    0.15 KCAL/MOL
REMARK 927      BINDING AFFINITY PREDICTED BY RF-SCORE:    0.00 PKD
ROOT
HETATM    1  C   UNL     1     -10.914  11.194  74.035  1.00  0.00    20.230 C  
HETATM    2  N   UNL     1      -9.981  12.301  73.890  1.00  0.00    19.880 NA 
HETATM    3  H   UNL     1      -9.026  11.973  73.750  1.00  0.00     0.000 HD 
ENDROOT
BRANCH   2   4
HETATM    4  C   UNL     1     -10.402  13.206  72.822  1.00  0.00    13.237 C  
BRANCH   4   5
HETATM    5  C   UNL     1     -10.222  12.565  71.465  1.00  0.00    10.265 A  
HETATM    6  C   UNL     1      -9.949  11.196  71.322  1.00  0.00     5.871 A  
HETATM    7  C   UNL     1      -9.759  10.626  70.052  1.00  0.00     0.404 A  
HETATM    8  C   UNL     1      -9.836  11.416  68.899  1.00  0.00    -0.127 A  
HETATM    9  C   UNL     1     -10.109  12.782  69.053  1.00  0.00     0.166 A  
HETATM   10  C   UNL     1     -10.309  13.349  70.312  1.00  0.00     2.161 A  
BRANCH   8  11
HETATM   11  C   UNL     1      -9.598  10.879  67.550  1.00  0.00    -0.155 A  
HETATM   12  C   UNL     1      -8.415  10.682  66.850  1.00  0.00    -0.127 A  
HETATM   13  C   UNL     1      -7.018  11.149  67.120  1.00  0.00    -0.112 C  
HETATM   14  C   UNL     1      -6.060   9.980  67.373  1.00  0.00    -0.058 C  
HETATM   15  N   UNL     1      -6.060   8.908  66.365  1.00  0.00    -0.058 N  
HETATM   16  C   UNL     1      -6.418   9.171  65.046  1.00  0.00    -0.066 C  
HETATM   17  H   UNL     1      -5.792   7.962  66.636  1.00  0.00     0.000 HD 
HETATM   18  O   UNL     1      -5.613   9.241  64.130  1.00  0.00    -0.066 OA 
HETATM   19  C   UNL     1      -7.882   9.222  64.785  1.00  0.00    -0.118 A  
HETATM   20  C   UNL     1      -8.709   9.866  65.722  1.00  0.00    -0.157 A  
HETATM   21  C   UNL     1     -10.089   9.796  65.605  1.00  0.00    -0.212 A  
HETATM   22  C   UNL     1     -10.691   9.181  64.498  1.00  0.00     4.948 A  
HETATM   23  N   UNL     1     -10.606  10.388  66.733  1.00  0.00    -0.230 NA 
HETATM   24  H   UNL     1     -11.601  10.456  66.943  1.00  0.00     0.000 HD 
HETATM   25  C   UNL     1      -9.840   8.634  63.532  1.00  0.00     3.443 A  
HETATM   26  C   UNL     1      -8.456   8.633  63.660  1.00  0.00    -0.070 A  
HETATM   27  F   UNL     1     -10.388   8.070  62.444  1.00  0.00     3.501 F  
ENDBRANCH   8  11
ENDBRANCH   4   5
ENDBRANCH   2   4
TORSDOF 3
ENDMDL
