MODEL        1
REMARK 921   NORMALIZED FREE ENERGY PREDICTED BY IDOCK:   -7.08 KCAL/MOL
REMARK 922        TOTAL FREE ENERGY PREDICTED BY IDOCK:   -8.73 KCAL/MOL
REMARK 923 INTER-LIGAND FREE ENERGY PREDICTED BY IDOCK:   -8.32 KCAL/MOL
REMARK 924 INTRA-LIGAND FREE ENERGY PREDICTED BY IDOCK:   -0.41 KCAL/MOL
REMARK 927      BINDING AFFINITY PREDICTED BY RF-SCORE:    0.00 PKD
ROOT
HETATM    1  N   UNL     1     -11.850  15.493  64.181  1.00  0.00    -0.877 N  
HETATM    2  C   UNL     1     -12.272  14.200  64.303  1.00  0.00    -0.420 C  
HETATM    3  H1  UNL     1     -11.448  15.995  64.972  1.00  0.00     0.000 HD 
HETATM    4  H2  UNL     1     -11.939  15.965  63.280  1.00  0.00     0.000 HD 
HETATM    5  O   UNL     1     -12.756  13.595  63.351  1.00  0.00    -0.762 OA 
ENDROOT
BRANCH   2   6
HETATM    6  C   UNL     1     -12.122  13.632  65.633  1.00  0.00    -0.425 A  
HETATM    7  C   UNL     1     -11.902  14.309  66.816  1.00  0.00    -0.426 A  
HETATM    8  N   UNL     1     -11.742  13.321  67.745  1.00  0.00    -0.340 NA 
HETATM    9  N   UNL     1     -12.136  12.280  65.894  1.00  0.00    -0.620 NA 
HETATM   10  N   UNL     1     -11.900  12.103  67.188  1.00  0.00    -0.591 NA 
BRANCH   8  11
HETATM   11  C   UNL     1     -11.157  13.449  69.066  1.00  0.00    -0.249 C  
BRANCH  11  12
HETATM   12  C   UNL     1     -12.145  13.740  70.154  1.00  0.00    -0.429 A  
HETATM   13  C   UNL     1     -12.631  12.723  70.975  1.00  0.00    -0.271 A  
HETATM   14  C   UNL     1     -13.409  13.003  72.099  1.00  0.00    -0.622 A  
HETATM   15  F   UNL     1     -12.307  11.449  70.720  1.00  0.00    -0.398 F  
HETATM   16  C   UNL     1     -13.730  14.323  72.410  1.00  0.00    -0.616 A  
HETATM   17  C   UNL     1     -13.302  15.349  71.568  1.00  0.00    -0.586 A  
HETATM   18  C   UNL     1     -12.524  15.049  70.449  1.00  0.00    -0.356 A  
HETATM   19  F   UNL     1     -12.096  16.054  69.674  1.00  0.00    -0.330 F  
ENDBRANCH  11  12
ENDBRANCH   8  11
ENDBRANCH   2   6
TORSDOF 3
ENDMDL
MODEL        2
REMARK 921   NORMALIZED FREE ENERGY PREDICTED BY IDOCK:   -6.99 KCAL/MOL
REMARK 922        TOTAL FREE ENERGY PREDICTED BY IDOCK:   -8.63 KCAL/MOL
REMARK 923 INTER-LIGAND FREE ENERGY PREDICTED BY IDOCK:   -8.20 KCAL/MOL
REMARK 924 INTRA-LIGAND FREE ENERGY PREDICTED BY IDOCK:   -0.43 KCAL/MOL
REMARK 927      BINDING AFFINITY PREDICTED BY RF-SCORE:    0.00 PKD
ROOT
HETATM    1  N   UNL     1     -12.068  15.283  64.073  1.00  0.00    -0.945 N  
HETATM    2  C   UNL     1     -12.252  13.947  64.288  1.00  0.00    -0.408 C  
HETATM    3  H1  UNL     1     -11.840  15.917  64.840  1.00  0.00     0.000 HD 
HETATM    4  H2  UNL     1     -12.159  15.655  63.127  1.00  0.00     0.000 HD 
HETATM    5  O   UNL     1     -12.525  13.185  63.366  1.00  0.00    -0.730 OA 
ENDROOT
BRANCH   2   6
HETATM    6  C   UNL     1     -12.122  13.528  65.674  1.00  0.00    -0.430 A  
HETATM    7  C   UNL     1     -11.800  14.314  66.762  1.00  0.00    -0.426 A  
HETATM    8  N   UNL     1     -11.715  13.432  67.802  1.00  0.00    -0.339 NA 
HETATM    9  N   UNL     1     -12.267  12.226  66.097  1.00  0.00    -0.585 NA 
HETATM   10  N   UNL     1     -12.013  12.180  67.398  1.00  0.00    -0.570 NA 
BRANCH   8  11
HETATM   11  C   UNL     1     -11.083  13.654  69.088  1.00  0.00    -0.231 C  
BRANCH  11  12
HETATM   12  C   UNL     1     -12.041  13.852  70.222  1.00  0.00    -0.423 A  
HETATM   13  C   UNL     1     -12.652  15.087  70.439  1.00  0.00    -0.350 A  
HETATM   14  C   UNL     1     -13.676  15.239  71.376  1.00  0.00    -0.602 A  
HETATM   15  F   UNL     1     -12.294  16.147  69.703  1.00  0.00    -0.264 F  
HETATM   16  C   UNL     1     -14.095  14.144  72.130  1.00  0.00    -0.643 A  
HETATM   17  C   UNL     1     -13.456  12.916  71.968  1.00  0.00    -0.568 A  
HETATM   18  C   UNL     1     -12.435  12.784  71.026  1.00  0.00    -0.277 A  
HETATM   19  F   UNL     1     -11.859  11.584  70.864  1.00  0.00    -0.408 F  
ENDBRANCH  11  12
ENDBRANCH   8  11
ENDBRANCH   2   6
TORSDOF 3
ENDMDL
MODEL        3
REMARK 921   NORMALIZED FREE ENERGY PREDICTED BY IDOCK:   -6.76 KCAL/MOL
REMARK 922        TOTAL FREE ENERGY PREDICTED BY IDOCK:   -8.35 KCAL/MOL
REMARK 923 INTER-LIGAND FREE ENERGY PREDICTED BY IDOCK:   -7.96 KCAL/MOL
REMARK 924 INTRA-LIGAND FREE ENERGY PREDICTED BY IDOCK:   -0.39 KCAL/MOL
REMARK 927      BINDING AFFINITY PREDICTED BY RF-SCORE:    0.00 PKD
ROOT
HETATM    1  N   UNL     1     -12.333  13.778  63.082  1.00  0.00    -1.106 N  
HETATM    2  C   UNL     1     -12.355  14.113  64.407  1.00  0.00    -0.381 C  
HETATM    3  H1  UNL     1     -11.829  14.347  62.402  1.00  0.00     0.000 HD 
HETATM    4  H2  UNL     1     -12.830  12.944  62.769  1.00  0.00     0.000 HD 
HETATM    5  O   UNL     1     -12.961  13.429  65.226  1.00  0.00    -0.681 OA 
ENDROOT
BRANCH   2   6
HETATM    6  C   UNL     1     -11.637  15.332  64.741  1.00  0.00    -0.322 A  
HETATM    7  C   UNL     1     -10.758  15.528  65.787  1.00  0.00    -0.353 A  
HETATM    8  N   UNL     1     -10.439  16.854  65.714  1.00  0.00    -0.476 NA 
HETATM    9  N   UNL     1     -11.778  16.516  64.053  1.00  0.00    -1.064 NA 
HETATM   10  N   UNL     1     -11.042  17.439  64.660  1.00  0.00    -0.851 NA 
BRANCH   8  11
HETATM   11  C   UNL     1      -9.833  17.667  66.752  1.00  0.00    -0.304 C  
BRANCH  11  12
HETATM   12  C   UNL     1      -8.493  18.231  66.393  1.00  0.00    -0.266 A  
HETATM   13  C   UNL     1      -7.384  17.401  66.232  1.00  0.00    -0.312 A  
HETATM   14  C   UNL     1      -6.177  17.887  65.725  1.00  0.00    -0.252 A  
HETATM   15  F   UNL     1      -7.481  16.096  66.516  1.00  0.00    -0.257 F  
HETATM   16  C   UNL     1      -6.060  19.234  65.385  1.00  0.00    -0.272 A  
HETATM   17  C   UNL     1      -7.140  20.090  65.594  1.00  0.00    -0.338 A  
HETATM   18  C   UNL     1      -8.337  19.585  66.101  1.00  0.00    -0.321 A  
HETATM   19  F   UNL     1      -9.373  20.421  66.261  1.00  0.00    -0.406 F  
ENDBRANCH  11  12
ENDBRANCH   8  11
ENDBRANCH   2   6
TORSDOF 3
ENDMDL
MODEL        4
REMARK 921   NORMALIZED FREE ENERGY PREDICTED BY IDOCK:   -6.66 KCAL/MOL
REMARK 922        TOTAL FREE ENERGY PREDICTED BY IDOCK:   -8.24 KCAL/MOL
REMARK 923 INTER-LIGAND FREE ENERGY PREDICTED BY IDOCK:   -7.82 KCAL/MOL
REMARK 924 INTRA-LIGAND FREE ENERGY PREDICTED BY IDOCK:   -0.42 KCAL/MOL
REMARK 927      BINDING AFFINITY PREDICTED BY RF-SCORE:    0.00 PKD
ROOT
HETATM    1  N   UNL     1     -11.906  15.547  64.077  1.00  0.00    -0.954 N  
HETATM    2  C   UNL     1     -12.269  14.231  64.129  1.00  0.00    -0.378 C  
HETATM    3  H1  UNL     1     -11.512  16.019  64.891  1.00  0.00     0.000 HD 
HETATM    4  H2  UNL     1     -12.031  16.066  63.208  1.00  0.00     0.000 HD 
HETATM    5  O   UNL     1     -12.743  13.662  63.151  1.00  0.00    -0.737 OA 
ENDROOT
BRANCH   2   6
HETATM    6  C   UNL     1     -12.070  13.593  65.420  1.00  0.00    -0.403 A  
HETATM    7  C   UNL     1     -11.848  14.209  66.636  1.00  0.00    -0.424 A  
HETATM    8  N   UNL     1     -11.635  13.175  67.502  1.00  0.00    -0.331 NA 
HETATM    9  N   UNL     1     -12.033  12.229  65.602  1.00  0.00    -0.538 NA 
HETATM   10  N   UNL     1     -11.763  11.987  66.879  1.00  0.00    -0.576 NA 
BRANCH   8  11
HETATM   11  C   UNL     1     -11.025  13.248  68.817  1.00  0.00    -0.260 C  
BRANCH  11  12
HETATM   12  C   UNL     1     -11.987  13.082  69.954  1.00  0.00    -0.381 A  
HETATM   13  C   UNL     1     -12.185  11.837  70.552  1.00  0.00    -0.347 A  
HETATM   14  C   UNL     1     -12.938  11.701  71.719  1.00  0.00    -0.483 A  
HETATM   15  F   UNL     1     -11.601  10.749  70.034  1.00  0.00    -0.281 F  
HETATM   16  C   UNL     1     -13.525  12.823  72.301  1.00  0.00    -0.591 A  
HETATM   17  C   UNL     1     -13.387  14.066  71.685  1.00  0.00    -0.442 A  
HETATM   18  C   UNL     1     -12.630  14.182  70.519  1.00  0.00    -0.342 A  
HETATM   19  F   UNL     1     -12.482  15.393  69.964  1.00  0.00    -0.352 F  
ENDBRANCH  11  12
ENDBRANCH   8  11
ENDBRANCH   2   6
TORSDOF 3
ENDMDL
MODEL        5
REMARK 921   NORMALIZED FREE ENERGY PREDICTED BY IDOCK:   -6.54 KCAL/MOL
REMARK 922        TOTAL FREE ENERGY PREDICTED BY IDOCK:   -8.10 KCAL/MOL
REMARK 923 INTER-LIGAND FREE ENERGY PREDICTED BY IDOCK:   -7.78 KCAL/MOL
REMARK 924 INTRA-LIGAND FREE ENERGY PREDICTED BY IDOCK:   -0.32 KCAL/MOL
REMARK 927      BINDING AFFINITY PREDICTED BY RF-SCORE:    0.00 PKD
ROOT
HETATM    1  N   UNL     1     -12.336  13.606  62.960  1.00  0.00    -1.004 N  
HETATM    2  C   UNL     1     -12.410  13.874  64.297  1.00  0.00    -0.348 C  
HETATM    3  H1  UNL     1     -11.798  14.202  62.330  1.00  0.00     0.000 HD 
HETATM    4  H2  UNL     1     -12.826  12.794  62.584  1.00  0.00     0.000 HD 
HETATM    5  O   UNL     1     -13.056  13.156  65.055  1.00  0.00    -0.728 OA 
ENDROOT
BRANCH   2   6
HETATM    6  C   UNL     1     -11.695  15.066  64.722  1.00  0.00    -0.370 A  
HETATM    7  C   UNL     1     -10.984  15.247  65.891  1.00  0.00    -0.325 A  
HETATM    8  N   UNL     1     -10.593  16.554  65.849  1.00  0.00    -0.306 NA 
HETATM    9  N   UNL     1     -11.668  16.239  64.002  1.00  0.00    -0.975 NA 
HETATM   10  N   UNL     1     -10.993  17.142  64.703  1.00  0.00    -0.921 NA 
BRANCH   8  11
HETATM   11  C   UNL     1     -10.121  17.363  66.958  1.00  0.00    -0.313 C  
BRANCH  11  12
HETATM   12  C   UNL     1      -8.958  18.246  66.627  1.00  0.00    -0.296 A  
HETATM   13  C   UNL     1      -9.042  19.631  66.777  1.00  0.00    -0.355 A  
HETATM   14  C   UNL     1      -7.917  20.447  66.644  1.00  0.00    -0.256 A  
HETATM   15  F   UNL     1     -10.209  20.196  67.109  1.00  0.00    -0.505 F  
HETATM   16  C   UNL     1      -6.681  19.881  66.337  1.00  0.00    -0.225 A  
HETATM   17  C   UNL     1      -6.590  18.506  66.125  1.00  0.00    -0.267 A  
HETATM   18  C   UNL     1      -7.725  17.707  66.263  1.00  0.00    -0.289 A  
HETATM   19  F   UNL     1      -7.606  16.383  66.089  1.00  0.00    -0.298 F  
ENDBRANCH  11  12
ENDBRANCH   8  11
ENDBRANCH   2   6
TORSDOF 3
ENDMDL
MODEL        6
REMARK 921   NORMALIZED FREE ENERGY PREDICTED BY IDOCK:   -6.53 KCAL/MOL
REMARK 922        TOTAL FREE ENERGY PREDICTED BY IDOCK:   -8.08 KCAL/MOL
REMARK 923 INTER-LIGAND FREE ENERGY PREDICTED BY IDOCK:   -7.94 KCAL/MOL
REMARK 924 INTRA-LIGAND FREE ENERGY PREDICTED BY IDOCK:   -0.14 KCAL/MOL
REMARK 927      BINDING AFFINITY PREDICTED BY RF-SCORE:    0.00 PKD
ROOT
HETATM    1  N   UNL     1     -12.474  13.421  62.841  1.00  0.00    -0.837 N  
HETATM    2  C   UNL     1     -12.392  13.706  64.175  1.00  0.00    -0.330 C  
HETATM    3  H1  UNL     1     -11.915  13.930  62.156  1.00  0.00     0.000 HD 
HETATM    4  H2  UNL     1     -13.106  12.685  62.524  1.00  0.00     0.000 HD 
HETATM    5  O   UNL     1     -13.065  13.093  64.998  1.00  0.00    -0.728 OA 
ENDROOT
BRANCH   2   6
HETATM    6  C   UNL     1     -11.481  14.786  64.514  1.00  0.00    -0.329 A  
HETATM    7  C   UNL     1     -10.298  14.696  65.220  1.00  0.00    -0.399 A  
HETATM    8  N   UNL     1      -9.881  15.990  65.345  1.00  0.00    -0.449 NA 
HETATM    9  N   UNL     1     -11.708  16.107  64.199  1.00  0.00    -0.788 NA 
HETATM   10  N   UNL     1     -10.725  16.833  64.715  1.00  0.00    -0.738 NA 
BRANCH   8  11
HETATM   11  C   UNL     1      -8.894  16.505  66.275  1.00  0.00    -0.329 C  
BRANCH  11  12
HETATM   12  C   UNL     1      -9.169  17.895  66.762  1.00  0.00    -0.278 A  
HETATM   13  C   UNL     1      -8.369  18.967  66.365  1.00  0.00    -0.296 A  
HETATM   14  C   UNL     1      -8.717  20.285  66.664  1.00  0.00    -0.318 A  
HETATM   15  F   UNL     1      -7.269  18.744  65.635  1.00  0.00    -0.291 F  
HETATM   16  C   UNL     1      -9.877  20.549  67.390  1.00  0.00    -0.574 A  
HETATM   17  C   UNL     1     -10.658  19.488  67.845  1.00  0.00    -0.503 A  
HETATM   18  C   UNL     1     -10.294  18.177  67.535  1.00  0.00    -0.392 A  
HETATM   19  F   UNL     1     -11.078  17.174  67.954  1.00  0.00    -0.358 F  
ENDBRANCH  11  12
ENDBRANCH   8  11
ENDBRANCH   2   6
TORSDOF 3
ENDMDL
MODEL        7
REMARK 921   NORMALIZED FREE ENERGY PREDICTED BY IDOCK:   -6.22 KCAL/MOL
REMARK 922        TOTAL FREE ENERGY PREDICTED BY IDOCK:   -7.73 KCAL/MOL
REMARK 923 INTER-LIGAND FREE ENERGY PREDICTED BY IDOCK:   -7.34 KCAL/MOL
REMARK 924 INTRA-LIGAND FREE ENERGY PREDICTED BY IDOCK:   -0.39 KCAL/MOL
REMARK 927      BINDING AFFINITY PREDICTED BY RF-SCORE:    0.00 PKD
ROOT
HETATM    1  N   UNL     1     -12.288  14.024  63.261  1.00  0.00    -1.145 N  
HETATM    2  C   UNL     1     -11.804  14.047  64.538  1.00  0.00    -0.434 C  
HETATM    3  H1  UNL     1     -12.278  14.860  62.676  1.00  0.00     0.000 HD 
HETATM    4  H2  UNL     1     -12.665  13.154  62.884  1.00  0.00     0.000 HD 
HETATM    5  O   UNL     1     -11.815  13.041  65.241  1.00  0.00    -0.336 OA 
ENDROOT
BRANCH   2   6
HETATM    6  C   UNL     1     -11.313  15.341  64.982  1.00  0.00    -0.358 A  
HETATM    7  C   UNL     1     -10.832  15.673  66.233  1.00  0.00    -0.262 A  
HETATM    8  N   UNL     1     -10.594  17.015  66.157  1.00  0.00    -0.250 NA 
HETATM    9  N   UNL     1     -11.301  16.468  64.191  1.00  0.00    -1.047 NA 
HETATM   10  N   UNL     1     -10.862  17.485  64.922  1.00  0.00    -0.728 NA 
BRANCH   8  11
HETATM   11  C   UNL     1     -10.410  17.935  67.264  1.00  0.00    -0.369 C  
BRANCH  11  12
HETATM   12  C   UNL     1      -9.074  18.613  67.288  1.00  0.00    -0.286 A  
HETATM   13  C   UNL     1      -8.960  19.985  67.063  1.00  0.00    -0.350 A  
HETATM   14  C   UNL     1      -7.753  20.657  67.258  1.00  0.00    -0.359 A  
HETATM   15  F   UNL     1     -10.039  20.693  66.705  1.00  0.00    -0.558 F  
HETATM   16  C   UNL     1      -6.624  19.951  67.669  1.00  0.00    -0.262 A  
HETATM   17  C   UNL     1      -6.704  18.570  67.841  1.00  0.00    -0.218 A  
HETATM   18  C   UNL     1      -7.920  17.916  67.642  1.00  0.00    -0.219 A  
HETATM   19  F   UNL     1      -7.981  16.593  67.848  1.00  0.00    -0.161 F  
ENDBRANCH  11  12
ENDBRANCH   8  11
ENDBRANCH   2   6
TORSDOF 3
ENDMDL
MODEL        8
REMARK 921   NORMALIZED FREE ENERGY PREDICTED BY IDOCK:   -6.18 KCAL/MOL
REMARK 922        TOTAL FREE ENERGY PREDICTED BY IDOCK:   -7.68 KCAL/MOL
REMARK 923 INTER-LIGAND FREE ENERGY PREDICTED BY IDOCK:   -7.36 KCAL/MOL
REMARK 924 INTRA-LIGAND FREE ENERGY PREDICTED BY IDOCK:   -0.31 KCAL/MOL
REMARK 927      BINDING AFFINITY PREDICTED BY RF-SCORE:    0.00 PKD
ROOT
HETATM    1  N   UNL     1     -12.612  13.804  62.875  1.00  0.00    -0.787 N  
HETATM    2  C   UNL     1     -12.422  13.976  64.217  1.00  0.00    -0.262 C  
HETATM    3  H1  UNL     1     -12.089  14.353  62.192  1.00  0.00     0.000 HD 
HETATM    4  H2  UNL     1     -13.289  13.113  62.550  1.00  0.00     0.000 HD 
HETATM    5  O   UNL     1     -13.051  13.316  65.039  1.00  0.00    -0.737 OA 
ENDROOT
BRANCH   2   6
HETATM    6  C   UNL     1     -11.455  15.002  64.571  1.00  0.00    -0.318 A  
HETATM    7  C   UNL     1     -10.339  14.863  65.372  1.00  0.00    -0.388 A  
HETATM    8  N   UNL     1      -9.830  16.127  65.462  1.00  0.00    -0.487 NA 
HETATM    9  N   UNL     1     -11.551  16.315  64.170  1.00  0.00    -0.946 NA 
HETATM   10  N   UNL     1     -10.553  16.993  64.724  1.00  0.00    -0.489 NA 
BRANCH   8  11
HETATM   11  C   UNL     1      -8.876  16.619  66.439  1.00  0.00    -0.302 C  
BRANCH  11  12
HETATM   12  C   UNL     1      -9.111  18.032  66.874  1.00  0.00    -0.273 A  
HETATM   13  C   UNL     1     -10.084  18.340  67.825  1.00  0.00    -0.356 A  
HETATM   14  C   UNL     1     -10.192  19.620  68.369  1.00  0.00    -0.553 A  
HETATM   15  F   UNL     1     -10.903  17.380  68.274  1.00  0.00    -0.358 F  
HETATM   16  C   UNL     1      -9.327  20.629  67.948  1.00  0.00    -0.179 A  
HETATM   17  C   UNL     1      -8.387  20.355  66.955  1.00  0.00    -0.349 A  
HETATM   18  C   UNL     1      -8.294  19.069  66.425  1.00  0.00    -0.307 A  
HETATM   19  F   UNL     1      -7.359  18.821  65.496  1.00  0.00    -0.272 F  
ENDBRANCH  11  12
ENDBRANCH   8  11
ENDBRANCH   2   6
TORSDOF 3
ENDMDL
MODEL        9
REMARK 921   NORMALIZED FREE ENERGY PREDICTED BY IDOCK:   -6.09 KCAL/MOL
REMARK 922        TOTAL FREE ENERGY PREDICTED BY IDOCK:   -7.57 KCAL/MOL
REMARK 923 INTER-LIGAND FREE ENERGY PREDICTED BY IDOCK:   -7.33 KCAL/MOL
REMARK 924 INTRA-LIGAND FREE ENERGY PREDICTED BY IDOCK:   -0.24 KCAL/MOL
REMARK 927      BINDING AFFINITY PREDICTED BY RF-SCORE:    0.00 PKD
ROOT
HETATM    1  N   UNL     1     -12.457  13.943  63.187  1.00  0.00    -1.079 N  
HETATM    2  C   UNL     1     -12.321  13.757  64.533  1.00  0.00    -0.358 C  
HETATM    3  H1  UNL     1     -12.060  14.760  62.723  1.00  0.00     0.000 HD 
HETATM    4  H2  UNL     1     -12.965  13.251  62.635  1.00  0.00     0.000 HD 
HETATM    5  O   UNL     1     -12.799  12.773  65.091  1.00  0.00    -0.726 OA 
ENDROOT
BRANCH   2   6
HETATM    6  C   UNL     1     -11.602  14.812  65.226  1.00  0.00    -0.338 A  
HETATM    7  C   UNL     1     -11.422  14.953  66.588  1.00  0.00    -0.296 A  
HETATM    8  N   UNL     1     -10.768  16.144  66.720  1.00  0.00    -0.282 NA 
HETATM    9  N   UNL     1     -11.015  15.883  64.590  1.00  0.00    -0.569 NA 
HETATM   10  N   UNL     1     -10.511  16.691  65.515  1.00  0.00    -0.568 NA 
BRANCH   8  11
HETATM   11  C   UNL     1     -10.633  16.939  67.927  1.00  0.00    -0.361 C  
BRANCH  11  12
HETATM   12  C   UNL     1      -9.702  18.105  67.797  1.00  0.00    -0.294 A  
HETATM   13  C   UNL     1      -8.321  17.936  67.901  1.00  0.00    -0.247 A  
HETATM   14  C   UNL     1      -7.436  18.975  67.607  1.00  0.00    -0.251 A  
HETATM   15  F   UNL     1      -7.818  16.742  68.237  1.00  0.00    -0.168 F  
HETATM   16  C   UNL     1      -7.931  20.219  67.217  1.00  0.00    -0.378 A  
HETATM   17  C   UNL     1      -9.309  20.423  67.165  1.00  0.00    -0.537 A  
HETATM   18  C   UNL     1     -10.177  19.372  67.462  1.00  0.00    -0.425 A  
HETATM   19  F   UNL     1     -11.498  19.581  67.371  1.00  0.00    -0.454 F  
ENDBRANCH  11  12
ENDBRANCH   8  11
ENDBRANCH   2   6
TORSDOF 3
ENDMDL
MODEL       10
REMARK 921   NORMALIZED FREE ENERGY PREDICTED BY IDOCK:   -5.99 KCAL/MOL
REMARK 922        TOTAL FREE ENERGY PREDICTED BY IDOCK:   -7.45 KCAL/MOL
REMARK 923 INTER-LIGAND FREE ENERGY PREDICTED BY IDOCK:   -7.07 KCAL/MOL
REMARK 924 INTRA-LIGAND FREE ENERGY PREDICTED BY IDOCK:   -0.39 KCAL/MOL
REMARK 927      BINDING AFFINITY PREDICTED BY RF-SCORE:    0.00 PKD
ROOT
HETATM    1  N   UNL     1     -12.383  13.570  62.883  1.00  0.00    -0.900 N  
HETATM    2  C   UNL     1     -12.465  13.181  64.190  1.00  0.00    -0.274 C  
HETATM    3  H1  UNL     1     -11.852  14.398  62.610  1.00  0.00     0.000 HD 
HETATM    4  H2  UNL     1     -12.860  13.023  62.167  1.00  0.00     0.000 HD 
HETATM    5  O   UNL     1     -13.102  12.185  64.518  1.00  0.00    -0.720 OA 
ENDROOT
BRANCH   2   6
HETATM    6  C   UNL     1     -11.769  14.044  65.129  1.00  0.00    -0.350 A  
HETATM    7  C   UNL     1     -11.008  15.159  64.841  1.00  0.00    -0.419 A  
HETATM    8  N   UNL     1     -10.505  15.546  66.050  1.00  0.00    -0.307 NA 
HETATM    9  N   UNL     1     -11.738  13.828  66.489  1.00  0.00    -0.364 NA 
HETATM   10  N   UNL     1     -10.960  14.751  67.040  1.00  0.00    -0.316 NA 
BRANCH   8  11
HETATM   11  C   UNL     1      -9.386  16.439  66.287  1.00  0.00    -0.315 C  
BRANCH  11  12
HETATM   12  C   UNL     1      -9.742  17.694  67.022  1.00  0.00    -0.292 A  
HETATM   13  C   UNL     1      -9.288  17.919  68.322  1.00  0.00    -0.286 A  
HETATM   14  C   UNL     1      -9.461  19.152  68.951  1.00  0.00    -0.420 A  
HETATM   15  F   UNL     1      -8.623  16.955  68.972  1.00  0.00    -0.251 F  
HETATM   16  C   UNL     1     -10.116  20.186  68.283  1.00  0.00    -0.471 A  
HETATM   17  C   UNL     1     -10.628  19.961  67.007  1.00  0.00    -0.533 A  
HETATM   18  C   UNL     1     -10.445  18.721  66.394  1.00  0.00    -0.429 A  
HETATM   19  F   UNL     1     -10.916  18.540  65.153  1.00  0.00    -0.420 F  
ENDBRANCH  11  12
ENDBRANCH   8  11
ENDBRANCH   2   6
TORSDOF 3
ENDMDL
MODEL       11
REMARK 921   NORMALIZED FREE ENERGY PREDICTED BY IDOCK:   -5.99 KCAL/MOL
REMARK 922        TOTAL FREE ENERGY PREDICTED BY IDOCK:   -7.45 KCAL/MOL
REMARK 923 INTER-LIGAND FREE ENERGY PREDICTED BY IDOCK:   -7.02 KCAL/MOL
REMARK 924 INTRA-LIGAND FREE ENERGY PREDICTED BY IDOCK:   -0.43 KCAL/MOL
REMARK 927      BINDING AFFINITY PREDICTED BY RF-SCORE:    0.00 PKD
ROOT
HETATM    1  N   UNL     1     -11.133  11.286  63.266  1.00  0.00    -0.828 N  
HETATM    2  C   UNL     1     -12.207  11.995  63.725  1.00  0.00    -0.498 C  
HETATM    3  H1  UNL     1     -10.257  11.257  63.788  1.00  0.00     0.000 HD 
HETATM    4  H2  UNL     1     -11.209  10.775  62.386  1.00  0.00     0.000 HD 
HETATM    5  O   UNL     1     -13.261  12.030  63.097  1.00  0.00    -0.540 OA 
ENDROOT
BRANCH   2   6
HETATM    6  C   UNL     1     -11.983  12.704  64.974  1.00  0.00    -0.419 A  
HETATM    7  C   UNL     1     -10.907  12.579  65.829  1.00  0.00    -0.276 A  
HETATM    8  N   UNL     1     -11.223  13.381  66.888  1.00  0.00    -0.300 NA 
HETATM    9  N   UNL     1     -12.875  13.602  65.514  1.00  0.00    -0.627 NA 
HETATM   10  N   UNL     1     -12.400  14.006  66.686  1.00  0.00    -0.431 NA 
BRANCH   8  11
HETATM   11  C   UNL     1     -10.622  13.364  68.209  1.00  0.00    -0.254 C  
BRANCH  11  12
HETATM   12  C   UNL     1     -11.522  12.849  69.290  1.00  0.00    -0.341 A  
HETATM   13  C   UNL     1     -11.651  11.480  69.527  1.00  0.00    -0.333 A  
HETATM   14  C   UNL     1     -12.341  10.995  70.638  1.00  0.00    -0.480 A  
HETATM   15  F   UNL     1     -11.057  10.603  68.707  1.00  0.00    -0.224 F  
HETATM   16  C   UNL     1     -12.936  11.887  71.530  1.00  0.00    -0.427 A  
HETATM   17  C   UNL     1     -12.868  13.256  71.277  1.00  0.00    -0.398 A  
HETATM   18  C   UNL     1     -12.172  13.722  70.161  1.00  0.00    -0.356 A  
HETATM   19  F   UNL     1     -12.091  15.044  69.958  1.00  0.00    -0.292 F  
ENDBRANCH  11  12
ENDBRANCH   8  11
ENDBRANCH   2   6
TORSDOF 3
ENDMDL
MODEL       12
REMARK 921   NORMALIZED FREE ENERGY PREDICTED BY IDOCK:   -5.93 KCAL/MOL
REMARK 922        TOTAL FREE ENERGY PREDICTED BY IDOCK:   -7.38 KCAL/MOL
REMARK 923 INTER-LIGAND FREE ENERGY PREDICTED BY IDOCK:   -7.03 KCAL/MOL
REMARK 924 INTRA-LIGAND FREE ENERGY PREDICTED BY IDOCK:   -0.36 KCAL/MOL
REMARK 927      BINDING AFFINITY PREDICTED BY RF-SCORE:    0.00 PKD
ROOT
HETATM    1  N   UNL     1     -11.731  12.820  63.154  1.00  0.00    -0.825 N  
HETATM    2  C   UNL     1     -12.322  13.039  64.366  1.00  0.00    -0.376 C  
HETATM    3  H1  UNL     1     -10.891  13.328  62.875  1.00  0.00     0.000 HD 
HETATM    4  H2  UNL     1     -12.138  12.136  62.516  1.00  0.00     0.000 HD 
HETATM    5  O   UNL     1     -13.332  12.428  64.701  1.00  0.00    -0.778 OA 
ENDROOT
BRANCH   2   6
HETATM    6  C   UNL     1     -11.675  14.050  65.186  1.00  0.00    -0.350 A  
HETATM    7  C   UNL     1     -10.741  14.985  64.787  1.00  0.00    -0.330 A  
HETATM    8  N   UNL     1     -10.388  15.622  65.942  1.00  0.00    -0.326 NA 
HETATM    9  N   UNL     1     -11.887  14.187  66.540  1.00  0.00    -0.401 NA 
HETATM   10  N   UNL     1     -11.092  15.150  66.990  1.00  0.00    -0.334 NA 
BRANCH   8  11
HETATM   11  C   UNL     1      -9.214  16.446  66.162  1.00  0.00    -0.330 C  
BRANCH  11  12
HETATM   12  C   UNL     1      -9.474  17.695  66.946  1.00  0.00    -0.278 A  
HETATM   13  C   UNL     1     -10.327  18.685  66.458  1.00  0.00    -0.421 A  
HETATM   14  C   UNL     1     -10.717  19.766  67.250  1.00  0.00    -0.532 A  
HETATM   15  F   UNL     1     -10.832  18.580  65.222  1.00  0.00    -0.462 F  
HETATM   16  C   UNL     1     -10.237  19.880  68.554  1.00  0.00    -0.529 A  
HETATM   17  C   UNL     1      -9.338  18.932  69.039  1.00  0.00    -0.261 A  
HETATM   18  C   UNL     1      -8.960  17.858  68.232  1.00  0.00    -0.275 A  
HETATM   19  F   UNL     1      -8.121  16.940  68.732  1.00  0.00    -0.219 F  
ENDBRANCH  11  12
ENDBRANCH   8  11
ENDBRANCH   2   6
TORSDOF 3
ENDMDL
MODEL       13
REMARK 921   NORMALIZED FREE ENERGY PREDICTED BY IDOCK:   -5.93 KCAL/MOL
REMARK 922        TOTAL FREE ENERGY PREDICTED BY IDOCK:   -7.38 KCAL/MOL
REMARK 923 INTER-LIGAND FREE ENERGY PREDICTED BY IDOCK:   -7.01 KCAL/MOL
REMARK 924 INTRA-LIGAND FREE ENERGY PREDICTED BY IDOCK:   -0.37 KCAL/MOL
REMARK 927      BINDING AFFINITY PREDICTED BY RF-SCORE:    0.00 PKD
ROOT
HETATM    1  N   UNL     1     -10.475  18.408  66.063  1.00  0.00    -0.428 N  
HETATM    2  C   UNL     1      -9.940  17.198  65.724  1.00  0.00    -0.119 C  
HETATM    3  H1  UNL     1     -11.479  18.578  66.000  1.00  0.00     0.000 HD 
HETATM    4  H2  UNL     1      -9.859  19.155  66.386  1.00  0.00     0.000 HD 
HETATM    5  O   UNL     1      -8.732  16.992  65.799  1.00  0.00    -0.522 OA 
ENDROOT
BRANCH   2   6
HETATM    6  C   UNL     1     -10.902  16.214  65.255  1.00  0.00    -0.336 A  
HETATM    7  C   UNL     1     -11.282  15.045  65.883  1.00  0.00    -0.313 A  
HETATM    8  N   UNL     1     -12.126  14.444  64.995  1.00  0.00    -0.406 NA 
HETATM    9  N   UNL     1     -11.559  16.301  64.048  1.00  0.00    -1.007 NA 
HETATM   10  N   UNL     1     -12.302  15.211  63.900  1.00  0.00    -0.664 NA 
BRANCH   8  11
HETATM   11  C   UNL     1     -12.544  13.054  64.987  1.00  0.00    -0.454 C  
BRANCH  11  12
HETATM   12  C   UNL     1     -11.450  12.078  65.291  1.00  0.00    -0.358 A  
HETATM   13  C   UNL     1     -11.225  11.634  66.594  1.00  0.00    -0.299 A  
HETATM   14  C   UNL     1     -10.332  10.596  66.866  1.00  0.00    -0.288 A  
HETATM   15  F   UNL     1     -11.914  12.169  67.610  1.00  0.00    -0.398 F  
HETATM   16  C   UNL     1      -9.629   9.994  65.823  1.00  0.00    -0.291 A  
HETATM   17  C   UNL     1      -9.797  10.465  64.522  1.00  0.00    -0.405 A  
HETATM   18  C   UNL     1     -10.695  11.502  64.270  1.00  0.00    -0.355 A  
HETATM   19  F   UNL     1     -10.865  11.915  63.007  1.00  0.00    -0.369 F  
ENDBRANCH  11  12
ENDBRANCH   8  11
ENDBRANCH   2   6
TORSDOF 3
ENDMDL
MODEL       14
REMARK 921   NORMALIZED FREE ENERGY PREDICTED BY IDOCK:   -5.89 KCAL/MOL
REMARK 922        TOTAL FREE ENERGY PREDICTED BY IDOCK:   -7.34 KCAL/MOL
REMARK 923 INTER-LIGAND FREE ENERGY PREDICTED BY IDOCK:   -6.93 KCAL/MOL
REMARK 924 INTRA-LIGAND FREE ENERGY PREDICTED BY IDOCK:   -0.41 KCAL/MOL
REMARK 927      BINDING AFFINITY PREDICTED BY RF-SCORE:    0.00 PKD
ROOT
HETATM    1  N   UNL     1     -14.032  15.802  73.003  1.00  0.00    -0.631 N  
HETATM    2  C   UNL     1     -13.684  14.686  72.296  1.00  0.00    -0.460 C  
HETATM    3  H1  UNL     1     -13.656  16.719  72.763  1.00  0.00     0.000 HD 
HETATM    4  H2  UNL     1     -14.681  15.716  73.786  1.00  0.00     0.000 HD 
HETATM    5  O   UNL     1     -14.137  13.583  72.585  1.00  0.00    -0.762 OA 
ENDROOT
BRANCH   2   6
HETATM    6  C   UNL     1     -12.737  14.917  71.218  1.00  0.00    -0.340 A  
HETATM    7  C   UNL     1     -12.507  14.117  70.117  1.00  0.00    -0.331 A  
HETATM    8  N   UNL     1     -11.468  14.724  69.471  1.00  0.00    -0.282 NA 
HETATM    9  N   UNL     1     -11.875  15.989  71.174  1.00  0.00    -0.425 NA 
HETATM   10  N   UNL     1     -11.102  15.858  70.102  1.00  0.00    -0.336 NA 
BRANCH   8  11
HETATM   11  C   UNL     1     -10.606  14.141  68.460  1.00  0.00    -0.252 C  
BRANCH  11  12
HETATM   12  C   UNL     1     -11.206  14.093  67.089  1.00  0.00    -0.330 A  
HETATM   13  C   UNL     1     -10.995  15.127  66.176  1.00  0.00    -0.331 A  
HETATM   14  C   UNL     1     -11.396  15.015  64.844  1.00  0.00    -0.419 A  
HETATM   15  F   UNL     1     -10.347  16.234  66.560  1.00  0.00    -0.276 F  
HETATM   16  C   UNL     1     -12.039  13.858  64.407  1.00  0.00    -0.477 A  
HETATM   17  C   UNL     1     -12.311  12.839  65.319  1.00  0.00    -0.546 A  
HETATM   18  C   UNL     1     -11.901  12.969  66.646  1.00  0.00    -0.393 A  
HETATM   19  F   UNL     1     -12.143  11.962  67.497  1.00  0.00    -0.340 F  
ENDBRANCH  11  12
ENDBRANCH   8  11
ENDBRANCH   2   6
TORSDOF 3
ENDMDL
MODEL       15
REMARK 921   NORMALIZED FREE ENERGY PREDICTED BY IDOCK:   -5.80 KCAL/MOL
REMARK 922        TOTAL FREE ENERGY PREDICTED BY IDOCK:   -7.23 KCAL/MOL
REMARK 923 INTER-LIGAND FREE ENERGY PREDICTED BY IDOCK:   -6.83 KCAL/MOL
REMARK 924 INTRA-LIGAND FREE ENERGY PREDICTED BY IDOCK:   -0.40 KCAL/MOL
REMARK 927      BINDING AFFINITY PREDICTED BY RF-SCORE:    0.00 PKD
ROOT
HETATM    1  N   UNL     1     -11.125  11.337  63.128  1.00  0.00    -0.846 N  
HETATM    2  C   UNL     1     -12.272  11.906  63.603  1.00  0.00    -0.479 C  
HETATM    3  H1  UNL     1     -10.212  11.588  63.510  1.00  0.00     0.000 HD 
HETATM    4  H2  UNL     1     -11.181  10.647  62.378  1.00  0.00     0.000 HD 
HETATM    5  O   UNL     1     -13.370  11.603  63.145  1.00  0.00    -0.410 OA 
ENDROOT
BRANCH   2   6
HETATM    6  C   UNL     1     -12.076  12.892  64.653  1.00  0.00    -0.418 A  
HETATM    7  C   UNL     1     -10.916  13.152  65.354  1.00  0.00    -0.279 A  
HETATM    8  N   UNL     1     -11.284  14.087  66.279  1.00  0.00    -0.315 NA 
HETATM    9  N   UNL     1     -13.078  13.702  65.139  1.00  0.00    -0.734 NA 
HETATM   10  N   UNL     1     -12.581  14.426  66.134  1.00  0.00    -0.290 NA 
BRANCH   8  11
HETATM   11  C   UNL     1     -10.562  14.462  67.480  1.00  0.00    -0.265 C  
BRANCH  11  12
HETATM   12  C   UNL     1     -11.386  14.435  68.731  1.00  0.00    -0.299 A  
HETATM   13  C   UNL     1     -11.711  13.228  69.351  1.00  0.00    -0.325 A  
HETATM   14  C   UNL     1     -12.322  13.196  70.606  1.00  0.00    -0.405 A  
HETATM   15  F   UNL     1     -11.387  12.069  68.765  1.00  0.00    -0.229 F  
HETATM   16  C   UNL     1     -12.636  14.388  71.256  1.00  0.00    -0.421 A  
HETATM   17  C   UNL     1     -12.372  15.603  70.625  1.00  0.00    -0.457 A  
HETATM   18  C   UNL     1     -11.759  15.615  69.372  1.00  0.00    -0.383 A  
HETATM   19  F   UNL     1     -11.484  16.795  68.801  1.00  0.00    -0.281 F  
ENDBRANCH  11  12
ENDBRANCH   8  11
ENDBRANCH   2   6
TORSDOF 3
ENDMDL
MODEL       16
REMARK 921   NORMALIZED FREE ENERGY PREDICTED BY IDOCK:   -5.80 KCAL/MOL
REMARK 922        TOTAL FREE ENERGY PREDICTED BY IDOCK:   -7.23 KCAL/MOL
REMARK 923 INTER-LIGAND FREE ENERGY PREDICTED BY IDOCK:   -6.80 KCAL/MOL
REMARK 924 INTRA-LIGAND FREE ENERGY PREDICTED BY IDOCK:   -0.43 KCAL/MOL
REMARK 927      BINDING AFFINITY PREDICTED BY RF-SCORE:    0.00 PKD
ROOT
HETATM    1  N   UNL     1      -9.721  18.537  66.381  1.00  0.00    -0.336 N  
HETATM    2  C   UNL     1      -9.408  17.272  65.972  1.00  0.00    -0.097 C  
HETATM    3  H1  UNL     1     -10.688  18.861  66.405  1.00  0.00     0.000 HD 
HETATM    4  H2  UNL     1      -8.973  19.169  66.668  1.00  0.00     0.000 HD 
HETATM    5  O   UNL     1      -8.244  16.882  65.943  1.00  0.00    -0.478 OA 
ENDROOT
BRANCH   2   6
HETATM    6  C   UNL     1     -10.544  16.463  65.562  1.00  0.00    -0.330 A  
HETATM    7  C   UNL     1     -11.130  15.424  66.257  1.00  0.00    -0.226 A  
HETATM    8  N   UNL     1     -12.084  14.945  65.406  1.00  0.00    -0.154 NA 
HETATM    9  N   UNL     1     -11.188  16.605  64.353  1.00  0.00    -1.060 NA 
HETATM   10  N   UNL     1     -12.125  15.669  64.269  1.00  0.00    -0.446 NA 
BRANCH   8  11
HETATM   11  C   UNL     1     -12.757  13.662  65.479  1.00  0.00    -0.466 C  
BRANCH  11  12
HETATM   12  C   UNL     1     -11.884  12.488  65.157  1.00  0.00    -0.450 A  
HETATM   13  C   UNL     1     -11.558  12.175  63.837  1.00  0.00    -0.448 A  
HETATM   14  C   UNL     1     -10.608  11.199  63.533  1.00  0.00    -0.393 A  
HETATM   15  F   UNL     1     -12.122  12.857  62.832  1.00  0.00    -0.555 F  
HETATM   16  C   UNL     1      -9.977  10.501  64.561  1.00  0.00    -0.413 A  
HETATM   17  C   UNL     1     -10.333  10.758  65.884  1.00  0.00    -0.302 A  
HETATM   18  C   UNL     1     -11.284  11.738  66.167  1.00  0.00    -0.306 A  
HETATM   19  F   UNL     1     -11.585  11.993  67.449  1.00  0.00    -0.335 F  
ENDBRANCH  11  12
ENDBRANCH   8  11
ENDBRANCH   2   6
TORSDOF 3
ENDMDL
MODEL       17
REMARK 921   NORMALIZED FREE ENERGY PREDICTED BY IDOCK:   -5.78 KCAL/MOL
REMARK 922        TOTAL FREE ENERGY PREDICTED BY IDOCK:   -7.20 KCAL/MOL
REMARK 923 INTER-LIGAND FREE ENERGY PREDICTED BY IDOCK:   -6.85 KCAL/MOL
REMARK 924 INTRA-LIGAND FREE ENERGY PREDICTED BY IDOCK:   -0.36 KCAL/MOL
REMARK 927      BINDING AFFINITY PREDICTED BY RF-SCORE:    0.00 PKD
ROOT
HETATM    1  N   UNL     1     -11.160  11.368  63.013  1.00  0.00    -0.840 N  
HETATM    2  C   UNL     1     -12.290  11.948  63.516  1.00  0.00    -0.490 C  
HETATM    3  H1  UNL     1     -10.236  11.616  63.367  1.00  0.00     0.000 HD 
HETATM    4  H2  UNL     1     -11.242  10.675  62.269  1.00  0.00     0.000 HD 
HETATM    5  O   UNL     1     -13.402  11.650  63.090  1.00  0.00    -0.410 OA 
ENDROOT
BRANCH   2   6
HETATM    6  C   UNL     1     -12.059  12.939  64.554  1.00  0.00    -0.413 A  
HETATM    7  C   UNL     1     -10.859  13.257  65.158  1.00  0.00    -0.310 A  
HETATM    8  N   UNL     1     -11.197  14.168  66.118  1.00  0.00    -0.320 NA 
HETATM    9  N   UNL     1     -13.057  13.694  65.127  1.00  0.00    -0.734 NA 
HETATM   10  N   UNL     1     -12.518  14.440  66.083  1.00  0.00    -0.345 NA 
BRANCH   8  11
HETATM   11  C   UNL     1     -10.398  14.575  67.258  1.00  0.00    -0.260 C  
BRANCH  11  12
HETATM   12  C   UNL     1     -11.104  14.476  68.575  1.00  0.00    -0.271 A  
HETATM   13  C   UNL     1     -11.547  15.619  69.241  1.00  0.00    -0.366 A  
HETATM   14  C   UNL     1     -12.359  15.534  70.373  1.00  0.00    -0.451 A  
HETATM   15  F   UNL     1     -11.237  16.831  68.763  1.00  0.00    -0.317 F  
HETATM   16  C   UNL     1     -12.728  14.285  70.870  1.00  0.00    -0.427 A  
HETATM   17  C   UNL     1     -12.247  13.132  70.252  1.00  0.00    -0.376 A  
HETATM   18  C   UNL     1     -11.437  13.237  69.121  1.00  0.00    -0.305 A  
HETATM   19  F   UNL     1     -11.015  12.114  68.524  1.00  0.00    -0.210 F  
ENDBRANCH  11  12
ENDBRANCH   8  11
ENDBRANCH   2   6
TORSDOF 3
ENDMDL
MODEL       18
REMARK 921   NORMALIZED FREE ENERGY PREDICTED BY IDOCK:   -5.74 KCAL/MOL
REMARK 922        TOTAL FREE ENERGY PREDICTED BY IDOCK:   -7.16 KCAL/MOL
REMARK 923 INTER-LIGAND FREE ENERGY PREDICTED BY IDOCK:   -6.74 KCAL/MOL
REMARK 924 INTRA-LIGAND FREE ENERGY PREDICTED BY IDOCK:   -0.42 KCAL/MOL
REMARK 927      BINDING AFFINITY PREDICTED BY RF-SCORE:    0.00 PKD
ROOT
HETATM    1  N   UNL     1     -13.693  12.618  72.465  1.00  0.00    -0.566 N  
HETATM    2  C   UNL     1     -13.308  13.927  72.389  1.00  0.00    -0.529 C  
HETATM    3  H1  UNL     1     -13.546  11.978  71.684  1.00  0.00     0.000 HD 
HETATM    4  H2  UNL     1     -14.135  12.275  73.318  1.00  0.00     0.000 HD 
HETATM    5  O   UNL     1     -13.484  14.697  73.328  1.00  0.00    -0.570 OA 
ENDROOT
BRANCH   2   6
HETATM    6  C   UNL     1     -12.711  14.316  71.123  1.00  0.00    -0.360 A  
HETATM    7  C   UNL     1     -12.022  13.512  70.237  1.00  0.00    -0.316 A  
HETATM    8  N   UNL     1     -11.593  14.371  69.266  1.00  0.00    -0.284 NA 
HETATM    9  N   UNL     1     -12.716  15.604  70.638  1.00  0.00    -0.446 NA 
HETATM   10  N   UNL     1     -12.027  15.625  69.504  1.00  0.00    -0.369 NA 
BRANCH   8  11
HETATM   11  C   UNL     1     -10.550  14.133  68.285  1.00  0.00    -0.251 C  
BRANCH  11  12
HETATM   12  C   UNL     1     -11.034  14.081  66.869  1.00  0.00    -0.301 A  
HETATM   13  C   UNL     1     -11.737  12.975  66.390  1.00  0.00    -0.390 A  
HETATM   14  C   UNL     1     -12.346  12.987  65.134  1.00  0.00    -0.536 A  
HETATM   15  F   UNL     1     -11.885  11.892  67.164  1.00  0.00    -0.387 F  
HETATM   16  C   UNL     1     -12.242  14.116  64.323  1.00  0.00    -0.449 A  
HETATM   17  C   UNL     1     -11.494  15.208  64.761  1.00  0.00    -0.383 A  
HETATM   18  C   UNL     1     -10.893  15.177  66.020  1.00  0.00    -0.335 A  
HETATM   19  F   UNL     1     -10.207  16.252  66.433  1.00  0.00    -0.265 F  
ENDBRANCH  11  12
ENDBRANCH   8  11
ENDBRANCH   2   6
TORSDOF 3
ENDMDL
MODEL       19
REMARK 921   NORMALIZED FREE ENERGY PREDICTED BY IDOCK:   -5.74 KCAL/MOL
REMARK 922        TOTAL FREE ENERGY PREDICTED BY IDOCK:   -7.15 KCAL/MOL
REMARK 923 INTER-LIGAND FREE ENERGY PREDICTED BY IDOCK:   -7.29 KCAL/MOL
REMARK 924 INTRA-LIGAND FREE ENERGY PREDICTED BY IDOCK:    0.13 KCAL/MOL
REMARK 927      BINDING AFFINITY PREDICTED BY RF-SCORE:    0.00 PKD
ROOT
HETATM    1  N   UNL     1     -11.262  15.366  64.355  1.00  0.00    -0.714 N  
HETATM    2  C   UNL     1     -12.046  14.253  64.464  1.00  0.00    -0.480 C  
HETATM    3  H1  UNL     1     -10.703  15.699  65.142  1.00  0.00     0.000 HD 
HETATM    4  H2  UNL     1     -11.235  15.875  63.471  1.00  0.00     0.000 HD 
HETATM    5  O   UNL     1     -12.717  13.853  63.518  1.00  0.00    -0.797 OA 
ENDROOT
BRANCH   2   6
HETATM    6  C   UNL     1     -12.029  13.619  65.772  1.00  0.00    -0.395 A  
HETATM    7  C   UNL     1     -11.868  14.230  66.999  1.00  0.00    -0.428 A  
HETATM    8  N   UNL     1     -11.832  13.195  67.889  1.00  0.00    -0.354 NA 
HETATM    9  N   UNL     1     -12.133  12.260  65.965  1.00  0.00    -0.630 NA 
HETATM   10  N   UNL     1     -12.009  12.014  67.263  1.00  0.00    -0.590 NA 
BRANCH   8  11
HETATM   11  C   UNL     1     -11.347  13.232  69.256  1.00  0.00    -0.253 C  
BRANCH  11  12
HETATM   12  C   UNL     1     -11.612  11.984  70.040  1.00  0.00    -0.275 A  
HETATM   13  C   UNL     1     -12.651  11.926  70.969  1.00  0.00    -0.283 A  
HETATM   14  C   UNL     1     -13.022  10.724  71.573  1.00  0.00    -0.562 A  
HETATM   15  F   UNL     1     -13.351  13.031  71.256  1.00  0.00    -0.357 F  
HETATM   16  C   UNL     1     -12.336   9.551  71.264  1.00  0.00    -0.430 A  
HETATM   17  C   UNL     1     -11.257   9.600  70.382  1.00  0.00    -0.342 A  
HETATM   18  C   UNL     1     -10.902  10.811  69.788  1.00  0.00    -0.226 A  
HETATM   19  F   UNL     1      -9.883  10.827  68.917  1.00  0.00    -0.169 F  
ENDBRANCH  11  12
ENDBRANCH   8  11
ENDBRANCH   2   6
TORSDOF 3
ENDMDL
MODEL       20
REMARK 921   NORMALIZED FREE ENERGY PREDICTED BY IDOCK:   -5.72 KCAL/MOL
REMARK 922        TOTAL FREE ENERGY PREDICTED BY IDOCK:   -7.13 KCAL/MOL
REMARK 923 INTER-LIGAND FREE ENERGY PREDICTED BY IDOCK:   -6.79 KCAL/MOL
REMARK 924 INTRA-LIGAND FREE ENERGY PREDICTED BY IDOCK:   -0.35 KCAL/MOL
REMARK 927      BINDING AFFINITY PREDICTED BY RF-SCORE:    0.00 PKD
ROOT
HETATM    1  N   UNL     1     -12.718  13.091  65.156  1.00  0.00    -0.651 N  
HETATM    2  C   UNL     1     -11.937  13.653  64.187  1.00  0.00    -0.443 C  
HETATM    3  H1  UNL     1     -12.931  13.590  66.020  1.00  0.00     0.000 HD 
HETATM    4  H2  UNL     1     -13.097  12.154  65.012  1.00  0.00     0.000 HD 
HETATM    5  O   UNL     1     -11.681  13.053  63.148  1.00  0.00    -0.438 OA 
ENDROOT
BRANCH   2   6
HETATM    6  C   UNL     1     -11.431  14.979  64.503  1.00  0.00    -0.318 A  
HETATM    7  C   UNL     1     -10.476  15.312  65.442  1.00  0.00    -0.398 A  
HETATM    8  N   UNL     1     -10.434  16.676  65.411  1.00  0.00    -0.622 NA 
HETATM    9  N   UNL     1     -11.890  16.134  63.911  1.00  0.00    -0.860 NA 
HETATM   10  N   UNL     1     -11.274  17.165  64.477  1.00  0.00    -1.012 NA 
BRANCH   8  11
HETATM   11  C   UNL     1      -9.865  17.557  66.414  1.00  0.00    -0.309 C  
BRANCH  11  12
HETATM   12  C   UNL     1      -8.684  16.988  67.139  1.00  0.00    -0.226 A  
HETATM   13  C   UNL     1      -7.388  17.171  66.656  1.00  0.00    -0.250 A  
HETATM   14  C   UNL     1      -6.272  16.803  67.408  1.00  0.00    -0.195 A  
HETATM   15  F   UNL     1      -7.197  17.760  65.469  1.00  0.00    -0.293 F  
HETATM   16  C   UNL     1      -6.442  16.223  68.664  1.00  0.00    -0.126 A  
HETATM   17  C   UNL     1      -7.730  15.978  69.138  1.00  0.00    -0.231 A  
HETATM   18  C   UNL     1      -8.833  16.354  68.372  1.00  0.00    -0.214 A  
HETATM   19  F   UNL     1     -10.062  16.140  68.863  1.00  0.00    -0.201 F  
ENDBRANCH  11  12
ENDBRANCH   8  11
ENDBRANCH   2   6
TORSDOF 3
ENDMDL
MODEL       21
REMARK 921   NORMALIZED FREE ENERGY PREDICTED BY IDOCK:   -5.69 KCAL/MOL
REMARK 922        TOTAL FREE ENERGY PREDICTED BY IDOCK:   -7.10 KCAL/MOL
REMARK 923 INTER-LIGAND FREE ENERGY PREDICTED BY IDOCK:   -6.98 KCAL/MOL
REMARK 924 INTRA-LIGAND FREE ENERGY PREDICTED BY IDOCK:   -0.12 KCAL/MOL
REMARK 927      BINDING AFFINITY PREDICTED BY RF-SCORE:    0.00 PKD
ROOT
HETATM    1  N   UNL     1     -11.496  15.502  64.389  1.00  0.00    -0.706 N  
HETATM    2  C   UNL     1     -12.034  14.247  64.344  1.00  0.00    -0.456 C  
HETATM    3  H1  UNL     1     -11.121  15.886  65.257  1.00  0.00     0.000 HD 
HETATM    4  H2  UNL     1     -11.468  16.066  63.539  1.00  0.00     0.000 HD 
HETATM    5  O   UNL     1     -12.485  13.786  63.300  1.00  0.00    -0.819 OA 
ENDROOT
BRANCH   2   6
HETATM    6  C   UNL     1     -12.045  13.541  65.614  1.00  0.00    -0.430 A  
HETATM    7  C   UNL     1     -11.879  14.077  66.875  1.00  0.00    -0.430 A  
HETATM    8  N   UNL     1     -11.878  12.993  67.705  1.00  0.00    -0.362 NA 
HETATM    9  N   UNL     1     -12.187  12.176  65.729  1.00  0.00    -0.532 NA 
HETATM   10  N   UNL     1     -12.080  11.854  67.012  1.00  0.00    -0.520 NA 
BRANCH   8  11
HETATM   11  C   UNL     1     -11.402  12.940  69.075  1.00  0.00    -0.290 C  
BRANCH  11  12
HETATM   12  C   UNL     1     -11.307  11.557  69.642  1.00  0.00    -0.329 A  
HETATM   13  C   UNL     1     -10.240  10.719  69.319  1.00  0.00    -0.194 A  
HETATM   14  C   UNL     1     -10.044   9.503  69.974  1.00  0.00    -0.279 A  
HETATM   15  F   UNL     1      -9.346  11.103  68.399  1.00  0.00    -0.156 F  
HETATM   16  C   UNL     1     -10.938   9.096  70.964  1.00  0.00    -0.375 A  
HETATM   17  C   UNL     1     -12.043   9.893  71.259  1.00  0.00    -0.485 A  
HETATM   18  C   UNL     1     -12.221  11.106  70.594  1.00  0.00    -0.397 A  
HETATM   19  F   UNL     1     -13.272  11.871  70.919  1.00  0.00    -0.226 F  
ENDBRANCH  11  12
ENDBRANCH   8  11
ENDBRANCH   2   6
TORSDOF 3
ENDMDL
MODEL       22
REMARK 921   NORMALIZED FREE ENERGY PREDICTED BY IDOCK:   -5.62 KCAL/MOL
REMARK 922        TOTAL FREE ENERGY PREDICTED BY IDOCK:   -7.01 KCAL/MOL
REMARK 923 INTER-LIGAND FREE ENERGY PREDICTED BY IDOCK:   -6.64 KCAL/MOL
REMARK 924 INTRA-LIGAND FREE ENERGY PREDICTED BY IDOCK:   -0.37 KCAL/MOL
REMARK 927      BINDING AFFINITY PREDICTED BY RF-SCORE:    0.00 PKD
ROOT
HETATM    1  N   UNL     1     -13.520  15.595  70.367  1.00  0.00    -0.747 N  
HETATM    2  C   UNL     1     -12.164  15.450  70.286  1.00  0.00    -0.380 C  
HETATM    3  H1  UNL     1     -14.069  15.891  69.560  1.00  0.00     0.000 HD 
HETATM    4  H2  UNL     1     -13.991  15.403  71.251  1.00  0.00     0.000 HD 
HETATM    5  O   UNL     1     -11.503  15.094  71.257  1.00  0.00    -0.327 OA 
ENDROOT
BRANCH   2   6
HETATM    6  C   UNL     1     -11.592  15.771  68.989  1.00  0.00    -0.400 A  
HETATM    7  C   UNL     1     -11.501  14.949  67.884  1.00  0.00    -0.340 A  
HETATM    8  N   UNL     1     -10.805  15.688  66.970  1.00  0.00    -0.315 NA 
HETATM    9  N   UNL     1     -10.999  16.978  68.692  1.00  0.00    -0.275 NA 
HETATM   10  N   UNL     1     -10.520  16.913  67.456  1.00  0.00    -0.326 NA 
BRANCH   8  11
HETATM   11  C   UNL     1     -10.136  15.201  65.778  1.00  0.00    -0.346 C  
BRANCH  11  12
HETATM   12  C   UNL     1     -10.799  14.021  65.137  1.00  0.00    -0.376 A  
HETATM   13  C   UNL     1     -11.885  14.186  64.277  1.00  0.00    -0.397 A  
HETATM   14  C   UNL     1     -12.396  13.120  63.536  1.00  0.00    -0.478 A  
HETATM   15  F   UNL     1     -12.423  15.401  64.108  1.00  0.00    -0.479 F  
HETATM   16  C   UNL     1     -11.831  11.852  63.662  1.00  0.00    -0.573 A  
HETATM   17  C   UNL     1     -10.783  11.655  64.561  1.00  0.00    -0.378 A  
HETATM   18  C   UNL     1     -10.285  12.734  65.292  1.00  0.00    -0.279 A  
HETATM   19  F   UNL     1      -9.254  12.528  66.124  1.00  0.00    -0.225 F  
ENDBRANCH  11  12
ENDBRANCH   8  11
ENDBRANCH   2   6
TORSDOF 3
ENDMDL
MODEL       23
REMARK 921   NORMALIZED FREE ENERGY PREDICTED BY IDOCK:   -5.60 KCAL/MOL
REMARK 922        TOTAL FREE ENERGY PREDICTED BY IDOCK:   -7.00 KCAL/MOL
REMARK 923 INTER-LIGAND FREE ENERGY PREDICTED BY IDOCK:   -6.59 KCAL/MOL
REMARK 924 INTRA-LIGAND FREE ENERGY PREDICTED BY IDOCK:   -0.41 KCAL/MOL
REMARK 927      BINDING AFFINITY PREDICTED BY RF-SCORE:    0.00 PKD
ROOT
HETATM    1  N   UNL     1     -11.129  11.508  63.083  1.00  0.00    -0.811 N  
HETATM    2  C   UNL     1     -12.237  12.113  63.604  1.00  0.00    -0.562 C  
HETATM    3  H1  UNL     1     -10.198  11.700  63.453  1.00  0.00     0.000 HD 
HETATM    4  H2  UNL     1     -11.235  10.852  62.309  1.00  0.00     0.000 HD 
HETATM    5  O   UNL     1     -13.357  11.882  63.159  1.00  0.00    -0.470 OA 
ENDROOT
BRANCH   2   6
HETATM    6  C   UNL     1     -11.972  13.047  64.686  1.00  0.00    -0.392 A  
HETATM    7  C   UNL     1     -10.754  13.331  65.270  1.00  0.00    -0.311 A  
HETATM    8  N   UNL     1     -11.060  14.190  66.287  1.00  0.00    -0.314 NA 
HETATM    9  N   UNL     1     -12.950  13.772  65.329  1.00  0.00    -0.754 NA 
HETATM   10  N   UNL     1     -12.380  14.464  66.307  1.00  0.00    -0.373 NA 
BRANCH   8  11
HETATM   11  C   UNL     1     -10.225  14.535  67.422  1.00  0.00    -0.240 C  
BRANCH  11  12
HETATM   12  C   UNL     1      -9.895  15.992  67.526  1.00  0.00    -0.235 A  
HETATM   13  C   UNL     1      -9.027  16.600  66.619  1.00  0.00    -0.255 A  
HETATM   14  C   UNL     1      -8.850  17.984  66.594  1.00  0.00    -0.280 A  
HETATM   15  F   UNL     1      -8.383  15.855  65.712  1.00  0.00    -0.245 F  
HETATM   16  C   UNL     1      -9.538  18.788  67.502  1.00  0.00    -0.333 A  
HETATM   17  C   UNL     1     -10.365  18.193  68.455  1.00  0.00    -0.371 A  
HETATM   18  C   UNL     1     -10.529  16.808  68.463  1.00  0.00    -0.335 A  
HETATM   19  F   UNL     1     -11.356  16.262  69.365  1.00  0.00    -0.303 F  
ENDBRANCH  11  12
ENDBRANCH   8  11
ENDBRANCH   2   6
TORSDOF 3
ENDMDL
MODEL       24
REMARK 921   NORMALIZED FREE ENERGY PREDICTED BY IDOCK:   -5.58 KCAL/MOL
REMARK 922        TOTAL FREE ENERGY PREDICTED BY IDOCK:   -6.97 KCAL/MOL
REMARK 923 INTER-LIGAND FREE ENERGY PREDICTED BY IDOCK:   -6.55 KCAL/MOL
REMARK 924 INTRA-LIGAND FREE ENERGY PREDICTED BY IDOCK:   -0.42 KCAL/MOL
REMARK 927      BINDING AFFINITY PREDICTED BY RF-SCORE:    0.00 PKD
ROOT
HETATM    1  N   UNL     1     -13.982   9.205  72.866  1.00  0.00    -0.876 N  
HETATM    2  C   UNL     1     -12.793   9.194  72.192  1.00  0.00    -0.412 C  
HETATM    3  H1  UNL     1     -14.638   9.981  72.768  1.00  0.00     0.000 HD 
HETATM    4  H2  UNL     1     -14.218   8.423  73.478  1.00  0.00     0.000 HD 
HETATM    5  O   UNL     1     -12.005   8.261  72.309  1.00  0.00    -0.341 OA 
ENDROOT
BRANCH   2   6
HETATM    6  C   UNL     1     -12.547  10.366  71.368  1.00  0.00    -0.434 A  
HETATM    7  C   UNL     1     -11.826  10.430  70.193  1.00  0.00    -0.297 A  
HETATM    8  N   UNL     1     -11.817  11.758  69.875  1.00  0.00    -0.335 NA 
HETATM    9  N   UNL     1     -12.984  11.632  71.688  1.00  0.00    -0.427 NA 
HETATM   10  N   UNL     1     -12.529  12.474  70.769  1.00  0.00    -0.325 NA 
BRANCH   8  11
HETATM   11  C   UNL     1     -10.930  12.428  68.943  1.00  0.00    -0.223 C  
BRANCH  11  12
HETATM   12  C   UNL     1     -11.502  12.616  67.572  1.00  0.00    -0.397 A  
HETATM   13  C   UNL     1     -12.085  13.826  67.196  1.00  0.00    -0.378 A  
HETATM   14  C   UNL     1     -12.459  14.075  65.874  1.00  0.00    -0.513 A  
HETATM   15  F   UNL     1     -12.245  14.799  68.102  1.00  0.00    -0.310 F  
HETATM   16  C   UNL     1     -12.268  13.094  64.903  1.00  0.00    -0.477 A  
HETATM   17  C   UNL     1     -11.742  11.857  65.271  1.00  0.00    -0.232 A  
HETATM   18  C   UNL     1     -11.373  11.628  66.597  1.00  0.00    -0.270 A  
HETATM   19  F   UNL     1     -10.837  10.443  66.921  1.00  0.00    -0.305 F  
ENDBRANCH  11  12
ENDBRANCH   8  11
ENDBRANCH   2   6
TORSDOF 3
ENDMDL
MODEL       25
REMARK 921   NORMALIZED FREE ENERGY PREDICTED BY IDOCK:   -5.58 KCAL/MOL
REMARK 922        TOTAL FREE ENERGY PREDICTED BY IDOCK:   -6.97 KCAL/MOL
REMARK 923 INTER-LIGAND FREE ENERGY PREDICTED BY IDOCK:   -6.63 KCAL/MOL
REMARK 924 INTRA-LIGAND FREE ENERGY PREDICTED BY IDOCK:   -0.34 KCAL/MOL
REMARK 927      BINDING AFFINITY PREDICTED BY RF-SCORE:    0.00 PKD
ROOT
HETATM    1  N   UNL     1     -11.104  13.569  64.722  1.00  0.00    -0.341 N  
HETATM    2  C   UNL     1     -10.306  14.324  65.534  1.00  0.00    -0.355 C  
HETATM    3  H1  UNL     1     -11.723  14.003  64.037  1.00  0.00     0.000 HD 
HETATM    4  H2  UNL     1     -11.080  12.552  64.802  1.00  0.00     0.000 HD 
HETATM    5  O   UNL     1      -9.562  13.802  66.358  1.00  0.00    -0.278 OA 
ENDROOT
BRANCH   2   6
HETATM    6  C   UNL     1     -10.435  15.761  65.353  1.00  0.00    -0.414 A  
HETATM    7  C   UNL     1      -9.867  16.758  66.119  1.00  0.00    -0.309 A  
HETATM    8  N   UNL     1     -10.370  17.914  65.595  1.00  0.00    -0.617 NA 
HETATM    9  N   UNL     1     -11.212  16.342  64.376  1.00  0.00    -0.873 NA 
HETATM   10  N   UNL     1     -11.166  17.659  64.537  1.00  0.00    -0.413 NA 
BRANCH   8  11
HETATM   11  C   UNL     1     -10.381  19.225  66.216  1.00  0.00    -0.480 C  
BRANCH  11  12
HETATM   12  C   UNL     1      -9.173  19.523  67.051  1.00  0.00    -0.404 A  
HETATM   13  C   UNL     1      -9.192  19.337  68.434  1.00  0.00    -0.356 A  
HETATM   14  C   UNL     1      -8.029  19.438  69.198  1.00  0.00    -0.227 A  
HETATM   15  F   UNL     1     -10.335  19.001  69.046  1.00  0.00    -0.411 F  
HETATM   16  C   UNL     1      -6.818  19.748  68.582  1.00  0.00    -0.357 A  
HETATM   17  C   UNL     1      -6.790  19.995  67.210  1.00  0.00    -0.256 A  
HETATM   18  C   UNL     1      -7.963  19.888  66.463  1.00  0.00    -0.321 A  
HETATM   19  F   UNL     1      -7.906  20.096  65.140  1.00  0.00    -0.213 F  
ENDBRANCH  11  12
ENDBRANCH   8  11
ENDBRANCH   2   6
TORSDOF 3
ENDMDL
MODEL       26
REMARK 921   NORMALIZED FREE ENERGY PREDICTED BY IDOCK:   -5.56 KCAL/MOL
REMARK 922        TOTAL FREE ENERGY PREDICTED BY IDOCK:   -6.95 KCAL/MOL
REMARK 923 INTER-LIGAND FREE ENERGY PREDICTED BY IDOCK:   -6.66 KCAL/MOL
REMARK 924 INTRA-LIGAND FREE ENERGY PREDICTED BY IDOCK:   -0.29 KCAL/MOL
REMARK 927      BINDING AFFINITY PREDICTED BY RF-SCORE:    0.00 PKD
ROOT
HETATM    1  N   UNL     1     -12.922  15.798  70.252  1.00  0.00    -0.691 N  
HETATM    2  C   UNL     1     -13.198  15.246  71.471  1.00  0.00    -0.459 C  
HETATM    3  H1  UNL     1     -12.677  15.215  69.451  1.00  0.00     0.000 HD 
HETATM    4  H2  UNL     1     -12.962  16.811  70.141  1.00  0.00     0.000 HD 
HETATM    5  O   UNL     1     -13.493  15.947  72.434  1.00  0.00    -0.463 OA 
ENDROOT
BRANCH   2   6
HETATM    6  C   UNL     1     -13.089  13.798  71.525  1.00  0.00    -0.357 A  
HETATM    7  C   UNL     1     -12.365  12.978  70.683  1.00  0.00    -0.310 A  
HETATM    8  N   UNL     1     -12.671  11.714  71.098  1.00  0.00    -0.370 NA 
HETATM    9  N   UNL     1     -13.757  13.014  72.439  1.00  0.00    -0.578 NA 
HETATM   10  N   UNL     1     -13.496  11.742  72.165  1.00  0.00    -0.349 NA 
BRANCH   8  11
HETATM   11  C   UNL     1     -12.467  10.478  70.366  1.00  0.00    -0.310 C  
BRANCH  11  12
HETATM   12  C   UNL     1     -11.575   9.491  71.055  1.00  0.00    -0.419 A  
HETATM   13  C   UNL     1     -10.204   9.461  70.800  1.00  0.00    -0.299 A  
HETATM   14  C   UNL     1      -9.339   8.673  71.562  1.00  0.00    -0.319 A  
HETATM   15  F   UNL     1      -9.687  10.241  69.843  1.00  0.00    -0.240 F  
HETATM   16  C   UNL     1      -9.846   7.881  72.590  1.00  0.00    -0.316 A  
HETATM   17  C   UNL     1     -11.221   7.854  72.821  1.00  0.00    -0.466 A  
HETATM   18  C   UNL     1     -12.069   8.649  72.050  1.00  0.00    -0.375 A  
HETATM   19  F   UNL     1     -13.383   8.632  72.313  1.00  0.00    -0.342 F  
ENDBRANCH  11  12
ENDBRANCH   8  11
ENDBRANCH   2   6
TORSDOF 3
ENDMDL
MODEL       27
REMARK 921   NORMALIZED FREE ENERGY PREDICTED BY IDOCK:   -5.54 KCAL/MOL
REMARK 922        TOTAL FREE ENERGY PREDICTED BY IDOCK:   -6.92 KCAL/MOL
REMARK 923 INTER-LIGAND FREE ENERGY PREDICTED BY IDOCK:   -6.51 KCAL/MOL
REMARK 924 INTRA-LIGAND FREE ENERGY PREDICTED BY IDOCK:   -0.42 KCAL/MOL
REMARK 927      BINDING AFFINITY PREDICTED BY RF-SCORE:    0.00 PKD
ROOT
HETATM    1  N   UNL     1      -9.735  20.159  67.695  1.00  0.00    -0.397 N  
HETATM    2  C   UNL     1     -10.126  19.110  66.912  1.00  0.00    -0.373 C  
HETATM    3  H1  UNL     1      -9.677  20.068  68.709  1.00  0.00     0.000 HD 
HETATM    4  H2  UNL     1      -9.496  21.049  67.257  1.00  0.00     0.000 HD 
HETATM    5  O   UNL     1     -10.196  19.219  65.691  1.00  0.00    -0.473 OA 
ENDROOT
BRANCH   2   6
HETATM    6  C   UNL     1     -10.466  17.898  67.638  1.00  0.00    -0.397 A  
HETATM    7  C   UNL     1     -10.344  17.670  68.994  1.00  0.00    -0.272 A  
HETATM    8  N   UNL     1     -10.702  16.361  69.149  1.00  0.00    -0.295 NA 
HETATM    9  N   UNL     1     -10.934  16.751  67.038  1.00  0.00    -0.054 NA 
HETATM   10  N   UNL     1     -11.072  15.819  67.972  1.00  0.00    -0.332 NA 
BRANCH   8  11
HETATM   11  C   UNL     1     -10.434  15.510  70.293  1.00  0.00    -0.263 C  
BRANCH  11  12
HETATM   12  C   UNL     1     -11.658  15.070  71.036  1.00  0.00    -0.367 A  
HETATM   13  C   UNL     1     -12.227  13.818  70.805  1.00  0.00    -0.363 A  
HETATM   14  C   UNL     1     -13.254  13.324  71.611  1.00  0.00    -0.446 A  
HETATM   15  F   UNL     1     -11.750  13.039  69.826  1.00  0.00    -0.330 F  
HETATM   16  C   UNL     1     -13.744  14.098  72.663  1.00  0.00    -0.568 A  
HETATM   17  C   UNL     1     -13.228  15.376  72.872  1.00  0.00    -0.622 A  
HETATM   18  C   UNL     1     -12.201  15.850  72.056  1.00  0.00    -0.490 A  
HETATM   19  F   UNL     1     -11.696  17.069  72.298  1.00  0.00    -0.464 F  
ENDBRANCH  11  12
ENDBRANCH   8  11
ENDBRANCH   2   6
TORSDOF 3
ENDMDL
MODEL       28
REMARK 921   NORMALIZED FREE ENERGY PREDICTED BY IDOCK:   -5.54 KCAL/MOL
REMARK 922        TOTAL FREE ENERGY PREDICTED BY IDOCK:   -6.92 KCAL/MOL
REMARK 923 INTER-LIGAND FREE ENERGY PREDICTED BY IDOCK:   -6.54 KCAL/MOL
REMARK 924 INTRA-LIGAND FREE ENERGY PREDICTED BY IDOCK:   -0.37 KCAL/MOL
REMARK 927      BINDING AFFINITY PREDICTED BY RF-SCORE:    0.00 PKD
ROOT
HETATM    1  N   UNL     1     -13.196  15.843  70.131  1.00  0.00    -0.602 N  
HETATM    2  C   UNL     1     -13.153  15.379  71.415  1.00  0.00    -0.488 C  
HETATM    3  H1  UNL     1     -13.207  15.203  69.337  1.00  0.00     0.000 HD 
HETATM    4  H2  UNL     1     -13.218  16.849  69.963  1.00  0.00     0.000 HD 
HETATM    5  O   UNL     1     -13.139  16.150  72.370  1.00  0.00    -0.404 OA 
ENDROOT
BRANCH   2   6
HETATM    6  C   UNL     1     -13.100  13.932  71.540  1.00  0.00    -0.365 A  
HETATM    7  C   UNL     1     -12.385  13.047  70.759  1.00  0.00    -0.310 A  
HETATM    8  N   UNL     1     -12.750  11.816  71.224  1.00  0.00    -0.368 NA 
HETATM    9  N   UNL     1     -13.824  13.217  72.468  1.00  0.00    -0.719 NA 
HETATM   10  N   UNL     1     -13.603  11.925  72.262  1.00  0.00    -0.222 NA 
BRANCH   8  11
HETATM   11  C   UNL     1     -12.572  10.540  70.556  1.00  0.00    -0.339 C  
BRANCH  11  12
HETATM   12  C   UNL     1     -11.552   9.646  71.193  1.00  0.00    -0.456 A  
HETATM   13  C   UNL     1     -11.904   8.777  72.226  1.00  0.00    -0.333 A  
HETATM   14  C   UNL     1     -11.012   7.816  72.705  1.00  0.00    -0.447 A  
HETATM   15  F   UNL     1     -13.140   8.817  72.740  1.00  0.00    -0.442 F  
HETATM   16  C   UNL     1      -9.732   7.725  72.161  1.00  0.00    -0.240 A  
HETATM   17  C   UNL     1      -9.343   8.625  71.170  1.00  0.00    -0.274 A  
HETATM   18  C   UNL     1     -10.249   9.577  70.703  1.00  0.00    -0.297 A  
HETATM   19  F   UNL     1      -9.864  10.409  69.725  1.00  0.00    -0.238 F  
ENDBRANCH  11  12
ENDBRANCH   8  11
ENDBRANCH   2   6
TORSDOF 3
ENDMDL
MODEL       29
REMARK 921   NORMALIZED FREE ENERGY PREDICTED BY IDOCK:   -5.54 KCAL/MOL
REMARK 922        TOTAL FREE ENERGY PREDICTED BY IDOCK:   -6.92 KCAL/MOL
REMARK 923 INTER-LIGAND FREE ENERGY PREDICTED BY IDOCK:   -6.56 KCAL/MOL
REMARK 924 INTRA-LIGAND FREE ENERGY PREDICTED BY IDOCK:   -0.36 KCAL/MOL
REMARK 927      BINDING AFFINITY PREDICTED BY RF-SCORE:    0.00 PKD
ROOT
HETATM    1  N   UNL     1     -10.489  19.589  68.662  1.00  0.00    -0.507 N  
HETATM    2  C   UNL     1      -9.915  19.584  67.422  1.00  0.00    -0.383 C  
HETATM    3  H1  UNL     1     -11.142  18.859  68.946  1.00  0.00     0.000 HD 
HETATM    4  H2  UNL     1     -10.259  20.338  69.316  1.00  0.00     0.000 HD 
HETATM    5  O   UNL     1      -9.129  20.463  67.081  1.00  0.00    -0.367 OA 
ENDROOT
BRANCH   2   6
HETATM    6  C   UNL     1     -10.329  18.488  66.562  1.00  0.00    -0.414 A  
HETATM    7  C   UNL     1     -10.203  17.135  66.806  1.00  0.00    -0.311 A  
HETATM    8  N   UNL     1     -10.652  16.543  65.660  1.00  0.00    -0.418 NA 
HETATM    9  N   UNL     1     -10.888  18.662  65.316  1.00  0.00    -0.448 NA 
HETATM   10  N   UNL     1     -11.078  17.465  64.774  1.00  0.00    -0.883 NA 
BRANCH   8  11
HETATM   11  C   UNL     1     -10.428  15.173  65.238  1.00  0.00    -0.409 C  
BRANCH  11  12
HETATM   12  C   UNL     1     -10.614  14.154  66.320  1.00  0.00    -0.284 A  
HETATM   13  C   UNL     1     -11.867  13.594  66.571  1.00  0.00    -0.404 A  
HETATM   14  C   UNL     1     -12.022  12.520  67.449  1.00  0.00    -0.283 A  
HETATM   15  F   UNL     1     -12.944  14.052  65.921  1.00  0.00    -0.520 F  
HETATM   16  C   UNL     1     -10.911  11.999  68.110  1.00  0.00    -0.257 A  
HETATM   17  C   UNL     1      -9.660  12.584  67.917  1.00  0.00    -0.206 A  
HETATM   18  C   UNL     1      -9.526  13.655  67.034  1.00  0.00    -0.252 A  
HETATM   19  F   UNL     1      -8.308  14.179  66.837  1.00  0.00    -0.211 F  
ENDBRANCH  11  12
ENDBRANCH   8  11
ENDBRANCH   2   6
TORSDOF 3
ENDMDL
MODEL       30
REMARK 921   NORMALIZED FREE ENERGY PREDICTED BY IDOCK:   -5.52 KCAL/MOL
REMARK 922        TOTAL FREE ENERGY PREDICTED BY IDOCK:   -6.90 KCAL/MOL
REMARK 923 INTER-LIGAND FREE ENERGY PREDICTED BY IDOCK:   -6.47 KCAL/MOL
REMARK 924 INTRA-LIGAND FREE ENERGY PREDICTED BY IDOCK:   -0.43 KCAL/MOL
REMARK 927      BINDING AFFINITY PREDICTED BY RF-SCORE:    0.00 PKD
ROOT
HETATM    1  N   UNL     1     -10.551  19.173  66.541  1.00  0.00    -0.435 N  
HETATM    2  C   UNL     1      -9.764  18.084  66.293  1.00  0.00    -0.270 C  
HETATM    3  H1  UNL     1     -11.508  19.069  66.878  1.00  0.00     0.000 HD 
HETATM    4  H2  UNL     1     -10.173  20.109  66.388  1.00  0.00     0.000 HD 
HETATM    5  O   UNL     1      -8.612  18.210  65.889  1.00  0.00    -0.507 OA 
ENDROOT
BRANCH   2   6
HETATM    6  C   UNL     1     -10.408  16.801  66.523  1.00  0.00    -0.301 A  
HETATM    7  C   UNL     1     -10.780  15.867  65.577  1.00  0.00    -0.372 A  
HETATM    8  N   UNL     1     -11.421  14.898  66.294  1.00  0.00    -0.312 NA 
HETATM    9  N   UNL     1     -10.786  16.346  67.766  1.00  0.00    -0.328 NA 
HETATM   10  N   UNL     1     -11.407  15.183  67.612  1.00  0.00    -0.325 NA 
BRANCH   8  11
HETATM   11  C   UNL     1     -12.302  13.867  65.780  1.00  0.00    -0.486 C  
BRANCH  11  12
HETATM   12  C   UNL     1     -11.595  12.659  65.247  1.00  0.00    -0.389 A  
HETATM   13  C   UNL     1     -11.413  12.479  63.875  1.00  0.00    -0.437 A  
HETATM   14  C   UNL     1     -10.605  11.457  63.375  1.00  0.00    -0.435 A  
HETATM   15  F   UNL     1     -11.977  13.332  63.011  1.00  0.00    -0.576 F  
HETATM   16  C   UNL     1      -9.975  10.578  64.254  1.00  0.00    -0.398 A  
HETATM   17  C   UNL     1     -10.192  10.706  65.625  1.00  0.00    -0.319 A  
HETATM   18  C   UNL     1     -11.002  11.735  66.106  1.00  0.00    -0.307 A  
HETATM   19  F   UNL     1     -11.168  11.859  67.430  1.00  0.00    -0.273 F  
ENDBRANCH  11  12
ENDBRANCH   8  11
ENDBRANCH   2   6
TORSDOF 3
ENDMDL
MODEL       31
REMARK 921   NORMALIZED FREE ENERGY PREDICTED BY IDOCK:   -5.52 KCAL/MOL
REMARK 922        TOTAL FREE ENERGY PREDICTED BY IDOCK:   -6.90 KCAL/MOL
REMARK 923 INTER-LIGAND FREE ENERGY PREDICTED BY IDOCK:   -6.52 KCAL/MOL
REMARK 924 INTRA-LIGAND FREE ENERGY PREDICTED BY IDOCK:   -0.38 KCAL/MOL
REMARK 927      BINDING AFFINITY PREDICTED BY RF-SCORE:    0.00 PKD
ROOT
HETATM    1  N   UNL     1     -13.533  15.546  70.662  1.00  0.00    -0.829 N  
HETATM    2  C   UNL     1     -12.575  14.670  70.236  1.00  0.00    -0.318 C  
HETATM    3  H1  UNL     1     -13.725  16.408  70.151  1.00  0.00     0.000 HD 
HETATM    4  H2  UNL     1     -14.065  15.335  71.506  1.00  0.00     0.000 HD 
HETATM    5  O   UNL     1     -12.344  13.633  70.851  1.00  0.00    -0.351 OA 
ENDROOT
BRANCH   2   6
HETATM    6  C   UNL     1     -11.861  15.079  69.038  1.00  0.00    -0.300 A  
HETATM    7  C   UNL     1     -11.548  14.303  67.941  1.00  0.00    -0.336 A  
HETATM    8  N   UNL     1     -10.800  15.126  67.148  1.00  0.00    -0.315 NA 
HETATM    9  N   UNL     1     -11.341  16.340  68.851  1.00  0.00    -0.339 NA 
HETATM   10  N   UNL     1     -10.693  16.355  67.693  1.00  0.00    -0.326 NA 
BRANCH   8  11
HETATM   11  C   UNL     1      -9.934  14.736  66.052  1.00  0.00    -0.313 C  
BRANCH  11  12
HETATM   12  C   UNL     1     -10.535  13.732  65.117  1.00  0.00    -0.399 A  
HETATM   13  C   UNL     1     -10.126  12.398  65.135  1.00  0.00    -0.256 A  
HETATM   14  C   UNL     1     -10.798  11.420  64.400  1.00  0.00    -0.397 A  
HETATM   15  F   UNL     1      -9.101  12.025  65.912  1.00  0.00    -0.218 F  
HETATM   16  C   UNL     1     -11.893  11.773  63.612  1.00  0.00    -0.498 A  
HETATM   17  C   UNL     1     -12.279  13.111  63.536  1.00  0.00    -0.552 A  
HETATM   18  C   UNL     1     -11.596  14.073  64.279  1.00  0.00    -0.329 A  
HETATM   19  F   UNL     1     -12.007  15.347  64.216  1.00  0.00    -0.443 F  
ENDBRANCH  11  12
ENDBRANCH   8  11
ENDBRANCH   2   6
TORSDOF 3
ENDMDL
MODEL       32
REMARK 921   NORMALIZED FREE ENERGY PREDICTED BY IDOCK:   -5.51 KCAL/MOL
REMARK 922        TOTAL FREE ENERGY PREDICTED BY IDOCK:   -6.88 KCAL/MOL
REMARK 923 INTER-LIGAND FREE ENERGY PREDICTED BY IDOCK:   -6.52 KCAL/MOL
REMARK 924 INTRA-LIGAND FREE ENERGY PREDICTED BY IDOCK:   -0.37 KCAL/MOL
REMARK 927      BINDING AFFINITY PREDICTED BY RF-SCORE:    0.00 PKD
ROOT
HETATM    1  N   UNL     1      -9.671  18.963  68.246  1.00  0.00    -0.339 N  
HETATM    2  C   UNL     1     -10.060  19.184  66.955  1.00  0.00    -0.366 C  
HETATM    3  H1  UNL     1      -9.603  18.017  68.623  1.00  0.00     0.000 HD 
HETATM    4  H2  UNL     1      -9.444  19.758  68.844  1.00  0.00     0.000 HD 
HETATM    5  O   UNL     1     -10.142  20.322  66.502  1.00  0.00    -0.442 OA 
ENDROOT
BRANCH   2   6
HETATM    6  C   UNL     1     -10.383  17.985  66.200  1.00  0.00    -0.366 A  
HETATM    7  C   UNL     1     -10.118  16.676  66.549  1.00  0.00    -0.305 A  
HETATM    8  N   UNL     1     -10.531  15.950  65.469  1.00  0.00    -0.383 NA 
HETATM    9  N   UNL     1     -10.983  18.000  64.961  1.00  0.00    -0.587 NA 
HETATM   10  N   UNL     1     -11.065  16.749  64.524  1.00  0.00    -1.039 NA 
BRANCH   8  11
HETATM   11  C   UNL     1     -10.181  14.577  65.152  1.00  0.00    -0.389 C  
BRANCH  11  12
HETATM   12  C   UNL     1     -10.329  13.622  66.296  1.00  0.00    -0.293 A  
HETATM   13  C   UNL     1      -9.235  13.274  67.088  1.00  0.00    -0.235 A  
HETATM   14  C   UNL     1      -9.390  12.531  68.259  1.00  0.00    -0.193 A  
HETATM   15  F   UNL     1      -8.010  13.702  66.757  1.00  0.00    -0.090 F  
HETATM   16  C   UNL     1     -10.659  12.105  68.648  1.00  0.00    -0.248 A  
HETATM   17  C   UNL     1     -11.756  12.393  67.838  1.00  0.00    -0.421 A  
HETATM   18  C   UNL     1     -11.582  13.138  66.672  1.00  0.00    -0.356 A  
HETATM   19  F   UNL     1     -12.657  13.433  65.928  1.00  0.00    -0.463 F  
ENDBRANCH  11  12
ENDBRANCH   8  11
ENDBRANCH   2   6
TORSDOF 3
ENDMDL
MODEL       33
REMARK 921   NORMALIZED FREE ENERGY PREDICTED BY IDOCK:   -5.50 KCAL/MOL
REMARK 922        TOTAL FREE ENERGY PREDICTED BY IDOCK:   -6.88 KCAL/MOL
REMARK 923 INTER-LIGAND FREE ENERGY PREDICTED BY IDOCK:   -6.65 KCAL/MOL
REMARK 924 INTRA-LIGAND FREE ENERGY PREDICTED BY IDOCK:   -0.23 KCAL/MOL
REMARK 927      BINDING AFFINITY PREDICTED BY RF-SCORE:    0.00 PKD
ROOT
HETATM    1  N   UNL     1     -11.884  12.228  65.724  1.00  0.00    -0.399 N  
HETATM    2  C   UNL     1     -12.367  12.967  64.681  1.00  0.00    -0.439 C  
HETATM    3  H1  UNL     1     -11.262  12.639  66.420  1.00  0.00     0.000 HD 
HETATM    4  H2  UNL     1     -12.152  11.247  65.808  1.00  0.00     0.000 HD 
HETATM    5  O   UNL     1     -13.116  12.473  63.844  1.00  0.00    -0.728 OA 
ENDROOT
BRANCH   2   6
HETATM    6  C   UNL     1     -11.904  14.344  64.643  1.00  0.00    -0.451 A  
HETATM    7  C   UNL     1     -10.819  14.884  65.303  1.00  0.00    -0.386 A  
HETATM    8  N   UNL     1     -10.877  16.217  65.012  1.00  0.00    -0.610 NA 
HETATM    9  N   UNL     1     -12.542  15.347  63.947  1.00  0.00    -0.599 NA 
HETATM   10  N   UNL     1     -11.905  16.487  64.183  1.00  0.00    -0.885 NA 
BRANCH   8  11
HETATM   11  C   UNL     1     -10.197  17.295  65.707  1.00  0.00    -0.198 C  
BRANCH  11  12
HETATM   12  C   UNL     1      -9.436  16.863  66.923  1.00  0.00    -0.261 A  
HETATM   13  C   UNL     1     -10.098  16.540  68.107  1.00  0.00    -0.255 A  
HETATM   14  C   UNL     1      -9.423  15.969  69.187  1.00  0.00    -0.253 A  
HETATM   15  F   UNL     1     -11.420  16.728  68.204  1.00  0.00    -0.315 F  
HETATM   16  C   UNL     1      -8.053  15.727  69.099  1.00  0.00    -0.237 A  
HETATM   17  C   UNL     1      -7.364  16.097  67.945  1.00  0.00    -0.142 A  
HETATM   18  C   UNL     1      -8.057  16.666  66.876  1.00  0.00    -0.214 A  
HETATM   19  F   UNL     1      -7.379  16.982  65.764  1.00  0.00    -0.280 F  
ENDBRANCH  11  12
ENDBRANCH   8  11
ENDBRANCH   2   6
TORSDOF 3
ENDMDL
MODEL       34
REMARK 921   NORMALIZED FREE ENERGY PREDICTED BY IDOCK:   -5.48 KCAL/MOL
REMARK 922        TOTAL FREE ENERGY PREDICTED BY IDOCK:   -6.86 KCAL/MOL
REMARK 923 INTER-LIGAND FREE ENERGY PREDICTED BY IDOCK:   -6.42 KCAL/MOL
REMARK 924 INTRA-LIGAND FREE ENERGY PREDICTED BY IDOCK:   -0.44 KCAL/MOL
REMARK 927      BINDING AFFINITY PREDICTED BY RF-SCORE:    0.00 PKD
ROOT
HETATM    1  N   UNL     1     -12.428  14.054  63.049  1.00  0.00    -0.988 N  
HETATM    2  C   UNL     1     -12.535  13.364  64.224  1.00  0.00    -0.257 C  
HETATM    3  H1  UNL     1     -11.779  14.835  62.952  1.00  0.00     0.000 HD 
HETATM    4  H2  UNL     1     -13.008  13.782  62.255  1.00  0.00     0.000 HD 
HETATM    5  O   UNL     1     -13.314  12.424  64.341  1.00  0.00    -0.789 OA 
ENDROOT
BRANCH   2   6
HETATM    6  C   UNL     1     -11.682  13.849  65.297  1.00  0.00    -0.340 A  
HETATM    7  C   UNL     1     -11.079  13.106  66.291  1.00  0.00    -0.287 A  
HETATM    8  N   UNL     1     -10.476  14.036  67.089  1.00  0.00    -0.269 NA 
HETATM    9  N   UNL     1     -11.385  15.178  65.496  1.00  0.00    -0.314 NA 
HETATM   10  N   UNL     1     -10.650  15.280  66.597  1.00  0.00    -0.299 NA 
BRANCH   8  11
HETATM   11  C   UNL     1      -9.998  13.848  68.445  1.00  0.00    -0.233 C  
BRANCH  11  12
HETATM   12  C   UNL     1     -10.930  14.351  69.505  1.00  0.00    -0.230 A  
HETATM   13  C   UNL     1     -10.759  15.614  70.071  1.00  0.00    -0.335 A  
HETATM   14  C   UNL     1     -11.716  16.166  70.924  1.00  0.00    -0.370 A  
HETATM   15  F   UNL     1      -9.683  16.347  69.755  1.00  0.00    -0.201 F  
HETATM   16  C   UNL     1     -12.865  15.441  71.239  1.00  0.00    -0.519 A  
HETATM   17  C   UNL     1     -13.024  14.153  70.729  1.00  0.00    -0.337 A  
HETATM   18  C   UNL     1     -12.057  13.620  69.878  1.00  0.00    -0.341 A  
HETATM   19  F   UNL     1     -12.248  12.393  69.372  1.00  0.00    -0.311 F  
ENDBRANCH  11  12
ENDBRANCH   8  11
ENDBRANCH   2   6
TORSDOF 3
ENDMDL
MODEL       35
REMARK 921   NORMALIZED FREE ENERGY PREDICTED BY IDOCK:   -5.48 KCAL/MOL
REMARK 922        TOTAL FREE ENERGY PREDICTED BY IDOCK:   -6.85 KCAL/MOL
REMARK 923 INTER-LIGAND FREE ENERGY PREDICTED BY IDOCK:   -6.57 KCAL/MOL
REMARK 924 INTRA-LIGAND FREE ENERGY PREDICTED BY IDOCK:   -0.28 KCAL/MOL
REMARK 927      BINDING AFFINITY PREDICTED BY RF-SCORE:    0.00 PKD
ROOT
HETATM    1  N   UNL     1     -12.405  13.978  63.414  1.00  0.00    -1.154 N  
HETATM    2  C   UNL     1     -11.400  13.634  64.274  1.00  0.00    -0.350 C  
HETATM    3  H1  UNL     1     -13.054  14.733  63.635  1.00  0.00     0.000 HD 
HETATM    4  H2  UNL     1     -12.507  13.470  62.535  1.00  0.00     0.000 HD 
HETATM    5  O   UNL     1     -10.618  12.726  64.008  1.00  0.00    -0.392 OA 
ENDROOT
BRANCH   2   6
HETATM    6  C   UNL     1     -11.359  14.405  65.505  1.00  0.00    -0.334 A  
HETATM    7  C   UNL     1     -10.603  15.529  65.768  1.00  0.00    -0.356 A  
HETATM    8  N   UNL     1     -10.854  15.805  67.082  1.00  0.00    -0.315 NA 
HETATM    9  N   UNL     1     -12.068  14.074  66.638  1.00  0.00    -0.450 NA 
HETATM   10  N   UNL     1     -11.749  14.936  67.595  1.00  0.00    -0.345 NA 
BRANCH   8  11
HETATM   11  C   UNL     1     -10.077  16.658  67.961  1.00  0.00    -0.262 C  
BRANCH  11  12
HETATM   12  C   UNL     1      -9.301  17.728  67.256  1.00  0.00    -0.254 A  
HETATM   13  C   UNL     1      -9.803  19.024  67.143  1.00  0.00    -0.324 A  
HETATM   14  C   UNL     1      -9.019  20.069  66.651  1.00  0.00    -0.446 A  
HETATM   15  F   UNL     1     -11.045  19.297  67.564  1.00  0.00    -0.544 F  
HETATM   16  C   UNL     1      -7.710  19.821  66.242  1.00  0.00    -0.331 A  
HETATM   17  C   UNL     1      -7.211  18.521  66.292  1.00  0.00    -0.288 A  
HETATM   18  C   UNL     1      -8.009  17.490  66.789  1.00  0.00    -0.241 A  
HETATM   19  F   UNL     1      -7.495  16.254  66.861  1.00  0.00    -0.186 F  
ENDBRANCH  11  12
ENDBRANCH   8  11
ENDBRANCH   2   6
TORSDOF 3
ENDMDL
MODEL       36
REMARK 921   NORMALIZED FREE ENERGY PREDICTED BY IDOCK:   -5.45 KCAL/MOL
REMARK 922        TOTAL FREE ENERGY PREDICTED BY IDOCK:   -6.82 KCAL/MOL
REMARK 923 INTER-LIGAND FREE ENERGY PREDICTED BY IDOCK:   -6.62 KCAL/MOL
REMARK 924 INTRA-LIGAND FREE ENERGY PREDICTED BY IDOCK:   -0.20 KCAL/MOL
REMARK 927      BINDING AFFINITY PREDICTED BY RF-SCORE:    0.00 PKD
ROOT
HETATM    1  N   UNL     1     -13.227  10.541  72.179  1.00  0.00    -0.573 N  
HETATM    2  C   UNL     1     -13.141  11.811  71.682  1.00  0.00    -0.338 C  
HETATM    3  H1  UNL     1     -12.870   9.742  71.655  1.00  0.00     0.000 HD 
HETATM    4  H2  UNL     1     -13.657  10.389  73.092  1.00  0.00     0.000 HD 
HETATM    5  O   UNL     1     -13.570  12.772  72.313  1.00  0.00    -0.556 OA 
ENDROOT
BRANCH   2   6
HETATM    6  C   UNL     1     -12.533  11.911  70.365  1.00  0.00    -0.170 A  
HETATM    7  C   UNL     1     -11.917  13.012  69.807  1.00  0.00    -0.308 A  
HETATM    8  N   UNL     1     -11.608  12.617  68.536  1.00  0.00    -0.301 NA 
HETATM    9  N   UNL     1     -12.531  10.888  69.444  1.00  0.00    -0.318 NA 
HETATM   10  N   UNL     1     -11.965  11.333  68.329  1.00  0.00    -0.621 NA 
BRANCH   8  11
HETATM   11  C   UNL     1     -11.265  13.470  67.414  1.00  0.00    -0.295 C  
BRANCH  11  12
HETATM   12  C   UNL     1     -11.273  12.776  66.086  1.00  0.00    -0.336 A  
HETATM   13  C   UNL     1     -12.302  12.990  65.169  1.00  0.00    -0.484 A  
HETATM   14  C   UNL     1     -12.232  12.494  63.867  1.00  0.00    -0.590 A  
HETATM   15  F   UNL     1     -13.361  13.732  65.517  1.00  0.00    -0.466 F  
HETATM   16  C   UNL     1     -11.123  11.751  63.466  1.00  0.00    -0.503 A  
HETATM   17  C   UNL     1     -10.112  11.478  64.386  1.00  0.00    -0.328 A  
HETATM   18  C   UNL     1     -10.199  11.983  65.683  1.00  0.00    -0.252 A  
HETATM   19  F   UNL     1      -9.199  11.736  66.540  1.00  0.00    -0.179 F  
ENDBRANCH  11  12
ENDBRANCH   8  11
ENDBRANCH   2   6
TORSDOF 3
ENDMDL
MODEL       37
REMARK 921   NORMALIZED FREE ENERGY PREDICTED BY IDOCK:   -5.43 KCAL/MOL
REMARK 922        TOTAL FREE ENERGY PREDICTED BY IDOCK:   -6.79 KCAL/MOL
REMARK 923 INTER-LIGAND FREE ENERGY PREDICTED BY IDOCK:   -6.43 KCAL/MOL
REMARK 924 INTRA-LIGAND FREE ENERGY PREDICTED BY IDOCK:   -0.37 KCAL/MOL
REMARK 927      BINDING AFFINITY PREDICTED BY RF-SCORE:    0.00 PKD
ROOT
HETATM    1  N   UNL     1     -12.784   7.231  71.013  1.00  0.00    -0.562 N  
HETATM    2  C   UNL     1     -11.986   8.040  71.771  1.00  0.00    -0.301 C  
HETATM    3  H1  UNL     1     -13.207   7.566  70.147  1.00  0.00     0.000 HD 
HETATM    4  H2  UNL     1     -12.961   6.274  71.319  1.00  0.00     0.000 HD 
HETATM    5  O   UNL     1     -11.478   7.637  72.812  1.00  0.00    -0.355 OA 
ENDROOT
BRANCH   2   6
HETATM    6  C   UNL     1     -11.821   9.390  71.256  1.00  0.00    -0.360 A  
HETATM    7  C   UNL     1     -12.640  10.478  71.476  1.00  0.00    -0.424 A  
HETATM    8  N   UNL     1     -12.102  11.467  70.702  1.00  0.00    -0.377 NA 
HETATM    9  N   UNL     1     -10.802   9.766  70.410  1.00  0.00    -0.287 NA 
HETATM   10  N   UNL     1     -10.987  11.037  70.076  1.00  0.00    -0.165 NA 
BRANCH   8  11
HETATM   11  C   UNL     1     -12.742  12.701  70.289  1.00  0.00     0.171 C  
BRANCH  11  12
HETATM   12  C   UNL     1     -12.557  13.843  71.240  1.00  0.00    -0.450 A  
HETATM   13  C   UNL     1     -11.629  14.852  70.980  1.00  0.00    -0.298 A  
HETATM   14  C   UNL     1     -11.571  16.007  71.761  1.00  0.00    -0.534 A  
HETATM   15  F   UNL     1     -10.807  14.746  69.928  1.00  0.00    -0.252 F  
HETATM   16  C   UNL     1     -12.442  16.160  72.839  1.00  0.00    -0.570 A  
HETATM   17  C   UNL     1     -13.335  15.136  73.150  1.00  0.00    -0.558 A  
HETATM   18  C   UNL     1     -13.379  13.990  72.357  1.00  0.00    -0.518 A  
HETATM   19  F   UNL     1     -14.270  13.034  72.654  1.00  0.00    -0.587 F  
ENDBRANCH  11  12
ENDBRANCH   8  11
ENDBRANCH   2   6
TORSDOF 3
ENDMDL
MODEL       38
REMARK 921   NORMALIZED FREE ENERGY PREDICTED BY IDOCK:   -5.41 KCAL/MOL
REMARK 922        TOTAL FREE ENERGY PREDICTED BY IDOCK:   -6.77 KCAL/MOL
REMARK 923 INTER-LIGAND FREE ENERGY PREDICTED BY IDOCK:   -6.35 KCAL/MOL
REMARK 924 INTRA-LIGAND FREE ENERGY PREDICTED BY IDOCK:   -0.41 KCAL/MOL
REMARK 927      BINDING AFFINITY PREDICTED BY RF-SCORE:    0.00 PKD
ROOT
HETATM    1  N   UNL     1     -12.347   8.956  70.714  1.00  0.00    -0.492 N  
HETATM    2  C   UNL     1     -12.672  10.215  71.131  1.00  0.00    -0.396 C  
HETATM    3  H1  UNL     1     -11.833   8.802  69.846  1.00  0.00     0.000 HD 
HETATM    4  H2  UNL     1     -12.622   8.154  71.282  1.00  0.00     0.000 HD 
HETATM    5  O   UNL     1     -13.290  10.400  72.175  1.00  0.00    -0.441 OA 
ENDROOT
BRANCH   2   6
HETATM    6  C   UNL     1     -12.253  11.282  70.237  1.00  0.00    -0.345 A  
HETATM    7  C   UNL     1     -11.729  11.156  68.966  1.00  0.00    -0.339 A  
HETATM    8  N   UNL     1     -11.417  12.434  68.602  1.00  0.00    -0.278 NA 
HETATM    9  N   UNL     1     -12.285  12.617  70.571  1.00  0.00    -0.353 NA 
HETATM   10  N   UNL     1     -11.769  13.311  69.565  1.00  0.00    -0.311 NA 
BRANCH   8  11
HETATM   11  C   UNL     1     -10.538  12.847  67.525  1.00  0.00    -0.226 C  
BRANCH  11  12
HETATM   12  C   UNL     1     -10.992  12.427  66.161  1.00  0.00    -0.321 A  
HETATM   13  C   UNL     1     -12.050  13.077  65.524  1.00  0.00    -0.452 A  
HETATM   14  C   UNL     1     -12.367  12.817  64.190  1.00  0.00    -0.485 A  
HETATM   15  F   UNL     1     -12.750  14.011  66.180  1.00  0.00    -0.484 F  
HETATM   16  C   UNL     1     -11.630  11.877  63.471  1.00  0.00    -0.537 A  
HETATM   17  C   UNL     1     -10.607  11.176  64.108  1.00  0.00    -0.436 A  
HETATM   18  C   UNL     1     -10.305  11.450  65.442  1.00  0.00    -0.279 A  
HETATM   19  F   UNL     1      -9.295  10.788  66.023  1.00  0.00    -0.180 F  
ENDBRANCH  11  12
ENDBRANCH   8  11
ENDBRANCH   2   6
TORSDOF 3
ENDMDL
MODEL       39
REMARK 921   NORMALIZED FREE ENERGY PREDICTED BY IDOCK:   -5.40 KCAL/MOL
REMARK 922        TOTAL FREE ENERGY PREDICTED BY IDOCK:   -6.76 KCAL/MOL
REMARK 923 INTER-LIGAND FREE ENERGY PREDICTED BY IDOCK:   -6.47 KCAL/MOL
REMARK 924 INTRA-LIGAND FREE ENERGY PREDICTED BY IDOCK:   -0.28 KCAL/MOL
REMARK 927      BINDING AFFINITY PREDICTED BY RF-SCORE:    0.00 PKD
ROOT
HETATM    1  N   UNL     1     -14.368  15.457  71.277  1.00  0.00    -0.763 N  
HETATM    2  C   UNL     1     -13.356  14.578  71.542  1.00  0.00    -0.362 C  
HETATM    3  H1  UNL     1     -14.493  15.853  70.346  1.00  0.00     0.000 HD 
HETATM    4  H2  UNL     1     -15.010  15.721  72.025  1.00  0.00     0.000 HD 
HETATM    5  O   UNL     1     -13.206  14.100  72.663  1.00  0.00    -0.466 OA 
ENDROOT
BRANCH   2   6
HETATM    6  C   UNL     1     -12.486  14.289  70.414  1.00  0.00    -0.362 A  
HETATM    7  C   UNL     1     -12.019  15.176  69.466  1.00  0.00    -0.321 A  
HETATM    8  N   UNL     1     -11.329  14.394  68.584  1.00  0.00    -0.258 NA 
HETATM    9  N   UNL     1     -12.029  13.028  70.104  1.00  0.00    -0.335 NA 
HETATM   10  N   UNL     1     -11.325  13.106  68.982  1.00  0.00    -0.268 NA 
BRANCH   8  11
HETATM   11  C   UNL     1     -10.926  14.743  67.235  1.00  0.00    -0.318 C  
BRANCH  11  12
HETATM   12  C   UNL     1     -11.028  13.620  66.249  1.00  0.00    -0.300 A  
HETATM   13  C   UNL     1     -12.181  13.436  65.487  1.00  0.00    -0.455 A  
HETATM   14  C   UNL     1     -12.225  12.509  64.444  1.00  0.00    -0.528 A  
HETATM   15  F   UNL     1     -13.260  14.195  65.715  1.00  0.00    -0.549 F  
HETATM   16  C   UNL     1     -11.104  11.732  64.159  1.00  0.00    -0.442 A  
HETATM   17  C   UNL     1      -9.962  11.861  64.948  1.00  0.00    -0.269 A  
HETATM   18  C   UNL     1      -9.937  12.793  65.985  1.00  0.00    -0.271 A  
HETATM   19  F   UNL     1      -8.816  12.923  66.708  1.00  0.00    -0.206 F  
ENDBRANCH  11  12
ENDBRANCH   8  11
ENDBRANCH   2   6
TORSDOF 3
ENDMDL
MODEL       40
REMARK 921   NORMALIZED FREE ENERGY PREDICTED BY IDOCK:   -5.38 KCAL/MOL
REMARK 922        TOTAL FREE ENERGY PREDICTED BY IDOCK:   -6.73 KCAL/MOL
REMARK 923 INTER-LIGAND FREE ENERGY PREDICTED BY IDOCK:   -6.56 KCAL/MOL
REMARK 924 INTRA-LIGAND FREE ENERGY PREDICTED BY IDOCK:   -0.18 KCAL/MOL
REMARK 927      BINDING AFFINITY PREDICTED BY RF-SCORE:    0.00 PKD
ROOT
HETATM    1  N   UNL     1      -9.389  19.026  68.620  1.00  0.00    -0.367 N  
HETATM    2  C   UNL     1     -10.080  18.949  67.444  1.00  0.00    -0.361 C  
HETATM    3  H1  UNL     1      -9.075  18.185  69.105  1.00  0.00     0.000 HD 
HETATM    4  H2  UNL     1      -9.184  19.942  69.020  1.00  0.00     0.000 HD 
HETATM    5  O   UNL     1     -10.458  19.961  66.860  1.00  0.00    -0.446 OA 
ENDROOT
BRANCH   2   6
HETATM    6  C   UNL     1     -10.339  17.598  66.975  1.00  0.00    -0.330 A  
HETATM    7  C   UNL     1     -10.790  16.524  67.716  1.00  0.00    -0.304 A  
HETATM    8  N   UNL     1     -10.775  15.479  66.837  1.00  0.00    -0.316 NA 
HETATM    9  N   UNL     1     -10.119  17.182  65.681  1.00  0.00    -0.590 NA 
HETATM   10  N   UNL     1     -10.387  15.884  65.611  1.00  0.00    -0.367 NA 
BRANCH   8  11
HETATM   11  C   UNL     1     -10.822  14.065  67.158  1.00  0.00    -0.286 C  
BRANCH  11  12
HETATM   12  C   UNL     1     -11.096  13.174  65.986  1.00  0.00    -0.299 A  
HETATM   13  C   UNL     1     -12.301  13.255  65.288  1.00  0.00    -0.476 A  
HETATM   14  C   UNL     1     -12.498  12.561  64.092  1.00  0.00    -0.518 A  
HETATM   15  F   UNL     1     -13.278  14.053  65.735  1.00  0.00    -0.537 F  
HETATM   16  C   UNL     1     -11.483  11.753  63.583  1.00  0.00    -0.524 A  
HETATM   17  C   UNL     1     -10.294  11.614  64.298  1.00  0.00    -0.371 A  
HETATM   18  C   UNL     1     -10.115  12.315  65.490  1.00  0.00    -0.256 A  
HETATM   19  F   UNL     1      -8.950  12.193  66.141  1.00  0.00    -0.208 F  
ENDBRANCH  11  12
ENDBRANCH   8  11
ENDBRANCH   2   6
TORSDOF 3
ENDMDL
MODEL       41
REMARK 921   NORMALIZED FREE ENERGY PREDICTED BY IDOCK:   -5.37 KCAL/MOL
REMARK 922        TOTAL FREE ENERGY PREDICTED BY IDOCK:   -6.72 KCAL/MOL
REMARK 923 INTER-LIGAND FREE ENERGY PREDICTED BY IDOCK:   -6.29 KCAL/MOL
REMARK 924 INTRA-LIGAND FREE ENERGY PREDICTED BY IDOCK:   -0.43 KCAL/MOL
REMARK 927      BINDING AFFINITY PREDICTED BY RF-SCORE:    0.00 PKD
ROOT
HETATM    1  N   UNL     1     -13.910   9.444  72.485  1.00  0.00    -0.687 N  
HETATM    2  C   UNL     1     -12.656   9.490  71.944  1.00  0.00    -0.396 C  
HETATM    3  H1  UNL     1     -14.599  10.169  72.285  1.00  0.00     0.000 HD 
HETATM    4  H2  UNL     1     -14.161   8.670  73.101  1.00  0.00     0.000 HD 
HETATM    5  O   UNL     1     -11.827   8.618  72.185  1.00  0.00    -0.344 OA 
ENDROOT
BRANCH   2   6
HETATM    6  C   UNL     1     -12.396  10.646  71.102  1.00  0.00    -0.400 A  
HETATM    7  C   UNL     1     -11.632  10.694  69.954  1.00  0.00    -0.316 A  
HETATM    8  N   UNL     1     -11.630  12.014  69.605  1.00  0.00    -0.307 NA 
HETATM    9  N   UNL     1     -12.864  11.912  71.375  1.00  0.00    -0.364 NA 
HETATM   10  N   UNL     1     -12.386  12.740  70.454  1.00  0.00    -0.292 NA 
BRANCH   8  11
HETATM   11  C   UNL     1     -10.719  12.677  68.691  1.00  0.00    -0.242 C  
BRANCH  11  12
HETATM   12  C   UNL     1     -11.223  12.784  67.285  1.00  0.00    -0.339 A  
HETATM   13  C   UNL     1     -10.990  11.767  66.358  1.00  0.00    -0.294 A  
HETATM   14  C   UNL     1     -11.603  11.771  65.104  1.00  0.00    -0.211 A  
HETATM   15  F   UNL     1     -10.207  10.732  66.687  1.00  0.00    -0.237 F  
HETATM   16  C   UNL     1     -12.454  12.816  64.750  1.00  0.00    -0.539 A  
HETATM   17  C   UNL     1     -12.652  13.870  65.641  1.00  0.00    -0.553 A  
HETATM   18  C   UNL     1     -12.032  13.849  66.890  1.00  0.00    -0.433 A  
HETATM   19  F   UNL     1     -12.265  14.856  67.743  1.00  0.00    -0.333 F  
ENDBRANCH  11  12
ENDBRANCH   8  11
ENDBRANCH   2   6
TORSDOF 3
ENDMDL
MODEL       42
REMARK 921   NORMALIZED FREE ENERGY PREDICTED BY IDOCK:   -5.35 KCAL/MOL
REMARK 922        TOTAL FREE ENERGY PREDICTED BY IDOCK:   -6.70 KCAL/MOL
REMARK 923 INTER-LIGAND FREE ENERGY PREDICTED BY IDOCK:   -6.38 KCAL/MOL
REMARK 924 INTRA-LIGAND FREE ENERGY PREDICTED BY IDOCK:   -0.32 KCAL/MOL
REMARK 927      BINDING AFFINITY PREDICTED BY RF-SCORE:    0.00 PKD
ROOT
HETATM    1  N   UNL     1     -13.297   9.678  70.938  1.00  0.00    -0.596 N  
HETATM    2  C   UNL     1     -12.080  10.296  70.884  1.00  0.00    -0.368 C  
HETATM    3  H1  UNL     1     -14.115  10.080  70.481  1.00  0.00     0.000 HD 
HETATM    4  H2  UNL     1     -13.388   8.797  71.445  1.00  0.00     0.000 HD 
HETATM    5  O   UNL     1     -11.095   9.812  71.434  1.00  0.00    -0.359 OA 
ENDROOT
BRANCH   2   6
HETATM    6  C   UNL     1     -12.066  11.555  70.158  1.00  0.00    -0.351 A  
HETATM    7  C   UNL     1     -11.690  11.763  68.846  1.00  0.00    -0.323 A  
HETATM    8  N   UNL     1     -11.767  13.117  68.685  1.00  0.00    -0.307 NA 
HETATM    9  N   UNL     1     -12.399  12.767  70.720  1.00  0.00    -0.354 NA 
HETATM   10  N   UNL     1     -12.210  13.714  69.810  1.00  0.00    -0.315 NA 
BRANCH   8  11
HETATM   11  C   UNL     1     -11.166  13.908  67.627  1.00  0.00    -0.295 C  
BRANCH  11  12
HETATM   12  C   UNL     1     -11.175  13.249  66.282  1.00  0.00    -0.321 A  
HETATM   13  C   UNL     1     -10.103  12.463  65.860  1.00  0.00    -0.253 A  
HETATM   14  C   UNL     1     -10.174  11.702  64.692  1.00  0.00    -0.327 A  
HETATM   15  F   UNL     1      -8.997  12.385  66.611  1.00  0.00    -0.201 F  
HETATM   16  C   UNL     1     -11.328  11.734  63.911  1.00  0.00    -0.494 A  
HETATM   17  C   UNL     1     -12.386  12.560  64.286  1.00  0.00    -0.541 A  
HETATM   18  C   UNL     1     -12.298  13.312  65.457  1.00  0.00    -0.480 A  
HETATM   19  F   UNL     1     -13.342  14.073  65.816  1.00  0.00    -0.501 F  
ENDBRANCH  11  12
ENDBRANCH   8  11
ENDBRANCH   2   6
TORSDOF 3
ENDMDL
MODEL       43
REMARK 921   NORMALIZED FREE ENERGY PREDICTED BY IDOCK:   -5.34 KCAL/MOL
REMARK 922        TOTAL FREE ENERGY PREDICTED BY IDOCK:   -6.69 KCAL/MOL
REMARK 923 INTER-LIGAND FREE ENERGY PREDICTED BY IDOCK:   -6.33 KCAL/MOL
REMARK 924 INTRA-LIGAND FREE ENERGY PREDICTED BY IDOCK:   -0.36 KCAL/MOL
REMARK 927      BINDING AFFINITY PREDICTED BY RF-SCORE:    0.00 PKD
ROOT
HETATM    1  N   UNL     1     -10.097  16.336  65.930  1.00  0.00    -0.344 N  
HETATM    2  C   UNL     1     -10.997  16.085  64.934  1.00  0.00    -0.384 C  
HETATM    3  H1  UNL     1      -9.755  15.589  66.535  1.00  0.00     0.000 HD 
HETATM    4  H2  UNL     1      -9.760  17.289  66.072  1.00  0.00     0.000 HD 
HETATM    5  O   UNL     1     -11.408  16.984  64.206  1.00  0.00    -1.191 OA 
ENDROOT
BRANCH   2   6
HETATM    6  C   UNL     1     -11.428  14.700  64.835  1.00  0.00    -0.401 A  
HETATM    7  C   UNL     1     -10.634  13.582  64.679  1.00  0.00    -0.427 A  
HETATM    8  N   UNL     1     -11.522  12.554  64.546  1.00  0.00    -0.322 NA 
HETATM    9  N   UNL     1     -12.748  14.307  64.840  1.00  0.00    -0.662 NA 
HETATM   10  N   UNL     1     -12.792  12.993  64.660  1.00  0.00    -0.732 NA 
BRANCH   8  11
HETATM   11  C   UNL     1     -11.253  11.227  64.023  1.00  0.00    -0.151 C  
BRANCH  11  12
HETATM   12  C   UNL     1      -9.938  10.650  64.449  1.00  0.00    -0.415 A  
HETATM   13  C   UNL     1      -8.827  10.694  63.606  1.00  0.00    -0.177 A  
HETATM   14  C   UNL     1      -7.558  10.325  64.054  1.00  0.00    -0.083 A  
HETATM   15  F   UNL     1      -8.958  11.150  62.354  1.00  0.00    -0.294 F  
HETATM   16  C   UNL     1      -7.385   9.883  65.365  1.00  0.00    -0.128 A  
HETATM   17  C   UNL     1      -8.494   9.777  66.204  1.00  0.00    -0.130 A  
HETATM   18  C   UNL     1      -9.754  10.152  65.738  1.00  0.00    -0.245 A  
HETATM   19  F   UNL     1     -10.799  10.074  66.574  1.00  0.00    -0.247 F  
ENDBRANCH  11  12
ENDBRANCH   8  11
ENDBRANCH   2   6
TORSDOF 3
ENDMDL
MODEL       44
REMARK 921   NORMALIZED FREE ENERGY PREDICTED BY IDOCK:   -5.34 KCAL/MOL
REMARK 922        TOTAL FREE ENERGY PREDICTED BY IDOCK:   -6.69 KCAL/MOL
REMARK 923 INTER-LIGAND FREE ENERGY PREDICTED BY IDOCK:   -6.31 KCAL/MOL
REMARK 924 INTRA-LIGAND FREE ENERGY PREDICTED BY IDOCK:   -0.38 KCAL/MOL
REMARK 927      BINDING AFFINITY PREDICTED BY RF-SCORE:    0.00 PKD
ROOT
HETATM    1  N   UNL     1     -10.093  16.349  65.937  1.00  0.00    -0.345 N  
HETATM    2  C   UNL     1     -10.979  16.115  64.924  1.00  0.00    -0.349 C  
HETATM    3  H1  UNL     1      -9.760  15.591  66.533  1.00  0.00     0.000 HD 
HETATM    4  H2  UNL     1      -9.757  17.299  66.099  1.00  0.00     0.000 HD 
HETATM    5  O   UNL     1     -11.379  17.026  64.206  1.00  0.00    -1.191 OA 
ENDROOT
BRANCH   2   6
HETATM    6  C   UNL     1     -11.409  14.732  64.796  1.00  0.00    -0.397 A  
HETATM    7  C   UNL     1     -10.612  13.615  64.649  1.00  0.00    -0.430 A  
HETATM    8  N   UNL     1     -11.498  12.590  64.478  1.00  0.00    -0.322 NA 
HETATM    9  N   UNL     1     -12.729  14.342  64.758  1.00  0.00    -0.633 NA 
HETATM   10  N   UNL     1     -12.770  13.031  64.561  1.00  0.00    -0.701 NA 
BRANCH   8  11
HETATM   11  C   UNL     1     -11.216  11.269  63.947  1.00  0.00    -0.156 C  
BRANCH  11  12
HETATM   12  C   UNL     1      -9.973  10.637  64.492  1.00  0.00    -0.410 A  
HETATM   13  C   UNL     1      -9.930  10.141  65.795  1.00  0.00    -0.271 A  
HETATM   14  C   UNL     1      -8.845   9.393  66.255  1.00  0.00    -0.172 A  
HETATM   15  F   UNL     1     -10.971  10.333  66.616  1.00  0.00    -0.262 F  
HETATM   16  C   UNL     1      -7.765   9.145  65.410  1.00  0.00    -0.098 A  
HETATM   17  C   UNL     1      -7.764   9.682  64.124  1.00  0.00    -0.129 A  
HETATM   18  C   UNL     1      -8.858  10.426  63.682  1.00  0.00    -0.214 A  
HETATM   19  F   UNL     1      -8.849  10.903  62.429  1.00  0.00    -0.228 F  
ENDBRANCH  11  12
ENDBRANCH   8  11
ENDBRANCH   2   6
TORSDOF 3
ENDMDL
MODEL       45
REMARK 921   NORMALIZED FREE ENERGY PREDICTED BY IDOCK:   -5.34 KCAL/MOL
REMARK 922        TOTAL FREE ENERGY PREDICTED BY IDOCK:   -6.68 KCAL/MOL
REMARK 923 INTER-LIGAND FREE ENERGY PREDICTED BY IDOCK:   -6.27 KCAL/MOL
REMARK 924 INTRA-LIGAND FREE ENERGY PREDICTED BY IDOCK:   -0.41 KCAL/MOL
REMARK 927      BINDING AFFINITY PREDICTED BY RF-SCORE:    0.00 PKD
ROOT
HETATM    1  N   UNL     1     -11.706   9.118  69.992  1.00  0.00    -0.451 N  
HETATM    2  C   UNL     1     -11.904  10.452  70.207  1.00  0.00    -0.312 C  
HETATM    3  H1  UNL     1     -11.483   8.760  69.063  1.00  0.00     0.000 HD 
HETATM    4  H2  UNL     1     -11.782   8.468  70.774  1.00  0.00     0.000 HD 
HETATM    5  O   UNL     1     -12.172  10.883  71.325  1.00  0.00    -0.341 OA 
ENDROOT
BRANCH   2   6
HETATM    6  C   UNL     1     -11.796  11.285  69.022  1.00  0.00    -0.352 A  
HETATM    7  C   UNL     1     -11.784  12.665  68.962  1.00  0.00    -0.318 A  
HETATM    8  N   UNL     1     -11.761  12.944  67.626  1.00  0.00    -0.360 NA 
HETATM    9  N   UNL     1     -11.731  10.787  67.740  1.00  0.00    -0.507 NA 
HETATM   10  N   UNL     1     -11.713  11.812  66.896  1.00  0.00    -0.584 NA 
BRANCH   8  11
HETATM   11  C   UNL     1     -12.081  14.209  66.991  1.00  0.00    -0.414 C  
BRANCH  11  12
HETATM   12  C   UNL     1     -11.017  15.255  67.126  1.00  0.00    -0.331 A  
HETATM   13  C   UNL     1     -10.001  15.372  66.178  1.00  0.00    -0.307 A  
HETATM   14  C   UNL     1      -9.111  16.447  66.193  1.00  0.00    -0.362 A  
HETATM   15  F   UNL     1      -9.900  14.469  65.194  1.00  0.00    -0.373 F  
HETATM   16  C   UNL     1      -9.218  17.423  67.183  1.00  0.00    -0.241 A  
HETATM   17  C   UNL     1     -10.190  17.290  68.174  1.00  0.00    -0.343 A  
HETATM   18  C   UNL     1     -11.071  16.209  68.141  1.00  0.00    -0.332 A  
HETATM   19  F   UNL     1     -12.020  16.122  69.084  1.00  0.00    -0.343 F  
ENDBRANCH  11  12
ENDBRANCH   8  11
ENDBRANCH   2   6
TORSDOF 3
ENDMDL
MODEL       46
REMARK 921   NORMALIZED FREE ENERGY PREDICTED BY IDOCK:   -5.33 KCAL/MOL
REMARK 922        TOTAL FREE ENERGY PREDICTED BY IDOCK:   -6.68 KCAL/MOL
REMARK 923 INTER-LIGAND FREE ENERGY PREDICTED BY IDOCK:   -6.41 KCAL/MOL
REMARK 924 INTRA-LIGAND FREE ENERGY PREDICTED BY IDOCK:   -0.28 KCAL/MOL
REMARK 927      BINDING AFFINITY PREDICTED BY RF-SCORE:    0.00 PKD
ROOT
HETATM    1  N   UNL     1     -12.083  11.561  62.974  1.00  0.00    -0.920 N  
HETATM    2  C   UNL     1     -12.104  12.627  63.829  1.00  0.00    -0.522 C  
HETATM    3  H1  UNL     1     -11.793  10.635  63.291  1.00  0.00     0.000 HD 
HETATM    4  H2  UNL     1     -12.361  11.693  62.002  1.00  0.00     0.000 HD 
HETATM    5  O   UNL     1     -12.452  13.740  63.448  1.00  0.00    -0.817 OA 
ENDROOT
BRANCH   2   6
HETATM    6  C   UNL     1     -11.665  12.333  65.183  1.00  0.00    -0.361 A  
HETATM    7  C   UNL     1     -10.409  11.933  65.591  1.00  0.00    -0.247 A  
HETATM    8  N   UNL     1     -10.547  11.700  66.929  1.00  0.00    -0.230 NA 
HETATM    9  N   UNL     1     -12.494  12.376  66.282  1.00  0.00    -0.304 NA 
HETATM   10  N   UNL     1     -11.799  11.984  67.342  1.00  0.00    -0.591 NA 
BRANCH   8  11
HETATM   11  C   UNL     1      -9.650  10.945  67.784  1.00  0.00    -0.164 C  
BRANCH  11  12
HETATM   12  C   UNL     1     -10.157   9.589  68.166  1.00  0.00    -0.214 A  
HETATM   13  C   UNL     1     -10.356   8.598  67.205  1.00  0.00    -0.299 A  
HETATM   14  C   UNL     1     -10.655   7.283  67.564  1.00  0.00    -0.344 A  
HETATM   15  F   UNL     1     -10.208   8.890  65.906  1.00  0.00    -0.355 F  
HETATM   16  C   UNL     1     -10.778   6.942  68.910  1.00  0.00    -0.254 A  
HETATM   17  C   UNL     1     -10.640   7.931  69.883  1.00  0.00    -0.242 A  
HETATM   18  C   UNL     1     -10.340   9.240  69.504  1.00  0.00    -0.216 A  
HETATM   19  F   UNL     1     -10.178  10.167  70.459  1.00  0.00    -0.325 F  
ENDBRANCH  11  12
ENDBRANCH   8  11
ENDBRANCH   2   6
TORSDOF 3
ENDMDL
MODEL       47
REMARK 921   NORMALIZED FREE ENERGY PREDICTED BY IDOCK:   -5.33 KCAL/MOL
REMARK 922        TOTAL FREE ENERGY PREDICTED BY IDOCK:   -6.67 KCAL/MOL
REMARK 923 INTER-LIGAND FREE ENERGY PREDICTED BY IDOCK:   -6.32 KCAL/MOL
REMARK 924 INTRA-LIGAND FREE ENERGY PREDICTED BY IDOCK:   -0.36 KCAL/MOL
REMARK 927      BINDING AFFINITY PREDICTED BY RF-SCORE:    0.00 PKD
ROOT
HETATM    1  N   UNL     1     -12.955   7.268  71.087  1.00  0.00    -0.558 N  
HETATM    2  C   UNL     1     -12.110   8.062  71.810  1.00  0.00    -0.305 C  
HETATM    3  H1  UNL     1     -13.416   7.614  70.245  1.00  0.00     0.000 HD 
HETATM    4  H2  UNL     1     -13.130   6.311  71.396  1.00  0.00     0.000 HD 
HETATM    5  O   UNL     1     -11.557   7.645  72.823  1.00  0.00    -0.337 OA 
ENDROOT
BRANCH   2   6
HETATM    6  C   UNL     1     -11.952   9.412  71.296  1.00  0.00    -0.353 A  
HETATM    7  C   UNL     1     -12.826  10.471  71.434  1.00  0.00    -0.447 A  
HETATM    8  N   UNL     1     -12.262  11.473  70.697  1.00  0.00    -0.383 NA 
HETATM    9  N   UNL     1     -10.881   9.820  70.533  1.00  0.00    -0.300 NA 
HETATM   10  N   UNL     1     -11.084  11.080  70.171  1.00  0.00    -0.185 NA 
BRANCH   8  11
HETATM   11  C   UNL     1     -12.911  12.678  70.217  1.00  0.00     0.334 C  
BRANCH  11  12
HETATM   12  C   UNL     1     -12.694  13.882  71.082  1.00  0.00    -0.441 A  
HETATM   13  C   UNL     1     -13.329  14.003  72.318  1.00  0.00    -0.478 A  
HETATM   14  C   UNL     1     -13.002  15.026  73.209  1.00  0.00    -0.642 A  
HETATM   15  F   UNL     1     -14.236  13.092  72.693  1.00  0.00    -0.587 F  
HETATM   16  C   UNL     1     -12.033  15.966  72.860  1.00  0.00    -0.609 A  
HETATM   17  C   UNL     1     -11.431  15.896  71.605  1.00  0.00    -0.473 A  
HETATM   18  C   UNL     1     -11.770  14.865  70.729  1.00  0.00    -0.311 A  
HETATM   19  F   UNL     1     -11.152  14.798  69.542  1.00  0.00    -0.241 F  
ENDBRANCH  11  12
ENDBRANCH   8  11
ENDBRANCH   2   6
TORSDOF 3
ENDMDL
MODEL       48
REMARK 921   NORMALIZED FREE ENERGY PREDICTED BY IDOCK:   -5.33 KCAL/MOL
REMARK 922        TOTAL FREE ENERGY PREDICTED BY IDOCK:   -6.67 KCAL/MOL
REMARK 923 INTER-LIGAND FREE ENERGY PREDICTED BY IDOCK:   -6.22 KCAL/MOL
REMARK 924 INTRA-LIGAND FREE ENERGY PREDICTED BY IDOCK:   -0.45 KCAL/MOL
REMARK 927      BINDING AFFINITY PREDICTED BY RF-SCORE:    0.00 PKD
ROOT
HETATM    1  N   UNL     1     -12.386  13.844  69.003  1.00  0.00    -0.449 N  
HETATM    2  C   UNL     1     -11.864  13.140  67.955  1.00  0.00    -0.358 C  
HETATM    3  H1  UNL     1     -12.179  14.835  69.129  1.00  0.00     0.000 HD 
HETATM    4  H2  UNL     1     -12.993  13.370  69.672  1.00  0.00     0.000 HD 
HETATM    5  O   UNL     1     -12.113  11.948  67.803  1.00  0.00    -0.564 OA 
ENDROOT
BRANCH   2   6
HETATM    6  C   UNL     1     -10.994  13.905  67.078  1.00  0.00    -0.295 A  
HETATM    7  C   UNL     1     -10.018  14.810  67.444  1.00  0.00    -0.223 A  
HETATM    8  N   UNL     1      -9.564  15.314  66.258  1.00  0.00    -0.280 NA 
HETATM    9  N   UNL     1     -11.059  13.857  65.703  1.00  0.00    -0.295 NA 
HETATM   10  N   UNL     1     -10.183  14.725  65.215  1.00  0.00    -0.379 NA 
BRANCH   8  11
HETATM   11  C   UNL     1      -8.794  16.527  66.061  1.00  0.00    -0.232 C  
BRANCH  11  12
HETATM   12  C   UNL     1      -9.340  17.728  66.771  1.00  0.00    -0.286 A  
HETATM   13  C   UNL     1      -8.761  18.188  67.954  1.00  0.00    -0.261 A  
HETATM   14  C   UNL     1      -9.143  19.401  68.528  1.00  0.00    -0.426 A  
HETATM   15  F   UNL     1      -7.780  17.485  68.533  1.00  0.00    -0.229 F  
HETATM   16  C   UNL     1     -10.136  20.172  67.925  1.00  0.00    -0.533 A  
HETATM   17  C   UNL     1     -10.766  19.701  66.775  1.00  0.00    -0.562 A  
HETATM   18  C   UNL     1     -10.370  18.486  66.215  1.00  0.00    -0.427 A  
HETATM   19  F   UNL     1     -10.966  18.070  65.090  1.00  0.00    -0.422 F  
ENDBRANCH  11  12
ENDBRANCH   8  11
ENDBRANCH   2   6
TORSDOF 3
ENDMDL
MODEL       49
REMARK 921   NORMALIZED FREE ENERGY PREDICTED BY IDOCK:   -5.33 KCAL/MOL
REMARK 922        TOTAL FREE ENERGY PREDICTED BY IDOCK:   -6.67 KCAL/MOL
REMARK 923 INTER-LIGAND FREE ENERGY PREDICTED BY IDOCK:   -6.32 KCAL/MOL
REMARK 924 INTRA-LIGAND FREE ENERGY PREDICTED BY IDOCK:   -0.35 KCAL/MOL
REMARK 927      BINDING AFFINITY PREDICTED BY RF-SCORE:    0.00 PKD
ROOT
HETATM    1  N   UNL     1     -12.244  11.480  63.047  1.00  0.00    -0.941 N  
HETATM    2  C   UNL     1     -12.219  12.649  63.753  1.00  0.00    -0.514 C  
HETATM    3  H1  UNL     1     -12.049  10.586  63.497  1.00  0.00     0.000 HD 
HETATM    4  H2  UNL     1     -12.461  11.502  62.050  1.00  0.00     0.000 HD 
HETATM    5  O   UNL     1     -12.454  13.725  63.211  1.00  0.00    -0.819 OA 
ENDROOT
BRANCH   2   6
HETATM    6  C   UNL     1     -11.876  12.507  65.158  1.00  0.00    -0.405 A  
HETATM    7  C   UNL     1     -12.217  13.350  66.196  1.00  0.00    -0.415 A  
HETATM    8  N   UNL     1     -11.576  12.826  67.281  1.00  0.00    -0.340 NA 
HETATM    9  N   UNL     1     -11.092  11.489  65.655  1.00  0.00    -0.246 NA 
HETATM   10  N   UNL     1     -10.914  11.698  66.953  1.00  0.00    -0.277 NA 
BRANCH   8  11
HETATM   11  C   UNL     1     -11.309  13.488  68.544  1.00  0.00    -0.292 C  
BRANCH  11  12
HETATM   12  C   UNL     1     -10.642  14.823  68.413  1.00  0.00    -0.242 A  
HETATM   13  C   UNL     1      -9.401  14.949  67.790  1.00  0.00    -0.194 A  
HETATM   14  C   UNL     1      -8.853  16.200  67.502  1.00  0.00    -0.198 A  
HETATM   15  F   UNL     1      -8.734  13.853  67.406  1.00  0.00    -0.162 F  
HETATM   16  C   UNL     1      -9.543  17.358  67.856  1.00  0.00    -0.267 A  
HETATM   17  C   UNL     1     -10.758  17.252  68.531  1.00  0.00    -0.305 A  
HETATM   18  C   UNL     1     -11.290  15.993  68.809  1.00  0.00    -0.380 A  
HETATM   19  F   UNL     1     -12.476  15.916  69.429  1.00  0.00    -0.317 F  
ENDBRANCH  11  12
ENDBRANCH   8  11
ENDBRANCH   2   6
TORSDOF 3
ENDMDL
MODEL       50
REMARK 921   NORMALIZED FREE ENERGY PREDICTED BY IDOCK:   -5.28 KCAL/MOL
REMARK 922        TOTAL FREE ENERGY PREDICTED BY IDOCK:   -6.62 KCAL/MOL
REMARK 923 INTER-LIGAND FREE ENERGY PREDICTED BY IDOCK:   -6.27 KCAL/MOL
REMARK 924 INTRA-LIGAND FREE ENERGY PREDICTED BY IDOCK:   -0.35 KCAL/MOL
REMARK 927      BINDING AFFINITY PREDICTED BY RF-SCORE:    0.00 PKD
ROOT
HETATM    1  N   UNL     1     -11.264  15.118  65.973  1.00  0.00    -0.316 N  
HETATM    2  C   UNL     1     -12.188  14.114  65.892  1.00  0.00    -0.439 C  
HETATM    3  H1  UNL     1     -10.449  15.038  66.580  1.00  0.00     0.000 HD 
HETATM    4  H2  UNL     1     -11.393  15.962  65.414  1.00  0.00     0.000 HD 
HETATM    5  O   UNL     1     -13.169  14.210  65.161  1.00  0.00    -0.743 OA 
ENDROOT
BRANCH   2   6
HETATM    6  C   UNL     1     -11.922  12.969  66.746  1.00  0.00    -0.369 A  
HETATM    7  C   UNL     1     -11.548  12.980  68.075  1.00  0.00    -0.343 A  
HETATM    8  N   UNL     1     -11.333  11.666  68.376  1.00  0.00    -0.252 NA 
HETATM    9  N   UNL     1     -11.967  11.663  66.311  1.00  0.00    -0.293 NA 
HETATM   10  N   UNL     1     -11.602  10.877  67.316  1.00  0.00    -0.434 NA 
BRANCH   8  11
HETATM   11  C   UNL     1     -10.606  11.137  69.515  1.00  0.00    -0.090 C  
BRANCH  11  12
HETATM   12  C   UNL     1     -11.461  10.426  70.518  1.00  0.00    -0.431 A  
HETATM   13  C   UNL     1     -12.434  11.111  71.246  1.00  0.00    -0.360 A  
HETATM   14  C   UNL     1     -13.354  10.434  72.049  1.00  0.00    -0.440 A  
HETATM   15  F   UNL     1     -12.534  12.442  71.139  1.00  0.00    -0.440 F  
HETATM   16  C   UNL     1     -13.297   9.045  72.149  1.00  0.00    -0.510 A  
HETATM   17  C   UNL     1     -12.295   8.349  71.475  1.00  0.00    -0.343 A  
HETATM   18  C   UNL     1     -11.386   9.043  70.677  1.00  0.00    -0.265 A  
HETATM   19  F   UNL     1     -10.452   8.349  70.011  1.00  0.00    -0.203 F  
ENDBRANCH  11  12
ENDBRANCH   8  11
ENDBRANCH   2   6
TORSDOF 3
ENDMDL
MODEL       51
REMARK 921   NORMALIZED FREE ENERGY PREDICTED BY IDOCK:   -5.27 KCAL/MOL
REMARK 922        TOTAL FREE ENERGY PREDICTED BY IDOCK:   -6.61 KCAL/MOL
REMARK 923 INTER-LIGAND FREE ENERGY PREDICTED BY IDOCK:   -6.15 KCAL/MOL
REMARK 924 INTRA-LIGAND FREE ENERGY PREDICTED BY IDOCK:   -0.45 KCAL/MOL
REMARK 927      BINDING AFFINITY PREDICTED BY RF-SCORE:    0.00 PKD
ROOT
HETATM    1  N   UNL     1     -13.116  15.376  73.754  1.00  0.00    -0.606 N  
HETATM    2  C   UNL     1     -13.337  14.759  72.555  1.00  0.00    -0.434 C  
HETATM    3  H1  UNL     1     -12.502  16.187  73.826  1.00  0.00     0.000 HD 
HETATM    4  H2  UNL     1     -13.574  15.017  74.592  1.00  0.00     0.000 HD 
HETATM    5  O   UNL     1     -14.075  13.783  72.467  1.00  0.00    -0.686 OA 
ENDROOT
BRANCH   2   6
HETATM    6  C   UNL     1     -12.618  15.335  71.430  1.00  0.00    -0.375 A  
HETATM    7  C   UNL     1     -12.837  15.107  70.087  1.00  0.00    -0.164 A  
HETATM    8  N   UNL     1     -11.845  15.804  69.460  1.00  0.00    -0.361 NA 
HETATM    9  N   UNL     1     -11.546  16.190  71.564  1.00  0.00    -0.461 NA 
HETATM   10  N   UNL     1     -11.081  16.466  70.352  1.00  0.00    -0.322 NA 
BRANCH   8  11
HETATM   11  C   UNL     1     -11.394  15.645  68.090  1.00  0.00    -0.340 C  
BRANCH  11  12
HETATM   12  C   UNL     1     -11.032  14.240  67.718  1.00  0.00    -0.275 A  
HETATM   13  C   UNL     1      -9.919  13.612  68.278  1.00  0.00    -0.236 A  
HETATM   14  C   UNL     1      -9.673  12.253  68.080  1.00  0.00    -0.205 A  
HETATM   15  F   UNL     1      -9.091  14.306  69.069  1.00  0.00    -0.166 F  
HETATM   16  C   UNL     1     -10.540  11.498  67.292  1.00  0.00    -0.266 A  
HETATM   17  C   UNL     1     -11.625  12.121  66.676  1.00  0.00    -0.416 A  
HETATM   18  C   UNL     1     -11.855  13.480  66.888  1.00  0.00    -0.407 A  
HETATM   19  F   UNL     1     -12.924  14.049  66.313  1.00  0.00    -0.430 F  
ENDBRANCH  11  12
ENDBRANCH   8  11
ENDBRANCH   2   6
TORSDOF 3
ENDMDL
MODEL       52
REMARK 921   NORMALIZED FREE ENERGY PREDICTED BY IDOCK:   -5.25 KCAL/MOL
REMARK 922        TOTAL FREE ENERGY PREDICTED BY IDOCK:   -6.58 KCAL/MOL
REMARK 923 INTER-LIGAND FREE ENERGY PREDICTED BY IDOCK:   -6.33 KCAL/MOL
REMARK 924 INTRA-LIGAND FREE ENERGY PREDICTED BY IDOCK:   -0.25 KCAL/MOL
REMARK 927      BINDING AFFINITY PREDICTED BY RF-SCORE:    0.00 PKD
ROOT
HETATM    1  N   UNL     1      -9.084  17.723  66.790  1.00  0.00    -0.255 N  
HETATM    2  C   UNL     1     -10.329  17.706  67.353  1.00  0.00    -0.360 C  
HETATM    3  H1  UNL     1      -8.532  16.870  66.702  1.00  0.00     0.000 HD 
HETATM    4  H2  UNL     1      -8.700  18.606  66.452  1.00  0.00     0.000 HD 
HETATM    5  O   UNL     1     -10.993  18.733  67.459  1.00  0.00    -0.407 OA 
ENDROOT
BRANCH   2   6
HETATM    6  C   UNL     1     -10.769  16.403  67.823  1.00  0.00    -0.328 A  
HETATM    7  C   UNL     1     -10.699  15.200  67.150  1.00  0.00    -0.310 A  
HETATM    8  N   UNL     1     -11.325  14.314  67.979  1.00  0.00    -0.280 NA 
HETATM    9  N   UNL     1     -11.382  16.195  69.038  1.00  0.00    -0.346 NA 
HETATM   10  N   UNL     1     -11.719  14.914  69.120  1.00  0.00    -0.295 NA 
BRANCH   8  11
HETATM   11  C   UNL     1     -11.835  13.001  67.631  1.00  0.00    -0.351 C  
BRANCH  11  12
HETATM   12  C   UNL     1     -11.601  12.605  66.206  1.00  0.00    -0.440 A  
HETATM   13  C   UNL     1     -10.628  11.662  65.872  1.00  0.00    -0.271 A  
HETATM   14  C   UNL     1     -10.520  11.154  64.576  1.00  0.00    -0.415 A  
HETATM   15  F   UNL     1      -9.808  11.187  66.818  1.00  0.00    -0.204 F  
HETATM   16  C   UNL     1     -11.386  11.603  63.581  1.00  0.00    -0.485 A  
HETATM   17  C   UNL     1     -12.326  12.587  63.882  1.00  0.00    -0.576 A  
HETATM   18  C   UNL     1     -12.419  13.082  65.183  1.00  0.00    -0.496 A  
HETATM   19  F   UNL     1     -13.353  14.003  65.457  1.00  0.00    -0.514 F  
ENDBRANCH  11  12
ENDBRANCH   8  11
ENDBRANCH   2   6
TORSDOF 3
ENDMDL
MODEL       53
REMARK 921   NORMALIZED FREE ENERGY PREDICTED BY IDOCK:   -5.24 KCAL/MOL
REMARK 922        TOTAL FREE ENERGY PREDICTED BY IDOCK:   -6.57 KCAL/MOL
REMARK 923 INTER-LIGAND FREE ENERGY PREDICTED BY IDOCK:   -6.14 KCAL/MOL
REMARK 924 INTRA-LIGAND FREE ENERGY PREDICTED BY IDOCK:   -0.43 KCAL/MOL
REMARK 927      BINDING AFFINITY PREDICTED BY RF-SCORE:    0.00 PKD
ROOT
HETATM    1  N   UNL     1     -13.888  15.460  70.687  1.00  0.00    -0.837 N  
HETATM    2  C   UNL     1     -12.541  15.410  70.912  1.00  0.00    -0.438 C  
HETATM    3  H1  UNL     1     -14.330  14.862  69.988  1.00  0.00     0.000 HD 
HETATM    4  H2  UNL     1     -14.462  16.108  71.227  1.00  0.00     0.000 HD 
HETATM    5  O   UNL     1     -12.010  16.129  71.752  1.00  0.00    -0.474 OA 
ENDROOT
BRANCH   2   6
HETATM    6  C   UNL     1     -11.816  14.471  70.073  1.00  0.00    -0.313 A  
HETATM    7  C   UNL     1     -10.788  14.750  69.194  1.00  0.00    -0.260 A  
HETATM    8  N   UNL     1     -10.525  13.553  68.592  1.00  0.00    -0.245 NA 
HETATM    9  N   UNL     1     -12.100  13.125  70.008  1.00  0.00    -0.326 NA 
HETATM   10  N   UNL     1     -11.306  12.576  69.097  1.00  0.00    -0.271 NA 
BRANCH   8  11
HETATM   11  C   UNL     1      -9.788  13.335  67.362  1.00  0.00    -0.227 C  
BRANCH  11  12
HETATM   12  C   UNL     1     -10.619  13.423  66.119  1.00  0.00    -0.294 A  
HETATM   13  C   UNL     1     -11.258  12.296  65.601  1.00  0.00    -0.333 A  
HETATM   14  C   UNL     1     -12.175  12.395  64.554  1.00  0.00    -0.509 A  
HETATM   15  F   UNL     1     -11.036  11.094  66.147  1.00  0.00    -0.320 F  
HETATM   16  C   UNL     1     -12.455  13.640  63.992  1.00  0.00    -0.285 A  
HETATM   17  C   UNL     1     -11.782  14.769  64.458  1.00  0.00    -0.398 A  
HETATM   18  C   UNL     1     -10.870  14.649  65.506  1.00  0.00    -0.345 A  
HETATM   19  F   UNL     1     -10.261  15.754  65.960  1.00  0.00    -0.266 F  
ENDBRANCH  11  12
ENDBRANCH   8  11
ENDBRANCH   2   6
TORSDOF 3
ENDMDL
MODEL       54
REMARK 921   NORMALIZED FREE ENERGY PREDICTED BY IDOCK:   -5.22 KCAL/MOL
REMARK 922        TOTAL FREE ENERGY PREDICTED BY IDOCK:   -6.55 KCAL/MOL
REMARK 923 INTER-LIGAND FREE ENERGY PREDICTED BY IDOCK:   -6.15 KCAL/MOL
REMARK 924 INTRA-LIGAND FREE ENERGY PREDICTED BY IDOCK:   -0.40 KCAL/MOL
REMARK 927      BINDING AFFINITY PREDICTED BY RF-SCORE:    0.00 PKD
ROOT
HETATM    1  N   UNL     1      -8.735  18.038  67.097  1.00  0.00    -0.239 N  
HETATM    2  C   UNL     1      -9.147  16.800  67.500  1.00  0.00    -0.210 C  
HETATM    3  H1  UNL     1      -9.108  18.470  66.251  1.00  0.00     0.000 HD 
HETATM    4  H2  UNL     1      -8.042  18.540  67.652  1.00  0.00     0.000 HD 
HETATM    5  O   UNL     1      -8.699  16.281  68.518  1.00  0.00    -0.193 OA 
ENDROOT
BRANCH   2   6
HETATM    6  C   UNL     1     -10.118  16.164  66.625  1.00  0.00    -0.276 A  
HETATM    7  C   UNL     1     -11.075  15.231  66.970  1.00  0.00    -0.305 A  
HETATM    8  N   UNL     1     -11.656  14.889  65.782  1.00  0.00    -0.288 NA 
HETATM    9  N   UNL     1     -10.187  16.387  65.268  1.00  0.00    -0.589 NA 
HETATM   10  N   UNL     1     -11.129  15.600  64.765  1.00  0.00    -0.444 NA 
BRANCH   8  11
HETATM   11  C   UNL     1     -12.471  13.720  65.511  1.00  0.00    -0.512 C  
BRANCH  11  12
HETATM   12  C   UNL     1     -11.707  12.432  65.460  1.00  0.00    -0.459 A  
HETATM   13  C   UNL     1     -11.191  11.951  64.257  1.00  0.00    -0.357 A  
HETATM   14  C   UNL     1     -10.330  10.853  64.221  1.00  0.00    -0.436 A  
HETATM   15  F   UNL     1     -11.477  12.579  63.110  1.00  0.00    -0.502 F  
HETATM   16  C   UNL     1      -9.985  10.203  65.405  1.00  0.00    -0.377 A  
HETATM   17  C   UNL     1     -10.538  10.633  66.610  1.00  0.00    -0.276 A  
HETATM   18  C   UNL     1     -11.396  11.734  66.625  1.00  0.00    -0.316 A  
HETATM   19  F   UNL     1     -11.888  12.151  67.800  1.00  0.00    -0.371 F  
ENDBRANCH  11  12
ENDBRANCH   8  11
ENDBRANCH   2   6
TORSDOF 3
ENDMDL
MODEL       55
REMARK 921   NORMALIZED FREE ENERGY PREDICTED BY IDOCK:   -5.21 KCAL/MOL
REMARK 922        TOTAL FREE ENERGY PREDICTED BY IDOCK:   -6.54 KCAL/MOL
REMARK 923 INTER-LIGAND FREE ENERGY PREDICTED BY IDOCK:   -6.27 KCAL/MOL
REMARK 924 INTRA-LIGAND FREE ENERGY PREDICTED BY IDOCK:   -0.27 KCAL/MOL
REMARK 927      BINDING AFFINITY PREDICTED BY RF-SCORE:    0.00 PKD
ROOT
HETATM    1  N   UNL     1     -12.460  13.928  63.354  1.00  0.00    -1.110 N  
HETATM    2  C   UNL     1     -12.632  12.709  63.946  1.00  0.00    -0.337 C  
HETATM    3  H1  UNL     1     -12.054  14.712  63.866  1.00  0.00     0.000 HD 
HETATM    4  H2  UNL     1     -12.744  14.057  62.383  1.00  0.00     0.000 HD 
HETATM    5  O   UNL     1     -13.120  11.766  63.330  1.00  0.00    -0.622 OA 
ENDROOT
BRANCH   2   6
HETATM    6  C   UNL     1     -12.217  12.641  65.337  1.00  0.00    -0.459 A  
HETATM    7  C   UNL     1     -12.314  13.634  66.292  1.00  0.00    -0.412 A  
HETATM    8  N   UNL     1     -11.705  13.103  67.393  1.00  0.00    -0.355 NA 
HETATM    9  N   UNL     1     -11.607  11.544  65.902  1.00  0.00    -0.244 NA 
HETATM   10  N   UNL     1     -11.296  11.840  67.157  1.00  0.00    -0.366 NA 
BRANCH   8  11
HETATM   11  C   UNL     1     -11.223  13.822  68.558  1.00  0.00    -0.275 C  
BRANCH  11  12
HETATM   12  C   UNL     1     -10.603  15.150  68.252  1.00  0.00    -0.243 A  
HETATM   13  C   UNL     1     -11.063  16.316  68.864  1.00  0.00    -0.345 A  
HETATM   14  C   UNL     1     -10.385  17.528  68.726  1.00  0.00    -0.358 A  
HETATM   15  F   UNL     1     -12.148  16.274  69.648  1.00  0.00    -0.242 F  
HETATM   16  C   UNL     1      -9.231  17.593  67.948  1.00  0.00    -0.267 A  
HETATM   17  C   UNL     1      -8.789  16.451  67.280  1.00  0.00    -0.203 A  
HETATM   18  C   UNL     1      -9.480  15.249  67.431  1.00  0.00    -0.199 A  
HETATM   19  F   UNL     1      -9.017  14.156  66.808  1.00  0.00    -0.229 F  
ENDBRANCH  11  12
ENDBRANCH   8  11
ENDBRANCH   2   6
TORSDOF 3
ENDMDL
MODEL       56
REMARK 921   NORMALIZED FREE ENERGY PREDICTED BY IDOCK:   -5.15 KCAL/MOL
REMARK 922        TOTAL FREE ENERGY PREDICTED BY IDOCK:   -6.47 KCAL/MOL
REMARK 923 INTER-LIGAND FREE ENERGY PREDICTED BY IDOCK:   -6.09 KCAL/MOL
REMARK 924 INTRA-LIGAND FREE ENERGY PREDICTED BY IDOCK:   -0.38 KCAL/MOL
REMARK 927      BINDING AFFINITY PREDICTED BY RF-SCORE:    0.00 PKD
ROOT
HETATM    1  N   UNL     1     -11.714   9.063  69.968  1.00  0.00    -0.451 N  
HETATM    2  C   UNL     1     -11.938  10.390  70.202  1.00  0.00    -0.276 C  
HETATM    3  H1  UNL     1     -11.455   8.726  69.040  1.00  0.00     0.000 HD 
HETATM    4  H2  UNL     1     -11.807   8.397  70.735  1.00  0.00     0.000 HD 
HETATM    5  O   UNL     1     -12.249  10.795  71.317  1.00  0.00    -0.352 OA 
ENDROOT
BRANCH   2   6
HETATM    6  C   UNL     1     -11.803  11.247  69.036  1.00  0.00    -0.352 A  
HETATM    7  C   UNL     1     -11.874  12.625  68.994  1.00  0.00    -0.294 A  
HETATM    8  N   UNL     1     -11.779  12.927  67.665  1.00  0.00    -0.360 NA 
HETATM    9  N   UNL     1     -11.620  10.775  67.755  1.00  0.00    -0.528 NA 
HETATM   10  N   UNL     1     -11.610  11.811  66.927  1.00  0.00    -0.548 NA 
BRANCH   8  11
HETATM   11  C   UNL     1     -12.135  14.179  67.025  1.00  0.00    -0.414 C  
BRANCH  11  12
HETATM   12  C   UNL     1     -11.156  15.290  67.254  1.00  0.00    -0.325 A  
HETATM   13  C   UNL     1     -11.235  16.093  68.392  1.00  0.00    -0.358 A  
HETATM   14  C   UNL     1     -10.231  17.010  68.707  1.00  0.00    -0.317 A  
HETATM   15  F   UNL     1     -12.264  15.954  69.237  1.00  0.00    -0.368 F  
HETATM   16  C   UNL     1      -9.129  17.149  67.865  1.00  0.00    -0.230 A  
HETATM   17  C   UNL     1      -9.062  16.397  66.693  1.00  0.00    -0.278 A  
HETATM   18  C   UNL     1     -10.075  15.485  66.396  1.00  0.00    -0.288 A  
HETATM   19  F   UNL     1      -9.972  14.748  65.281  1.00  0.00    -0.351 F  
ENDBRANCH  11  12
ENDBRANCH   8  11
ENDBRANCH   2   6
TORSDOF 3
ENDMDL
MODEL       57
REMARK 921   NORMALIZED FREE ENERGY PREDICTED BY IDOCK:   -5.12 KCAL/MOL
REMARK 922        TOTAL FREE ENERGY PREDICTED BY IDOCK:   -6.43 KCAL/MOL
REMARK 923 INTER-LIGAND FREE ENERGY PREDICTED BY IDOCK:   -6.01 KCAL/MOL
REMARK 924 INTRA-LIGAND FREE ENERGY PREDICTED BY IDOCK:   -0.41 KCAL/MOL
REMARK 927      BINDING AFFINITY PREDICTED BY RF-SCORE:    0.00 PKD
ROOT
HETATM    1  N   UNL     1     -10.958  11.042  63.951  1.00  0.00    -0.477 N  
HETATM    2  C   UNL     1     -12.024  11.869  64.166  1.00  0.00    -0.307 C  
HETATM    3  H1  UNL     1     -10.213  10.948  64.641  1.00  0.00     0.000 HD 
HETATM    4  H2  UNL     1     -10.907  10.508  63.083  1.00  0.00     0.000 HD 
HETATM    5  O   UNL     1     -12.920  11.981  63.336  1.00  0.00    -0.772 OA 
ENDROOT
BRANCH   2   6
HETATM    6  C   UNL     1     -11.985  12.600  65.422  1.00  0.00    -0.446 A  
HETATM    7  C   UNL     1     -11.941  13.969  65.596  1.00  0.00    -0.397 A  
HETATM    8  N   UNL     1     -11.822  14.133  66.947  1.00  0.00    -0.412 NA 
HETATM    9  N   UNL     1     -11.942  11.996  66.659  1.00  0.00    -0.603 NA 
HETATM   10  N   UNL     1     -11.839  12.943  67.582  1.00  0.00    -0.362 NA 
BRANCH   8  11
HETATM   11  C   UNL     1     -11.395  15.329  67.648  1.00  0.00    -0.312 C  
BRANCH  11  12
HETATM   12  C   UNL     1      -9.974  15.724  67.388  1.00  0.00    -0.237 A  
HETATM   13  C   UNL     1      -8.914  14.974  67.899  1.00  0.00    -0.175 A  
HETATM   14  C   UNL     1      -7.595  15.224  67.520  1.00  0.00    -0.212 A  
HETATM   15  F   UNL     1      -9.160  13.954  68.731  1.00  0.00    -0.183 F  
HETATM   16  C   UNL     1      -7.314  16.256  66.625  1.00  0.00    -0.204 A  
HETATM   17  C   UNL     1      -8.353  17.053  66.150  1.00  0.00    -0.276 A  
HETATM   18  C   UNL     1      -9.666  16.787  66.540  1.00  0.00    -0.283 A  
HETATM   19  F   UNL     1     -10.653  17.545  66.043  1.00  0.00    -0.354 F  
ENDBRANCH  11  12
ENDBRANCH   8  11
ENDBRANCH   2   6
TORSDOF 3
ENDMDL
MODEL       58
REMARK 921   NORMALIZED FREE ENERGY PREDICTED BY IDOCK:   -5.11 KCAL/MOL
REMARK 922        TOTAL FREE ENERGY PREDICTED BY IDOCK:   -6.41 KCAL/MOL
REMARK 923 INTER-LIGAND FREE ENERGY PREDICTED BY IDOCK:   -6.22 KCAL/MOL
REMARK 924 INTRA-LIGAND FREE ENERGY PREDICTED BY IDOCK:   -0.19 KCAL/MOL
REMARK 927      BINDING AFFINITY PREDICTED BY RF-SCORE:    0.00 PKD
ROOT
HETATM    1  N   UNL     1      -9.741  15.187  65.902  1.00  0.00    -0.331 N  
HETATM    2  C   UNL     1     -10.621  14.222  65.502  1.00  0.00    -0.340 C  
HETATM    3  H1  UNL     1      -9.345  15.185  66.842  1.00  0.00     0.000 HD 
HETATM    4  H2  UNL     1      -9.475  15.924  65.248  1.00  0.00     0.000 HD 
HETATM    5  O   UNL     1     -11.098  14.225  64.371  1.00  0.00    -0.335 OA 
ENDROOT
BRANCH   2   6
HETATM    6  C   UNL     1     -10.949  13.236  66.518  1.00  0.00    -0.286 A  
HETATM    7  C   UNL     1     -10.289  13.004  67.708  1.00  0.00    -0.226 A  
HETATM    8  N   UNL     1     -10.931  11.925  68.244  1.00  0.00    -0.215 NA 
HETATM    9  N   UNL     1     -11.983  12.333  66.403  1.00  0.00    -0.624 NA 
HETATM   10  N   UNL     1     -11.959  11.536  67.463  1.00  0.00    -0.622 NA 
BRANCH   8  11
HETATM   11  C   UNL     1     -10.448  11.056  69.302  1.00  0.00    -0.180 C  
BRANCH  11  12
HETATM   12  C   UNL     1     -11.518  10.535  70.210  1.00  0.00    -0.416 A  
HETATM   13  C   UNL     1     -11.631   9.171  70.480  1.00  0.00    -0.197 A  
HETATM   14  C   UNL     1     -12.504   8.691  71.457  1.00  0.00    -0.364 A  
HETATM   15  F   UNL     1     -10.852   8.297  69.831  1.00  0.00    -0.240 F  
HETATM   16  C   UNL     1     -13.299   9.583  72.176  1.00  0.00    -0.545 A  
HETATM   17  C   UNL     1     -13.243  10.944  71.879  1.00  0.00    -0.508 A  
HETATM   18  C   UNL     1     -12.363  11.404  70.899  1.00  0.00    -0.381 A  
HETATM   19  F   UNL     1     -12.301  12.720  70.656  1.00  0.00    -0.405 F  
ENDBRANCH  11  12
ENDBRANCH   8  11
ENDBRANCH   2   6
TORSDOF 3
ENDMDL
MODEL       59
REMARK 921   NORMALIZED FREE ENERGY PREDICTED BY IDOCK:   -5.09 KCAL/MOL
REMARK 922        TOTAL FREE ENERGY PREDICTED BY IDOCK:   -6.40 KCAL/MOL
REMARK 923 INTER-LIGAND FREE ENERGY PREDICTED BY IDOCK:   -6.03 KCAL/MOL
REMARK 924 INTRA-LIGAND FREE ENERGY PREDICTED BY IDOCK:   -0.37 KCAL/MOL
REMARK 927      BINDING AFFINITY PREDICTED BY RF-SCORE:    0.00 PKD
ROOT
HETATM    1  N   UNL     1     -12.002  14.291  71.551  1.00  0.00    -0.404 N  
HETATM    2  C   UNL     1     -12.564  15.122  70.625  1.00  0.00    -0.395 C  
HETATM    3  H1  UNL     1     -11.113  13.824  71.372  1.00  0.00     0.000 HD 
HETATM    4  H2  UNL     1     -12.480  14.135  72.439  1.00  0.00     0.000 HD 
HETATM    5  O   UNL     1     -13.634  15.684  70.840  1.00  0.00    -0.568 OA 
ENDROOT
BRANCH   2   6
HETATM    6  C   UNL     1     -11.813  15.255  69.387  1.00  0.00    -0.343 A  
HETATM    7  C   UNL     1     -11.393  16.422  68.782  1.00  0.00    -0.277 A  
HETATM    8  N   UNL     1     -10.821  16.008  67.613  1.00  0.00    -0.323 NA 
HETATM    9  N   UNL     1     -11.443  14.189  68.599  1.00  0.00    -0.279 NA 
HETATM   10  N   UNL     1     -10.840  14.663  67.516  1.00  0.00    -0.279 NA 
BRANCH   8  11
HETATM   11  C   UNL     1     -10.525  16.820  66.447  1.00  0.00    -0.269 C  
BRANCH  11  12
HETATM   12  C   UNL     1      -9.531  17.913  66.692  1.00  0.00    -0.303 A  
HETATM   13  C   UNL     1      -8.167  17.702  66.487  1.00  0.00    -0.273 A  
HETATM   14  C   UNL     1      -7.252  18.754  66.537  1.00  0.00    -0.252 A  
HETATM   15  F   UNL     1      -7.720  16.478  66.180  1.00  0.00    -0.313 F  
HETATM   16  C   UNL     1      -7.694  20.046  66.817  1.00  0.00    -0.335 A  
HETATM   17  C   UNL     1      -9.045  20.266  67.083  1.00  0.00    -0.499 A  
HETATM   18  C   UNL     1      -9.944  19.201  67.026  1.00  0.00    -0.347 A  
HETATM   19  F   UNL     1     -11.244  19.442  67.252  1.00  0.00    -0.573 F  
ENDBRANCH  11  12
ENDBRANCH   8  11
ENDBRANCH   2   6
TORSDOF 3
ENDMDL
MODEL       60
REMARK 921   NORMALIZED FREE ENERGY PREDICTED BY IDOCK:   -5.07 KCAL/MOL
REMARK 922        TOTAL FREE ENERGY PREDICTED BY IDOCK:   -6.38 KCAL/MOL
REMARK 923 INTER-LIGAND FREE ENERGY PREDICTED BY IDOCK:   -6.04 KCAL/MOL
REMARK 924 INTRA-LIGAND FREE ENERGY PREDICTED BY IDOCK:   -0.34 KCAL/MOL
REMARK 927      BINDING AFFINITY PREDICTED BY RF-SCORE:    0.00 PKD
ROOT
HETATM    1  N   UNL     1     -12.593  15.291  72.087  1.00  0.00    -0.326 N  
HETATM    2  C   UNL     1     -13.162  14.056  71.956  1.00  0.00    -0.412 C  
HETATM    3  H1  UNL     1     -11.839  15.595  71.469  1.00  0.00     0.000 HD 
HETATM    4  H2  UNL     1     -12.927  15.922  72.816  1.00  0.00     0.000 HD 
HETATM    5  O   UNL     1     -14.068  13.692  72.699  1.00  0.00    -0.746 OA 
ENDROOT
BRANCH   2   6
HETATM    6  C   UNL     1     -12.595  13.231  70.903  1.00  0.00    -0.306 A  
HETATM    7  C   UNL     1     -12.149  13.641  69.662  1.00  0.00    -0.321 A  
HETATM    8  N   UNL     1     -11.806  12.481  69.027  1.00  0.00    -0.307 NA 
HETATM    9  N   UNL     1     -12.461  11.863  70.991  1.00  0.00    -0.348 NA 
HETATM   10  N   UNL     1     -11.981  11.417  69.837  1.00  0.00    -0.336 NA 
BRANCH   8  11
HETATM   11  C   UNL     1     -11.605  12.290  67.603  1.00  0.00    -0.354 C  
BRANCH  11  12
HETATM   12  C   UNL     1     -10.926  13.435  66.916  1.00  0.00    -0.295 A  
HETATM   13  C   UNL     1     -11.636  14.291  66.074  1.00  0.00    -0.360 A  
HETATM   14  C   UNL     1     -11.062  15.460  65.571  1.00  0.00    -0.301 A  
HETATM   15  F   UNL     1     -12.914  14.024  65.777  1.00  0.00    -0.532 F  
HETATM   16  C   UNL     1      -9.746  15.782  65.896  1.00  0.00    -0.389 A  
HETATM   17  C   UNL     1      -9.002  14.909  66.688  1.00  0.00    -0.301 A  
HETATM   18  C   UNL     1      -9.593  13.746  67.182  1.00  0.00    -0.244 A  
HETATM   19  F   UNL     1      -8.869  12.939  67.970  1.00  0.00    -0.163 F  
ENDBRANCH  11  12
ENDBRANCH   8  11
ENDBRANCH   2   6
TORSDOF 3
ENDMDL
MODEL       61
REMARK 921   NORMALIZED FREE ENERGY PREDICTED BY IDOCK:   -5.07 KCAL/MOL
REMARK 922        TOTAL FREE ENERGY PREDICTED BY IDOCK:   -6.37 KCAL/MOL
REMARK 923 INTER-LIGAND FREE ENERGY PREDICTED BY IDOCK:   -5.97 KCAL/MOL
REMARK 924 INTRA-LIGAND FREE ENERGY PREDICTED BY IDOCK:   -0.40 KCAL/MOL
REMARK 927      BINDING AFFINITY PREDICTED BY RF-SCORE:    0.00 PKD
ROOT
HETATM    1  N   UNL     1     -11.896   6.295  72.560  1.00  0.00    -0.502 N  
HETATM    2  C   UNL     1     -11.036   7.289  72.932  1.00  0.00    -0.337 C  
HETATM    3  H1  UNL     1     -12.506   6.401  71.749  1.00  0.00     0.000 HD 
HETATM    4  H2  UNL     1     -11.927   5.432  73.102  1.00  0.00     0.000 HD 
HETATM    5  O   UNL     1     -10.301   7.163  73.907  1.00  0.00    -0.358 OA 
ENDROOT
BRANCH   2   6
HETATM    6  C   UNL     1     -11.088   8.484  72.106  1.00  0.00    -0.366 A  
HETATM    7  C   UNL     1     -12.188   9.275  71.842  1.00  0.00    -0.378 A  
HETATM    8  N   UNL     1     -11.731  10.201  70.949  1.00  0.00    -0.350 NA 
HETATM    9  N   UNL     1     -10.009   8.983  71.412  1.00  0.00    -0.304 NA 
HETATM   10  N   UNL     1     -10.416  10.031  70.707  1.00  0.00    -0.186 NA 
BRANCH   8  11
HETATM   11  C   UNL     1     -12.528  11.053  70.086  1.00  0.00    -0.269 C  
BRANCH  11  12
HETATM   12  C   UNL     1     -12.403  12.517  70.376  1.00  0.00    -0.311 A  
HETATM   13  C   UNL     1     -11.694  13.361  69.521  1.00  0.00    -0.324 A  
HETATM   14  C   UNL     1     -11.718  14.747  69.681  1.00  0.00    -0.354 A  
HETATM   15  F   UNL     1     -11.015  12.846  68.488  1.00  0.00    -0.234 F  
HETATM   16  C   UNL     1     -12.448  15.313  70.725  1.00  0.00    -0.457 A  
HETATM   17  C   UNL     1     -13.115  14.482  71.624  1.00  0.00    -0.416 A  
HETATM   18  C   UNL     1     -13.080  13.099  71.447  1.00  0.00    -0.266 A  
HETATM   19  F   UNL     1     -13.756  12.322  72.305  1.00  0.00    -0.556 F  
ENDBRANCH  11  12
ENDBRANCH   8  11
ENDBRANCH   2   6
TORSDOF 3
ENDMDL
MODEL       62
REMARK 921   NORMALIZED FREE ENERGY PREDICTED BY IDOCK:   -5.07 KCAL/MOL
REMARK 922        TOTAL FREE ENERGY PREDICTED BY IDOCK:   -6.37 KCAL/MOL
REMARK 923 INTER-LIGAND FREE ENERGY PREDICTED BY IDOCK:   -5.95 KCAL/MOL
REMARK 924 INTRA-LIGAND FREE ENERGY PREDICTED BY IDOCK:   -0.42 KCAL/MOL
REMARK 927      BINDING AFFINITY PREDICTED BY RF-SCORE:    0.00 PKD
ROOT
HETATM    1  N   UNL     1     -10.136   8.386  66.238  1.00  0.00    -0.455 N  
HETATM    2  C   UNL     1      -9.705   9.675  66.106  1.00  0.00    -0.252 C  
HETATM    3  H1  UNL     1     -11.089   8.176  66.536  1.00  0.00     0.000 HD 
HETATM    4  H2  UNL     1      -9.494   7.620  66.035  1.00  0.00     0.000 HD 
HETATM    5  O   UNL     1      -8.559   9.929  65.747  1.00  0.00    -0.132 OA 
ENDROOT
BRANCH   2   6
HETATM    6  C   UNL     1     -10.691  10.688  66.443  1.00  0.00    -0.129 A  
HETATM    7  C   UNL     1     -11.074  11.774  65.681  1.00  0.00    -0.285 A  
HETATM    8  N   UNL     1     -11.947  12.455  66.481  1.00  0.00    -0.605 NA 
HETATM    9  N   UNL     1     -11.374  10.723  67.638  1.00  0.00    -0.460 NA 
HETATM   10  N   UNL     1     -12.136  11.810  67.649  1.00  0.00    -0.558 NA 
BRANCH   8  11
HETATM   11  C   UNL     1     -12.385  13.829  66.326  1.00  0.00    -0.433 C  
BRANCH  11  12
HETATM   12  C   UNL     1     -11.347  14.852  66.675  1.00  0.00    -0.326 A  
HETATM   13  C   UNL     1     -10.459  15.331  65.712  1.00  0.00    -0.349 A  
HETATM   14  C   UNL     1      -9.610  16.407  65.976  1.00  0.00    -0.352 A  
HETATM   15  F   UNL     1     -10.449  14.792  64.487  1.00  0.00    -0.403 F  
HETATM   16  C   UNL     1      -9.627  17.013  67.231  1.00  0.00    -0.244 A  
HETATM   17  C   UNL     1     -10.465  16.509  68.224  1.00  0.00    -0.313 A  
HETATM   18  C   UNL     1     -11.308  15.434  67.941  1.00  0.00    -0.325 A  
HETATM   19  F   UNL     1     -12.131  14.989  68.901  1.00  0.00    -0.325 F  
ENDBRANCH  11  12
ENDBRANCH   8  11
ENDBRANCH   2   6
TORSDOF 3
ENDMDL
MODEL       63
REMARK 921   NORMALIZED FREE ENERGY PREDICTED BY IDOCK:   -5.06 KCAL/MOL
REMARK 922        TOTAL FREE ENERGY PREDICTED BY IDOCK:   -6.35 KCAL/MOL
REMARK 923 INTER-LIGAND FREE ENERGY PREDICTED BY IDOCK:   -5.93 KCAL/MOL
REMARK 924 INTRA-LIGAND FREE ENERGY PREDICTED BY IDOCK:   -0.43 KCAL/MOL
REMARK 927      BINDING AFFINITY PREDICTED BY RF-SCORE:    0.00 PKD
ROOT
HETATM    1  N   UNL     1     -12.225   7.973  70.571  1.00  0.00    -0.469 N  
HETATM    2  C   UNL     1     -11.520   9.035  71.060  1.00  0.00    -0.295 C  
HETATM    3  H1  UNL     1     -12.695   8.021  69.666  1.00  0.00     0.000 HD 
HETATM    4  H2  UNL     1     -12.282   7.114  71.119  1.00  0.00     0.000 HD 
HETATM    5  O   UNL     1     -10.954   8.977  72.147  1.00  0.00    -0.348 OA 
ENDROOT
BRANCH   2   6
HETATM    6  C   UNL     1     -11.523  10.215  70.210  1.00  0.00    -0.306 A  
HETATM    7  C   UNL     1     -10.954  10.350  68.960  1.00  0.00    -0.238 A  
HETATM    8  N   UNL     1     -11.154  11.663  68.639  1.00  0.00    -0.216 NA 
HETATM    9  N   UNL     1     -12.083  11.419  70.574  1.00  0.00    -0.379 NA 
HETATM   10  N   UNL     1     -11.848  12.296  69.607  1.00  0.00    -0.328 NA 
BRANCH   8  11
HETATM   11  C   UNL     1     -10.474  12.426  67.610  1.00  0.00    -0.216 C  
BRANCH  11  12
HETATM   12  C   UNL     1     -11.061  12.276  66.240  1.00  0.00    -0.342 A  
HETATM   13  C   UNL     1     -12.122  13.079  65.822  1.00  0.00    -0.454 A  
HETATM   14  C   UNL     1     -12.560  13.076  64.497  1.00  0.00    -0.387 A  
HETATM   15  F   UNL     1     -12.707  13.916  66.688  1.00  0.00    -0.414 F  
HETATM   16  C   UNL     1     -11.944  12.242  63.564  1.00  0.00    -0.625 A  
HETATM   17  C   UNL     1     -10.921  11.390  63.977  1.00  0.00    -0.428 A  
HETATM   18  C   UNL     1     -10.497  11.409  65.306  1.00  0.00    -0.283 A  
HETATM   19  F   UNL     1      -9.489  10.605  65.672  1.00  0.00    -0.199 F  
ENDBRANCH  11  12
ENDBRANCH   8  11
ENDBRANCH   2   6
TORSDOF 3
ENDMDL
MODEL       64
REMARK 921   NORMALIZED FREE ENERGY PREDICTED BY IDOCK:   -5.06 KCAL/MOL
REMARK 922        TOTAL FREE ENERGY PREDICTED BY IDOCK:   -6.35 KCAL/MOL
REMARK 923 INTER-LIGAND FREE ENERGY PREDICTED BY IDOCK:   -5.98 KCAL/MOL
REMARK 924 INTRA-LIGAND FREE ENERGY PREDICTED BY IDOCK:   -0.38 KCAL/MOL
REMARK 927      BINDING AFFINITY PREDICTED BY RF-SCORE:    0.00 PKD
ROOT
HETATM    1  N   UNL     1     -10.488  16.504  65.686  1.00  0.00    -0.361 N  
HETATM    2  C   UNL     1     -11.266  15.890  64.745  1.00  0.00    -0.355 C  
HETATM    3  H1  UNL     1     -10.176  16.008  66.521  1.00  0.00     0.000 HD 
HETATM    4  H2  UNL     1     -10.215  17.478  65.550  1.00  0.00     0.000 HD 
HETATM    5  O   UNL     1     -11.640  16.487  63.741  1.00  0.00    -1.109 OA 
ENDROOT
BRANCH   2   6
HETATM    6  C   UNL     1     -11.617  14.512  65.048  1.00  0.00    -0.382 A  
HETATM    7  C   UNL     1     -10.817  13.551  65.634  1.00  0.00    -0.287 A  
HETATM    8  N   UNL     1     -11.579  12.418  65.607  1.00  0.00    -0.375 NA 
HETATM    9  N   UNL     1     -12.834  13.947  64.739  1.00  0.00    -0.694 NA 
HETATM   10  N   UNL     1     -12.796  12.666  65.083  1.00  0.00    -0.743 NA 
BRANCH   8  11
HETATM   11  C   UNL     1     -11.121  11.051  65.775  1.00  0.00     0.052 C  
BRANCH  11  12
HETATM   12  C   UNL     1     -10.387  10.799  67.056  1.00  0.00    -0.275 A  
HETATM   13  C   UNL     1     -11.051  10.830  68.283  1.00  0.00    -0.271 A  
HETATM   14  C   UNL     1     -10.424  10.424  69.462  1.00  0.00    -0.274 A  
HETATM   15  F   UNL     1     -12.336  11.206  68.336  1.00  0.00    -0.297 F  
HETATM   16  C   UNL     1      -9.099   9.992  69.429  1.00  0.00    -0.228 A  
HETATM   17  C   UNL     1      -8.402  10.009  68.222  1.00  0.00    -0.110 A  
HETATM   18  C   UNL     1      -9.046  10.418  67.055  1.00  0.00    -0.139 A  
HETATM   19  F   UNL     1      -8.366  10.393  65.900  1.00  0.00    -0.129 F  
ENDBRANCH  11  12
ENDBRANCH   8  11
ENDBRANCH   2   6
TORSDOF 3
ENDMDL
MODEL       65
REMARK 921   NORMALIZED FREE ENERGY PREDICTED BY IDOCK:   -5.04 KCAL/MOL
REMARK 922        TOTAL FREE ENERGY PREDICTED BY IDOCK:   -6.33 KCAL/MOL
REMARK 923 INTER-LIGAND FREE ENERGY PREDICTED BY IDOCK:   -6.05 KCAL/MOL
REMARK 924 INTRA-LIGAND FREE ENERGY PREDICTED BY IDOCK:   -0.28 KCAL/MOL
REMARK 927      BINDING AFFINITY PREDICTED BY RF-SCORE:    0.00 PKD
ROOT
HETATM    1  N   UNL     1      -9.567   9.229  71.033  1.00  0.00    -0.276 N  
HETATM    2  C   UNL     1     -10.881   9.573  70.895  1.00  0.00    -0.337 C  
HETATM    3  H1  UNL     1      -8.882   9.455  70.311  1.00  0.00     0.000 HD 
HETATM    4  H2  UNL     1      -9.264   8.737  71.874  1.00  0.00     0.000 HD 
HETATM    5  O   UNL     1     -11.705   9.301  71.764  1.00  0.00    -0.359 OA 
ENDROOT
BRANCH   2   6
HETATM    6  C   UNL     1     -11.209  10.248  69.650  1.00  0.00    -0.269 A  
HETATM    7  C   UNL     1     -10.807   9.902  68.376  1.00  0.00    -0.221 A  
HETATM    8  N   UNL     1     -11.300  10.900  67.585  1.00  0.00    -0.452 NA 
HETATM    9  N   UNL     1     -11.962  11.399  69.579  1.00  0.00    -0.332 NA 
HETATM   10  N   UNL     1     -12.007  11.788  68.312  1.00  0.00    -0.528 NA 
BRANCH   8  11
HETATM   11  C   UNL     1     -10.894  11.223  66.230  1.00  0.00    -0.238 C  
BRANCH  11  12
HETATM   12  C   UNL     1     -11.058  12.667  65.864  1.00  0.00    -0.323 A  
HETATM   13  C   UNL     1     -10.093  13.611  66.214  1.00  0.00    -0.299 A  
HETATM   14  C   UNL     1     -10.143  14.918  65.729  1.00  0.00    -0.367 A  
HETATM   15  F   UNL     1      -9.062  13.254  66.989  1.00  0.00    -0.199 F  
HETATM   16  C   UNL     1     -11.185  15.307  64.888  1.00  0.00    -0.422 A  
HETATM   17  C   UNL     1     -12.191  14.394  64.575  1.00  0.00    -0.483 A  
HETATM   18  C   UNL     1     -12.122  13.091  65.069  1.00  0.00    -0.427 A  
HETATM   19  F   UNL     1     -13.082  12.220  64.726  1.00  0.00    -0.520 F  
ENDBRANCH  11  12
ENDBRANCH   8  11
ENDBRANCH   2   6
TORSDOF 3
ENDMDL
MODEL       66
REMARK 921   NORMALIZED FREE ENERGY PREDICTED BY IDOCK:   -5.04 KCAL/MOL
REMARK 922        TOTAL FREE ENERGY PREDICTED BY IDOCK:   -6.33 KCAL/MOL
REMARK 923 INTER-LIGAND FREE ENERGY PREDICTED BY IDOCK:   -5.91 KCAL/MOL
REMARK 924 INTRA-LIGAND FREE ENERGY PREDICTED BY IDOCK:   -0.41 KCAL/MOL
REMARK 927      BINDING AFFINITY PREDICTED BY RF-SCORE:    0.00 PKD
ROOT
HETATM    1  N   UNL     1     -12.569  14.685  63.682  1.00  0.00    -0.980 N  
HETATM    2  C   UNL     1     -11.649  15.527  64.239  1.00  0.00    -0.194 C  
HETATM    3  H1  UNL     1     -12.608  13.698  63.940  1.00  0.00     0.000 HD 
HETATM    4  H2  UNL     1     -13.230  15.049  62.995  1.00  0.00     0.000 HD 
HETATM    5  O   UNL     1     -11.602  16.713  63.928  1.00  0.00    -1.204 OA 
ENDROOT
BRANCH   2   6
HETATM    6  C   UNL     1     -10.741  14.900  65.186  1.00  0.00    -0.411 A  
HETATM    7  C   UNL     1     -10.849  13.643  65.746  1.00  0.00    -0.273 A  
HETATM    8  N   UNL     1      -9.809  13.578  66.629  1.00  0.00    -0.272 NA 
HETATM    9  N   UNL     1      -9.628  15.522  65.705  1.00  0.00    -0.325 NA 
HETATM   10  N   UNL     1      -9.069  14.704  66.588  1.00  0.00    -0.263 NA 
BRANCH   8  11
HETATM   11  C   UNL     1      -9.645  12.636  67.720  1.00  0.00    -0.197 C  
BRANCH  11  12
HETATM   12  C   UNL     1      -9.615  11.199  67.297  1.00  0.00    -0.182 A  
HETATM   13  C   UNL     1      -8.478  10.648  66.706  1.00  0.00    -0.134 A  
HETATM   14  C   UNL     1      -8.371   9.277  66.471  1.00  0.00    -0.126 A  
HETATM   15  F   UNL     1      -7.438  11.434  66.401  1.00  0.00    -0.140 F  
HETATM   16  C   UNL     1      -9.424   8.430  66.814  1.00  0.00    -0.255 A  
HETATM   17  C   UNL     1     -10.591   8.970  67.352  1.00  0.00    -0.309 A  
HETATM   18  C   UNL     1     -10.678  10.343  67.580  1.00  0.00    -0.287 A  
HETATM   19  F   UNL     1     -11.797  10.835  68.130  1.00  0.00    -0.365 F  
ENDBRANCH  11  12
ENDBRANCH   8  11
ENDBRANCH   2   6
TORSDOF 3
ENDMDL
MODEL       67
REMARK 921   NORMALIZED FREE ENERGY PREDICTED BY IDOCK:   -5.02 KCAL/MOL
REMARK 922        TOTAL FREE ENERGY PREDICTED BY IDOCK:   -6.31 KCAL/MOL
REMARK 923 INTER-LIGAND FREE ENERGY PREDICTED BY IDOCK:   -5.86 KCAL/MOL
REMARK 924 INTRA-LIGAND FREE ENERGY PREDICTED BY IDOCK:   -0.45 KCAL/MOL
REMARK 927      BINDING AFFINITY PREDICTED BY RF-SCORE:    0.00 PKD
ROOT
HETATM    1  N   UNL     1      -9.607  17.137  68.785  1.00  0.00    -0.273 N  
HETATM    2  C   UNL     1     -10.552  16.170  68.977  1.00  0.00    -0.273 C  
HETATM    3  H1  UNL     1      -9.299  17.397  67.848  1.00  0.00     0.000 HD 
HETATM    4  H2  UNL     1      -9.202  17.608  69.594  1.00  0.00     0.000 HD 
HETATM    5  O   UNL     1     -10.923  15.857  70.104  1.00  0.00    -0.307 OA 
ENDROOT
BRANCH   2   6
HETATM    6  C   UNL     1     -11.045  15.547  67.760  1.00  0.00    -0.315 A  
HETATM    7  C   UNL     1     -11.885  14.457  67.655  1.00  0.00    -0.378 A  
HETATM    8  N   UNL     1     -11.962  14.219  66.312  1.00  0.00    -0.411 NA 
HETATM    9  N   UNL     1     -10.690  15.955  66.493  1.00  0.00    -0.293 NA 
HETATM   10  N   UNL     1     -11.254  15.133  65.618  1.00  0.00    -0.324 NA 
BRANCH   8  11
HETATM   11  C   UNL     1     -12.423  13.005  65.663  1.00  0.00    -0.390 C  
BRANCH  11  12
HETATM   12  C   UNL     1     -11.332  12.175  65.060  1.00  0.00    -0.379 A  
HETATM   13  C   UNL     1     -10.543  11.340  65.852  1.00  0.00    -0.253 A  
HETATM   14  C   UNL     1      -9.647  10.432  65.285  1.00  0.00    -0.316 A  
HETATM   15  F   UNL     1     -10.677  11.362  67.184  1.00  0.00    -0.234 F  
HETATM   16  C   UNL     1      -9.515  10.360  63.899  1.00  0.00    -0.354 A  
HETATM   17  C   UNL     1     -10.252  11.228  63.094  1.00  0.00    -0.367 A  
HETATM   18  C   UNL     1     -11.143  12.128  63.680  1.00  0.00    -0.457 A  
HETATM   19  F   UNL     1     -11.866  12.928  62.884  1.00  0.00    -0.535 F  
ENDBRANCH  11  12
ENDBRANCH   8  11
ENDBRANCH   2   6
TORSDOF 3
ENDMDL
MODEL       68
REMARK 921   NORMALIZED FREE ENERGY PREDICTED BY IDOCK:   -5.01 KCAL/MOL
REMARK 922        TOTAL FREE ENERGY PREDICTED BY IDOCK:   -6.30 KCAL/MOL
REMARK 923 INTER-LIGAND FREE ENERGY PREDICTED BY IDOCK:   -5.89 KCAL/MOL
REMARK 924 INTRA-LIGAND FREE ENERGY PREDICTED BY IDOCK:   -0.41 KCAL/MOL
REMARK 927      BINDING AFFINITY PREDICTED BY RF-SCORE:    0.00 PKD
ROOT
HETATM    1  N   UNL     1     -12.669  14.579  72.157  1.00  0.00    -0.328 N  
HETATM    2  C   UNL     1     -12.067  15.725  71.721  1.00  0.00    -0.464 C  
HETATM    3  H1  UNL     1     -12.751  13.762  71.551  1.00  0.00     0.000 HD 
HETATM    4  H2  UNL     1     -13.044  14.539  73.105  1.00  0.00     0.000 HD 
HETATM    5  O   UNL     1     -11.969  16.708  72.450  1.00  0.00    -0.448 OA 
ENDROOT
BRANCH   2   6
HETATM    6  C   UNL     1     -11.591  15.682  70.349  1.00  0.00    -0.349 A  
HETATM    7  C   UNL     1     -10.301  15.885  69.901  1.00  0.00    -0.281 A  
HETATM    8  N   UNL     1     -10.405  15.830  68.540  1.00  0.00    -0.224 NA 
HETATM    9  N   UNL     1     -12.408  15.466  69.262  1.00  0.00    -0.171 NA 
HETATM   10  N   UNL     1     -11.671  15.562  68.162  1.00  0.00    -0.303 NA 
BRANCH   8  11
HETATM   11  C   UNL     1      -9.439  16.309  67.569  1.00  0.00    -0.227 C  
BRANCH  11  12
HETATM   12  C   UNL     1      -9.538  17.773  67.269  1.00  0.00    -0.272 A  
HETATM   13  C   UNL     1     -10.285  18.236  66.186  1.00  0.00    -0.381 A  
HETATM   14  C   UNL     1     -10.533  19.597  66.000  1.00  0.00    -0.622 A  
HETATM   15  F   UNL     1     -10.828  17.362  65.329  1.00  0.00    -0.394 F  
HETATM   16  C   UNL     1     -10.012  20.526  66.898  1.00  0.00    -0.465 A  
HETATM   17  C   UNL     1      -9.214  20.087  67.953  1.00  0.00    -0.412 A  
HETATM   18  C   UNL     1      -8.979  18.722  68.124  1.00  0.00    -0.308 A  
HETATM   19  F   UNL     1      -8.237  18.321  69.165  1.00  0.00    -0.235 F  
ENDBRANCH  11  12
ENDBRANCH   8  11
ENDBRANCH   2   6
TORSDOF 3
ENDMDL
MODEL       69
REMARK 921   NORMALIZED FREE ENERGY PREDICTED BY IDOCK:   -4.99 KCAL/MOL
REMARK 922        TOTAL FREE ENERGY PREDICTED BY IDOCK:   -6.28 KCAL/MOL
REMARK 923 INTER-LIGAND FREE ENERGY PREDICTED BY IDOCK:   -5.91 KCAL/MOL
REMARK 924 INTRA-LIGAND FREE ENERGY PREDICTED BY IDOCK:   -0.37 KCAL/MOL
REMARK 927      BINDING AFFINITY PREDICTED BY RF-SCORE:    0.00 PKD
ROOT
HETATM    1  N   UNL     1     -10.717   8.889  67.761  1.00  0.00    -0.453 N  
HETATM    2  C   UNL     1      -9.959   9.588  68.656  1.00  0.00    -0.167 C  
HETATM    3  H1  UNL     1     -11.442   9.348  67.208  1.00  0.00     0.000 HD 
HETATM    4  H2  UNL     1     -10.555   7.888  67.642  1.00  0.00     0.000 HD 
HETATM    5  O   UNL     1      -9.087   9.036  69.320  1.00  0.00    -0.141 OA 
ENDROOT
BRANCH   2   6
HETATM    6  C   UNL     1     -10.288  11.000  68.763  1.00  0.00    -0.199 A  
HETATM    7  C   UNL     1     -11.297  11.573  69.510  1.00  0.00    -0.274 A  
HETATM    8  N   UNL     1     -11.240  12.900  69.193  1.00  0.00    -0.254 NA 
HETATM    9  N   UNL     1      -9.633  11.993  68.070  1.00  0.00    -0.193 NA 
HETATM   10  N   UNL     1     -10.227  13.149  68.339  1.00  0.00    -0.248 NA 
BRANCH   8  11
HETATM   11  C   UNL     1     -12.268  13.898  69.418  1.00  0.00    -0.292 C  
BRANCH  11  12
HETATM   12  C   UNL     1     -12.279  14.473  70.801  1.00  0.00    -0.403 A  
HETATM   13  C   UNL     1     -11.682  15.705  71.072  1.00  0.00    -0.403 A  
HETATM   14  C   UNL     1     -11.838  16.333  72.308  1.00  0.00    -0.601 A  
HETATM   15  F   UNL     1     -10.987  16.333  70.116  1.00  0.00    -0.297 F  
HETATM   16  C   UNL     1     -12.590  15.719  73.309  1.00  0.00    -0.627 A  
HETATM   17  C   UNL     1     -13.144  14.462  73.076  1.00  0.00    -0.581 A  
HETATM   18  C   UNL     1     -12.978  13.850  71.834  1.00  0.00    -0.354 A  
HETATM   19  F   UNL     1     -13.549  12.656  71.622  1.00  0.00    -0.423 F  
ENDBRANCH  11  12
ENDBRANCH   8  11
ENDBRANCH   2   6
TORSDOF 3
ENDMDL
MODEL       70
REMARK 921   NORMALIZED FREE ENERGY PREDICTED BY IDOCK:   -4.98 KCAL/MOL
REMARK 922        TOTAL FREE ENERGY PREDICTED BY IDOCK:   -6.27 KCAL/MOL
REMARK 923 INTER-LIGAND FREE ENERGY PREDICTED BY IDOCK:   -5.95 KCAL/MOL
REMARK 924 INTRA-LIGAND FREE ENERGY PREDICTED BY IDOCK:   -0.32 KCAL/MOL
REMARK 927      BINDING AFFINITY PREDICTED BY RF-SCORE:    0.00 PKD
ROOT
HETATM    1  N   UNL     1     -13.774   8.887  72.722  1.00  0.00    -0.862 N  
HETATM    2  C   UNL     1     -12.476   8.677  72.351  1.00  0.00    -0.362 C  
HETATM    3  H1  UNL     1     -14.317   9.657  72.331  1.00  0.00     0.000 HD 
HETATM    4  H2  UNL     1     -14.207   8.262  73.402  1.00  0.00     0.000 HD 
HETATM    5  O   UNL     1     -11.822   7.751  72.820  1.00  0.00    -0.301 OA 
ENDROOT
BRANCH   2   6
HETATM    6  C   UNL     1     -11.950   9.639  71.396  1.00  0.00    -0.399 A  
HETATM    7  C   UNL     1     -12.544  10.810  70.970  1.00  0.00    -0.420 A  
HETATM    8  N   UNL     1     -11.695  11.289  70.013  1.00  0.00    -0.323 NA 
HETATM    9  N   UNL     1     -10.757   9.480  70.728  1.00  0.00    -0.296 NA 
HETATM   10  N   UNL     1     -10.614  10.494  69.884  1.00  0.00    -0.245 NA 
BRANCH   8  11
HETATM   11  C   UNL     1     -11.988  12.293  69.008  1.00  0.00    -0.248 C  
BRANCH  11  12
HETATM   12  C   UNL     1     -11.575  13.683  69.384  1.00  0.00    -0.368 A  
HETATM   13  C   UNL     1     -10.491  14.304  68.764  1.00  0.00    -0.249 A  
HETATM   14  C   UNL     1     -10.206  15.654  68.974  1.00  0.00    -0.225 A  
HETATM   15  F   UNL     1      -9.731  13.614  67.904  1.00  0.00    -0.207 F  
HETATM   16  C   UNL     1     -11.004  16.406  69.835  1.00  0.00    -0.339 A  
HETATM   17  C   UNL     1     -12.056  15.788  70.509  1.00  0.00    -0.407 A  
HETATM   18  C   UNL     1     -12.326  14.438  70.285  1.00  0.00    -0.348 A  
HETATM   19  F   UNL     1     -13.364  13.874  70.918  1.00  0.00    -0.351 F  
ENDBRANCH  11  12
ENDBRANCH   8  11
ENDBRANCH   2   6
TORSDOF 3
ENDMDL
MODEL       71
REMARK 921   NORMALIZED FREE ENERGY PREDICTED BY IDOCK:   -4.98 KCAL/MOL
REMARK 922        TOTAL FREE ENERGY PREDICTED BY IDOCK:   -6.27 KCAL/MOL
REMARK 923 INTER-LIGAND FREE ENERGY PREDICTED BY IDOCK:   -5.97 KCAL/MOL
REMARK 924 INTRA-LIGAND FREE ENERGY PREDICTED BY IDOCK:   -0.29 KCAL/MOL
REMARK 927      BINDING AFFINITY PREDICTED BY RF-SCORE:    0.00 PKD
ROOT
HETATM    1  N   UNL     1     -12.461  14.390  63.693  1.00  0.00    -1.086 N  
HETATM    2  C   UNL     1     -11.709  15.435  64.147  1.00  0.00    -0.100 C  
HETATM    3  H1  UNL     1     -12.319  13.443  64.046  1.00  0.00     0.000 HD 
HETATM    4  H2  UNL     1     -13.178  14.559  62.987  1.00  0.00     0.000 HD 
HETATM    5  O   UNL     1     -11.880  16.574  63.723  1.00  0.00    -1.011 OA 
ENDROOT
BRANCH   2   6
HETATM    6  C   UNL     1     -10.701  15.080  65.133  1.00  0.00    -0.415 A  
HETATM    7  C   UNL     1     -10.655  13.944  65.915  1.00  0.00    -0.293 A  
HETATM    8  N   UNL     1      -9.575  14.138  66.728  1.00  0.00    -0.271 NA 
HETATM    9  N   UNL     1      -9.634  15.886  65.461  1.00  0.00    -0.402 NA 
HETATM   10  N   UNL     1      -8.955  15.300  66.439  1.00  0.00    -0.304 NA 
BRANCH   8  11
HETATM   11  C   UNL     1      -9.268  13.432  67.958  1.00  0.00    -0.209 C  
BRANCH  11  12
HETATM   12  C   UNL     1     -10.350  12.509  68.427  1.00  0.00    -0.237 A  
HETATM   13  C   UNL     1     -10.438  11.202  67.947  1.00  0.00    -0.190 A  
HETATM   14  C   UNL     1     -11.325  10.280  68.503  1.00  0.00    -0.231 A  
HETATM   15  F   UNL     1      -9.622  10.796  66.966  1.00  0.00    -0.174 F  
HETATM   16  C   UNL     1     -12.160  10.665  69.551  1.00  0.00    -0.285 A  
HETATM   17  C   UNL     1     -12.127  11.982  70.006  1.00  0.00    -0.355 A  
HETATM   18  C   UNL     1     -11.232  12.889  69.437  1.00  0.00    -0.132 A  
HETATM   19  F   UNL     1     -11.194  14.141  69.914  1.00  0.00    -0.278 F  
ENDBRANCH  11  12
ENDBRANCH   8  11
ENDBRANCH   2   6
TORSDOF 3
ENDMDL
MODEL       72
REMARK 921   NORMALIZED FREE ENERGY PREDICTED BY IDOCK:   -4.98 KCAL/MOL
REMARK 922        TOTAL FREE ENERGY PREDICTED BY IDOCK:   -6.26 KCAL/MOL
REMARK 923 INTER-LIGAND FREE ENERGY PREDICTED BY IDOCK:   -5.85 KCAL/MOL
REMARK 924 INTRA-LIGAND FREE ENERGY PREDICTED BY IDOCK:   -0.41 KCAL/MOL
REMARK 927      BINDING AFFINITY PREDICTED BY RF-SCORE:    0.00 PKD
ROOT
HETATM    1  N   UNL     1     -10.388  16.584  65.683  1.00  0.00    -0.348 N  
HETATM    2  C   UNL     1     -11.181  15.904  64.803  1.00  0.00    -0.355 C  
HETATM    3  H1  UNL     1      -9.949  16.111  66.474  1.00  0.00     0.000 HD 
HETATM    4  H2  UNL     1     -10.231  17.583  65.547  1.00  0.00     0.000 HD 
HETATM    5  O   UNL     1     -11.709  16.473  63.852  1.00  0.00    -1.148 OA 
ENDROOT
BRANCH   2   6
HETATM    6  C   UNL     1     -11.357  14.493  65.103  1.00  0.00    -0.366 A  
HETATM    7  C   UNL     1     -10.377  13.573  65.418  1.00  0.00    -0.319 A  
HETATM    8  N   UNL     1     -11.047  12.387  65.513  1.00  0.00    -0.290 NA 
HETATM    9  N   UNL     1     -12.573  13.849  65.068  1.00  0.00    -0.636 NA 
HETATM   10  N   UNL     1     -12.370  12.562  65.318  1.00  0.00    -0.612 NA 
BRANCH   8  11
HETATM   11  C   UNL     1     -10.475  11.054  65.485  1.00  0.00    -0.238 C  
BRANCH  11  12
HETATM   12  C   UNL     1      -9.733  10.674  66.729  1.00  0.00    -0.222 A  
HETATM   13  C   UNL     1      -8.340  10.597  66.741  1.00  0.00    -0.132 A  
HETATM   14  C   UNL     1      -7.630  10.421  67.929  1.00  0.00    -0.088 A  
HETATM   15  F   UNL     1      -7.655  10.749  65.600  1.00  0.00    -0.149 F  
HETATM   16  C   UNL     1      -8.316  10.298  69.136  1.00  0.00    -0.154 A  
HETATM   17  C   UNL     1      -9.710  10.313  69.137  1.00  0.00    -0.229 A  
HETATM   18  C   UNL     1     -10.402  10.492  67.939  1.00  0.00    -0.192 A  
HETATM   19  F   UNL     1     -11.741  10.538  67.969  1.00  0.00    -0.368 F  
ENDBRANCH  11  12
ENDBRANCH   8  11
ENDBRANCH   2   6
TORSDOF 3
ENDMDL
MODEL       73
REMARK 921   NORMALIZED FREE ENERGY PREDICTED BY IDOCK:   -4.97 KCAL/MOL
REMARK 922        TOTAL FREE ENERGY PREDICTED BY IDOCK:   -6.26 KCAL/MOL
REMARK 923 INTER-LIGAND FREE ENERGY PREDICTED BY IDOCK:   -5.82 KCAL/MOL
REMARK 924 INTRA-LIGAND FREE ENERGY PREDICTED BY IDOCK:   -0.44 KCAL/MOL
REMARK 927      BINDING AFFINITY PREDICTED BY RF-SCORE:    0.00 PKD
ROOT
HETATM    1  N   UNL     1     -10.134   8.387  66.239  1.00  0.00    -0.455 N  
HETATM    2  C   UNL     1      -9.697   9.676  66.116  1.00  0.00    -0.252 C  
HETATM    3  H1  UNL     1     -11.089   8.179  66.534  1.00  0.00     0.000 HD 
HETATM    4  H2  UNL     1      -9.495   7.620  66.032  1.00  0.00     0.000 HD 
HETATM    5  O   UNL     1      -8.549   9.927  65.761  1.00  0.00    -0.132 OA 
ENDROOT
BRANCH   2   6
HETATM    6  C   UNL     1     -10.680  10.690  66.459  1.00  0.00    -0.151 A  
HETATM    7  C   UNL     1     -11.057  11.783  65.704  1.00  0.00    -0.285 A  
HETATM    8  N   UNL     1     -11.929  12.462  66.507  1.00  0.00    -0.605 NA 
HETATM    9  N   UNL     1     -11.365  10.720  67.653  1.00  0.00    -0.460 NA 
HETATM   10  N   UNL     1     -12.123  11.809  67.671  1.00  0.00    -0.558 NA 
BRANCH   8  11
HETATM   11  C   UNL     1     -12.361  13.839  66.361  1.00  0.00    -0.412 C  
BRANCH  11  12
HETATM   12  C   UNL     1     -11.319  14.855  66.718  1.00  0.00    -0.328 A  
HETATM   13  C   UNL     1     -11.141  15.269  68.037  1.00  0.00    -0.312 A  
HETATM   14  C   UNL     1     -10.064  16.075  68.409  1.00  0.00    -0.229 A  
HETATM   15  F   UNL     1     -11.985  14.848  68.988  1.00  0.00    -0.315 F  
HETATM   16  C   UNL     1      -9.148  16.496  67.447  1.00  0.00    -0.210 A  
HETATM   17  C   UNL     1      -9.342  16.140  66.113  1.00  0.00    -0.372 A  
HETATM   18  C   UNL     1     -10.425  15.334  65.761  1.00  0.00    -0.349 A  
HETATM   19  F   UNL     1     -10.572  14.976  64.478  1.00  0.00    -0.392 F  
ENDBRANCH  11  12
ENDBRANCH   8  11
ENDBRANCH   2   6
TORSDOF 3
ENDMDL
MODEL       74
REMARK 921   NORMALIZED FREE ENERGY PREDICTED BY IDOCK:   -4.96 KCAL/MOL
REMARK 922        TOTAL FREE ENERGY PREDICTED BY IDOCK:   -6.24 KCAL/MOL
REMARK 923 INTER-LIGAND FREE ENERGY PREDICTED BY IDOCK:   -5.78 KCAL/MOL
REMARK 924 INTRA-LIGAND FREE ENERGY PREDICTED BY IDOCK:   -0.45 KCAL/MOL
REMARK 927      BINDING AFFINITY PREDICTED BY RF-SCORE:    0.00 PKD
ROOT
HETATM    1  N   UNL     1      -7.667  16.228  66.530  1.00  0.00    -0.256 N  
HETATM    2  C   UNL     1      -8.773  16.936  66.152  1.00  0.00    -0.245 C  
HETATM    3  H1  UNL     1      -7.699  15.214  66.637  1.00  0.00     0.000 HD 
HETATM    4  H2  UNL     1      -6.793  16.724  66.707  1.00  0.00     0.000 HD 
HETATM    5  O   UNL     1      -8.735  18.155  66.022  1.00  0.00    -0.498 OA 
ENDROOT
BRANCH   2   6
HETATM    6  C   UNL     1      -9.970  16.136  65.948  1.00  0.00    -0.356 A  
HETATM    7  C   UNL     1     -10.643  15.378  66.885  1.00  0.00    -0.309 A  
HETATM    8  N   UNL     1     -11.628  14.757  66.172  1.00  0.00    -0.332 NA 
HETATM    9  N   UNL     1     -10.592  15.987  64.729  1.00  0.00    -0.579 NA 
HETATM   10  N   UNL     1     -11.603  15.139  64.879  1.00  0.00    -0.363 NA 
BRANCH   8  11
HETATM   11  C   UNL     1     -12.405  13.600  66.576  1.00  0.00    -0.361 C  
BRANCH  11  12
HETATM   12  C   UNL     1     -11.592  12.482  67.154  1.00  0.00    -0.437 A  
HETATM   13  C   UNL     1     -11.559  12.255  68.530  1.00  0.00    -0.310 A  
HETATM   14  C   UNL     1     -10.955  11.117  69.066  1.00  0.00    -0.286 A  
HETATM   15  F   UNL     1     -12.164  13.113  69.362  1.00  0.00    -0.328 F  
HETATM   16  C   UNL     1     -10.352  10.187  68.220  1.00  0.00    -0.215 A  
HETATM   17  C   UNL     1     -10.324  10.427  66.847  1.00  0.00    -0.297 A  
HETATM   18  C   UNL     1     -10.934  11.570  66.330  1.00  0.00    -0.284 A  
HETATM   19  F   UNL     1     -10.924  11.762  65.004  1.00  0.00    -0.329 F  
ENDBRANCH  11  12
ENDBRANCH   8  11
ENDBRANCH   2   6
TORSDOF 3
ENDMDL
MODEL       75
REMARK 921   NORMALIZED FREE ENERGY PREDICTED BY IDOCK:   -4.94 KCAL/MOL
REMARK 922        TOTAL FREE ENERGY PREDICTED BY IDOCK:   -6.22 KCAL/MOL
REMARK 923 INTER-LIGAND FREE ENERGY PREDICTED BY IDOCK:   -5.81 KCAL/MOL
REMARK 924 INTRA-LIGAND FREE ENERGY PREDICTED BY IDOCK:   -0.41 KCAL/MOL
REMARK 927      BINDING AFFINITY PREDICTED BY RF-SCORE:    0.00 PKD
ROOT
HETATM    1  N   UNL     1     -12.654  14.687  63.954  1.00  0.00    -0.963 N  
HETATM    2  C   UNL     1     -11.603  15.463  64.354  1.00  0.00    -0.264 C  
HETATM    3  H1  UNL     1     -12.783  13.743  64.319  1.00  0.00     0.000 HD 
HETATM    4  H2  UNL     1     -13.322  15.058  63.278  1.00  0.00     0.000 HD 
HETATM    5  O   UNL     1     -11.448  16.598  63.915  1.00  0.00    -1.186 OA 
ENDROOT
BRANCH   2   6
HETATM    6  C   UNL     1     -10.700  14.828  65.300  1.00  0.00    -0.390 A  
HETATM    7  C   UNL     1     -10.717  13.516  65.726  1.00  0.00    -0.275 A  
HETATM    8  N   UNL     1      -9.734  13.456  66.672  1.00  0.00    -0.268 NA 
HETATM    9  N   UNL     1      -9.689  15.494  65.957  1.00  0.00    -0.318 NA 
HETATM   10  N   UNL     1      -9.108  14.644  66.795  1.00  0.00    -0.254 NA 
BRANCH   8  11
HETATM   11  C   UNL     1      -9.547  12.425  67.676  1.00  0.00    -0.193 C  
BRANCH  11  12
HETATM   12  C   UNL     1      -9.345  11.050  67.119  1.00  0.00    -0.177 A  
HETATM   13  C   UNL     1     -10.394  10.131  67.074  1.00  0.00    -0.244 A  
HETATM   14  C   UNL     1     -10.270   8.916  66.400  1.00  0.00    -0.273 A  
HETATM   15  F   UNL     1     -11.569  10.433  67.642  1.00  0.00    -0.375 F  
HETATM   16  C   UNL     1      -9.071   8.592  65.767  1.00  0.00    -0.242 A  
HETATM   17  C   UNL     1      -7.993   9.472  65.851  1.00  0.00    -0.111 A  
HETATM   18  C   UNL     1      -8.136  10.682  66.529  1.00  0.00    -0.140 A  
HETATM   19  F   UNL     1      -7.097  11.527  66.567  1.00  0.00    -0.136 F  
ENDBRANCH  11  12
ENDBRANCH   8  11
ENDBRANCH   2   6
TORSDOF 3
ENDMDL
MODEL       76
REMARK 921   NORMALIZED FREE ENERGY PREDICTED BY IDOCK:   -4.94 KCAL/MOL
REMARK 922        TOTAL FREE ENERGY PREDICTED BY IDOCK:   -6.21 KCAL/MOL
REMARK 923 INTER-LIGAND FREE ENERGY PREDICTED BY IDOCK:   -5.99 KCAL/MOL
REMARK 924 INTRA-LIGAND FREE ENERGY PREDICTED BY IDOCK:   -0.22 KCAL/MOL
REMARK 927      BINDING AFFINITY PREDICTED BY RF-SCORE:    0.00 PKD
ROOT
HETATM    1  N   UNL     1     -13.110  15.825  73.057  1.00  0.00    -0.498 N  
HETATM    2  C   UNL     1     -13.119  14.697  72.288  1.00  0.00    -0.364 C  
HETATM    3  H1  UNL     1     -12.625  16.670  72.752  1.00  0.00     0.000 HD 
HETATM    4  H2  UNL     1     -13.596  15.823  73.954  1.00  0.00     0.000 HD 
HETATM    5  O   UNL     1     -13.702  13.681  72.655  1.00  0.00    -0.668 OA 
ENDROOT
BRANCH   2   6
HETATM    6  C   UNL     1     -12.377  14.800  71.042  1.00  0.00    -0.330 A  
HETATM    7  C   UNL     1     -11.861  15.943  70.465  1.00  0.00    -0.350 A  
HETATM    8  N   UNL     1     -11.346  15.516  69.274  1.00  0.00    -0.300 NA 
HETATM    9  N   UNL     1     -12.116  13.731  70.216  1.00  0.00    -0.339 NA 
HETATM   10  N   UNL     1     -11.488  14.182  69.137  1.00  0.00    -0.277 NA 
BRANCH   8  11
HETATM   11  C   UNL     1     -10.994  16.334  68.129  1.00  0.00    -0.343 C  
BRANCH  11  12
HETATM   12  C   UNL     1      -9.796  17.209  68.339  1.00  0.00    -0.296 A  
HETATM   13  C   UNL     1      -8.589  16.677  68.791  1.00  0.00    -0.261 A  
HETATM   14  C   UNL     1      -7.421  17.441  68.821  1.00  0.00    -0.258 A  
HETATM   15  F   UNL     1      -8.522  15.390  69.156  1.00  0.00    -0.170 F  
HETATM   16  C   UNL     1      -7.453  18.773  68.410  1.00  0.00    -0.325 A  
HETATM   17  C   UNL     1      -8.664  19.338  68.011  1.00  0.00    -0.357 A  
HETATM   18  C   UNL     1      -9.819  18.557  67.987  1.00  0.00    -0.341 A  
HETATM   19  F   UNL     1     -10.964  19.113  67.567  1.00  0.00    -0.520 F  
ENDBRANCH  11  12
ENDBRANCH   8  11
ENDBRANCH   2   6
TORSDOF 3
ENDMDL
MODEL       77
REMARK 921   NORMALIZED FREE ENERGY PREDICTED BY IDOCK:   -4.88 KCAL/MOL
REMARK 922        TOTAL FREE ENERGY PREDICTED BY IDOCK:   -6.14 KCAL/MOL
REMARK 923 INTER-LIGAND FREE ENERGY PREDICTED BY IDOCK:   -5.72 KCAL/MOL
REMARK 924 INTRA-LIGAND FREE ENERGY PREDICTED BY IDOCK:   -0.42 KCAL/MOL
REMARK 927      BINDING AFFINITY PREDICTED BY RF-SCORE:    0.00 PKD
ROOT
HETATM    1  N   UNL     1     -11.249   5.728  66.308  1.00  0.00    -0.734 N  
HETATM    2  C   UNL     1     -10.740   6.129  67.511  1.00  0.00    -0.313 C  
HETATM    3  H1  UNL     1     -11.519   6.407  65.596  1.00  0.00     0.000 HD 
HETATM    4  H2  UNL     1     -11.360   4.732  66.119  1.00  0.00     0.000 HD 
HETATM    5  O   UNL     1     -10.415   5.313  68.368  1.00  0.00    -0.154 OA 
ENDROOT
BRANCH   2   6
HETATM    6  C   UNL     1     -10.647   7.569  67.686  1.00  0.00    -0.233 A  
HETATM    7  C   UNL     1     -10.378   8.516  66.718  1.00  0.00    -0.276 A  
HETATM    8  N   UNL     1     -10.308   9.692  67.409  1.00  0.00    -0.231 NA 
HETATM    9  N   UNL     1     -10.776   8.203  68.901  1.00  0.00    -0.128 NA 
HETATM   10  N   UNL     1     -10.564   9.500  68.719  1.00  0.00    -0.219 NA 
BRANCH   8  11
HETATM   11  C   UNL     1      -9.722  10.940  66.955  1.00  0.00    -0.176 C  
BRANCH  11  12
HETATM   12  C   UNL     1     -10.464  11.598  65.833  1.00  0.00    -0.300 A  
HETATM   13  C   UNL     1     -10.042  11.455  64.511  1.00  0.00    -0.287 A  
HETATM   14  C   UNL     1     -10.819  11.910  63.445  1.00  0.00    -0.469 A  
HETATM   15  F   UNL     1      -8.894  10.820  64.243  1.00  0.00    -0.178 F  
HETATM   16  C   UNL     1     -12.038  12.541  63.693  1.00  0.00    -0.642 A  
HETATM   17  C   UNL     1     -12.448  12.745  65.010  1.00  0.00    -0.572 A  
HETATM   18  C   UNL     1     -11.658  12.282  66.062  1.00  0.00    -0.393 A  
HETATM   19  F   UNL     1     -12.089  12.460  67.319  1.00  0.00    -0.417 F  
ENDBRANCH  11  12
ENDBRANCH   8  11
ENDBRANCH   2   6
TORSDOF 3
ENDMDL
MODEL       78
REMARK 921   NORMALIZED FREE ENERGY PREDICTED BY IDOCK:   -4.88 KCAL/MOL
REMARK 922        TOTAL FREE ENERGY PREDICTED BY IDOCK:   -6.14 KCAL/MOL
REMARK 923 INTER-LIGAND FREE ENERGY PREDICTED BY IDOCK:   -5.82 KCAL/MOL
REMARK 924 INTRA-LIGAND FREE ENERGY PREDICTED BY IDOCK:   -0.32 KCAL/MOL
REMARK 927      BINDING AFFINITY PREDICTED BY RF-SCORE:    0.00 PKD
ROOT
HETATM    1  N   UNL     1      -8.861  19.779  67.558  1.00  0.00    -0.317 N  
HETATM    2  C   UNL     1      -8.342  18.529  67.371  1.00  0.00    -0.256 C  
HETATM    3  H1  UNL     1      -9.855  19.966  67.421  1.00  0.00     0.000 HD 
HETATM    4  H2  UNL     1      -8.243  20.540  67.840  1.00  0.00     0.000 HD 
HETATM    5  O   UNL     1      -7.147  18.305  67.536  1.00  0.00    -0.198 OA 
ENDROOT
BRANCH   2   6
HETATM    6  C   UNL     1      -9.305  17.526  66.948  1.00  0.00    -0.269 A  
HETATM    7  C   UNL     1      -9.955  16.600  67.738  1.00  0.00    -0.262 A  
HETATM    8  N   UNL     1     -10.666  15.842  66.852  1.00  0.00    -0.315 NA 
HETATM    9  N   UNL     1      -9.679  17.330  65.637  1.00  0.00    -0.529 NA 
HETATM   10  N   UNL     1     -10.509  16.295  65.592  1.00  0.00    -0.400 NA 
BRANCH   8  11
HETATM   11  C   UNL     1     -11.250  14.535  67.090  1.00  0.00    -0.333 C  
BRANCH  11  12
HETATM   12  C   UNL     1     -11.164  13.598  65.924  1.00  0.00    -0.311 A  
HETATM   13  C   UNL     1     -10.022  12.829  65.703  1.00  0.00    -0.238 A  
HETATM   14  C   UNL     1      -9.995  11.827  64.731  1.00  0.00    -0.275 A  
HETATM   15  F   UNL     1      -8.939  13.008  66.469  1.00  0.00    -0.220 F  
HETATM   16  C   UNL     1     -11.123  11.592  63.945  1.00  0.00    -0.477 A  
HETATM   17  C   UNL     1     -12.253  12.391  64.112  1.00  0.00    -0.558 A  
HETATM   18  C   UNL     1     -12.261  13.386  65.089  1.00  0.00    -0.434 A  
HETATM   19  F   UNL     1     -13.371  14.119  65.255  1.00  0.00    -0.430 F  
ENDBRANCH  11  12
ENDBRANCH   8  11
ENDBRANCH   2   6
TORSDOF 3
ENDMDL
MODEL       79
REMARK 921   NORMALIZED FREE ENERGY PREDICTED BY IDOCK:   -4.88 KCAL/MOL
REMARK 922        TOTAL FREE ENERGY PREDICTED BY IDOCK:   -6.14 KCAL/MOL
REMARK 923 INTER-LIGAND FREE ENERGY PREDICTED BY IDOCK:   -5.76 KCAL/MOL
REMARK 924 INTRA-LIGAND FREE ENERGY PREDICTED BY IDOCK:   -0.38 KCAL/MOL
REMARK 927      BINDING AFFINITY PREDICTED BY RF-SCORE:    0.00 PKD
ROOT
HETATM    1  N   UNL     1      -9.270  18.809  68.537  1.00  0.00    -0.338 N  
HETATM    2  C   UNL     1     -10.312  18.233  67.867  1.00  0.00    -0.399 C  
HETATM    3  H1  UNL     1      -8.776  18.309  69.277  1.00  0.00     0.000 HD 
HETATM    4  H2  UNL     1      -8.980  19.756  68.293  1.00  0.00     0.000 HD 
HETATM    5  O   UNL     1     -10.905  18.834  66.977  1.00  0.00    -0.405 OA 
ENDROOT
BRANCH   2   6
HETATM    6  C   UNL     1     -10.657  16.892  68.310  1.00  0.00    -0.363 A  
HETATM    7  C   UNL     1     -11.088  15.836  67.534  1.00  0.00    -0.258 A  
HETATM    8  N   UNL     1     -11.363  14.846  68.434  1.00  0.00    -0.289 NA 
HETATM    9  N   UNL     1     -10.640  16.494  69.628  1.00  0.00    -0.320 NA 
HETATM   10  N   UNL     1     -11.076  15.242  69.690  1.00  0.00    -0.257 NA 
BRANCH   8  11
HETATM   11  C   UNL     1     -12.159  13.654  68.207  1.00  0.00    -0.271 C  
BRANCH  11  12
HETATM   12  C   UNL     1     -11.683  12.800  67.072  1.00  0.00    -0.440 A  
HETATM   13  C   UNL     1     -12.224  12.938  65.794  1.00  0.00    -0.439 A  
HETATM   14  C   UNL     1     -11.671  12.280  64.694  1.00  0.00    -0.420 A  
HETATM   15  F   UNL     1     -13.262  13.759  65.594  1.00  0.00    -0.508 F  
HETATM   16  C   UNL     1     -10.565  11.449  64.867  1.00  0.00    -0.368 A  
HETATM   17  C   UNL     1     -10.048  11.253  66.147  1.00  0.00    -0.279 A  
HETATM   18  C   UNL     1     -10.614  11.921  67.233  1.00  0.00    -0.228 A  
HETATM   19  F   UNL     1     -10.078  11.744  68.449  1.00  0.00    -0.178 F  
ENDBRANCH  11  12
ENDBRANCH   8  11
ENDBRANCH   2   6
TORSDOF 3
ENDMDL
MODEL       80
REMARK 921   NORMALIZED FREE ENERGY PREDICTED BY IDOCK:   -4.87 KCAL/MOL
REMARK 922        TOTAL FREE ENERGY PREDICTED BY IDOCK:   -6.14 KCAL/MOL
REMARK 923 INTER-LIGAND FREE ENERGY PREDICTED BY IDOCK:   -5.75 KCAL/MOL
REMARK 924 INTRA-LIGAND FREE ENERGY PREDICTED BY IDOCK:   -0.39 KCAL/MOL
REMARK 927      BINDING AFFINITY PREDICTED BY RF-SCORE:    0.00 PKD
ROOT
HETATM    1  N   UNL     1     -10.310   6.515  74.220  1.00  0.00    -0.386 N  
HETATM    2  C   UNL     1      -9.261   7.135  73.602  1.00  0.00    -0.198 C  
HETATM    3  H1  UNL     1     -11.275   6.737  73.975  1.00  0.00     0.000 HD 
HETATM    4  H2  UNL     1     -10.124   5.816  74.940  1.00  0.00     0.000 HD 
HETATM    5  O   UNL     1      -8.100   6.868  73.897  1.00  0.00    -0.114 OA 
ENDROOT
BRANCH   2   6
HETATM    6  C   UNL     1      -9.638   8.129  72.610  1.00  0.00    -0.282 A  
HETATM    7  C   UNL     1     -10.908   8.584  72.318  1.00  0.00    -0.348 A  
HETATM    8  N   UNL     1     -10.727   9.429  71.260  1.00  0.00    -0.341 NA 
HETATM    9  N   UNL     1      -8.742   8.743  71.765  1.00  0.00    -0.312 NA 
HETATM   10  N   UNL     1      -9.421   9.533  70.942  1.00  0.00    -0.198 NA 
BRANCH   8  11
HETATM   11  C   UNL     1     -11.743   9.913  70.344  1.00  0.00    -0.258 C  
BRANCH  11  12
HETATM   12  C   UNL     1     -12.260  11.282  70.663  1.00  0.00    -0.489 A  
HETATM   13  C   UNL     1     -13.134  11.489  71.730  1.00  0.00    -0.398 A  
HETATM   14  C   UNL     1     -13.482  12.775  72.148  1.00  0.00    -0.591 A  
HETATM   15  F   UNL     1     -13.614  10.442  72.412  1.00  0.00    -0.470 F  
HETATM   16  C   UNL     1     -12.966  13.885  71.480  1.00  0.00    -0.436 A  
HETATM   17  C   UNL     1     -12.138  13.696  70.375  1.00  0.00    -0.421 A  
HETATM   18  C   UNL     1     -11.801  12.403  69.973  1.00  0.00    -0.288 A  
HETATM   19  F   UNL     1     -10.976  12.247  68.929  1.00  0.00    -0.224 F  
ENDBRANCH  11  12
ENDBRANCH   8  11
ENDBRANCH   2   6
TORSDOF 3
ENDMDL
MODEL       81
REMARK 921   NORMALIZED FREE ENERGY PREDICTED BY IDOCK:   -4.86 KCAL/MOL
REMARK 922        TOTAL FREE ENERGY PREDICTED BY IDOCK:   -6.12 KCAL/MOL
REMARK 923 INTER-LIGAND FREE ENERGY PREDICTED BY IDOCK:   -5.90 KCAL/MOL
REMARK 924 INTRA-LIGAND FREE ENERGY PREDICTED BY IDOCK:   -0.22 KCAL/MOL
REMARK 927      BINDING AFFINITY PREDICTED BY RF-SCORE:    0.00 PKD
ROOT
HETATM    1  N   UNL     1      -9.735   9.648  70.786  1.00  0.00    -0.320 N  
HETATM    2  C   UNL     1     -11.030  10.003  70.534  1.00  0.00    -0.326 C  
HETATM    3  H1  UNL     1      -9.016   9.726  70.065  1.00  0.00     0.000 HD 
HETATM    4  H2  UNL     1      -9.482   9.300  71.710  1.00  0.00     0.000 HD 
HETATM    5  O   UNL     1     -11.895   9.910  71.401  1.00  0.00    -0.369 OA 
ENDROOT
BRANCH   2   6
HETATM    6  C   UNL     1     -11.286  10.463  69.180  1.00  0.00    -0.226 A  
HETATM    7  C   UNL     1     -10.658  10.053  68.021  1.00  0.00    -0.235 A  
HETATM    8  N   UNL     1     -11.192  10.849  67.048  1.00  0.00    -0.337 NA 
HETATM    9  N   UNL     1     -12.200  11.443  68.864  1.00  0.00    -0.464 NA 
HETATM   10  N   UNL     1     -12.131  11.672  67.559  1.00  0.00    -0.532 NA 
BRANCH   8  11
HETATM   11  C   UNL     1     -10.659  11.084  65.719  1.00  0.00    -0.195 C  
BRANCH  11  12
HETATM   12  C   UNL     1     -10.934  12.453  65.177  1.00  0.00    -0.339 A  
HETATM   13  C   UNL     1     -11.936  12.662  64.229  1.00  0.00    -0.408 A  
HETATM   14  C   UNL     1     -12.322  13.949  63.849  1.00  0.00    -0.323 A  
HETATM   15  F   UNL     1     -12.586  11.616  63.704  1.00  0.00    -0.548 F  
HETATM   16  C   UNL     1     -11.688  15.057  64.408  1.00  0.00    -0.320 A  
HETATM   17  C   UNL     1     -10.645  14.866  65.313  1.00  0.00    -0.421 A  
HETATM   18  C   UNL     1     -10.275  13.573  65.681  1.00  0.00    -0.296 A  
HETATM   19  F   UNL     1      -9.292  13.415  66.579  1.00  0.00    -0.243 F  
ENDBRANCH  11  12
ENDBRANCH   8  11
ENDBRANCH   2   6
TORSDOF 3
ENDMDL
MODEL       82
REMARK 921   NORMALIZED FREE ENERGY PREDICTED BY IDOCK:   -4.86 KCAL/MOL
REMARK 922        TOTAL FREE ENERGY PREDICTED BY IDOCK:   -6.12 KCAL/MOL
REMARK 923 INTER-LIGAND FREE ENERGY PREDICTED BY IDOCK:   -5.69 KCAL/MOL
REMARK 924 INTRA-LIGAND FREE ENERGY PREDICTED BY IDOCK:   -0.43 KCAL/MOL
REMARK 927      BINDING AFFINITY PREDICTED BY RF-SCORE:    0.00 PKD
ROOT
HETATM    1  N   UNL     1     -12.212  15.583  63.875  1.00  0.00    -0.952 N  
HETATM    2  C   UNL     1     -12.376  14.232  64.000  1.00  0.00    -0.244 C  
HETATM    3  H1  UNL     1     -11.934  16.158  64.670  1.00  0.00     0.000 HD 
HETATM    4  H2  UNL     1     -12.371  16.025  62.969  1.00  0.00     0.000 HD 
HETATM    5  O   UNL     1     -12.711  13.541  63.043  1.00  0.00    -0.668 OA 
ENDROOT
BRANCH   2   6
HETATM    6  C   UNL     1     -12.148  13.710  65.337  1.00  0.00    -0.403 A  
HETATM    7  C   UNL     1     -11.645  14.389  66.429  1.00  0.00    -0.375 A  
HETATM    8  N   UNL     1     -11.540  13.434  67.399  1.00  0.00    -0.333 NA 
HETATM    9  N   UNL     1     -12.372  12.400  65.695  1.00  0.00    -0.621 NA 
HETATM   10  N   UNL     1     -11.994  12.244  66.958  1.00  0.00    -0.590 NA 
BRANCH   8  11
HETATM   11  C   UNL     1     -10.763  13.511  68.622  1.00  0.00    -0.253 C  
BRANCH  11  12
HETATM   12  C   UNL     1      -9.282  13.410  68.420  1.00  0.00    -0.149 A  
HETATM   13  C   UNL     1      -8.639  12.173  68.422  1.00  0.00    -0.141 A  
HETATM   14  C   UNL     1      -7.297  12.048  68.060  1.00  0.00    -0.102 A  
HETATM   15  F   UNL     1      -9.327  11.064  68.725  1.00  0.00    -0.172 F  
HETATM   16  C   UNL     1      -6.567  13.180  67.703  1.00  0.00    -0.165 A  
HETATM   17  C   UNL     1      -7.176  14.433  67.751  1.00  0.00    -0.188 A  
HETATM   18  C   UNL     1      -8.519  14.537  68.115  1.00  0.00    -0.157 A  
HETATM   19  F   UNL     1      -9.093  15.748  68.121  1.00  0.00    -0.179 F  
ENDBRANCH  11  12
ENDBRANCH   8  11
ENDBRANCH   2   6
TORSDOF 3
ENDMDL
MODEL       83
REMARK 921   NORMALIZED FREE ENERGY PREDICTED BY IDOCK:   -4.85 KCAL/MOL
REMARK 922        TOTAL FREE ENERGY PREDICTED BY IDOCK:   -6.11 KCAL/MOL
REMARK 923 INTER-LIGAND FREE ENERGY PREDICTED BY IDOCK:   -5.79 KCAL/MOL
REMARK 924 INTRA-LIGAND FREE ENERGY PREDICTED BY IDOCK:   -0.33 KCAL/MOL
REMARK 927      BINDING AFFINITY PREDICTED BY RF-SCORE:    0.00 PKD
ROOT
HETATM    1  N   UNL     1     -10.890  11.936  69.517  1.00  0.00    -0.460 N  
HETATM    2  C   UNL     1     -11.493  12.280  68.340  1.00  0.00    -0.307 C  
HETATM    3  H1  UNL     1     -10.439  12.637  70.105  1.00  0.00     0.000 HD 
HETATM    4  H2  UNL     1     -10.891  10.959  69.813  1.00  0.00     0.000 HD 
HETATM    5  O   UNL     1     -12.035  11.436  67.633  1.00  0.00    -0.630 OA 
ENDROOT
BRANCH   2   6
HETATM    6  C   UNL     1     -11.413  13.691  68.002  1.00  0.00    -0.310 A  
HETATM    7  C   UNL     1     -11.153  14.245  66.765  1.00  0.00    -0.314 A  
HETATM    8  N   UNL     1     -11.094  15.589  67.003  1.00  0.00    -0.284 NA 
HETATM    9  N   UNL     1     -11.549  14.707  68.922  1.00  0.00    -0.294 NA 
HETATM   10  N   UNL     1     -11.349  15.862  68.299  1.00  0.00    -0.356 NA 
BRANCH   8  11
HETATM   11  C   UNL     1     -10.520  16.606  66.142  1.00  0.00    -0.285 C  
BRANCH  11  12
HETATM   12  C   UNL     1      -9.560  17.527  66.830  1.00  0.00    -0.286 A  
HETATM   13  C   UNL     1      -8.197  17.232  66.888  1.00  0.00    -0.227 A  
HETATM   14  C   UNL     1      -7.271  18.161  67.364  1.00  0.00    -0.208 A  
HETATM   15  F   UNL     1      -7.750  16.057  66.429  1.00  0.00    -0.283 F  
HETATM   16  C   UNL     1      -7.705  19.407  67.812  1.00  0.00    -0.312 A  
HETATM   17  C   UNL     1      -9.068  19.697  67.817  1.00  0.00    -0.397 A  
HETATM   18  C   UNL     1      -9.979  18.757  67.335  1.00  0.00    -0.335 A  
HETATM   19  F   UNL     1     -11.282  19.071  67.317  1.00  0.00    -0.498 F  
ENDBRANCH  11  12
ENDBRANCH   8  11
ENDBRANCH   2   6
TORSDOF 3
ENDMDL
MODEL       84
REMARK 921   NORMALIZED FREE ENERGY PREDICTED BY IDOCK:   -4.85 KCAL/MOL
REMARK 922        TOTAL FREE ENERGY PREDICTED BY IDOCK:   -6.11 KCAL/MOL
REMARK 923 INTER-LIGAND FREE ENERGY PREDICTED BY IDOCK:   -5.68 KCAL/MOL
REMARK 924 INTRA-LIGAND FREE ENERGY PREDICTED BY IDOCK:   -0.44 KCAL/MOL
REMARK 927      BINDING AFFINITY PREDICTED BY RF-SCORE:    0.00 PKD
ROOT
HETATM    1  N   UNL     1     -11.310   4.771  65.447  1.00  0.00    -0.977 N  
HETATM    2  C   UNL     1     -10.350   4.735  66.419  1.00  0.00    -0.273 C  
HETATM    3  H1  UNL     1     -11.924   5.579  65.340  1.00  0.00     0.000 HD 
HETATM    4  H2  UNL     1     -11.414   3.976  64.817  1.00  0.00     0.000 HD 
HETATM    5  O   UNL     1      -9.612   3.763  66.547  1.00  0.00    -0.198 OA 
ENDROOT
BRANCH   2   6
HETATM    6  C   UNL     1     -10.304   5.908  67.276  1.00  0.00    -0.226 A  
HETATM    7  C   UNL     1      -9.728   6.012  68.526  1.00  0.00    -0.123 A  
HETATM    8  N   UNL     1     -10.040   7.277  68.936  1.00  0.00    -0.175 NA 
HETATM    9  N   UNL     1     -10.892   7.111  66.958  1.00  0.00    -0.362 NA 
HETATM   10  N   UNL     1     -10.726   7.939  67.982  1.00  0.00    -0.115 NA 
BRANCH   8  11
HETATM   11  C   UNL     1      -9.985   7.797  70.290  1.00  0.00    -0.189 C  
BRANCH  11  12
HETATM   12  C   UNL     1     -11.325   8.053  70.908  1.00  0.00    -0.291 A  
HETATM   13  C   UNL     1     -11.810   9.353  71.057  1.00  0.00    -0.322 A  
HETATM   14  C   UNL     1     -13.123   9.598  71.463  1.00  0.00    -0.488 A  
HETATM   15  F   UNL     1     -11.027  10.396  70.754  1.00  0.00    -0.370 F  
HETATM   16  C   UNL     1     -13.972   8.530  71.747  1.00  0.00    -0.491 A  
HETATM   17  C   UNL     1     -13.487   7.226  71.661  1.00  0.00    -0.428 A  
HETATM   18  C   UNL     1     -12.172   7.001  71.251  1.00  0.00    -0.377 A  
HETATM   19  F   UNL     1     -11.738   5.738  71.142  1.00  0.00    -0.270 F  
ENDBRANCH  11  12
ENDBRANCH   8  11
ENDBRANCH   2   6
TORSDOF 3
ENDMDL
MODEL       85
REMARK 921   NORMALIZED FREE ENERGY PREDICTED BY IDOCK:   -4.85 KCAL/MOL
REMARK 922        TOTAL FREE ENERGY PREDICTED BY IDOCK:   -6.11 KCAL/MOL
REMARK 923 INTER-LIGAND FREE ENERGY PREDICTED BY IDOCK:   -5.65 KCAL/MOL
REMARK 924 INTRA-LIGAND FREE ENERGY PREDICTED BY IDOCK:   -0.46 KCAL/MOL
REMARK 927      BINDING AFFINITY PREDICTED BY RF-SCORE:    0.00 PKD
ROOT
HETATM    1  N   UNL     1     -11.804  13.871  71.198  1.00  0.00    -0.457 N  
HETATM    2  C   UNL     1     -12.342  12.679  70.804  1.00  0.00    -0.283 C  
HETATM    3  H1  UNL     1     -11.103  14.348  70.632  1.00  0.00     0.000 HD 
HETATM    4  H2  UNL     1     -12.111  14.292  72.076  1.00  0.00     0.000 HD 
HETATM    5  O   UNL     1     -13.186  12.105  71.485  1.00  0.00    -0.345 OA 
ENDROOT
BRANCH   2   6
HETATM    6  C   UNL     1     -11.818  12.157  69.552  1.00  0.00    -0.321 A  
HETATM    7  C   UNL     1     -10.854  12.724  68.744  1.00  0.00    -0.234 A  
HETATM    8  N   UNL     1     -10.795  11.897  67.659  1.00  0.00    -0.217 NA 
HETATM    9  N   UNL     1     -12.266  10.998  68.959  1.00  0.00    -0.483 NA 
HETATM   10  N   UNL     1     -11.635  10.852  67.801  1.00  0.00    -0.561 NA 
BRANCH   8  11
HETATM   11  C   UNL     1     -10.210  12.193  66.364  1.00  0.00    -0.220 C  
BRANCH  11  12
HETATM   12  C   UNL     1     -10.796  13.389  65.680  1.00  0.00    -0.292 A  
HETATM   13  C   UNL     1     -10.153  14.626  65.718  1.00  0.00    -0.340 A  
HETATM   14  C   UNL     1     -10.592  15.700  64.942  1.00  0.00    -0.344 A  
HETATM   15  F   UNL     1      -9.058  14.785  66.472  1.00  0.00    -0.251 F  
HETATM   16  C   UNL     1     -11.706  15.551  64.118  1.00  0.00    -0.093 A  
HETATM   17  C   UNL     1     -12.397  14.340  64.111  1.00  0.00    -0.361 A  
HETATM   18  C   UNL     1     -11.943  13.278  64.894  1.00  0.00    -0.378 A  
HETATM   19  F   UNL     1     -12.602  12.113  64.844  1.00  0.00    -0.470 F  
ENDBRANCH  11  12
ENDBRANCH   8  11
ENDBRANCH   2   6
TORSDOF 3
ENDMDL
MODEL       86
REMARK 921   NORMALIZED FREE ENERGY PREDICTED BY IDOCK:   -4.84 KCAL/MOL
REMARK 922        TOTAL FREE ENERGY PREDICTED BY IDOCK:   -6.10 KCAL/MOL
REMARK 923 INTER-LIGAND FREE ENERGY PREDICTED BY IDOCK:   -5.77 KCAL/MOL
REMARK 924 INTRA-LIGAND FREE ENERGY PREDICTED BY IDOCK:   -0.34 KCAL/MOL
REMARK 927      BINDING AFFINITY PREDICTED BY RF-SCORE:    0.00 PKD
ROOT
HETATM    1  N   UNL     1     -10.665   8.938  67.802  1.00  0.00    -0.453 N  
HETATM    2  C   UNL     1      -9.917   9.629  68.714  1.00  0.00    -0.173 C  
HETATM    3  H1  UNL     1     -11.376   9.406  67.239  1.00  0.00     0.000 HD 
HETATM    4  H2  UNL     1     -10.509   7.937  67.682  1.00  0.00     0.000 HD 
HETATM    5  O   UNL     1      -9.061   9.067  69.390  1.00  0.00    -0.141 OA 
ENDROOT
BRANCH   2   6
HETATM    6  C   UNL     1     -10.237  11.042  68.821  1.00  0.00    -0.198 A  
HETATM    7  C   UNL     1     -11.359  11.608  69.392  1.00  0.00    -0.278 A  
HETATM    8  N   UNL     1     -11.221  12.946  69.151  1.00  0.00    -0.254 NA 
HETATM    9  N   UNL     1      -9.448  12.047  68.307  1.00  0.00    -0.199 NA 
HETATM   10  N   UNL     1     -10.062  13.205  68.513  1.00  0.00    -0.229 NA 
BRANCH   8  11
HETATM   11  C   UNL     1     -12.257  13.959  69.225  1.00  0.00    -0.277 C  
BRANCH  11  12
HETATM   12  C   UNL     1     -12.410  14.588  70.576  1.00  0.00    -0.403 A  
HETATM   13  C   UNL     1     -13.037  13.907  71.619  1.00  0.00    -0.367 A  
HETATM   14  C   UNL     1     -13.029  14.404  72.923  1.00  0.00    -0.575 A  
HETATM   15  F   UNL     1     -13.616  12.722  71.388  1.00  0.00    -0.313 F  
HETATM   16  C   UNL     1     -12.399  15.617  73.199  1.00  0.00    -0.584 A  
HETATM   17  C   UNL     1     -11.819  16.341  72.159  1.00  0.00    -0.585 A  
HETATM   18  C   UNL     1     -11.836  15.826  70.862  1.00  0.00    -0.414 A  
HETATM   19  F   UNL     1     -11.241  16.523  69.884  1.00  0.00    -0.324 F  
ENDBRANCH  11  12
ENDBRANCH   8  11
ENDBRANCH   2   6
TORSDOF 3
ENDMDL
MODEL       87
REMARK 921   NORMALIZED FREE ENERGY PREDICTED BY IDOCK:   -4.84 KCAL/MOL
REMARK 922        TOTAL FREE ENERGY PREDICTED BY IDOCK:   -6.10 KCAL/MOL
REMARK 923 INTER-LIGAND FREE ENERGY PREDICTED BY IDOCK:   -5.64 KCAL/MOL
REMARK 924 INTRA-LIGAND FREE ENERGY PREDICTED BY IDOCK:   -0.46 KCAL/MOL
REMARK 927      BINDING AFFINITY PREDICTED BY RF-SCORE:    0.00 PKD
ROOT
HETATM    1  N   UNL     1     -13.873  15.509  70.951  1.00  0.00    -0.854 N  
HETATM    2  C   UNL     1     -12.517  15.360  70.887  1.00  0.00    -0.418 C  
HETATM    3  H1  UNL     1     -14.500  14.866  70.466  1.00  0.00     0.000 HD 
HETATM    4  H2  UNL     1     -14.267  16.278  71.494  1.00  0.00     0.000 HD 
HETATM    5  O   UNL     1     -11.763  16.134  71.469  1.00  0.00    -0.455 OA 
ENDROOT
BRANCH   2   6
HETATM    6  C   UNL     1     -12.063  14.248  70.068  1.00  0.00    -0.340 A  
HETATM    7  C   UNL     1     -12.615  12.986  69.985  1.00  0.00     0.090 A  
HETATM    8  N   UNL     1     -11.768  12.301  69.161  1.00  0.00    -0.309 NA 
HETATM    9  N   UNL     1     -10.946  14.296  69.264  1.00  0.00    -0.254 NA 
HETATM   10  N   UNL     1     -10.775  13.099  68.717  1.00  0.00    -0.246 NA 
BRANCH   8  11
HETATM   11  C   UNL     1     -11.674  10.862  69.003  1.00  0.00    -0.320 C  
BRANCH  11  12
HETATM   12  C   UNL     1     -10.926  10.168  70.099  1.00  0.00    -0.376 A  
HETATM   13  C   UNL     1     -11.596   9.634  71.200  1.00  0.00    -0.381 A  
HETATM   14  C   UNL     1     -10.938   8.833  72.135  1.00  0.00    -0.404 A  
HETATM   15  F   UNL     1     -12.911   9.841  71.345  1.00  0.00    -0.359 F  
HETATM   16  C   UNL     1      -9.577   8.568  71.987  1.00  0.00    -0.371 A  
HETATM   17  C   UNL     1      -8.879   9.142  70.926  1.00  0.00    -0.292 A  
HETATM   18  C   UNL     1      -9.554   9.939  70.001  1.00  0.00    -0.214 A  
HETATM   19  F   UNL     1      -8.869  10.451  68.970  1.00  0.00    -0.134 F  
ENDBRANCH  11  12
ENDBRANCH   8  11
ENDBRANCH   2   6
TORSDOF 3
ENDMDL
MODEL       88
REMARK 921   NORMALIZED FREE ENERGY PREDICTED BY IDOCK:   -4.82 KCAL/MOL
REMARK 922        TOTAL FREE ENERGY PREDICTED BY IDOCK:   -6.07 KCAL/MOL
REMARK 923 INTER-LIGAND FREE ENERGY PREDICTED BY IDOCK:   -5.63 KCAL/MOL
REMARK 924 INTRA-LIGAND FREE ENERGY PREDICTED BY IDOCK:   -0.45 KCAL/MOL
REMARK 927      BINDING AFFINITY PREDICTED BY RF-SCORE:    0.00 PKD
ROOT
HETATM    1  N   UNL     1     -11.371   4.813  65.384  1.00  0.00    -0.977 N  
HETATM    2  C   UNL     1     -10.432   4.748  66.374  1.00  0.00    -0.239 C  
HETATM    3  H1  UNL     1     -11.935   5.651  65.245  1.00  0.00     0.000 HD 
HETATM    4  H2  UNL     1     -11.510   4.008  64.773  1.00  0.00     0.000 HD 
HETATM    5  O   UNL     1      -9.753   3.739  66.542  1.00  0.00    -0.198 OA 
ENDROOT
BRANCH   2   6
HETATM    6  C   UNL     1     -10.332   5.939  67.201  1.00  0.00    -0.233 A  
HETATM    7  C   UNL     1      -9.754   6.049  68.449  1.00  0.00    -0.125 A  
HETATM    8  N   UNL     1     -10.007   7.337  68.826  1.00  0.00    -0.162 NA 
HETATM    9  N   UNL     1     -10.863   7.160  66.851  1.00  0.00    -0.331 NA 
HETATM   10  N   UNL     1     -10.660   8.005  67.853  1.00  0.00    -0.185 NA 
BRANCH   8  11
HETATM   11  C   UNL     1      -9.930   7.888  70.166  1.00  0.00    -0.190 C  
BRANCH  11  12
HETATM   12  C   UNL     1     -11.239   8.370  70.712  1.00  0.00    -0.290 A  
HETATM   13  C   UNL     1     -12.196   7.471  71.182  1.00  0.00    -0.301 A  
HETATM   14  C   UNL     1     -13.338   7.909  71.854  1.00  0.00    -0.318 A  
HETATM   15  F   UNL     1     -12.000   6.154  71.039  1.00  0.00    -0.366 F  
HETATM   16  C   UNL     1     -13.548   9.272  72.050  1.00  0.00    -0.519 A  
HETATM   17  C   UNL     1     -12.632  10.188  71.536  1.00  0.00    -0.537 A  
HETATM   18  C   UNL     1     -11.496   9.732  70.868  1.00  0.00    -0.369 A  
HETATM   19  F   UNL     1     -10.611  10.630  70.412  1.00  0.00    -0.290 F  
ENDBRANCH  11  12
ENDBRANCH   8  11
ENDBRANCH   2   6
TORSDOF 3
ENDMDL
MODEL       89
REMARK 921   NORMALIZED FREE ENERGY PREDICTED BY IDOCK:   -4.79 KCAL/MOL
REMARK 922        TOTAL FREE ENERGY PREDICTED BY IDOCK:   -6.04 KCAL/MOL
REMARK 923 INTER-LIGAND FREE ENERGY PREDICTED BY IDOCK:   -5.58 KCAL/MOL
REMARK 924 INTRA-LIGAND FREE ENERGY PREDICTED BY IDOCK:   -0.46 KCAL/MOL
REMARK 927      BINDING AFFINITY PREDICTED BY RF-SCORE:    0.00 PKD
ROOT
HETATM    1  N   UNL     1      -8.830  17.592  68.482  1.00  0.00    -0.286 N  
HETATM    2  C   UNL     1      -8.573  16.250  68.478  1.00  0.00    -0.211 C  
HETATM    3  H1  UNL     1      -9.786  17.948  68.460  1.00  0.00     0.000 HD 
HETATM    4  H2  UNL     1      -8.050  18.250  68.507  1.00  0.00     0.000 HD 
HETATM    5  O   UNL     1      -7.424  15.822  68.504  1.00  0.00    -0.121 OA 
ENDROOT
BRANCH   2   6
HETATM    6  C   UNL     1      -9.753  15.403  68.416  1.00  0.00    -0.211 A  
HETATM    7  C   UNL     1      -9.797  14.039  68.210  1.00  0.00    -0.233 A  
HETATM    8  N   UNL     1     -11.131  13.751  68.146  1.00  0.00    -0.250 NA 
HETATM    9  N   UNL     1     -11.042  15.877  68.517  1.00  0.00    -0.321 NA 
HETATM   10  N   UNL     1     -11.874  14.858  68.347  1.00  0.00    -0.307 NA 
BRANCH   8  11
HETATM   11  C   UNL     1     -11.742  12.549  67.612  1.00  0.00    -0.361 C  
BRANCH  11  12
HETATM   12  C   UNL     1     -11.555  12.363  66.137  1.00  0.00    -0.452 A  
HETATM   13  C   UNL     1     -12.319  13.085  65.220  1.00  0.00    -0.486 A  
HETATM   14  C   UNL     1     -12.036  13.056  63.854  1.00  0.00    -0.541 A  
HETATM   15  F   UNL     1     -13.315  13.868  65.652  1.00  0.00    -0.491 F  
HETATM   16  C   UNL     1     -10.980  12.279  63.380  1.00  0.00    -0.467 A  
HETATM   17  C   UNL     1     -10.243  11.505  64.275  1.00  0.00    -0.361 A  
HETATM   18  C   UNL     1     -10.541  11.548  65.637  1.00  0.00    -0.274 A  
HETATM   19  F   UNL     1      -9.796  10.823  66.483  1.00  0.00    -0.206 F  
ENDBRANCH  11  12
ENDBRANCH   8  11
ENDBRANCH   2   6
TORSDOF 3
ENDMDL
MODEL       90
REMARK 921   NORMALIZED FREE ENERGY PREDICTED BY IDOCK:   -4.77 KCAL/MOL
REMARK 922        TOTAL FREE ENERGY PREDICTED BY IDOCK:   -6.01 KCAL/MOL
REMARK 923 INTER-LIGAND FREE ENERGY PREDICTED BY IDOCK:   -5.56 KCAL/MOL
REMARK 924 INTRA-LIGAND FREE ENERGY PREDICTED BY IDOCK:   -0.46 KCAL/MOL
REMARK 927      BINDING AFFINITY PREDICTED BY RF-SCORE:    0.00 PKD
ROOT
HETATM    1  N   UNL     1      -7.298  15.095  69.163  1.00  0.00    -0.151 N  
HETATM    2  C   UNL     1      -8.345  15.928  68.884  1.00  0.00    -0.226 C  
HETATM    3  H1  UNL     1      -7.421  14.083  69.190  1.00  0.00     0.000 HD 
HETATM    4  H2  UNL     1      -6.378  15.494  69.349  1.00  0.00     0.000 HD 
HETATM    5  O   UNL     1      -8.198  17.146  68.851  1.00  0.00    -0.255 OA 
ENDROOT
BRANCH   2   6
HETATM    6  C   UNL     1      -9.615  15.258  68.659  1.00  0.00    -0.206 A  
HETATM    7  C   UNL     1      -9.836  13.903  68.516  1.00  0.00    -0.214 A  
HETATM    8  N   UNL     1     -11.169  13.807  68.234  1.00  0.00    -0.259 NA 
HETATM    9  N   UNL     1     -10.813  15.919  68.510  1.00  0.00    -0.282 NA 
HETATM   10  N   UNL     1     -11.755  15.022  68.248  1.00  0.00    -0.330 NA 
BRANCH   8  11
HETATM   11  C   UNL     1     -11.863  12.668  67.661  1.00  0.00    -0.329 C  
BRANCH  11  12
HETATM   12  C   UNL     1     -11.494  12.371  66.240  1.00  0.00    -0.423 A  
HETATM   13  C   UNL     1     -10.507  11.434  65.935  1.00  0.00    -0.258 A  
HETATM   14  C   UNL     1     -10.278  11.018  64.622  1.00  0.00    -0.392 A  
HETATM   15  F   UNL     1      -9.793  10.873  66.919  1.00  0.00    -0.194 F  
HETATM   16  C   UNL     1     -11.034  11.557  63.582  1.00  0.00    -0.482 A  
HETATM   17  C   UNL     1     -11.984  12.538  63.861  1.00  0.00    -0.563 A  
HETATM   18  C   UNL     1     -12.198  12.939  65.180  1.00  0.00    -0.470 A  
HETATM   19  F   UNL     1     -13.141  13.859  65.428  1.00  0.00    -0.523 F  
ENDBRANCH  11  12
ENDBRANCH   8  11
ENDBRANCH   2   6
TORSDOF 3
ENDMDL
MODEL       91
REMARK 921   NORMALIZED FREE ENERGY PREDICTED BY IDOCK:   -4.76 KCAL/MOL
REMARK 922        TOTAL FREE ENERGY PREDICTED BY IDOCK:   -6.00 KCAL/MOL
REMARK 923 INTER-LIGAND FREE ENERGY PREDICTED BY IDOCK:   -5.65 KCAL/MOL
REMARK 924 INTRA-LIGAND FREE ENERGY PREDICTED BY IDOCK:   -0.35 KCAL/MOL
REMARK 927      BINDING AFFINITY PREDICTED BY RF-SCORE:    0.00 PKD
ROOT
HETATM    1  N   UNL     1      -8.283  10.926  63.273  1.00  0.00    -0.372 N  
HETATM    2  C   UNL     1      -9.373  10.587  64.023  1.00  0.00    -0.267 C  
HETATM    3  H1  UNL     1      -8.234  11.820  62.783  1.00  0.00     0.000 HD 
HETATM    4  H2  UNL     1      -7.502  10.273  63.202  1.00  0.00     0.000 HD 
HETATM    5  O   UNL     1      -9.431   9.512  64.612  1.00  0.00    -0.228 OA 
ENDROOT
BRANCH   2   6
HETATM    6  C   UNL     1     -10.437  11.578  64.036  1.00  0.00    -0.370 A  
HETATM    7  C   UNL     1     -10.515  12.716  64.814  1.00  0.00    -0.320 A  
HETATM    8  N   UNL     1     -11.739  13.243  64.518  1.00  0.00    -0.360 NA 
HETATM    9  N   UNL     1     -11.579  11.485  63.272  1.00  0.00    -0.192 NA 
HETATM   10  N   UNL     1     -12.368  12.507  63.578  1.00  0.00    -0.659 NA 
BRANCH   8  11
HETATM   11  C   UNL     1     -12.475  14.232  65.283  1.00  0.00    -0.421 C  
BRANCH  11  12
HETATM   12  C   UNL     1     -11.623  15.077  66.180  1.00  0.00    -0.159 A  
HETATM   13  C   UNL     1     -10.899  16.157  65.675  1.00  0.00    -0.238 A  
HETATM   14  C   UNL     1     -10.248  17.056  66.521  1.00  0.00    -0.321 A  
HETATM   15  F   UNL     1     -10.865  16.377  64.355  1.00  0.00    -0.365 F  
HETATM   16  C   UNL     1     -10.299  16.872  67.901  1.00  0.00    -0.332 A  
HETATM   17  C   UNL     1     -10.968  15.766  68.421  1.00  0.00    -0.323 A  
HETATM   18  C   UNL     1     -11.614  14.879  67.560  1.00  0.00    -0.339 A  
HETATM   19  F   UNL     1     -12.281  13.841  68.085  1.00  0.00    -0.387 F  
ENDBRANCH  11  12
ENDBRANCH   8  11
ENDBRANCH   2   6
TORSDOF 3
ENDMDL
MODEL       92
REMARK 921   NORMALIZED FREE ENERGY PREDICTED BY IDOCK:   -4.76 KCAL/MOL
REMARK 922        TOTAL FREE ENERGY PREDICTED BY IDOCK:   -6.00 KCAL/MOL
REMARK 923 INTER-LIGAND FREE ENERGY PREDICTED BY IDOCK:   -5.58 KCAL/MOL
REMARK 924 INTRA-LIGAND FREE ENERGY PREDICTED BY IDOCK:   -0.42 KCAL/MOL
REMARK 927      BINDING AFFINITY PREDICTED BY RF-SCORE:    0.00 PKD
ROOT
HETATM    1  N   UNL     1     -12.408  14.457  67.063  1.00  0.00    -0.561 N  
HETATM    2  C   UNL     1     -12.256  13.358  66.266  1.00  0.00    -0.398 C  
HETATM    3  H1  UNL     1     -12.115  14.447  68.040  1.00  0.00     0.000 HD 
HETATM    4  H2  UNL     1     -12.822  15.305  66.673  1.00  0.00     0.000 HD 
HETATM    5  O   UNL     1     -12.609  13.371  65.090  1.00  0.00    -0.507 OA 
ENDROOT
BRANCH   2   6
HETATM    6  C   UNL     1     -11.679  12.200  66.927  1.00  0.00    -0.301 A  
HETATM    7  C   UNL     1     -11.782  11.855  68.259  1.00  0.00    -0.321 A  
HETATM    8  N   UNL     1     -10.991  10.748  68.383  1.00  0.00    -0.228 NA 
HETATM    9  N   UNL     1     -10.881  11.274  66.291  1.00  0.00    -0.264 NA 
HETATM   10  N   UNL     1     -10.465  10.394  67.193  1.00  0.00    -0.242 NA 
BRANCH   8  11
HETATM   11  C   UNL     1     -10.466  10.181  69.611  1.00  0.00    -0.252 C  
BRANCH  11  12
HETATM   12  C   UNL     1     -11.329   9.117  70.218  1.00  0.00    -0.217 A  
HETATM   13  C   UNL     1     -11.070   7.766  69.991  1.00  0.00    -0.175 A  
HETATM   14  C   UNL     1     -11.751   6.766  70.688  1.00  0.00    -0.440 A  
HETATM   15  F   UNL     1     -10.113   7.406  69.126  1.00  0.00    -0.171 F  
HETATM   16  C   UNL     1     -12.725   7.112  71.622  1.00  0.00    -0.415 A  
HETATM   17  C   UNL     1     -13.039   8.456  71.820  1.00  0.00    -0.373 A  
HETATM   18  C   UNL     1     -12.347   9.441  71.114  1.00  0.00    -0.308 A  
HETATM   19  F   UNL     1     -12.641  10.727  71.346  1.00  0.00    -0.410 F  
ENDBRANCH  11  12
ENDBRANCH   8  11
ENDBRANCH   2   6
TORSDOF 3
ENDMDL
MODEL       93
REMARK 921   NORMALIZED FREE ENERGY PREDICTED BY IDOCK:   -4.75 KCAL/MOL
REMARK 922        TOTAL FREE ENERGY PREDICTED BY IDOCK:   -6.00 KCAL/MOL
REMARK 923 INTER-LIGAND FREE ENERGY PREDICTED BY IDOCK:   -5.58 KCAL/MOL
REMARK 924 INTRA-LIGAND FREE ENERGY PREDICTED BY IDOCK:   -0.42 KCAL/MOL
REMARK 927      BINDING AFFINITY PREDICTED BY RF-SCORE:    0.00 PKD
ROOT
HETATM    1  N   UNL     1     -11.041   5.490  66.141  1.00  0.00    -0.778 N  
HETATM    2  C   UNL     1     -10.069   6.047  66.923  1.00  0.00    -0.185 C  
HETATM    3  H1  UNL     1     -11.792   6.057  65.746  1.00  0.00     0.000 HD 
HETATM    4  H2  UNL     1     -11.016   4.488  65.950  1.00  0.00     0.000 HD 
HETATM    5  O   UNL     1      -9.167   5.365  67.399  1.00  0.00    -0.111 OA 
ENDROOT
BRANCH   2   6
HETATM    6  C   UNL     1     -10.214   7.475  67.152  1.00  0.00    -0.280 A  
HETATM    7  C   UNL     1     -10.031   8.495  66.240  1.00  0.00    -0.181 A  
HETATM    8  N   UNL     1     -10.192   9.636  66.973  1.00  0.00    -0.230 NA 
HETATM    9  N   UNL     1     -10.524   8.027  68.375  1.00  0.00    -0.193 NA 
HETATM   10  N   UNL     1     -10.505   9.348  68.253  1.00  0.00    -0.213 NA 
BRANCH   8  11
HETATM   11  C   UNL     1      -9.779  10.977  66.607  1.00  0.00    -0.195 C  
BRANCH  11  12
HETATM   12  C   UNL     1     -10.681  11.654  65.622  1.00  0.00    -0.330 A  
HETATM   13  C   UNL     1     -11.783  12.397  66.048  1.00  0.00    -0.410 A  
HETATM   14  C   UNL     1     -12.524  13.176  65.159  1.00  0.00    -0.539 A  
HETATM   15  F   UNL     1     -12.113  12.413  67.346  1.00  0.00    -0.418 F  
HETATM   16  C   UNL     1     -12.179  13.208  63.809  1.00  0.00    -0.528 A  
HETATM   17  C   UNL     1     -11.117  12.427  63.354  1.00  0.00    -0.465 A  
HETATM   18  C   UNL     1     -10.387  11.655  64.259  1.00  0.00    -0.322 A  
HETATM   19  F   UNL     1      -9.350  10.939  63.804  1.00  0.00    -0.200 F  
ENDBRANCH  11  12
ENDBRANCH   8  11
ENDBRANCH   2   6
TORSDOF 3
ENDMDL
MODEL       94
REMARK 921   NORMALIZED FREE ENERGY PREDICTED BY IDOCK:   -4.70 KCAL/MOL
REMARK 922        TOTAL FREE ENERGY PREDICTED BY IDOCK:   -5.94 KCAL/MOL
REMARK 923 INTER-LIGAND FREE ENERGY PREDICTED BY IDOCK:   -5.66 KCAL/MOL
REMARK 924 INTRA-LIGAND FREE ENERGY PREDICTED BY IDOCK:   -0.28 KCAL/MOL
REMARK 927      BINDING AFFINITY PREDICTED BY RF-SCORE:    0.00 PKD
ROOT
HETATM    1  N   UNL     1     -13.220  15.718  73.790  1.00  0.00    -0.736 N  
HETATM    2  C   UNL     1     -13.304  14.841  72.745  1.00  0.00    -0.486 C  
HETATM    3  H1  UNL     1     -12.745  16.615  73.690  1.00  0.00     0.000 HD 
HETATM    4  H2  UNL     1     -13.641  15.470  74.685  1.00  0.00     0.000 HD 
HETATM    5  O   UNL     1     -13.876  13.762  72.864  1.00  0.00    -0.668 OA 
ENDROOT
BRANCH   2   6
HETATM    6  C   UNL     1     -12.650  15.282  71.524  1.00  0.00    -0.373 A  
HETATM    7  C   UNL     1     -12.895  14.849  70.237  1.00  0.00    -0.220 A  
HETATM    8  N   UNL     1     -11.961  15.496  69.480  1.00  0.00    -0.358 NA 
HETATM    9  N   UNL     1     -11.624  16.200  71.494  1.00  0.00    -0.461 NA 
HETATM   10  N   UNL     1     -11.210  16.320  70.239  1.00  0.00    -0.374 NA 
BRANCH   8  11
HETATM   11  C   UNL     1     -11.542  15.161  68.132  1.00  0.00    -0.341 C  
BRANCH  11  12
HETATM   12  C   UNL     1     -10.063  15.242  67.906  1.00  0.00    -0.233 A  
HETATM   13  C   UNL     1      -9.471  16.414  67.436  1.00  0.00    -0.227 A  
HETATM   14  C   UNL     1      -8.084  16.563  67.391  1.00  0.00    -0.172 A  
HETATM   15  F   UNL     1     -10.239  17.447  67.067  1.00  0.00    -0.286 F  
HETATM   16  C   UNL     1      -7.261  15.517  67.805  1.00  0.00    -0.177 A  
HETATM   17  C   UNL     1      -7.834  14.317  68.223  1.00  0.00    -0.141 A  
HETATM   18  C   UNL     1      -9.222  14.188  68.262  1.00  0.00    -0.198 A  
HETATM   19  F   UNL     1      -9.751  13.037  68.700  1.00  0.00    -0.211 F  
ENDBRANCH  11  12
ENDBRANCH   8  11
ENDBRANCH   2   6
TORSDOF 3
ENDMDL
MODEL       95
REMARK 921   NORMALIZED FREE ENERGY PREDICTED BY IDOCK:   -4.70 KCAL/MOL
REMARK 922        TOTAL FREE ENERGY PREDICTED BY IDOCK:   -5.93 KCAL/MOL
REMARK 923 INTER-LIGAND FREE ENERGY PREDICTED BY IDOCK:   -5.64 KCAL/MOL
REMARK 924 INTRA-LIGAND FREE ENERGY PREDICTED BY IDOCK:   -0.29 KCAL/MOL
REMARK 927      BINDING AFFINITY PREDICTED BY RF-SCORE:    0.00 PKD
ROOT
HETATM    1  N   UNL     1      -5.416  18.600  70.707  1.00  0.00    -0.236 N  
HETATM    2  C   UNL     1      -5.964  19.850  70.648  1.00  0.00    -0.296 C  
HETATM    3  H1  UNL     1      -5.368  18.004  69.880  1.00  0.00     0.000 HD 
HETATM    4  H2  UNL     1      -5.046  18.258  71.594  1.00  0.00     0.000 HD 
HETATM    5  O   UNL     1      -6.021  20.568  71.642  1.00  0.00    -0.639 OA 
ENDROOT
BRANCH   2   6
HETATM    6  C   UNL     1      -6.480  20.230  69.343  1.00  0.00    -0.251 A  
HETATM    7  C   UNL     1      -7.574  19.701  68.686  1.00  0.00    -0.331 A  
HETATM    8  N   UNL     1      -7.573  20.328  67.473  1.00  0.00    -0.296 NA 
HETATM    9  N   UNL     1      -5.896  21.179  68.535  1.00  0.00    -0.317 NA 
HETATM   10  N   UNL     1      -6.572  21.227  67.394  1.00  0.00    -0.527 NA 
BRANCH   8  11
HETATM   11  C   UNL     1      -8.282  19.916  66.276  1.00  0.00    -0.329 C  
BRANCH  11  12
HETATM   12  C   UNL     1      -8.798  18.511  66.316  1.00  0.00    -0.221 A  
HETATM   13  C   UNL     1      -7.951  17.427  66.085  1.00  0.00    -0.240 A  
HETATM   14  C   UNL     1      -8.375  16.114  66.294  1.00  0.00    -0.322 A  
HETATM   15  F   UNL     1      -6.684  17.639  65.707  1.00  0.00    -0.273 F  
HETATM   16  C   UNL     1      -9.678  15.865  66.725  1.00  0.00    -0.252 A  
HETATM   17  C   UNL     1     -10.556  16.933  66.903  1.00  0.00    -0.214 A  
HETATM   18  C   UNL     1     -10.113  18.238  66.691  1.00  0.00    -0.375 A  
HETATM   19  F   UNL     1     -10.966  19.251  66.902  1.00  0.00    -0.520 F  
ENDBRANCH  11  12
ENDBRANCH   8  11
ENDBRANCH   2   6
TORSDOF 3
ENDMDL
MODEL       96
REMARK 921   NORMALIZED FREE ENERGY PREDICTED BY IDOCK:   -4.70 KCAL/MOL
REMARK 922        TOTAL FREE ENERGY PREDICTED BY IDOCK:   -5.93 KCAL/MOL
REMARK 923 INTER-LIGAND FREE ENERGY PREDICTED BY IDOCK:   -5.76 KCAL/MOL
REMARK 924 INTRA-LIGAND FREE ENERGY PREDICTED BY IDOCK:   -0.17 KCAL/MOL
REMARK 927      BINDING AFFINITY PREDICTED BY RF-SCORE:    0.00 PKD
ROOT
HETATM    1  N   UNL     1     -10.763   9.543  71.110  1.00  0.00    -0.338 N  
HETATM    2  C   UNL     1     -11.872  10.336  71.026  1.00  0.00    -0.377 C  
HETATM    3  H1  UNL     1     -10.042   9.563  70.387  1.00  0.00     0.000 HD 
HETATM    4  H2  UNL     1     -10.653   8.919  71.910  1.00  0.00     0.000 HD 
HETATM    5  O   UNL     1     -12.739  10.311  71.895  1.00  0.00    -0.415 OA 
ENDROOT
BRANCH   2   6
HETATM    6  C   UNL     1     -11.940  11.167  69.835  1.00  0.00    -0.363 A  
HETATM    7  C   UNL     1     -11.881  10.756  68.519  1.00  0.00    -0.096 A  
HETATM    8  N   UNL     1     -11.892  11.918  67.802  1.00  0.00    -0.573 NA 
HETATM    9  N   UNL     1     -12.034  12.540  69.866  1.00  0.00    -0.328 NA 
HETATM   10  N   UNL     1     -12.001  12.987  68.616  1.00  0.00    -0.308 NA 
BRANCH   8  11
HETATM   11  C   UNL     1     -11.509  12.093  66.414  1.00  0.00    -0.370 C  
BRANCH  11  12
HETATM   12  C   UNL     1     -10.825  13.393  66.121  1.00  0.00    -0.287 A  
HETATM   13  C   UNL     1     -11.459  14.386  65.374  1.00  0.00    -0.344 A  
HETATM   14  C   UNL     1     -10.910  15.663  65.245  1.00  0.00    -0.420 A  
HETATM   15  F   UNL     1     -12.647  14.138  64.808  1.00  0.00    -0.418 F  
HETATM   16  C   UNL     1      -9.693  15.960  65.856  1.00  0.00    -0.386 A  
HETATM   17  C   UNL     1      -9.017  14.963  66.558  1.00  0.00    -0.288 A  
HETATM   18  C   UNL     1      -9.582  13.693  66.676  1.00  0.00    -0.283 A  
HETATM   19  F   UNL     1      -8.930  12.761  67.384  1.00  0.00    -0.164 F  
ENDBRANCH  11  12
ENDBRANCH   8  11
ENDBRANCH   2   6
TORSDOF 3
ENDMDL
MODEL       97
REMARK 921   NORMALIZED FREE ENERGY PREDICTED BY IDOCK:   -4.69 KCAL/MOL
REMARK 922        TOTAL FREE ENERGY PREDICTED BY IDOCK:   -5.93 KCAL/MOL
REMARK 923 INTER-LIGAND FREE ENERGY PREDICTED BY IDOCK:   -5.51 KCAL/MOL
REMARK 924 INTRA-LIGAND FREE ENERGY PREDICTED BY IDOCK:   -0.42 KCAL/MOL
REMARK 927      BINDING AFFINITY PREDICTED BY RF-SCORE:    0.00 PKD
ROOT
HETATM    1  N   UNL     1     -13.836  15.591  71.203  1.00  0.00    -0.762 N  
HETATM    2  C   UNL     1     -12.480  15.495  71.071  1.00  0.00    -0.436 C  
HETATM    3  H1  UNL     1     -14.463  14.988  70.668  1.00  0.00     0.000 HD 
HETATM    4  H2  UNL     1     -14.230  16.277  71.847  1.00  0.00     0.000 HD 
HETATM    5  O   UNL     1     -11.726  16.220  71.714  1.00  0.00    -0.486 OA 
ENDROOT
BRANCH   2   6
HETATM    6  C   UNL     1     -12.027  14.503  70.111  1.00  0.00    -0.315 A  
HETATM    7  C   UNL     1     -12.655  13.325  69.761  1.00  0.00     0.126 A  
HETATM    8  N   UNL     1     -11.782  12.719  68.903  1.00  0.00    -0.310 NA 
HETATM    9  N   UNL     1     -10.837  14.590  69.424  1.00  0.00    -0.247 NA 
HETATM   10  N   UNL     1     -10.698  13.492  68.692  1.00  0.00    -0.250 NA 
BRANCH   8  11
HETATM   11  C   UNL     1     -11.774  11.324  68.503  1.00  0.00    -0.308 C  
BRANCH  11  12
HETATM   12  C   UNL     1     -11.205  10.391  69.527  1.00  0.00    -0.325 A  
HETATM   13  C   UNL     1      -9.850  10.057  69.521  1.00  0.00    -0.229 A  
HETATM   14  C   UNL     1      -9.273   9.336  70.567  1.00  0.00    -0.311 A  
HETATM   15  F   UNL     1      -9.065  10.478  68.521  1.00  0.00    -0.130 F  
HETATM   16  C   UNL     1     -10.060   8.919  71.639  1.00  0.00    -0.411 A  
HETATM   17  C   UNL     1     -11.426   9.192  71.634  1.00  0.00    -0.451 A  
HETATM   18  C   UNL     1     -11.985   9.915  70.580  1.00  0.00    -0.239 A  
HETATM   19  F   UNL     1     -13.295  10.196  70.613  1.00  0.00    -0.424 F  
ENDBRANCH  11  12
ENDBRANCH   8  11
ENDBRANCH   2   6
TORSDOF 3
ENDMDL
MODEL       98
REMARK 921   NORMALIZED FREE ENERGY PREDICTED BY IDOCK:   -4.68 KCAL/MOL
REMARK 922        TOTAL FREE ENERGY PREDICTED BY IDOCK:   -5.91 KCAL/MOL
REMARK 923 INTER-LIGAND FREE ENERGY PREDICTED BY IDOCK:   -5.54 KCAL/MOL
REMARK 924 INTRA-LIGAND FREE ENERGY PREDICTED BY IDOCK:   -0.37 KCAL/MOL
REMARK 927      BINDING AFFINITY PREDICTED BY RF-SCORE:    0.00 PKD
ROOT
HETATM    1  N   UNL     1     -12.254  14.580  63.598  1.00  0.00    -1.062 N  
HETATM    2  C   UNL     1     -11.636  15.107  64.697  1.00  0.00    -0.357 C  
HETATM    3  H1  UNL     1     -12.645  13.638  63.614  1.00  0.00     0.000 HD 
HETATM    4  H2  UNL     1     -12.325  15.139  62.748  1.00  0.00     0.000 HD 
HETATM    5  O   UNL     1     -11.165  16.240  64.679  1.00  0.00    -0.558 OA 
ENDROOT
BRANCH   2   6
HETATM    6  C   UNL     1     -11.568  14.219  65.845  1.00  0.00    -0.358 A  
HETATM    7  C   UNL     1     -10.675  14.272  66.897  1.00  0.00    -0.290 A  
HETATM    8  N   UNL     1     -10.975  13.172  67.649  1.00  0.00    -0.256 NA 
HETATM    9  N   UNL     1     -12.396  13.133  66.023  1.00  0.00    -0.428 NA 
HETATM   10  N   UNL     1     -12.021  12.500  67.127  1.00  0.00    -0.516 NA 
BRANCH   8  11
HETATM   11  C   UNL     1     -10.144  12.555  68.665  1.00  0.00    -0.130 C  
BRANCH  11  12
HETATM   12  C   UNL     1      -9.927  11.085  68.477  1.00  0.00    -0.198 A  
HETATM   13  C   UNL     1     -10.584  10.152  69.280  1.00  0.00    -0.230 A  
HETATM   14  C   UNL     1     -10.531   8.786  69.002  1.00  0.00    -0.220 A  
HETATM   15  F   UNL     1     -11.329  10.569  70.311  1.00  0.00    -0.295 F  
HETATM   16  C   UNL     1      -9.794   8.327  67.911  1.00  0.00    -0.207 A  
HETATM   17  C   UNL     1      -9.083   9.239  67.132  1.00  0.00    -0.149 A  
HETATM   18  C   UNL     1      -9.149  10.601  67.425  1.00  0.00    -0.139 A  
HETATM   19  F   UNL     1      -8.485  11.462  66.642  1.00  0.00    -0.149 F  
ENDBRANCH  11  12
ENDBRANCH   8  11
ENDBRANCH   2   6
TORSDOF 3
ENDMDL
MODEL       99
REMARK 921   NORMALIZED FREE ENERGY PREDICTED BY IDOCK:   -4.67 KCAL/MOL
REMARK 922        TOTAL FREE ENERGY PREDICTED BY IDOCK:   -5.90 KCAL/MOL
REMARK 923 INTER-LIGAND FREE ENERGY PREDICTED BY IDOCK:   -5.48 KCAL/MOL
REMARK 924 INTRA-LIGAND FREE ENERGY PREDICTED BY IDOCK:   -0.42 KCAL/MOL
REMARK 927      BINDING AFFINITY PREDICTED BY RF-SCORE:    0.00 PKD
ROOT
HETATM    1  N   UNL     1      -9.088   9.258  64.361  1.00  0.00    -0.428 N  
HETATM    2  C   UNL     1      -9.860  10.095  65.115  1.00  0.00    -0.325 C  
HETATM    3  H1  UNL     1      -8.693   8.404  64.756  1.00  0.00     0.000 HD 
HETATM    4  H2  UNL     1      -8.904   9.490  63.385  1.00  0.00     0.000 HD 
HETATM    5  O   UNL     1     -10.335  11.122  64.640  1.00  0.00    -0.289 OA 
ENDROOT
BRANCH   2   6
HETATM    6  C   UNL     1     -10.039   9.682  66.497  1.00  0.00    -0.244 A  
HETATM    7  C   UNL     1     -10.042  10.485  67.620  1.00  0.00    -0.179 A  
HETATM    8  N   UNL     1     -10.150   9.608  68.661  1.00  0.00    -0.172 NA 
HETATM    9  N   UNL     1     -10.193   8.372  66.891  1.00  0.00    -0.294 NA 
HETATM   10  N   UNL     1     -10.257   8.340  68.216  1.00  0.00    -0.203 NA 
BRANCH   8  11
HETATM   11  C   UNL     1      -9.861   9.870  70.059  1.00  0.00    -0.243 C  
BRANCH  11  12
HETATM   12  C   UNL     1     -11.029   9.676  70.978  1.00  0.00    -0.431 A  
HETATM   13  C   UNL     1     -12.050  10.623  71.050  1.00  0.00    -0.368 A  
HETATM   14  C   UNL     1     -13.225  10.374  71.763  1.00  0.00    -0.529 A  
HETATM   15  F   UNL     1     -11.938  11.778  70.382  1.00  0.00    -0.384 F  
HETATM   16  C   UNL     1     -13.385   9.164  72.436  1.00  0.00    -0.527 A  
HETATM   17  C   UNL     1     -12.350   8.230  72.423  1.00  0.00    -0.385 A  
HETATM   18  C   UNL     1     -11.184   8.496  71.704  1.00  0.00    -0.292 A  
HETATM   19  F   UNL     1     -10.217   7.569  71.678  1.00  0.00    -0.188 F  
ENDBRANCH  11  12
ENDBRANCH   8  11
ENDBRANCH   2   6
TORSDOF 3
ENDMDL
MODEL      100
REMARK 921   NORMALIZED FREE ENERGY PREDICTED BY IDOCK:   -4.67 KCAL/MOL
REMARK 922        TOTAL FREE ENERGY PREDICTED BY IDOCK:   -5.90 KCAL/MOL
REMARK 923 INTER-LIGAND FREE ENERGY PREDICTED BY IDOCK:   -5.51 KCAL/MOL
REMARK 924 INTRA-LIGAND FREE ENERGY PREDICTED BY IDOCK:   -0.39 KCAL/MOL
REMARK 927      BINDING AFFINITY PREDICTED BY RF-SCORE:    0.00 PKD
ROOT
HETATM    1  N   UNL     1      -9.172   9.579  63.891  1.00  0.00    -0.425 N  
HETATM    2  C   UNL     1     -10.056  10.254  64.685  1.00  0.00    -0.247 C  
HETATM    3  H1  UNL     1      -8.630   8.794  64.252  1.00  0.00     0.000 HD 
HETATM    4  H2  UNL     1      -9.054   9.866  62.919  1.00  0.00     0.000 HD 
HETATM    5  O   UNL     1     -10.708  11.198  64.252  1.00  0.00    -0.358 OA 
ENDROOT
BRANCH   2   6
HETATM    6  C   UNL     1     -10.129   9.779  66.057  1.00  0.00    -0.251 A  
HETATM    7  C   UNL     1     -10.388  10.524  67.191  1.00  0.00    -0.235 A  
HETATM    8  N   UNL     1     -10.251   9.633  68.217  1.00  0.00    -0.178 NA 
HETATM    9  N   UNL     1      -9.898   8.474  66.429  1.00  0.00    -0.266 NA 
HETATM   10  N   UNL     1      -9.973   8.399  67.752  1.00  0.00    -0.175 NA 
BRANCH   8  11
HETATM   11  C   UNL     1     -10.076   9.940  69.624  1.00  0.00    -0.230 C  
BRANCH  11  12
HETATM   12  C   UNL     1     -11.308   9.751  70.455  1.00  0.00    -0.382 A  
HETATM   13  C   UNL     1     -11.649   8.497  70.961  1.00  0.00    -0.279 A  
HETATM   14  C   UNL     1     -12.688   8.339  71.879  1.00  0.00    -0.373 A  
HETATM   15  F   UNL     1     -10.937   7.420  70.606  1.00  0.00    -0.238 F  
HETATM   16  C   UNL     1     -13.421   9.449  72.295  1.00  0.00    -0.539 A  
HETATM   17  C   UNL     1     -13.133  10.702  71.756  1.00  0.00    -0.571 A  
HETATM   18  C   UNL     1     -12.090  10.840  70.840  1.00  0.00    -0.370 A  
HETATM   19  F   UNL     1     -11.809  12.060  70.362  1.00  0.00    -0.394 F  
ENDBRANCH  11  12
ENDBRANCH   8  11
ENDBRANCH   2   6
TORSDOF 3
ENDMDL
MODEL      101
REMARK 921   NORMALIZED FREE ENERGY PREDICTED BY IDOCK:   -4.66 KCAL/MOL
REMARK 922        TOTAL FREE ENERGY PREDICTED BY IDOCK:   -5.89 KCAL/MOL
REMARK 923 INTER-LIGAND FREE ENERGY PREDICTED BY IDOCK:   -5.49 KCAL/MOL
REMARK 924 INTRA-LIGAND FREE ENERGY PREDICTED BY IDOCK:   -0.41 KCAL/MOL
REMARK 927      BINDING AFFINITY PREDICTED BY RF-SCORE:    0.00 PKD
ROOT
HETATM    1  N   UNL     1     -12.039  14.984  72.336  1.00  0.00    -0.353 N  
HETATM    2  C   UNL     1     -12.560  15.392  71.141  1.00  0.00    -0.422 C  
HETATM    3  H1  UNL     1     -11.030  14.938  72.485  1.00  0.00     0.000 HD 
HETATM    4  H2  UNL     1     -12.670  14.720  73.093  1.00  0.00     0.000 HD 
HETATM    5  O   UNL     1     -13.773  15.447  70.962  1.00  0.00    -0.473 OA 
ENDROOT
BRANCH   2   6
HETATM    6  C   UNL     1     -11.574  15.721  70.125  1.00  0.00    -0.357 A  
HETATM    7  C   UNL     1     -11.778  16.418  68.951  1.00  0.00    -0.059 A  
HETATM    8  N   UNL     1     -10.570  16.371  68.317  1.00  0.00    -0.302 NA 
HETATM    9  N   UNL     1     -10.256  15.326  70.181  1.00  0.00    -0.213 NA 
HETATM   10  N   UNL     1      -9.654  15.727  69.068  1.00  0.00    -0.226 NA 
BRANCH   8  11
HETATM   11  C   UNL     1     -10.306  16.640  66.915  1.00  0.00    -0.299 C  
BRANCH  11  12
HETATM   12  C   UNL     1      -9.439  17.836  66.668  1.00  0.00    -0.299 A  
HETATM   13  C   UNL     1      -9.907  19.126  66.916  1.00  0.00    -0.335 A  
HETATM   14  C   UNL     1      -9.058  20.232  66.861  1.00  0.00    -0.448 A  
HETATM   15  F   UNL     1     -11.185  19.316  67.268  1.00  0.00    -0.553 F  
HETATM   16  C   UNL     1      -7.713  20.059  66.536  1.00  0.00    -0.325 A  
HETATM   17  C   UNL     1      -7.241  18.785  66.227  1.00  0.00    -0.279 A  
HETATM   18  C   UNL     1      -8.106  17.691  66.288  1.00  0.00    -0.246 A  
HETATM   19  F   UNL     1      -7.621  16.471  66.021  1.00  0.00    -0.295 F  
ENDBRANCH  11  12
ENDBRANCH   8  11
ENDBRANCH   2   6
TORSDOF 3
ENDMDL
MODEL      102
REMARK 921   NORMALIZED FREE ENERGY PREDICTED BY IDOCK:   -4.66 KCAL/MOL
REMARK 922        TOTAL FREE ENERGY PREDICTED BY IDOCK:   -5.89 KCAL/MOL
REMARK 923 INTER-LIGAND FREE ENERGY PREDICTED BY IDOCK:   -5.53 KCAL/MOL
REMARK 924 INTRA-LIGAND FREE ENERGY PREDICTED BY IDOCK:   -0.36 KCAL/MOL
REMARK 927      BINDING AFFINITY PREDICTED BY RF-SCORE:    0.00 PKD
ROOT
HETATM    1  N   UNL     1     -10.097  20.162  68.173  1.00  0.00    -0.403 N  
HETATM    2  C   UNL     1      -8.989  19.373  68.301  1.00  0.00    -0.336 C  
HETATM    3  H1  UNL     1     -11.014  19.759  67.981  1.00  0.00     0.000 HD 
HETATM    4  H2  UNL     1     -10.005  21.173  68.272  1.00  0.00     0.000 HD 
HETATM    5  O   UNL     1      -7.886  19.858  68.533  1.00  0.00    -0.292 OA 
ENDROOT
BRANCH   2   6
HETATM    6  C   UNL     1      -9.227  17.951  68.119  1.00  0.00    -0.278 A  
HETATM    7  C   UNL     1      -8.469  17.059  67.387  1.00  0.00    -0.196 A  
HETATM    8  N   UNL     1      -9.166  15.887  67.458  1.00  0.00    -0.206 NA 
HETATM    9  N   UNL     1     -10.314  17.284  68.640  1.00  0.00    -0.339 NA 
HETATM   10  N   UNL     1     -10.266  16.024  68.226  1.00  0.00    -0.232 NA 
BRANCH   8  11
HETATM   11  C   UNL     1      -9.012  14.725  66.603  1.00  0.00    -0.255 C  
BRANCH  11  12
HETATM   12  C   UNL     1     -10.302  14.151  66.103  1.00  0.00    -0.304 A  
HETATM   13  C   UNL     1     -11.027  14.785  65.093  1.00  0.00    -0.393 A  
HETATM   14  C   UNL     1     -12.130  14.174  64.495  1.00  0.00    -0.489 A  
HETATM   15  F   UNL     1     -10.633  15.981  64.640  1.00  0.00    -0.405 F  
HETATM   16  C   UNL     1     -12.540  12.911  64.920  1.00  0.00    -0.525 A  
HETATM   17  C   UNL     1     -11.864  12.289  65.969  1.00  0.00    -0.409 A  
HETATM   18  C   UNL     1     -10.762  12.914  66.552  1.00  0.00    -0.269 A  
HETATM   19  F   UNL     1     -10.107  12.281  67.536  1.00  0.00    -0.195 F  
ENDBRANCH  11  12
ENDBRANCH   8  11
ENDBRANCH   2   6
TORSDOF 3
ENDMDL
MODEL      103
REMARK 921   NORMALIZED FREE ENERGY PREDICTED BY IDOCK:   -4.66 KCAL/MOL
REMARK 922        TOTAL FREE ENERGY PREDICTED BY IDOCK:   -5.89 KCAL/MOL
REMARK 923 INTER-LIGAND FREE ENERGY PREDICTED BY IDOCK:   -5.58 KCAL/MOL
REMARK 924 INTRA-LIGAND FREE ENERGY PREDICTED BY IDOCK:   -0.31 KCAL/MOL
REMARK 927      BINDING AFFINITY PREDICTED BY RF-SCORE:    0.00 PKD
ROOT
HETATM    1  N   UNL     1      -9.949  11.640  68.998  1.00  0.00    -0.413 N  
HETATM    2  C   UNL     1     -10.960  11.813  68.095  1.00  0.00    -0.228 C  
HETATM    3  H1  UNL     1      -9.338  12.413  69.262  1.00  0.00     0.000 HD 
HETATM    4  H2  UNL     1      -9.803  10.720  69.415  1.00  0.00     0.000 HD 
HETATM    5  O   UNL     1     -11.695  10.883  67.777  1.00  0.00    -0.569 OA 
ENDROOT
BRANCH   2   6
HETATM    6  C   UNL     1     -11.064  13.154  67.544  1.00  0.00    -0.271 A  
HETATM    7  C   UNL     1     -10.364  13.681  66.478  1.00  0.00    -0.282 A  
HETATM    8  N   UNL     1     -10.757  14.988  66.430  1.00  0.00    -0.315 NA 
HETATM    9  N   UNL     1     -11.881  14.133  68.064  1.00  0.00    -0.360 NA 
HETATM   10  N   UNL     1     -11.681  15.250  67.376  1.00  0.00    -0.203 NA 
BRANCH   8  11
HETATM   11  C   UNL     1     -10.094  16.076  65.735  1.00  0.00    -0.366 C  
BRANCH  11  12
HETATM   12  C   UNL     1      -9.538  17.136  66.636  1.00  0.00    -0.279 A  
HETATM   13  C   UNL     1     -10.018  18.445  66.587  1.00  0.00    -0.368 A  
HETATM   14  C   UNL     1      -9.639  19.396  67.536  1.00  0.00    -0.415 A  
HETATM   15  F   UNL     1     -10.904  18.795  65.646  1.00  0.00    -0.488 F  
HETATM   16  C   UNL     1      -8.748  19.048  68.549  1.00  0.00    -0.392 A  
HETATM   17  C   UNL     1      -8.212  17.761  68.579  1.00  0.00    -0.296 A  
HETATM   18  C   UNL     1      -8.604  16.824  67.623  1.00  0.00    -0.206 A  
HETATM   19  F   UNL     1      -8.102  15.583  67.692  1.00  0.00    -0.127 F  
ENDBRANCH  11  12
ENDBRANCH   8  11
ENDBRANCH   2   6
TORSDOF 3
ENDMDL
MODEL      104
REMARK 921   NORMALIZED FREE ENERGY PREDICTED BY IDOCK:   -4.66 KCAL/MOL
REMARK 922        TOTAL FREE ENERGY PREDICTED BY IDOCK:   -5.89 KCAL/MOL
REMARK 923 INTER-LIGAND FREE ENERGY PREDICTED BY IDOCK:   -5.58 KCAL/MOL
REMARK 924 INTRA-LIGAND FREE ENERGY PREDICTED BY IDOCK:   -0.30 KCAL/MOL
REMARK 927      BINDING AFFINITY PREDICTED BY RF-SCORE:    0.00 PKD
ROOT
HETATM    1  N   UNL     1     -13.890  15.343  70.759  1.00  0.00    -0.860 N  
HETATM    2  C   UNL     1     -12.759  14.677  70.383  1.00  0.00    -0.316 C  
HETATM    3  H1  UNL     1     -14.072  16.297  70.446  1.00  0.00     0.000 HD 
HETATM    4  H2  UNL     1     -14.567  14.878  71.365  1.00  0.00     0.000 HD 
HETATM    5  O   UNL     1     -12.541  13.530  70.760  1.00  0.00    -0.337 OA 
ENDROOT
BRANCH   2   6
HETATM    6  C   UNL     1     -11.852  15.440  69.541  1.00  0.00    -0.349 A  
HETATM    7  C   UNL     1     -11.006  16.460  69.926  1.00  0.00    -0.338 A  
HETATM    8  N   UNL     1     -10.453  16.899  68.756  1.00  0.00    -0.322 NA 
HETATM    9  N   UNL     1     -11.745  15.267  68.179  1.00  0.00    -0.330 NA 
HETATM   10  N   UNL     1     -10.889  16.167  67.711  1.00  0.00    -0.327 NA 
BRANCH   8  11
HETATM   11  C   UNL     1      -9.766  18.156  68.531  1.00  0.00    -0.362 C  
BRANCH  11  12
HETATM   12  C   UNL     1      -8.452  18.024  67.823  1.00  0.00    -0.247 A  
HETATM   13  C   UNL     1      -7.443  17.205  68.329  1.00  0.00    -0.217 A  
HETATM   14  C   UNL     1      -6.288  16.933  67.593  1.00  0.00    -0.166 A  
HETATM   15  F   UNL     1      -7.596  16.617  69.522  1.00  0.00    -0.233 F  
HETATM   16  C   UNL     1      -6.119  17.501  66.331  1.00  0.00    -0.259 A  
HETATM   17  C   UNL     1      -7.091  18.369  65.835  1.00  0.00    -0.290 A  
HETATM   18  C   UNL     1      -8.238  18.627  66.585  1.00  0.00    -0.278 A  
HETATM   19  F   UNL     1      -9.174  19.438  66.072  1.00  0.00    -0.349 F  
ENDBRANCH  11  12
ENDBRANCH   8  11
ENDBRANCH   2   6
TORSDOF 3
ENDMDL
MODEL      105
REMARK 921   NORMALIZED FREE ENERGY PREDICTED BY IDOCK:   -4.62 KCAL/MOL
REMARK 922        TOTAL FREE ENERGY PREDICTED BY IDOCK:   -5.84 KCAL/MOL
REMARK 923 INTER-LIGAND FREE ENERGY PREDICTED BY IDOCK:   -5.46 KCAL/MOL
REMARK 924 INTRA-LIGAND FREE ENERGY PREDICTED BY IDOCK:   -0.37 KCAL/MOL
REMARK 927      BINDING AFFINITY PREDICTED BY RF-SCORE:    0.00 PKD
ROOT
HETATM    1  N   UNL     1      -8.756  19.424  68.574  1.00  0.00    -0.362 N  
HETATM    2  C   UNL     1      -7.810  18.718  67.887  1.00  0.00    -0.262 C  
HETATM    3  H1  UNL     1      -9.748  19.204  68.486  1.00  0.00     0.000 HD 
HETATM    4  H2  UNL     1      -8.465  20.185  69.188  1.00  0.00     0.000 HD 
HETATM    5  O   UNL     1      -6.616  18.983  67.993  1.00  0.00    -0.220 OA 
ENDROOT
BRANCH   2   6
HETATM    6  C   UNL     1      -8.335  17.673  67.023  1.00  0.00    -0.221 A  
HETATM    7  C   UNL     1      -9.549  17.656  66.368  1.00  0.00    -0.274 A  
HETATM    8  N   UNL     1      -9.597  16.426  65.777  1.00  0.00    -0.500 NA 
HETATM    9  N   UNL     1      -7.679  16.490  66.769  1.00  0.00    -0.230 NA 
HETATM   10  N   UNL     1      -8.462  15.735  66.008  1.00  0.00    -0.090 NA 
BRANCH   8  11
HETATM   11  C   UNL     1     -10.770  15.750  65.256  1.00  0.00    -0.428 C  
BRANCH  11  12
HETATM   12  C   UNL     1     -11.169  14.526  66.022  1.00  0.00    -0.337 A  
HETATM   13  C   UNL     1     -11.059  13.256  65.456  1.00  0.00    -0.281 A  
HETATM   14  C   UNL     1     -11.256  12.101  66.214  1.00  0.00    -0.382 A  
HETATM   15  F   UNL     1     -10.704  13.128  64.171  1.00  0.00    -0.359 F  
HETATM   16  C   UNL     1     -11.589  12.205  67.563  1.00  0.00    -0.413 A  
HETATM   17  C   UNL     1     -11.760  13.466  68.132  1.00  0.00    -0.397 A  
HETATM   18  C   UNL     1     -11.558  14.609  67.358  1.00  0.00    -0.389 A  
HETATM   19  F   UNL     1     -11.695  15.811  67.936  1.00  0.00    -0.319 F  
ENDBRANCH  11  12
ENDBRANCH   8  11
ENDBRANCH   2   6
TORSDOF 3
ENDMDL
MODEL      106
REMARK 921   NORMALIZED FREE ENERGY PREDICTED BY IDOCK:   -4.60 KCAL/MOL
REMARK 922        TOTAL FREE ENERGY PREDICTED BY IDOCK:   -5.82 KCAL/MOL
REMARK 923 INTER-LIGAND FREE ENERGY PREDICTED BY IDOCK:   -5.41 KCAL/MOL
REMARK 924 INTRA-LIGAND FREE ENERGY PREDICTED BY IDOCK:   -0.41 KCAL/MOL
REMARK 927      BINDING AFFINITY PREDICTED BY RF-SCORE:    0.00 PKD
ROOT
HETATM    1  N   UNL     1      -8.899  12.026  68.703  1.00  0.00    -0.367 N  
HETATM    2  C   UNL     1     -10.087  12.407  68.147  1.00  0.00    -0.224 C  
HETATM    3  H1  UNL     1      -8.205  12.716  68.993  1.00  0.00     0.000 HD 
HETATM    4  H2  UNL     1      -8.702  11.033  68.831  1.00  0.00     0.000 HD 
HETATM    5  O   UNL     1     -10.921  11.578  67.799  1.00  0.00    -0.207 OA 
ENDROOT
BRANCH   2   6
HETATM    6  C   UNL     1     -10.254  13.843  67.988  1.00  0.00    -0.246 A  
HETATM    7  C   UNL     1      -9.797  14.839  68.826  1.00  0.00    -0.227 A  
HETATM    8  N   UNL     1     -10.294  15.990  68.285  1.00  0.00    -0.253 NA 
HETATM    9  N   UNL     1     -10.959  14.421  66.957  1.00  0.00    -0.298 NA 
HETATM   10  N   UNL     1     -10.979  15.734  67.151  1.00  0.00    -0.288 NA 
BRANCH   8  11
HETATM   11  C   UNL     1     -10.412  17.283  68.932  1.00  0.00    -0.327 C  
BRANCH  11  12
HETATM   12  C   UNL     1      -9.536  18.348  68.348  1.00  0.00    -0.366 A  
HETATM   13  C   UNL     1     -10.074  19.374  67.571  1.00  0.00    -0.398 A  
HETATM   14  C   UNL     1      -9.302  20.466  67.171  1.00  0.00    -0.537 A  
HETATM   15  F   UNL     1     -11.371  19.349  67.239  1.00  0.00    -0.542 F  
HETATM   16  C   UNL     1      -7.958  20.537  67.535  1.00  0.00    -0.306 A  
HETATM   17  C   UNL     1      -7.389  19.493  68.262  1.00  0.00    -0.346 A  
HETATM   18  C   UNL     1      -8.177  18.410  68.653  1.00  0.00    -0.294 A  
HETATM   19  F   UNL     1      -7.616  17.434  69.381  1.00  0.00    -0.187 F  
ENDBRANCH  11  12
ENDBRANCH   8  11
ENDBRANCH   2   6
TORSDOF 3
ENDMDL
MODEL      107
REMARK 921   NORMALIZED FREE ENERGY PREDICTED BY IDOCK:   -4.56 KCAL/MOL
REMARK 922        TOTAL FREE ENERGY PREDICTED BY IDOCK:   -5.77 KCAL/MOL
REMARK 923 INTER-LIGAND FREE ENERGY PREDICTED BY IDOCK:   -5.35 KCAL/MOL
REMARK 924 INTRA-LIGAND FREE ENERGY PREDICTED BY IDOCK:   -0.42 KCAL/MOL
REMARK 927      BINDING AFFINITY PREDICTED BY RF-SCORE:    0.00 PKD
ROOT
HETATM    1  N   UNL     1      -7.097  21.340  67.284  1.00  0.00    -0.470 N  
HETATM    2  C   UNL     1      -6.694  20.451  66.329  1.00  0.00    -0.241 C  
HETATM    3  H1  UNL     1      -7.979  21.217  67.783  1.00  0.00     0.000 HD 
HETATM    4  H2  UNL     1      -6.506  22.143  67.503  1.00  0.00     0.000 HD 
HETATM    5  O   UNL     1      -5.634  20.599  65.729  1.00  0.00    -0.183 OA 
ENDROOT
BRANCH   2   6
HETATM    6  C   UNL     1      -7.621  19.359  66.080  1.00  0.00    -0.293 A  
HETATM    7  C   UNL     1      -9.000  19.408  66.098  1.00  0.00    -0.283 A  
HETATM    8  N   UNL     1      -9.386  18.113  65.898  1.00  0.00    -0.492 NA 
HETATM    9  N   UNL     1      -7.227  18.065  65.824  1.00  0.00    -0.520 NA 
HETATM   10  N   UNL     1      -8.316  17.313  65.718  1.00  0.00    -0.494 NA 
BRANCH   8  11
HETATM   11  C   UNL     1     -10.691  17.539  66.162  1.00  0.00    -0.098 C  
BRANCH  11  12
HETATM   12  C   UNL     1     -10.700  16.488  67.229  1.00  0.00    -0.243 A  
HETATM   13  C   UNL     1     -10.756  15.133  66.902  1.00  0.00    -0.308 A  
HETATM   14  C   UNL     1     -10.586  14.142  67.871  1.00  0.00    -0.244 A  
HETATM   15  F   UNL     1     -10.924  14.761  65.627  1.00  0.00    -0.303 F  
HETATM   16  C   UNL     1     -10.371  14.501  69.200  1.00  0.00    -0.197 A  
HETATM   17  C   UNL     1     -10.370  15.849  69.555  1.00  0.00    -0.277 A  
HETATM   18  C   UNL     1     -10.541  16.825  68.572  1.00  0.00    -0.354 A  
HETATM   19  F   UNL     1     -10.502  18.115  68.931  1.00  0.00    -0.354 F  
ENDBRANCH  11  12
ENDBRANCH   8  11
ENDBRANCH   2   6
TORSDOF 3
ENDMDL
MODEL      108
REMARK 921   NORMALIZED FREE ENERGY PREDICTED BY IDOCK:   -4.55 KCAL/MOL
REMARK 922        TOTAL FREE ENERGY PREDICTED BY IDOCK:   -5.76 KCAL/MOL
REMARK 923 INTER-LIGAND FREE ENERGY PREDICTED BY IDOCK:   -5.55 KCAL/MOL
REMARK 924 INTRA-LIGAND FREE ENERGY PREDICTED BY IDOCK:   -0.21 KCAL/MOL
REMARK 927      BINDING AFFINITY PREDICTED BY RF-SCORE:    0.00 PKD
ROOT
HETATM    1  N   UNL     1      -7.754  20.374  65.747  1.00  0.00    -0.542 N  
HETATM    2  C   UNL     1      -7.419  19.055  65.870  1.00  0.00    -0.224 C  
HETATM    3  H1  UNL     1      -8.471  20.794  66.339  1.00  0.00     0.000 HD 
HETATM    4  H2  UNL     1      -7.279  20.948  65.050  1.00  0.00     0.000 HD 
HETATM    5  O   UNL     1      -6.557  18.549  65.158  1.00  0.00    -0.479 OA 
ENDROOT
BRANCH   2   6
HETATM    6  C   UNL     1      -8.172  18.324  66.875  1.00  0.00    -0.247 A  
HETATM    7  C   UNL     1      -9.538  18.131  66.925  1.00  0.00    -0.299 A  
HETATM    8  N   UNL     1      -9.742  17.470  68.102  1.00  0.00    -0.289 NA 
HETATM    9  N   UNL     1      -7.602  17.738  67.983  1.00  0.00    -0.229 NA 
HETATM   10  N   UNL     1      -8.573  17.221  68.726  1.00  0.00    -0.261 NA 
BRANCH   8  11
HETATM   11  C   UNL     1     -10.997  17.320  68.816  1.00  0.00    -0.040 C  
BRANCH  11  12
HETATM   12  C   UNL     1     -11.294  15.919  69.256  1.00  0.00    -0.355 A  
HETATM   13  C   UNL     1     -11.682  15.645  70.567  1.00  0.00    -0.366 A  
HETATM   14  C   UNL     1     -12.132  14.379  70.944  1.00  0.00    -0.414 A  
HETATM   15  F   UNL     1     -11.678  16.623  71.482  1.00  0.00    -0.453 F  
HETATM   16  C   UNL     1     -12.183  13.352  70.003  1.00  0.00    -0.367 A  
HETATM   17  C   UNL     1     -11.743  13.592  68.702  1.00  0.00    -0.389 A  
HETATM   18  C   UNL     1     -11.298  14.864  68.344  1.00  0.00    -0.303 A  
HETATM   19  F   UNL     1     -10.913  15.080  67.079  1.00  0.00    -0.291 F  
ENDBRANCH  11  12
ENDBRANCH   8  11
ENDBRANCH   2   6
TORSDOF 3
ENDMDL
MODEL      109
REMARK 921   NORMALIZED FREE ENERGY PREDICTED BY IDOCK:   -4.52 KCAL/MOL
REMARK 922        TOTAL FREE ENERGY PREDICTED BY IDOCK:   -5.72 KCAL/MOL
REMARK 923 INTER-LIGAND FREE ENERGY PREDICTED BY IDOCK:   -5.30 KCAL/MOL
REMARK 924 INTRA-LIGAND FREE ENERGY PREDICTED BY IDOCK:   -0.42 KCAL/MOL
REMARK 927      BINDING AFFINITY PREDICTED BY RF-SCORE:    0.00 PKD
ROOT
HETATM    1  N   UNL     1     -14.407  15.106  71.370  1.00  0.00    -0.647 N  
HETATM    2  C   UNL     1     -13.174  14.702  71.799  1.00  0.00    -0.350 C  
HETATM    3  H1  UNL     1     -14.568  15.370  70.398  1.00  0.00     0.000 HD 
HETATM    4  H2  UNL     1     -15.180  15.144  72.034  1.00  0.00     0.000 HD 
HETATM    5  O   UNL     1     -12.980  14.384  72.968  1.00  0.00    -0.500 OA 
ENDROOT
BRANCH   2   6
HETATM    6  C   UNL     1     -12.140  14.708  70.777  1.00  0.00    -0.320 A  
HETATM    7  C   UNL     1     -10.998  15.482  70.743  1.00  0.00    -0.325 A  
HETATM    8  N   UNL     1     -10.421  15.179  69.543  1.00  0.00    -0.254 NA 
HETATM    9  N   UNL     1     -12.187  13.938  69.637  1.00  0.00    -0.338 NA 
HETATM   10  N   UNL     1     -11.132  14.237  68.889  1.00  0.00    -0.251 NA 
BRANCH   8  11
HETATM   11  C   UNL     1      -9.400  15.938  68.845  1.00  0.00    -0.233 C  
BRANCH  11  12
HETATM   12  C   UNL     1      -9.932  16.895  67.823  1.00  0.00    -0.278 A  
HETATM   13  C   UNL     1     -10.468  18.126  68.201  1.00  0.00    -0.349 A  
HETATM   14  C   UNL     1     -10.802  19.096  67.255  1.00  0.00    -0.529 A  
HETATM   15  F   UNL     1     -10.621  18.416  69.499  1.00  0.00    -0.105 F  
HETATM   16  C   UNL     1     -10.617  18.836  65.898  1.00  0.00    -0.405 A  
HETATM   17  C   UNL     1     -10.138  17.589  65.499  1.00  0.00     0.149 A  
HETATM   18  C   UNL     1      -9.809  16.632  66.459  1.00  0.00    -0.281 A  
HETATM   19  F   UNL     1      -9.318  15.454  66.053  1.00  0.00    -0.287 F  
ENDBRANCH  11  12
ENDBRANCH   8  11
ENDBRANCH   2   6
TORSDOF 3
ENDMDL
MODEL      110
REMARK 921   NORMALIZED FREE ENERGY PREDICTED BY IDOCK:   -4.52 KCAL/MOL
REMARK 922        TOTAL FREE ENERGY PREDICTED BY IDOCK:   -5.72 KCAL/MOL
REMARK 923 INTER-LIGAND FREE ENERGY PREDICTED BY IDOCK:   -5.39 KCAL/MOL
REMARK 924 INTRA-LIGAND FREE ENERGY PREDICTED BY IDOCK:   -0.33 KCAL/MOL
REMARK 927      BINDING AFFINITY PREDICTED BY RF-SCORE:    0.00 PKD
ROOT
HETATM    1  N   UNL     1     -11.468  14.083  65.848  1.00  0.00    -0.322 N  
HETATM    2  C   UNL     1     -11.965  12.811  65.866  1.00  0.00    -0.449 C  
HETATM    3  H1  UNL     1     -10.764  14.385  66.522  1.00  0.00     0.000 HD 
HETATM    4  H2  UNL     1     -11.806  14.743  65.147  1.00  0.00     0.000 HD 
HETATM    5  O   UNL     1     -12.812  12.447  65.056  1.00  0.00    -0.673 OA 
ENDROOT
BRANCH   2   6
HETATM    6  C   UNL     1     -11.434  11.962  66.920  1.00  0.00    -0.322 A  
HETATM    7  C   UNL     1     -10.186  11.373  66.974  1.00  0.00    -0.213 A  
HETATM    8  N   UNL     1     -10.223  10.612  68.107  1.00  0.00    -0.162 NA 
HETATM    9  N   UNL     1     -12.151  11.581  68.031  1.00  0.00    -0.598 NA 
HETATM   10  N   UNL     1     -11.401  10.753  68.747  1.00  0.00    -0.269 NA 
BRANCH   8  11
HETATM   11  C   UNL     1      -9.323   9.531  68.464  1.00  0.00    -0.137 C  
BRANCH  11  12
HETATM   12  C   UNL     1      -9.989   8.369  69.136  1.00  0.00    -0.197 A  
HETATM   13  C   UNL     1     -10.648   7.390  68.393  1.00  0.00    -0.152 A  
HETATM   14  C   UNL     1     -11.116   6.217  68.986  1.00  0.00    -0.437 A  
HETATM   15  F   UNL     1     -10.794   7.543  67.070  1.00  0.00    -0.383 F  
HETATM   16  C   UNL     1     -10.943   6.014  70.354  1.00  0.00    -0.399 A  
HETATM   17  C   UNL     1     -10.339   7.008  71.124  1.00  0.00    -0.222 A  
HETATM   18  C   UNL     1      -9.877   8.173  70.512  1.00  0.00    -0.186 A  
HETATM   19  F   UNL     1      -9.269   9.099  71.266  1.00  0.00    -0.269 F  
ENDBRANCH  11  12
ENDBRANCH   8  11
ENDBRANCH   2   6
TORSDOF 3
ENDMDL
MODEL      111
REMARK 921   NORMALIZED FREE ENERGY PREDICTED BY IDOCK:   -4.51 KCAL/MOL
REMARK 922        TOTAL FREE ENERGY PREDICTED BY IDOCK:   -5.71 KCAL/MOL
REMARK 923 INTER-LIGAND FREE ENERGY PREDICTED BY IDOCK:   -5.28 KCAL/MOL
REMARK 924 INTRA-LIGAND FREE ENERGY PREDICTED BY IDOCK:   -0.43 KCAL/MOL
REMARK 927      BINDING AFFINITY PREDICTED BY RF-SCORE:    0.00 PKD
ROOT
HETATM    1  N   UNL     1     -13.635   9.129  72.645  1.00  0.00    -0.752 N  
HETATM    2  C   UNL     1     -12.396   8.811  72.165  1.00  0.00    -0.389 C  
HETATM    3  H1  UNL     1     -14.201   9.856  72.207  1.00  0.00     0.000 HD 
HETATM    4  H2  UNL     1     -14.001   8.629  73.456  1.00  0.00     0.000 HD 
HETATM    5  O   UNL     1     -11.715   7.936  72.691  1.00  0.00    -0.370 OA 
ENDROOT
BRANCH   2   6
HETATM    6  C   UNL     1     -11.962   9.599  71.023  1.00  0.00    -0.343 A  
HETATM    7  C   UNL     1     -12.249  10.923  70.759  1.00  0.00    -0.383 A  
HETATM    8  N   UNL     1     -11.691  11.151  69.534  1.00  0.00    -0.303 NA 
HETATM    9  N   UNL     1     -11.210   9.094  69.986  1.00  0.00    -0.199 NA 
HETATM   10  N   UNL     1     -11.054  10.052  69.081  1.00  0.00    -0.215 NA 
BRANCH   8  11
HETATM   11  C   UNL     1     -11.976  12.252  68.633  1.00  0.00    -0.227 C  
BRANCH  11  12
HETATM   12  C   UNL     1     -11.046  13.418  68.770  1.00  0.00    -0.297 A  
HETATM   13  C   UNL     1     -11.380  14.515  69.564  1.00  0.00    -0.275 A  
HETATM   14  C   UNL     1     -10.455  15.522  69.843  1.00  0.00    -0.323 A  
HETATM   15  F   UNL     1     -12.595  14.588  70.123  1.00  0.00    -0.363 F  
HETATM   16  C   UNL     1      -9.170  15.451  69.306  1.00  0.00    -0.259 A  
HETATM   17  C   UNL     1      -8.837  14.393  68.462  1.00  0.00    -0.182 A  
HETATM   18  C   UNL     1      -9.775  13.396  68.197  1.00  0.00    -0.226 A  
HETATM   19  F   UNL     1      -9.421  12.370  67.410  1.00  0.00    -0.175 F  
ENDBRANCH  11  12
ENDBRANCH   8  11
ENDBRANCH   2   6
TORSDOF 3
ENDMDL
MODEL      112
REMARK 921   NORMALIZED FREE ENERGY PREDICTED BY IDOCK:   -4.50 KCAL/MOL
REMARK 922        TOTAL FREE ENERGY PREDICTED BY IDOCK:   -5.70 KCAL/MOL
REMARK 923 INTER-LIGAND FREE ENERGY PREDICTED BY IDOCK:   -5.23 KCAL/MOL
REMARK 924 INTRA-LIGAND FREE ENERGY PREDICTED BY IDOCK:   -0.46 KCAL/MOL
REMARK 927      BINDING AFFINITY PREDICTED BY RF-SCORE:    0.00 PKD
ROOT
HETATM    1  N   UNL     1      -8.182  16.997  66.470  1.00  0.00    -0.252 N  
HETATM    2  C   UNL     1      -8.139  15.686  66.852  1.00  0.00    -0.255 C  
HETATM    3  H1  UNL     1      -9.026  17.403  66.065  1.00  0.00     0.000 HD 
HETATM    4  H2  UNL     1      -7.354  17.581  66.592  1.00  0.00     0.000 HD 
HETATM    5  O   UNL     1      -7.124  15.198  67.339  1.00  0.00    -0.191 OA 
ENDROOT
BRANCH   2   6
HETATM    6  C   UNL     1      -9.363  14.940  66.613  1.00  0.00    -0.268 A  
HETATM    7  C   UNL     1      -9.568  13.585  66.783  1.00  0.00    -0.267 A  
HETATM    8  N   UNL     1     -10.841  13.378  66.334  1.00  0.00    -0.288 NA 
HETATM    9  N   UNL     1     -10.520  15.504  66.122  1.00  0.00    -0.301 NA 
HETATM   10  N   UNL     1     -11.414  14.538  65.954  1.00  0.00    -0.342 NA 
BRANCH   8  11
HETATM   11  C   UNL     1     -11.444  12.111  65.967  1.00  0.00    -0.370 C  
BRANCH  11  12
HETATM   12  C   UNL     1     -10.624  11.286  65.024  1.00  0.00    -0.353 A  
HETATM   13  C   UNL     1     -10.510  11.634  63.678  1.00  0.00    -0.429 A  
HETATM   14  C   UNL     1      -9.612  10.983  62.831  1.00  0.00    -0.369 A  
HETATM   15  F   UNL     1     -11.234  12.648  63.188  1.00  0.00    -0.507 F  
HETATM   16  C   UNL     1      -8.817   9.949  63.324  1.00  0.00    -0.257 A  
HETATM   17  C   UNL     1      -8.959   9.549  64.652  1.00  0.00    -0.266 A  
HETATM   18  C   UNL     1      -9.862  10.213  65.483  1.00  0.00    -0.298 A  
HETATM   19  F   UNL     1      -9.956   9.833  66.765  1.00  0.00    -0.220 F  
ENDBRANCH  11  12
ENDBRANCH   8  11
ENDBRANCH   2   6
TORSDOF 3
ENDMDL
MODEL      113
REMARK 921   NORMALIZED FREE ENERGY PREDICTED BY IDOCK:   -4.49 KCAL/MOL
REMARK 922        TOTAL FREE ENERGY PREDICTED BY IDOCK:   -5.69 KCAL/MOL
REMARK 923 INTER-LIGAND FREE ENERGY PREDICTED BY IDOCK:   -5.31 KCAL/MOL
REMARK 924 INTRA-LIGAND FREE ENERGY PREDICTED BY IDOCK:   -0.38 KCAL/MOL
REMARK 927      BINDING AFFINITY PREDICTED BY RF-SCORE:    0.00 PKD
ROOT
HETATM    1  N   UNL     1      -7.954  17.146  66.293  1.00  0.00    -0.302 N  
HETATM    2  C   UNL     1      -9.226  16.767  65.969  1.00  0.00    -0.201 C  
HETATM    3  H1  UNL     1      -7.255  16.460  66.580  1.00  0.00     0.000 HD 
HETATM    4  H2  UNL     1      -7.699  18.132  66.248  1.00  0.00     0.000 HD 
HETATM    5  O   UNL     1     -10.067  17.592  65.624  1.00  0.00    -0.575 OA 
ENDROOT
BRANCH   2   6
HETATM    6  C   UNL     1      -9.490  15.343  66.090  1.00  0.00    -0.336 A  
HETATM    7  C   UNL     1     -10.634  14.666  65.719  1.00  0.00    -0.320 A  
HETATM    8  N   UNL     1     -10.413  13.382  66.127  1.00  0.00    -0.290 NA 
HETATM    9  N   UNL     1      -8.610  14.448  66.657  1.00  0.00    -0.108 NA 
HETATM   10  N   UNL     1      -9.188  13.253  66.676  1.00  0.00    -0.242 NA 
BRANCH   8  11
HETATM   11  C   UNL     1     -11.403  12.335  66.299  1.00  0.00    -0.345 C  
BRANCH  11  12
HETATM   12  C   UNL     1     -11.447  11.745  67.675  1.00  0.00    -0.370 A  
HETATM   13  C   UNL     1     -10.973  10.456  67.919  1.00  0.00    -0.297 A  
HETATM   14  C   UNL     1     -10.842   9.961  69.217  1.00  0.00    -0.255 A  
HETATM   15  F   UNL     1     -10.581   9.685  66.897  1.00  0.00    -0.299 F  
HETATM   16  C   UNL     1     -11.206  10.757  70.303  1.00  0.00    -0.326 A  
HETATM   17  C   UNL     1     -11.737  12.026  70.075  1.00  0.00    -0.346 A  
HETATM   18  C   UNL     1     -11.859  12.502  68.770  1.00  0.00    -0.303 A  
HETATM   19  F   UNL     1     -12.339  13.739  68.578  1.00  0.00    -0.399 F  
ENDBRANCH  11  12
ENDBRANCH   8  11
ENDBRANCH   2   6
TORSDOF 3
ENDMDL
MODEL      114
REMARK 921   NORMALIZED FREE ENERGY PREDICTED BY IDOCK:   -4.48 KCAL/MOL
REMARK 922        TOTAL FREE ENERGY PREDICTED BY IDOCK:   -5.68 KCAL/MOL
REMARK 923 INTER-LIGAND FREE ENERGY PREDICTED BY IDOCK:   -5.51 KCAL/MOL
REMARK 924 INTRA-LIGAND FREE ENERGY PREDICTED BY IDOCK:   -0.17 KCAL/MOL
REMARK 927      BINDING AFFINITY PREDICTED BY RF-SCORE:    0.00 PKD
ROOT
HETATM    1  N   UNL     1     -13.440  15.755  73.430  1.00  0.00    -0.688 N  
HETATM    2  C   UNL     1     -13.353  14.661  72.616  1.00  0.00    -0.482 C  
HETATM    3  H1  UNL     1     -12.933  16.614  73.218  1.00  0.00     0.000 HD 
HETATM    4  H2  UNL     1     -14.024  15.711  74.266  1.00  0.00     0.000 HD 
HETATM    5  O   UNL     1     -13.963  13.628  72.871  1.00  0.00    -0.630 OA 
ENDROOT
BRANCH   2   6
HETATM    6  C   UNL     1     -12.477  14.823  71.468  1.00  0.00    -0.339 A  
HETATM    7  C   UNL     1     -11.116  15.055  71.476  1.00  0.00    -0.061 A  
HETATM    8  N   UNL     1     -10.795  15.222  70.159  1.00  0.00    -0.281 NA 
HETATM    9  N   UNL     1     -12.915  14.808  70.163  1.00  0.00    -0.147 NA 
HETATM   10  N   UNL     1     -11.878  15.056  69.373  1.00  0.00    -0.318 NA 
BRANCH   8  11
HETATM   11  C   UNL     1      -9.587  15.819  69.622  1.00  0.00    -0.233 C  
BRANCH  11  12
HETATM   12  C   UNL     1      -9.721  16.331  68.221  1.00  0.00    -0.222 A  
HETATM   13  C   UNL     1      -9.590  15.476  67.127  1.00  0.00    -0.222 A  
HETATM   14  C   UNL     1      -9.888  15.899  65.831  1.00  0.00    -0.383 A  
HETATM   15  F   UNL     1      -9.222  14.202  67.317  1.00  0.00    -0.187 F  
HETATM   16  C   UNL     1     -10.310  17.209  65.608  1.00  0.00    -0.198 A  
HETATM   17  C   UNL     1     -10.390  18.095  66.681  1.00  0.00    -0.387 A  
HETATM   18  C   UNL     1     -10.090  17.652  67.970  1.00  0.00    -0.343 A  
HETATM   19  F   UNL     1     -10.208  18.513  68.990  1.00  0.00    -0.384 F  
ENDBRANCH  11  12
ENDBRANCH   8  11
ENDBRANCH   2   6
TORSDOF 3
ENDMDL
MODEL      115
REMARK 921   NORMALIZED FREE ENERGY PREDICTED BY IDOCK:   -4.48 KCAL/MOL
REMARK 922        TOTAL FREE ENERGY PREDICTED BY IDOCK:   -5.68 KCAL/MOL
REMARK 923 INTER-LIGAND FREE ENERGY PREDICTED BY IDOCK:   -5.31 KCAL/MOL
REMARK 924 INTRA-LIGAND FREE ENERGY PREDICTED BY IDOCK:   -0.37 KCAL/MOL
REMARK 927      BINDING AFFINITY PREDICTED BY RF-SCORE:    0.00 PKD
ROOT
HETATM    1  N   UNL     1     -11.646  11.576  68.380  1.00  0.00    -0.293 N  
HETATM    2  C   UNL     1     -11.742  12.463  67.345  1.00  0.00    -0.347 C  
HETATM    3  H1  UNL     1     -11.316  11.871  69.300  1.00  0.00     0.000 HD 
HETATM    4  H2  UNL     1     -11.909  10.602  68.230  1.00  0.00     0.000 HD 
HETATM    5  O   UNL     1     -12.138  12.110  66.239  1.00  0.00    -0.626 OA 
ENDROOT
BRANCH   2   6
HETATM    6  C   UNL     1     -11.320  13.818  67.661  1.00  0.00    -0.304 A  
HETATM    7  C   UNL     1     -10.049  14.347  67.558  1.00  0.00    -0.232 A  
HETATM    8  N   UNL     1     -10.169  15.611  68.060  1.00  0.00    -0.225 NA 
HETATM    9  N   UNL     1     -12.161  14.783  68.167  1.00  0.00    -0.209 NA 
HETATM   10  N   UNL     1     -11.444  15.874  68.409  1.00  0.00    -0.367 NA 
BRANCH   8  11
HETATM   11  C   UNL     1      -9.096  16.482  68.504  1.00  0.00    -0.231 C  
BRANCH  11  12
HETATM   12  C   UNL     1      -9.196  17.890  68.002  1.00  0.00    -0.267 A  
HETATM   13  C   UNL     1      -8.830  18.215  66.696  1.00  0.00    -0.275 A  
HETATM   14  C   UNL     1      -9.084  19.479  66.161  1.00  0.00    -0.349 A  
HETATM   15  F   UNL     1      -8.271  17.287  65.909  1.00  0.00    -0.293 F  
HETATM   16  C   UNL     1      -9.701  20.453  66.945  1.00  0.00    -0.567 A  
HETATM   17  C   UNL     1     -10.020  20.165  68.271  1.00  0.00    -0.452 A  
HETATM   18  C   UNL     1      -9.759  18.895  68.787  1.00  0.00    -0.400 A  
HETATM   19  F   UNL     1     -10.106  18.631  70.054  1.00  0.00     0.128 F  
ENDBRANCH  11  12
ENDBRANCH   8  11
ENDBRANCH   2   6
TORSDOF 3
ENDMDL
MODEL      116
REMARK 921   NORMALIZED FREE ENERGY PREDICTED BY IDOCK:   -4.47 KCAL/MOL
REMARK 922        TOTAL FREE ENERGY PREDICTED BY IDOCK:   -5.67 KCAL/MOL
REMARK 923 INTER-LIGAND FREE ENERGY PREDICTED BY IDOCK:   -5.25 KCAL/MOL
REMARK 924 INTRA-LIGAND FREE ENERGY PREDICTED BY IDOCK:   -0.42 KCAL/MOL
REMARK 927      BINDING AFFINITY PREDICTED BY RF-SCORE:    0.00 PKD
ROOT
HETATM    1  N   UNL     1     -12.330  10.690  69.480  1.00  0.00    -0.548 N  
HETATM    2  C   UNL     1     -11.794  11.450  68.479  1.00  0.00    -0.294 C  
HETATM    3  H1  UNL     1     -12.435  11.058  70.425  1.00  0.00     0.000 HD 
HETATM    4  H2  UNL     1     -12.630   9.736  69.277  1.00  0.00     0.000 HD 
HETATM    5  O   UNL     1     -11.668  11.007  67.341  1.00  0.00    -0.539 OA 
ENDROOT
BRANCH   2   6
HETATM    6  C   UNL     1     -11.378  12.784  68.881  1.00  0.00    -0.296 A  
HETATM    7  C   UNL     1     -10.291  13.499  68.419  1.00  0.00    -0.248 A  
HETATM    8  N   UNL     1     -10.292  14.637  69.174  1.00  0.00    -0.236 NA 
HETATM    9  N   UNL     1     -12.017  13.525  69.849  1.00  0.00    -0.335 NA 
HETATM   10  N   UNL     1     -11.342  14.655  70.021  1.00  0.00    -0.256 NA 
BRANCH   8  11
HETATM   11  C   UNL     1      -9.196  15.570  69.351  1.00  0.00    -0.280 C  
BRANCH  11  12
HETATM   12  C   UNL     1      -9.076  16.596  68.265  1.00  0.00    -0.218 A  
HETATM   13  C   UNL     1      -9.697  17.839  68.380  1.00  0.00    -0.333 A  
HETATM   14  C   UNL     1      -9.450  18.864  67.465  1.00  0.00    -0.340 A  
HETATM   15  F   UNL     1     -10.509  18.086  69.416  1.00  0.00    -0.331 F  
HETATM   16  C   UNL     1      -8.579  18.647  66.399  1.00  0.00    -0.284 A  
HETATM   17  C   UNL     1      -7.995  17.392  66.235  1.00  0.00    -0.314 A  
HETATM   18  C   UNL     1      -8.254  16.381  67.160  1.00  0.00    -0.180 A  
HETATM   19  F   UNL     1      -7.654  15.193  67.001  1.00  0.00    -0.217 F  
ENDBRANCH  11  12
ENDBRANCH   8  11
ENDBRANCH   2   6
TORSDOF 3
ENDMDL
MODEL      117
REMARK 921   NORMALIZED FREE ENERGY PREDICTED BY IDOCK:   -4.47 KCAL/MOL
REMARK 922        TOTAL FREE ENERGY PREDICTED BY IDOCK:   -5.66 KCAL/MOL
REMARK 923 INTER-LIGAND FREE ENERGY PREDICTED BY IDOCK:   -5.23 KCAL/MOL
REMARK 924 INTRA-LIGAND FREE ENERGY PREDICTED BY IDOCK:   -0.43 KCAL/MOL
REMARK 927      BINDING AFFINITY PREDICTED BY RF-SCORE:    0.00 PKD
ROOT
HETATM    1  N   UNL     1      -6.908  10.273  63.791  1.00  0.00    -0.262 N  
HETATM    2  C   UNL     1      -8.176   9.867  63.488  1.00  0.00    -0.163 C  
HETATM    3  H1  UNL     1      -6.733  11.176  64.233  1.00  0.00     0.000 HD 
HETATM    4  H2  UNL     1      -6.121   9.662  63.571  1.00  0.00     0.000 HD 
HETATM    5  O   UNL     1      -8.386   8.781  62.957  1.00  0.00    -0.186 OA 
ENDROOT
BRANCH   2   6
HETATM    6  C   UNL     1      -9.220  10.822  63.820  1.00  0.00    -0.244 A  
HETATM    7  C   UNL     1      -9.994  10.857  64.963  1.00  0.00    -0.298 A  
HETATM    8  N   UNL     1     -10.875  11.876  64.742  1.00  0.00    -0.296 NA 
HETATM    9  N   UNL     1      -9.621  11.839  62.983  1.00  0.00    -0.355 NA 
HETATM   10  N   UNL     1     -10.635  12.474  63.557  1.00  0.00    -0.414 NA 
BRANCH   8  11
HETATM   11  C   UNL     1     -12.116  12.129  65.450  1.00  0.00    -0.160 C  
BRANCH  11  12
HETATM   12  C   UNL     1     -11.947  12.829  66.763  1.00  0.00    -0.389 A  
HETATM   13  C   UNL     1     -11.773  12.108  67.944  1.00  0.00    -0.336 A  
HETATM   14  C   UNL     1     -11.438  12.741  69.142  1.00  0.00    -0.361 A  
HETATM   15  F   UNL     1     -11.875  10.772  67.931  1.00  0.00    -0.349 F  
HETATM   16  C   UNL     1     -11.287  14.126  69.176  1.00  0.00    -0.318 A  
HETATM   17  C   UNL     1     -11.515  14.869  68.019  1.00  0.00    -0.355 A  
HETATM   18  C   UNL     1     -11.848  14.218  66.831  1.00  0.00    -0.433 A  
HETATM   19  F   UNL     1     -12.028  14.950  65.723  1.00  0.00    -0.314 F  
ENDBRANCH  11  12
ENDBRANCH   8  11
ENDBRANCH   2   6
TORSDOF 3
ENDMDL
MODEL      118
REMARK 921   NORMALIZED FREE ENERGY PREDICTED BY IDOCK:   -4.46 KCAL/MOL
REMARK 922        TOTAL FREE ENERGY PREDICTED BY IDOCK:   -5.65 KCAL/MOL
REMARK 923 INTER-LIGAND FREE ENERGY PREDICTED BY IDOCK:   -5.32 KCAL/MOL
REMARK 924 INTRA-LIGAND FREE ENERGY PREDICTED BY IDOCK:   -0.33 KCAL/MOL
REMARK 927      BINDING AFFINITY PREDICTED BY RF-SCORE:    0.00 PKD
ROOT
HETATM    1  N   UNL     1      -6.618  16.654  68.604  1.00  0.00    -0.152 N  
HETATM    2  C   UNL     1      -7.575  17.628  68.655  1.00  0.00    -0.276 C  
HETATM    3  H1  UNL     1      -6.862  15.683  68.403  1.00  0.00     0.000 HD 
HETATM    4  H2  UNL     1      -5.643  16.901  68.769  1.00  0.00     0.000 HD 
HETATM    5  O   UNL     1      -7.281  18.795  68.896  1.00  0.00    -0.300 OA 
ENDROOT
BRANCH   2   6
HETATM    6  C   UNL     1      -8.933  17.163  68.429  1.00  0.00    -0.259 A  
HETATM    7  C   UNL     1      -9.440  15.902  68.668  1.00  0.00    -0.214 A  
HETATM    8  N   UNL     1     -10.722  15.960  68.202  1.00  0.00    -0.290 NA 
HETATM    9  N   UNL     1      -9.927  17.943  67.882  1.00  0.00    -0.313 NA 
HETATM   10  N   UNL     1     -11.015  17.195  67.746  1.00  0.00    -0.264 NA 
BRANCH   8  11
HETATM   11  C   UNL     1     -11.593  14.841  67.892  1.00  0.00    -0.351 C  
BRANCH  11  12
HETATM   12  C   UNL     1     -11.801  13.887  69.027  1.00  0.00    -0.397 A  
HETATM   13  C   UNL     1     -12.423  14.298  70.206  1.00  0.00    -0.361 A  
HETATM   14  C   UNL     1     -12.784  13.383  71.196  1.00  0.00    -0.411 A  
HETATM   15  F   UNL     1     -12.736  15.588  70.380  1.00  0.00    -0.407 F  
HETATM   16  C   UNL     1     -12.506  12.028  71.024  1.00  0.00    -0.376 A  
HETATM   17  C   UNL     1     -11.832  11.607  69.879  1.00  0.00    -0.434 A  
HETATM   18  C   UNL     1     -11.481  12.536  68.900  1.00  0.00    -0.307 A  
HETATM   19  F   UNL     1     -10.864  12.103  67.792  1.00  0.00    -0.212 F  
ENDBRANCH  11  12
ENDBRANCH   8  11
ENDBRANCH   2   6
TORSDOF 3
ENDMDL
MODEL      119
REMARK 921   NORMALIZED FREE ENERGY PREDICTED BY IDOCK:   -4.44 KCAL/MOL
REMARK 922        TOTAL FREE ENERGY PREDICTED BY IDOCK:   -5.63 KCAL/MOL
REMARK 923 INTER-LIGAND FREE ENERGY PREDICTED BY IDOCK:   -5.20 KCAL/MOL
REMARK 924 INTRA-LIGAND FREE ENERGY PREDICTED BY IDOCK:   -0.44 KCAL/MOL
REMARK 927      BINDING AFFINITY PREDICTED BY RF-SCORE:    0.00 PKD
ROOT
HETATM    1  N   UNL     1     -12.526   9.231  70.471  1.00  0.00    -0.474 N  
HETATM    2  C   UNL     1     -11.193   9.530  70.505  1.00  0.00    -0.287 C  
HETATM    3  H1  UNL     1     -13.046   9.231  69.592  1.00  0.00     0.000 HD 
HETATM    4  H2  UNL     1     -13.010   9.004  71.339  1.00  0.00     0.000 HD 
HETATM    5  O   UNL     1     -10.568   9.529  71.561  1.00  0.00    -0.323 OA 
ENDROOT
BRANCH   2   6
HETATM    6  C   UNL     1     -10.608   9.862  69.216  1.00  0.00    -0.224 A  
HETATM    7  C   UNL     1     -10.042  11.062  68.835  1.00  0.00    -0.199 A  
HETATM    8  N   UNL     1      -9.736  10.886  67.516  1.00  0.00    -0.166 NA 
HETATM    9  N   UNL     1     -10.579   8.999  68.144  1.00  0.00    -0.203 NA 
HETATM   10  N   UNL     1     -10.046   9.638  67.110  1.00  0.00    -0.203 NA 
BRANCH   8  11
HETATM   11  C   UNL     1      -9.441  11.919  66.541  1.00  0.00    -0.217 C  
BRANCH  11  12
HETATM   12  C   UNL     1     -10.487  12.086  65.482  1.00  0.00    -0.307 A  
HETATM   13  C   UNL     1     -10.296  11.580  64.196  1.00  0.00    -0.334 A  
HETATM   14  C   UNL     1     -11.327  11.571  63.256  1.00  0.00    -0.208 A  
HETATM   15  F   UNL     1      -9.117  11.041  63.861  1.00  0.00    -0.198 F  
HETATM   16  C   UNL     1     -12.576  12.091  63.591  1.00  0.00    -0.605 A  
HETATM   17  C   UNL     1     -12.769  12.653  64.851  1.00  0.00    -0.450 A  
HETATM   18  C   UNL     1     -11.726  12.653  65.778  1.00  0.00    -0.419 A  
HETATM   19  F   UNL     1     -11.946  13.168  66.995  1.00  0.00    -0.380 F  
ENDBRANCH  11  12
ENDBRANCH   8  11
ENDBRANCH   2   6
TORSDOF 3
ENDMDL
MODEL      120
REMARK 921   NORMALIZED FREE ENERGY PREDICTED BY IDOCK:   -4.44 KCAL/MOL
REMARK 922        TOTAL FREE ENERGY PREDICTED BY IDOCK:   -5.63 KCAL/MOL
REMARK 923 INTER-LIGAND FREE ENERGY PREDICTED BY IDOCK:   -5.25 KCAL/MOL
REMARK 924 INTRA-LIGAND FREE ENERGY PREDICTED BY IDOCK:   -0.39 KCAL/MOL
REMARK 927      BINDING AFFINITY PREDICTED BY RF-SCORE:    0.00 PKD
ROOT
HETATM    1  N   UNL     1      -9.879  16.434  66.178  1.00  0.00    -0.318 N  
HETATM    2  C   UNL     1     -10.528  16.582  67.371  1.00  0.00    -0.310 C  
HETATM    3  H1  UNL     1      -9.672  15.509  65.800  1.00  0.00     0.000 HD 
HETATM    4  H2  UNL     1      -9.597  17.263  65.655  1.00  0.00     0.000 HD 
HETATM    5  O   UNL     1     -10.778  17.695  67.825  1.00  0.00    -0.388 OA 
ENDROOT
BRANCH   2   6
HETATM    6  C   UNL     1     -10.863  15.338  68.044  1.00  0.00    -0.288 A  
HETATM    7  C   UNL     1     -10.698  14.054  67.565  1.00  0.00    -0.268 A  
HETATM    8  N   UNL     1     -11.250  13.261  68.530  1.00  0.00    -0.254 NA 
HETATM    9  N   UNL     1     -11.454  15.274  69.285  1.00  0.00    -0.298 NA 
HETATM   10  N   UNL     1     -11.688  13.999  69.570  1.00  0.00    -0.293 NA 
BRANCH   8  11
HETATM   11  C   UNL     1     -11.655  11.874  68.397  1.00  0.00    -0.317 C  
BRANCH  11  12
HETATM   12  C   UNL     1     -11.115  10.969  69.462  1.00  0.00    -0.322 A  
HETATM   13  C   UNL     1     -11.899  10.596  70.554  1.00  0.00    -0.357 A  
HETATM   14  C   UNL     1     -11.476   9.617  71.454  1.00  0.00    -0.455 A  
HETATM   15  F   UNL     1     -13.110  11.142  70.722  1.00  0.00    -0.351 F  
HETATM   16  C   UNL     1     -10.236   9.004  71.281  1.00  0.00    -0.384 A  
HETATM   17  C   UNL     1      -9.414   9.406  70.230  1.00  0.00    -0.294 A  
HETATM   18  C   UNL     1      -9.855  10.385  69.339  1.00  0.00    -0.213 A  
HETATM   19  F   UNL     1      -9.061  10.730  68.316  1.00  0.00    -0.136 F  
ENDBRANCH  11  12
ENDBRANCH   8  11
ENDBRANCH   2   6
TORSDOF 3
ENDMDL
MODEL      121
REMARK 921   NORMALIZED FREE ENERGY PREDICTED BY IDOCK:   -4.44 KCAL/MOL
REMARK 922        TOTAL FREE ENERGY PREDICTED BY IDOCK:   -5.63 KCAL/MOL
REMARK 923 INTER-LIGAND FREE ENERGY PREDICTED BY IDOCK:   -5.22 KCAL/MOL
REMARK 924 INTRA-LIGAND FREE ENERGY PREDICTED BY IDOCK:   -0.41 KCAL/MOL
REMARK 927      BINDING AFFINITY PREDICTED BY RF-SCORE:    0.00 PKD
ROOT
HETATM    1  N   UNL     1     -11.135   5.484  66.250  1.00  0.00    -0.770 N  
HETATM    2  C   UNL     1     -10.106   5.445  67.147  1.00  0.00    -0.198 C  
HETATM    3  H1  UNL     1     -12.005   5.972  66.463  1.00  0.00     0.000 HD 
HETATM    4  H2  UNL     1     -11.031   5.016  65.349  1.00  0.00     0.000 HD 
HETATM    5  O   UNL     1      -9.059   4.858  66.890  1.00  0.00    -0.116 OA 
ENDROOT
BRANCH   2   6
HETATM    6  C   UNL     1     -10.367   6.123  68.406  1.00  0.00    -0.200 A  
HETATM    7  C   UNL     1     -10.284   7.476  68.665  1.00  0.00    -0.197 A  
HETATM    8  N   UNL     1     -10.531   7.580  70.004  1.00  0.00    -0.222 NA 
HETATM    9  N   UNL     1     -10.707   5.471  69.570  1.00  0.00    -0.306 NA 
HETATM   10  N   UNL     1     -10.801   6.372  70.540  1.00  0.00    -0.258 NA 
BRANCH   8  11
HETATM   11  C   UNL     1     -10.238   8.711  70.863  1.00  0.00    -0.209 C  
BRANCH  11  12
HETATM   12  C   UNL     1     -11.266   9.800  70.824  1.00  0.00    -0.419 A  
HETATM   13  C   UNL     1     -12.326   9.820  71.729  1.00  0.00    -0.386 A  
HETATM   14  C   UNL     1     -13.186  10.916  71.820  1.00  0.00    -0.513 A  
HETATM   15  F   UNL     1     -12.503   8.795  72.572  1.00  0.00    -0.425 F  
HETATM   16  C   UNL     1     -13.002  12.014  70.981  1.00  0.00    -0.175 A  
HETATM   17  C   UNL     1     -11.983  11.986  70.029  1.00  0.00    -0.400 A  
HETATM   18  C   UNL     1     -11.134  10.882  69.955  1.00  0.00    -0.241 A  
HETATM   19  F   UNL     1     -10.140  10.893  69.055  1.00  0.00    -0.185 F  
ENDBRANCH  11  12
ENDBRANCH   8  11
ENDBRANCH   2   6
TORSDOF 3
ENDMDL
MODEL      122
REMARK 921   NORMALIZED FREE ENERGY PREDICTED BY IDOCK:   -4.42 KCAL/MOL
REMARK 922        TOTAL FREE ENERGY PREDICTED BY IDOCK:   -5.60 KCAL/MOL
REMARK 923 INTER-LIGAND FREE ENERGY PREDICTED BY IDOCK:   -5.29 KCAL/MOL
REMARK 924 INTRA-LIGAND FREE ENERGY PREDICTED BY IDOCK:   -0.31 KCAL/MOL
REMARK 927      BINDING AFFINITY PREDICTED BY RF-SCORE:    0.00 PKD
ROOT
HETATM    1  N   UNL     1      -6.637  16.636  68.615  1.00  0.00    -0.152 N  
HETATM    2  C   UNL     1      -7.551  17.648  68.696  1.00  0.00    -0.276 C  
HETATM    3  H1  UNL     1      -6.922  15.684  68.384  1.00  0.00     0.000 HD 
HETATM    4  H2  UNL     1      -5.652  16.836  68.788  1.00  0.00     0.000 HD 
HETATM    5  O   UNL     1      -7.208  18.793  68.974  1.00  0.00    -0.309 OA 
ENDROOT
BRANCH   2   6
HETATM    6  C   UNL     1      -8.928  17.249  68.455  1.00  0.00    -0.273 A  
HETATM    7  C   UNL     1      -9.452  15.973  68.495  1.00  0.00    -0.216 A  
HETATM    8  N   UNL     1     -10.751  16.130  68.106  1.00  0.00    -0.302 NA 
HETATM    9  N   UNL     1      -9.927  18.126  68.098  1.00  0.00    -0.338 NA 
HETATM   10  N   UNL     1     -11.036  17.429  67.885  1.00  0.00    -0.261 NA 
BRANCH   8  11
HETATM   11  C   UNL     1     -11.658  15.095  67.646  1.00  0.00    -0.277 C  
BRANCH  11  12
HETATM   12  C   UNL     1     -11.908  14.005  68.642  1.00  0.00    -0.396 A  
HETATM   13  C   UNL     1     -11.585  12.679  68.352  1.00  0.00    -0.328 A  
HETATM   14  C   UNL     1     -11.645  11.684  69.329  1.00  0.00    -0.385 A  
HETATM   15  F   UNL     1     -11.156  12.350  67.127  1.00  0.00    -0.258 F  
HETATM   16  C   UNL     1     -12.052  12.006  70.623  1.00  0.00    -0.369 A  
HETATM   17  C   UNL     1     -12.434  13.314  70.916  1.00  0.00    -0.424 A  
HETATM   18  C   UNL     1     -12.367  14.294  69.926  1.00  0.00    -0.324 A  
HETATM   19  F   UNL     1     -12.707  15.552  70.240  1.00  0.00    -0.406 F  
ENDBRANCH  11  12
ENDBRANCH   8  11
ENDBRANCH   2   6
TORSDOF 3
ENDMDL
MODEL      123
REMARK 921   NORMALIZED FREE ENERGY PREDICTED BY IDOCK:   -4.41 KCAL/MOL
REMARK 922        TOTAL FREE ENERGY PREDICTED BY IDOCK:   -5.59 KCAL/MOL
REMARK 923 INTER-LIGAND FREE ENERGY PREDICTED BY IDOCK:   -5.16 KCAL/MOL
REMARK 924 INTRA-LIGAND FREE ENERGY PREDICTED BY IDOCK:   -0.43 KCAL/MOL
REMARK 927      BINDING AFFINITY PREDICTED BY RF-SCORE:    0.00 PKD
ROOT
HETATM    1  N   UNL     1      -8.035   8.827  68.518  1.00  0.00    -0.110 N  
HETATM    2  C   UNL     1      -8.602   9.802  69.288  1.00  0.00    -0.158 C  
HETATM    3  H1  UNL     1      -8.377   8.631  67.576  1.00  0.00     0.000 HD 
HETATM    4  H2  UNL     1      -7.255   8.285  68.890  1.00  0.00     0.000 HD 
HETATM    5  O   UNL     1      -8.191  10.038  70.420  1.00  0.00    -0.159 OA 
ENDROOT
BRANCH   2   6
HETATM    6  C   UNL     1      -9.720  10.496  68.671  1.00  0.00    -0.173 A  
HETATM    7  C   UNL     1      -9.937  11.858  68.616  1.00  0.00    -0.154 A  
HETATM    8  N   UNL     1     -11.159  11.981  68.019  1.00  0.00    -0.225 NA 
HETATM    9  N   UNL     1     -10.781   9.855  68.070  1.00  0.00    -0.240 NA 
HETATM   10  N   UNL     1     -11.654  10.774  67.679  1.00  0.00    -0.510 NA 
BRANCH   8  11
HETATM   11  C   UNL     1     -12.018  13.150  68.019  1.00  0.00    -0.304 C  
BRANCH  11  12
HETATM   12  C   UNL     1     -11.753  14.112  66.902  1.00  0.00    -0.437 A  
HETATM   13  C   UNL     1     -10.974  15.251  67.104  1.00  0.00    -0.331 A  
HETATM   14  C   UNL     1     -10.572  16.057  66.038  1.00  0.00    -0.324 A  
HETATM   15  F   UNL     1     -10.551  15.559  68.337  1.00  0.00    -0.232 F  
HETATM   16  C   UNL     1     -10.966  15.738  64.740  1.00  0.00    -0.410 A  
HETATM   17  C   UNL     1     -11.793  14.637  64.525  1.00  0.00    -0.442 A  
HETATM   18  C   UNL     1     -12.183  13.843  65.603  1.00  0.00    -0.452 A  
HETATM   19  F   UNL     1     -12.951  12.769  65.368  1.00  0.00    -0.500 F  
ENDBRANCH  11  12
ENDBRANCH   8  11
ENDBRANCH   2   6
TORSDOF 3
ENDMDL
MODEL      124
REMARK 921   NORMALIZED FREE ENERGY PREDICTED BY IDOCK:   -4.39 KCAL/MOL
REMARK 922        TOTAL FREE ENERGY PREDICTED BY IDOCK:   -5.57 KCAL/MOL
REMARK 923 INTER-LIGAND FREE ENERGY PREDICTED BY IDOCK:   -5.12 KCAL/MOL
REMARK 924 INTRA-LIGAND FREE ENERGY PREDICTED BY IDOCK:   -0.44 KCAL/MOL
REMARK 927      BINDING AFFINITY PREDICTED BY RF-SCORE:    0.00 PKD
ROOT
HETATM    1  N   UNL     1      -8.508  17.721  68.152  1.00  0.00    -0.254 N  
HETATM    2  C   UNL     1      -9.740  17.451  67.629  1.00  0.00    -0.270 C  
HETATM    3  H1  UNL     1      -7.818  16.982  68.290  1.00  0.00     0.000 HD 
HETATM    4  H2  UNL     1      -8.273  18.680  68.410  1.00  0.00     0.000 HD 
HETATM    5  O   UNL     1     -10.569  18.340  67.463  1.00  0.00    -0.405 OA 
ENDROOT
BRANCH   2   6
HETATM    6  C   UNL     1      -9.979  16.051  67.319  1.00  0.00    -0.242 A  
HETATM    7  C   UNL     1     -11.193  15.438  67.082  1.00  0.00    -0.256 A  
HETATM    8  N   UNL     1     -10.881  14.117  66.938  1.00  0.00    -0.293 NA 
HETATM    9  N   UNL     1      -8.985  15.100  67.260  1.00  0.00    -0.189 NA 
HETATM   10  N   UNL     1      -9.550  13.922  67.029  1.00  0.00    -0.245 NA 
BRANCH   8  11
HETATM   11  C   UNL     1     -11.791  12.990  67.013  1.00  0.00    -0.377 C  
BRANCH  11  12
HETATM   12  C   UNL     1     -11.643  12.157  68.249  1.00  0.00    -0.382 A  
HETATM   13  C   UNL     1     -12.137  12.600  69.477  1.00  0.00    -0.192 A  
HETATM   14  C   UNL     1     -12.165  11.764  70.594  1.00  0.00    -0.443 A  
HETATM   15  F   UNL     1     -12.647  13.833  69.585  1.00  0.00    -0.348 F  
HETATM   16  C   UNL     1     -11.676  10.462  70.500  1.00  0.00    -0.434 A  
HETATM   17  C   UNL     1     -11.125  10.022  69.298  1.00  0.00    -0.248 A  
HETATM   18  C   UNL     1     -11.106  10.872  68.192  1.00  0.00    -0.280 A  
HETATM   19  F   UNL     1     -10.602  10.415  67.037  1.00  0.00    -0.263 F  
ENDBRANCH  11  12
ENDBRANCH   8  11
ENDBRANCH   2   6
TORSDOF 3
ENDMDL
MODEL      125
REMARK 921   NORMALIZED FREE ENERGY PREDICTED BY IDOCK:   -4.38 KCAL/MOL
REMARK 922        TOTAL FREE ENERGY PREDICTED BY IDOCK:   -5.56 KCAL/MOL
REMARK 923 INTER-LIGAND FREE ENERGY PREDICTED BY IDOCK:   -5.13 KCAL/MOL
REMARK 924 INTRA-LIGAND FREE ENERGY PREDICTED BY IDOCK:   -0.43 KCAL/MOL
REMARK 927      BINDING AFFINITY PREDICTED BY RF-SCORE:    0.00 PKD
ROOT
HETATM    1  N   UNL     1     -10.539  17.016  67.810  1.00  0.00    -0.352 N  
HETATM    2  C   UNL     1      -9.911  16.237  68.740  1.00  0.00    -0.237 C  
HETATM    3  H1  UNL     1     -11.470  16.781  67.464  1.00  0.00     0.000 HD 
HETATM    4  H2  UNL     1     -10.069  17.850  67.456  1.00  0.00     0.000 HD 
HETATM    5  O   UNL     1      -8.792  16.520  69.156  1.00  0.00    -0.239 OA 
ENDROOT
BRANCH   2   6
HETATM    6  C   UNL     1     -10.659  15.063  69.158  1.00  0.00    -0.251 A  
HETATM    7  C   UNL     1     -10.477  13.759  68.742  1.00  0.00    -0.214 A  
HETATM    8  N   UNL     1     -11.484  13.067  69.352  1.00  0.00    -0.275 NA 
HETATM    9  N   UNL     1     -11.722  15.104  70.032  1.00  0.00    -0.284 NA 
HETATM   10  N   UNL     1     -12.219  13.878  70.140  1.00  0.00    -0.345 NA 
BRANCH   8  11
HETATM   11  C   UNL     1     -11.973  11.746  69.006  1.00  0.00    -0.280 C  
BRANCH  11  12
HETATM   12  C   UNL     1     -11.438  10.644  69.868  1.00  0.00    -0.393 A  
HETATM   13  C   UNL     1     -10.177  10.095  69.634  1.00  0.00    -0.242 A  
HETATM   14  C   UNL     1      -9.595   9.198  70.530  1.00  0.00    -0.293 A  
HETATM   15  F   UNL     1      -9.477  10.470  68.556  1.00  0.00    -0.141 F  
HETATM   16  C   UNL     1     -10.285   8.820  71.680  1.00  0.00    -0.394 A  
HETATM   17  C   UNL     1     -11.571   9.312  71.902  1.00  0.00    -0.405 A  
HETATM   18  C   UNL     1     -12.135  10.208  70.994  1.00  0.00    -0.377 A  
HETATM   19  F   UNL     1     -13.359  10.695  71.245  1.00  0.00    -0.413 F  
ENDBRANCH  11  12
ENDBRANCH   8  11
ENDBRANCH   2   6
TORSDOF 3
ENDMDL
MODEL      126
REMARK 921   NORMALIZED FREE ENERGY PREDICTED BY IDOCK:   -4.38 KCAL/MOL
REMARK 922        TOTAL FREE ENERGY PREDICTED BY IDOCK:   -5.56 KCAL/MOL
REMARK 923 INTER-LIGAND FREE ENERGY PREDICTED BY IDOCK:   -5.32 KCAL/MOL
REMARK 924 INTRA-LIGAND FREE ENERGY PREDICTED BY IDOCK:   -0.24 KCAL/MOL
REMARK 927      BINDING AFFINITY PREDICTED BY RF-SCORE:    0.00 PKD
ROOT
HETATM    1  N   UNL     1     -10.854  14.133  64.323  1.00  0.00    -0.586 N  
HETATM    2  C   UNL     1     -11.803  13.178  64.553  1.00  0.00    -0.377 C  
HETATM    3  H1  UNL     1     -10.115  14.319  65.002  1.00  0.00     0.000 HD 
HETATM    4  H2  UNL     1     -10.885  14.671  63.456  1.00  0.00     0.000 HD 
HETATM    5  O   UNL     1     -12.691  12.954  63.736  1.00  0.00    -0.685 OA 
ENDROOT
BRANCH   2   6
HETATM    6  C   UNL     1     -11.680  12.488  65.826  1.00  0.00    -0.426 A  
HETATM    7  C   UNL     1     -11.033  11.295  66.076  1.00  0.00    -0.174 A  
HETATM    8  N   UNL     1     -11.290  11.042  67.393  1.00  0.00    -0.462 NA 
HETATM    9  N   UNL     1     -12.255  12.933  66.996  1.00  0.00    -0.391 NA 
HETATM   10  N   UNL     1     -12.012  12.038  67.945  1.00  0.00    -0.547 NA 
BRANCH   8  11
HETATM   11  C   UNL     1     -11.147   9.774  68.085  1.00  0.00    -0.110 C  
BRANCH  11  12
HETATM   12  C   UNL     1      -9.970   8.959  67.644  1.00  0.00    -0.248 A  
HETATM   13  C   UNL     1     -10.145   7.731  67.007  1.00  0.00    -0.273 A  
HETATM   14  C   UNL     1      -9.071   7.048  66.433  1.00  0.00    -0.189 A  
HETATM   15  F   UNL     1     -11.373   7.210  66.888  1.00  0.00    -0.431 F  
HETATM   16  C   UNL     1      -7.787   7.586  66.508  1.00  0.00    -0.102 A  
HETATM   17  C   UNL     1      -7.584   8.783  67.192  1.00  0.00    -0.088 A  
HETATM   18  C   UNL     1      -8.671   9.451  67.758  1.00  0.00    -0.116 A  
HETATM   19  F   UNL     1      -8.456  10.619  68.381  1.00  0.00    -0.112 F  
ENDBRANCH  11  12
ENDBRANCH   8  11
ENDBRANCH   2   6
TORSDOF 3
ENDMDL
MODEL      127
REMARK 921   NORMALIZED FREE ENERGY PREDICTED BY IDOCK:   -4.38 KCAL/MOL
REMARK 922        TOTAL FREE ENERGY PREDICTED BY IDOCK:   -5.56 KCAL/MOL
REMARK 923 INTER-LIGAND FREE ENERGY PREDICTED BY IDOCK:   -5.15 KCAL/MOL
REMARK 924 INTRA-LIGAND FREE ENERGY PREDICTED BY IDOCK:   -0.40 KCAL/MOL
REMARK 927      BINDING AFFINITY PREDICTED BY RF-SCORE:    0.00 PKD
ROOT
HETATM    1  N   UNL     1      -8.242   8.830  68.840  1.00  0.00    -0.117 N  
HETATM    2  C   UNL     1      -9.110   9.581  69.579  1.00  0.00    -0.185 C  
HETATM    3  H1  UNL     1      -8.223   8.892  67.821  1.00  0.00     0.000 HD 
HETATM    4  H2  UNL     1      -7.600   8.194  69.314  1.00  0.00     0.000 HD 
HETATM    5  O   UNL     1      -9.132   9.506  70.804  1.00  0.00    -0.231 OA 
ENDROOT
BRANCH   2   6
HETATM    6  C   UNL     1      -9.995  10.433  68.803  1.00  0.00    -0.188 A  
HETATM    7  C   UNL     1     -10.060  11.812  68.818  1.00  0.00    -0.140 A  
HETATM    8  N   UNL     1     -11.106  12.109  67.993  1.00  0.00    -0.227 NA 
HETATM    9  N   UNL     1     -10.958   9.955  67.943  1.00  0.00    -0.260 NA 
HETATM   10  N   UNL     1     -11.632  10.989  67.457  1.00  0.00    -0.543 NA 
BRANCH   8  11
HETATM   11  C   UNL     1     -11.827  13.366  67.911  1.00  0.00    -0.357 C  
BRANCH  11  12
HETATM   12  C   UNL     1     -11.539  14.164  66.677  1.00  0.00    -0.399 A  
HETATM   13  C   UNL     1     -12.294  13.990  65.517  1.00  0.00    -0.483 A  
HETATM   14  C   UNL     1     -12.156  14.846  64.423  1.00  0.00    -0.417 A  
HETATM   15  F   UNL     1     -13.213  13.018  65.458  1.00  0.00    -0.344 F  
HETATM   16  C   UNL     1     -11.235  15.891  64.471  1.00  0.00    -0.324 A  
HETATM   17  C   UNL     1     -10.430  16.044  65.599  1.00  0.00    -0.416 A  
HETATM   18  C   UNL     1     -10.584  15.179  66.683  1.00  0.00    -0.304 A  
HETATM   19  F   UNL     1      -9.823  15.367  67.770  1.00  0.00    -0.215 F  
ENDBRANCH  11  12
ENDBRANCH   8  11
ENDBRANCH   2   6
TORSDOF 3
ENDMDL
MODEL      128
REMARK 921   NORMALIZED FREE ENERGY PREDICTED BY IDOCK:   -4.36 KCAL/MOL
REMARK 922        TOTAL FREE ENERGY PREDICTED BY IDOCK:   -5.53 KCAL/MOL
REMARK 923 INTER-LIGAND FREE ENERGY PREDICTED BY IDOCK:   -5.13 KCAL/MOL
REMARK 924 INTRA-LIGAND FREE ENERGY PREDICTED BY IDOCK:   -0.40 KCAL/MOL
REMARK 927      BINDING AFFINITY PREDICTED BY RF-SCORE:    0.00 PKD
ROOT
HETATM    1  N   UNL     1     -12.397  15.146  63.737  1.00  0.00    -1.037 N  
HETATM    2  C   UNL     1     -12.097  13.861  64.092  1.00  0.00    -0.425 C  
HETATM    3  H1  UNL     1     -12.280  15.917  64.395  1.00  0.00     0.000 HD 
HETATM    4  H2  UNL     1     -12.743  15.338  62.797  1.00  0.00     0.000 HD 
HETATM    5  O   UNL     1     -12.238  12.933  63.300  1.00  0.00    -0.594 OA 
ENDROOT
BRANCH   2   6
HETATM    6  C   UNL     1     -11.635  13.697  65.460  1.00  0.00    -0.324 A  
HETATM    7  C   UNL     1     -10.329  13.665  65.907  1.00  0.00    -0.301 A  
HETATM    8  N   UNL     1     -10.437  13.397  67.242  1.00  0.00    -0.247 NA 
HETATM    9  N   UNL     1     -12.475  13.499  66.533  1.00  0.00    -0.317 NA 
HETATM   10  N   UNL     1     -11.730  13.314  67.616  1.00  0.00    -0.348 NA 
BRANCH   8  11
HETATM   11  C   UNL     1      -9.389  12.921  68.126  1.00  0.00    -0.214 C  
BRANCH  11  12
HETATM   12  C   UNL     1      -8.224  13.854  68.261  1.00  0.00    -0.158 A  
HETATM   13  C   UNL     1      -8.324  15.023  69.015  1.00  0.00    -0.194 A  
HETATM   14  C   UNL     1      -7.203  15.806  69.296  1.00  0.00    -0.211 A  
HETATM   15  F   UNL     1      -9.505  15.385  69.532  1.00  0.00    -0.221 F  
HETATM   16  C   UNL     1      -5.954  15.432  68.803  1.00  0.00    -0.095 A  
HETATM   17  C   UNL     1      -5.846  14.299  67.999  1.00  0.00    -0.138 A  
HETATM   18  C   UNL     1      -6.977  13.529  67.730  1.00  0.00    -0.159 A  
HETATM   19  F   UNL     1      -6.842  12.424  66.982  1.00  0.00    -0.147 F  
ENDBRANCH  11  12
ENDBRANCH   8  11
ENDBRANCH   2   6
TORSDOF 3
ENDMDL
MODEL      129
REMARK 921   NORMALIZED FREE ENERGY PREDICTED BY IDOCK:   -4.32 KCAL/MOL
REMARK 922        TOTAL FREE ENERGY PREDICTED BY IDOCK:   -5.49 KCAL/MOL
REMARK 923 INTER-LIGAND FREE ENERGY PREDICTED BY IDOCK:   -5.10 KCAL/MOL
REMARK 924 INTRA-LIGAND FREE ENERGY PREDICTED BY IDOCK:   -0.38 KCAL/MOL
REMARK 927      BINDING AFFINITY PREDICTED BY RF-SCORE:    0.00 PKD
ROOT
HETATM    1  N   UNL     1     -10.734  11.812  62.968  1.00  0.00    -0.680 N  
HETATM    2  C   UNL     1     -11.752  12.431  63.634  1.00  0.00    -0.514 C  
HETATM    3  H1  UNL     1     -10.024  11.275  63.468  1.00  0.00     0.000 HD 
HETATM    4  H2  UNL     1     -10.682  11.886  61.952  1.00  0.00     0.000 HD 
HETATM    5  O   UNL     1     -12.606  13.076  63.033  1.00  0.00    -0.554 OA 
ENDROOT
BRANCH   2   6
HETATM    6  C   UNL     1     -11.718  12.281  65.080  1.00  0.00    -0.352 A  
HETATM    7  C   UNL     1     -10.981  11.373  65.812  1.00  0.00    -0.194 A  
HETATM    8  N   UNL     1     -11.374  11.582  67.103  1.00  0.00    -0.414 NA 
HETATM    9  N   UNL     1     -12.482  13.031  65.945  1.00  0.00    -0.498 NA 
HETATM   10  N   UNL     1     -12.266  12.591  67.179  1.00  0.00    -0.416 NA 
BRANCH   8  11
HETATM   11  C   UNL     1     -11.182  10.691  68.232  1.00  0.00    -0.301 C  
BRANCH  11  12
HETATM   12  C   UNL     1      -9.873   9.964  68.229  1.00  0.00    -0.165 A  
HETATM   13  C   UNL     1      -8.693  10.606  68.606  1.00  0.00    -0.148 A  
HETATM   14  C   UNL     1      -7.503   9.900  68.780  1.00  0.00    -0.079 A  
HETATM   15  F   UNL     1      -8.703  11.921  68.863  1.00  0.00    -0.109 F  
HETATM   16  C   UNL     1      -7.473   8.524  68.558  1.00  0.00    -0.094 A  
HETATM   17  C   UNL     1      -8.628   7.875  68.123  1.00  0.00    -0.123 A  
HETATM   18  C   UNL     1      -9.809   8.598  67.957  1.00  0.00    -0.169 A  
HETATM   19  F   UNL     1     -10.915   7.947  67.572  1.00  0.00    -0.295 F  
ENDBRANCH  11  12
ENDBRANCH   8  11
ENDBRANCH   2   6
TORSDOF 3
ENDMDL
MODEL      130
REMARK 921   NORMALIZED FREE ENERGY PREDICTED BY IDOCK:   -4.31 KCAL/MOL
REMARK 922        TOTAL FREE ENERGY PREDICTED BY IDOCK:   -5.47 KCAL/MOL
REMARK 923 INTER-LIGAND FREE ENERGY PREDICTED BY IDOCK:   -5.23 KCAL/MOL
REMARK 924 INTRA-LIGAND FREE ENERGY PREDICTED BY IDOCK:   -0.24 KCAL/MOL
REMARK 927      BINDING AFFINITY PREDICTED BY RF-SCORE:    0.00 PKD
ROOT
HETATM    1  N   UNL     1      -9.910   6.556  65.972  1.00  0.00    -0.392 N  
HETATM    2  C   UNL     1      -8.981   7.547  66.118  1.00  0.00    -0.153 C  
HETATM    3  H1  UNL     1     -10.896   6.774  65.824  1.00  0.00     0.000 HD 
HETATM    4  H2  UNL     1      -9.612   5.581  66.012  1.00  0.00     0.000 HD 
HETATM    5  O   UNL     1      -7.795   7.286  66.296  1.00  0.00    -0.100 OA 
ENDROOT
BRANCH   2   6
HETATM    6  C   UNL     1      -9.515   8.898  66.069  1.00  0.00    -0.252 A  
HETATM    7  C   UNL     1     -10.160   9.583  67.078  1.00  0.00    -0.234 A  
HETATM    8  N   UNL     1     -10.541  10.759  66.498  1.00  0.00    -0.240 NA 
HETATM    9  N   UNL     1      -9.485   9.692  64.944  1.00  0.00    -0.260 NA 
HETATM   10  N   UNL     1     -10.118  10.826  65.219  1.00  0.00    -0.273 NA 
BRANCH   8  11
HETATM   11  C   UNL     1     -11.535  11.696  66.988  1.00  0.00    -0.262 C  
BRANCH  11  12
HETATM   12  C   UNL     1     -11.455  13.059  66.372  1.00  0.00    -0.384 A  
HETATM   13  C   UNL     1     -10.561  14.014  66.855  1.00  0.00    -0.280 A  
HETATM   14  C   UNL     1     -10.350  15.220  66.183  1.00  0.00    -0.314 A  
HETATM   15  F   UNL     1      -9.843  13.760  67.956  1.00  0.00    -0.211 F  
HETATM   16  C   UNL     1     -11.055  15.494  65.013  1.00  0.00    -0.411 A  
HETATM   17  C   UNL     1     -11.996  14.577  64.548  1.00  0.00    -0.482 A  
HETATM   18  C   UNL     1     -12.192  13.378  65.233  1.00  0.00    -0.440 A  
HETATM   19  F   UNL     1     -13.077  12.496  64.747  1.00  0.00    -0.542 F  
ENDBRANCH  11  12
ENDBRANCH   8  11
ENDBRANCH   2   6
TORSDOF 3
ENDMDL
MODEL      131
REMARK 921   NORMALIZED FREE ENERGY PREDICTED BY IDOCK:   -4.29 KCAL/MOL
REMARK 922        TOTAL FREE ENERGY PREDICTED BY IDOCK:   -5.46 KCAL/MOL
REMARK 923 INTER-LIGAND FREE ENERGY PREDICTED BY IDOCK:   -5.13 KCAL/MOL
REMARK 924 INTRA-LIGAND FREE ENERGY PREDICTED BY IDOCK:   -0.33 KCAL/MOL
REMARK 927      BINDING AFFINITY PREDICTED BY RF-SCORE:    0.00 PKD
ROOT
HETATM    1  N   UNL     1     -13.259   9.458  70.924  1.00  0.00    -0.566 N  
HETATM    2  C   UNL     1     -12.001   9.112  71.329  1.00  0.00    -0.325 C  
HETATM    3  H1  UNL     1     -13.406  10.126  70.167  1.00  0.00     0.000 HD 
HETATM    4  H2  UNL     1     -14.067   9.040  71.387  1.00  0.00     0.000 HD 
HETATM    5  O   UNL     1     -11.825   8.308  72.240  1.00  0.00    -0.340 OA 
ENDROOT
BRANCH   2   6
HETATM    6  C   UNL     1     -10.925   9.783  70.620  1.00  0.00    -0.331 A  
HETATM    7  C   UNL     1     -11.028  10.856  69.757  1.00  0.00    -0.226 A  
HETATM    8  N   UNL     1      -9.757  11.039  69.293  1.00  0.00    -0.083 NA 
HETATM    9  N   UNL     1      -9.606   9.393  70.684  1.00  0.00    -0.267 NA 
HETATM   10  N   UNL     1      -8.903  10.167  69.866  1.00  0.00    -0.133 NA 
BRANCH   8  11
HETATM   11  C   UNL     1      -9.353  11.793  68.121  1.00  0.00    -0.190 C  
BRANCH  11  12
HETATM   12  C   UNL     1     -10.459  12.573  67.478  1.00  0.00    -0.231 A  
HETATM   13  C   UNL     1     -10.738  13.882  67.871  1.00  0.00    -0.240 A  
HETATM   14  C   UNL     1     -11.640  14.678  67.164  1.00  0.00    -0.394 A  
HETATM   15  F   UNL     1     -10.094  14.416  68.916  1.00  0.00    -0.220 F  
HETATM   16  C   UNL     1     -12.297  14.160  66.048  1.00  0.00    -0.470 A  
HETATM   17  C   UNL     1     -12.074  12.835  65.675  1.00  0.00    -0.514 A  
HETATM   18  C   UNL     1     -11.168  12.056  66.394  1.00  0.00    -0.337 A  
HETATM   19  F   UNL     1     -10.944  10.796  65.996  1.00  0.00    -0.259 F  
ENDBRANCH  11  12
ENDBRANCH   8  11
ENDBRANCH   2   6
TORSDOF 3
ENDMDL
MODEL      132
REMARK 921   NORMALIZED FREE ENERGY PREDICTED BY IDOCK:   -4.27 KCAL/MOL
REMARK 922        TOTAL FREE ENERGY PREDICTED BY IDOCK:   -5.43 KCAL/MOL
REMARK 923 INTER-LIGAND FREE ENERGY PREDICTED BY IDOCK:   -5.07 KCAL/MOL
REMARK 924 INTRA-LIGAND FREE ENERGY PREDICTED BY IDOCK:   -0.36 KCAL/MOL
REMARK 927      BINDING AFFINITY PREDICTED BY RF-SCORE:    0.00 PKD
ROOT
HETATM    1  N   UNL     1      -9.474  11.976  63.837  1.00  0.00    -0.525 N  
HETATM    2  C   UNL     1     -10.425  12.508  64.660  1.00  0.00    -0.319 C  
HETATM    3  H1  UNL     1      -9.027  11.084  64.053  1.00  0.00     0.000 HD 
HETATM    4  H2  UNL     1      -9.206  12.478  62.991  1.00  0.00     0.000 HD 
HETATM    5  O   UNL     1     -10.963  13.580  64.401  1.00  0.00    -0.378 OA 
ENDROOT
BRANCH   2   6
HETATM    6  C   UNL     1     -10.714  11.723  65.849  1.00  0.00    -0.282 A  
HETATM    7  C   UNL     1     -10.072  10.577  66.275  1.00  0.00    -0.232 A  
HETATM    8  N   UNL     1     -10.778  10.185  67.376  1.00  0.00    -0.277 NA 
HETATM    9  N   UNL     1     -11.739  12.006  66.723  1.00  0.00    -0.580 NA 
HETATM   10  N   UNL     1     -11.769  11.058  67.650  1.00  0.00    -0.580 NA 
BRANCH   8  11
HETATM   11  C   UNL     1     -10.758   8.880  68.010  1.00  0.00    -0.108 C  
BRANCH  11  12
HETATM   12  C   UNL     1     -10.296   8.893  69.435  1.00  0.00    -0.217 A  
HETATM   13  C   UNL     1     -11.205   9.035  70.483  1.00  0.00    -0.260 A  
HETATM   14  C   UNL     1     -10.815   8.870  71.813  1.00  0.00    -0.436 A  
HETATM   15  F   UNL     1     -12.495   9.281  70.219  1.00  0.00    -0.038 F  
HETATM   16  C   UNL     1      -9.487   8.575  72.115  1.00  0.00    -0.375 A  
HETATM   17  C   UNL     1      -8.552   8.487  71.084  1.00  0.00    -0.207 A  
HETATM   18  C   UNL     1      -8.962   8.654  69.761  1.00  0.00    -0.145 A  
HETATM   19  F   UNL     1      -8.052   8.531  68.785  1.00  0.00    -0.111 F  
ENDBRANCH  11  12
ENDBRANCH   8  11
ENDBRANCH   2   6
TORSDOF 3
ENDMDL
MODEL      133
REMARK 921   NORMALIZED FREE ENERGY PREDICTED BY IDOCK:   -4.26 KCAL/MOL
REMARK 922        TOTAL FREE ENERGY PREDICTED BY IDOCK:   -5.42 KCAL/MOL
REMARK 923 INTER-LIGAND FREE ENERGY PREDICTED BY IDOCK:   -5.02 KCAL/MOL
REMARK 924 INTRA-LIGAND FREE ENERGY PREDICTED BY IDOCK:   -0.40 KCAL/MOL
REMARK 927      BINDING AFFINITY PREDICTED BY RF-SCORE:    0.00 PKD
ROOT
HETATM    1  N   UNL     1     -11.244   5.169  65.805  1.00  0.00    -0.809 N  
HETATM    2  C   UNL     1     -10.343   5.061  66.827  1.00  0.00    -0.244 C  
HETATM    3  H1  UNL     1     -11.966   5.890  65.811  1.00  0.00     0.000 HD 
HETATM    4  H2  UNL     1     -11.193   4.517  65.022  1.00  0.00     0.000 HD 
HETATM    5  O   UNL     1      -9.475   4.194  66.820  1.00  0.00    -0.166 OA 
ENDROOT
BRANCH   2   6
HETATM    6  C   UNL     1     -10.520   6.023  67.902  1.00  0.00    -0.234 A  
HETATM    7  C   UNL     1     -10.877   5.765  69.210  1.00  0.00    -0.303 A  
HETATM    8  N   UNL     1     -10.997   7.001  69.777  1.00  0.00    -0.253 NA 
HETATM    9  N   UNL     1     -10.391   7.384  67.739  1.00  0.00    -0.198 NA 
HETATM   10  N   UNL     1     -10.689   7.971  68.892  1.00  0.00    -0.128 NA 
BRANCH   8  11
HETATM   11  C   UNL     1     -11.673   7.333  71.017  1.00  0.00    -0.307 C  
BRANCH  11  12
HETATM   12  C   UNL     1     -10.798   7.273  72.232  1.00  0.00    -0.274 A  
HETATM   13  C   UNL     1     -10.873   6.199  73.119  1.00  0.00    -0.254 A  
HETATM   14  C   UNL     1      -9.947   6.041  74.151  1.00  0.00    -0.257 A  
HETATM   15  F   UNL     1     -11.817   5.264  72.955  1.00  0.00    -0.360 F  
HETATM   16  C   UNL     1      -8.931   6.979  74.322  1.00  0.00    -0.238 A  
HETATM   17  C   UNL     1      -8.875   8.090  73.481  1.00  0.00    -0.333 A  
HETATM   18  C   UNL     1      -9.809   8.230  72.455  1.00  0.00    -0.304 A  
HETATM   19  F   UNL     1      -9.715   9.288  71.637  1.00  0.00    -0.357 F  
ENDBRANCH  11  12
ENDBRANCH   8  11
ENDBRANCH   2   6
TORSDOF 3
ENDMDL
MODEL      134
REMARK 921   NORMALIZED FREE ENERGY PREDICTED BY IDOCK:   -4.26 KCAL/MOL
REMARK 922        TOTAL FREE ENERGY PREDICTED BY IDOCK:   -5.42 KCAL/MOL
REMARK 923 INTER-LIGAND FREE ENERGY PREDICTED BY IDOCK:   -4.99 KCAL/MOL
REMARK 924 INTRA-LIGAND FREE ENERGY PREDICTED BY IDOCK:   -0.42 KCAL/MOL
REMARK 927      BINDING AFFINITY PREDICTED BY RF-SCORE:    0.00 PKD
ROOT
HETATM    1  N   UNL     1     -12.017  15.827  73.401  1.00  0.00    -0.445 N  
HETATM    2  C   UNL     1     -12.946  15.736  72.403  1.00  0.00    -0.465 C  
HETATM    3  H1  UNL     1     -11.028  15.650  73.220  1.00  0.00     0.000 HD 
HETATM    4  H2  UNL     1     -12.317  16.079  74.343  1.00  0.00     0.000 HD 
HETATM    5  O   UNL     1     -14.135  15.950  72.620  1.00  0.00    -0.544 OA 
ENDROOT
BRANCH   2   6
HETATM    6  C   UNL     1     -12.415  15.349  71.107  1.00  0.00    -0.402 A  
HETATM    7  C   UNL     1     -12.989  14.498  70.184  1.00  0.00    -0.003 A  
HETATM    8  N   UNL     1     -12.055  14.396  69.193  1.00  0.00    -0.308 NA 
HETATM    9  N   UNL     1     -11.194  15.765  70.625  1.00  0.00    -0.346 NA 
HETATM   10  N   UNL     1     -10.984  15.173  69.456  1.00  0.00    -0.259 NA 
BRANCH   8  11
HETATM   11  C   UNL     1     -11.984  13.382  68.157  1.00  0.00    -0.321 C  
BRANCH  11  12
HETATM   12  C   UNL     1     -11.121  12.207  68.501  1.00  0.00    -0.295 A  
HETATM   13  C   UNL     1      -9.760  12.202  68.195  1.00  0.00    -0.208 A  
HETATM   14  C   UNL     1      -8.912  11.198  68.664  1.00  0.00    -0.162 A  
HETATM   15  F   UNL     1      -9.234  13.204  67.480  1.00  0.00    -0.178 F  
HETATM   16  C   UNL     1      -9.426  10.163  69.443  1.00  0.00    -0.240 A  
HETATM   17  C   UNL     1     -10.794  10.120  69.710  1.00  0.00    -0.320 A  
HETATM   18  C   UNL     1     -11.625  11.133  69.233  1.00  0.00    -0.318 A  
HETATM   19  F   UNL     1     -12.931  11.089  69.531  1.00  0.00    -0.179 F  
ENDBRANCH  11  12
ENDBRANCH   8  11
ENDBRANCH   2   6
TORSDOF 3
ENDMDL
MODEL      135
REMARK 921   NORMALIZED FREE ENERGY PREDICTED BY IDOCK:   -4.25 KCAL/MOL
REMARK 922        TOTAL FREE ENERGY PREDICTED BY IDOCK:   -5.41 KCAL/MOL
REMARK 923 INTER-LIGAND FREE ENERGY PREDICTED BY IDOCK:   -5.22 KCAL/MOL
REMARK 924 INTRA-LIGAND FREE ENERGY PREDICTED BY IDOCK:   -0.18 KCAL/MOL
REMARK 927      BINDING AFFINITY PREDICTED BY RF-SCORE:    0.00 PKD
ROOT
HETATM    1  N   UNL     1     -11.849  11.878  67.272  1.00  0.00    -0.233 N  
HETATM    2  C   UNL     1     -11.873  12.660  66.152  1.00  0.00    -0.418 C  
HETATM    3  H1  UNL     1     -11.163  12.035  68.012  1.00  0.00     0.000 HD 
HETATM    4  H2  UNL     1     -12.529  11.125  67.371  1.00  0.00     0.000 HD 
HETATM    5  O   UNL     1     -12.697  12.472  65.263  1.00  0.00    -0.654 OA 
ENDROOT
BRANCH   2   6
HETATM    6  C   UNL     1     -10.846  13.687  66.102  1.00  0.00    -0.279 A  
HETATM    7  C   UNL     1      -9.894  13.971  67.060  1.00  0.00    -0.260 A  
HETATM    8  N   UNL     1      -9.245  15.071  66.576  1.00  0.00    -0.274 NA 
HETATM    9  N   UNL     1     -10.708  14.581  65.064  1.00  0.00    -0.401 NA 
HETATM   10  N   UNL     1      -9.729  15.423  65.367  1.00  0.00    -0.277 NA 
BRANCH   8  11
HETATM   11  C   UNL     1      -8.398  15.985  67.318  1.00  0.00    -0.181 C  
BRANCH  11  12
HETATM   12  C   UNL     1      -8.211  17.321  66.667  1.00  0.00    -0.296 A  
HETATM   13  C   UNL     1      -9.212  18.291  66.717  1.00  0.00    -0.288 A  
HETATM   14  C   UNL     1      -8.986  19.595  66.274  1.00  0.00    -0.420 A  
HETATM   15  F   UNL     1     -10.404  17.992  67.250  1.00  0.00    -0.318 F  
HETATM   16  C   UNL     1      -7.742  19.944  65.750  1.00  0.00    -0.275 A  
HETATM   17  C   UNL     1      -6.748  18.972  65.638  1.00  0.00    -0.316 A  
HETATM   18  C   UNL     1      -6.993  17.675  66.088  1.00  0.00    -0.303 A  
HETATM   19  F   UNL     1      -6.011  16.767  66.002  1.00  0.00    -0.031 F  
ENDBRANCH  11  12
ENDBRANCH   8  11
ENDBRANCH   2   6
TORSDOF 3
ENDMDL
MODEL      136
REMARK 921   NORMALIZED FREE ENERGY PREDICTED BY IDOCK:   -4.24 KCAL/MOL
REMARK 922        TOTAL FREE ENERGY PREDICTED BY IDOCK:   -5.40 KCAL/MOL
REMARK 923 INTER-LIGAND FREE ENERGY PREDICTED BY IDOCK:   -4.98 KCAL/MOL
REMARK 924 INTRA-LIGAND FREE ENERGY PREDICTED BY IDOCK:   -0.41 KCAL/MOL
REMARK 927      BINDING AFFINITY PREDICTED BY RF-SCORE:    0.00 PKD
ROOT
HETATM    1  N   UNL     1      -8.097   4.261  71.402  1.00  0.00    -0.081 N  
HETATM    2  C   UNL     1      -8.337   4.858  72.607  1.00  0.00    -0.116 C  
HETATM    3  H1  UNL     1      -8.719   4.406  70.606  1.00  0.00     0.000 HD 
HETATM    4  H2  UNL     1      -7.279   3.660  71.295  1.00  0.00     0.000 HD 
HETATM    5  O   UNL     1      -7.589   4.684  73.563  1.00  0.00    -0.081 OA 
ENDROOT
BRANCH   2   6
HETATM    6  C   UNL     1      -9.540   5.673  72.655  1.00  0.00    -0.150 A  
HETATM    7  C   UNL     1     -10.610   5.644  71.785  1.00  0.00    -0.238 A  
HETATM    8  N   UNL     1     -11.419   6.658  72.211  1.00  0.00    -0.275 NA 
HETATM    9  N   UNL     1      -9.760   6.657  73.594  1.00  0.00    -0.182 NA 
HETATM   10  N   UNL     1     -10.911   7.253  73.309  1.00  0.00    -0.371 NA 
BRANCH   8  11
HETATM   11  C   UNL     1     -12.495   7.290  71.470  1.00  0.00    -0.373 C  
BRANCH  11  12
HETATM   12  C   UNL     1     -12.360   8.775  71.332  1.00  0.00    -0.353 A  
HETATM   13  C   UNL     1     -11.410   9.334  70.478  1.00  0.00    -0.258 A  
HETATM   14  C   UNL     1     -11.391  10.703  70.204  1.00  0.00    -0.402 A  
HETATM   15  F   UNL     1     -10.524   8.545  69.858  1.00  0.00    -0.200 F  
HETATM   16  C   UNL     1     -12.327  11.543  70.806  1.00  0.00    -0.472 A  
HETATM   17  C   UNL     1     -13.247  11.011  71.708  1.00  0.00    -0.505 A  
HETATM   18  C   UNL     1     -13.250   9.640  71.967  1.00  0.00    -0.453 A  
HETATM   19  F   UNL     1     -14.166   9.146  72.811  1.00  0.00    -0.475 F  
ENDBRANCH  11  12
ENDBRANCH   8  11
ENDBRANCH   2   6
TORSDOF 3
ENDMDL
MODEL      137
REMARK 921   NORMALIZED FREE ENERGY PREDICTED BY IDOCK:   -4.24 KCAL/MOL
REMARK 922        TOTAL FREE ENERGY PREDICTED BY IDOCK:   -5.39 KCAL/MOL
REMARK 923 INTER-LIGAND FREE ENERGY PREDICTED BY IDOCK:   -4.96 KCAL/MOL
REMARK 924 INTRA-LIGAND FREE ENERGY PREDICTED BY IDOCK:   -0.43 KCAL/MOL
REMARK 927      BINDING AFFINITY PREDICTED BY RF-SCORE:    0.00 PKD
ROOT
HETATM    1  N   UNL     1     -12.328   9.293  71.436  1.00  0.00    -0.326 N  
HETATM    2  C   UNL     1     -11.113   9.676  70.942  1.00  0.00    -0.352 C  
HETATM    3  H1  UNL     1     -13.195   9.533  70.953  1.00  0.00     0.000 HD 
HETATM    4  H2  UNL     1     -12.370   8.757  72.303  1.00  0.00     0.000 HD 
HETATM    5  O   UNL     1     -10.071   9.387  71.522  1.00  0.00    -0.288 OA 
ENDROOT
BRANCH   2   6
HETATM    6  C   UNL     1     -11.170  10.455  69.716  1.00  0.00    -0.293 A  
HETATM    7  C   UNL     1     -10.130  10.746  68.857  1.00  0.00    -0.205 A  
HETATM    8  N   UNL     1     -10.684  11.575  67.925  1.00  0.00    -0.191 NA 
HETATM    9  N   UNL     1     -12.312  11.069  69.252  1.00  0.00    -0.408 NA 
HETATM   10  N   UNL     1     -12.000  11.753  68.158  1.00  0.00    -0.557 NA 
BRANCH   8  11
HETATM   11  C   UNL     1      -9.983  12.445  66.999  1.00  0.00    -0.212 C  
BRANCH  11  12
HETATM   12  C   UNL     1      -9.891  11.914  65.602  1.00  0.00    -0.266 A  
HETATM   13  C   UNL     1      -8.917  10.980  65.250  1.00  0.00    -0.163 A  
HETATM   14  C   UNL     1      -8.930  10.346  64.006  1.00  0.00    -0.249 A  
HETATM   15  F   UNL     1      -7.973  10.635  66.135  1.00  0.00    -0.128 F  
HETATM   16  C   UNL     1      -9.923  10.658  63.079  1.00  0.00    -0.239 A  
HETATM   17  C   UNL     1     -10.871  11.632  63.391  1.00  0.00    -0.453 A  
HETATM   18  C   UNL     1     -10.841  12.253  64.639  1.00  0.00    -0.308 A  
HETATM   19  F   UNL     1     -11.783  13.162  64.930  1.00  0.00    -0.327 F  
ENDBRANCH  11  12
ENDBRANCH   8  11
ENDBRANCH   2   6
TORSDOF 3
ENDMDL
MODEL      138
REMARK 921   NORMALIZED FREE ENERGY PREDICTED BY IDOCK:   -4.21 KCAL/MOL
REMARK 922        TOTAL FREE ENERGY PREDICTED BY IDOCK:   -5.36 KCAL/MOL
REMARK 923 INTER-LIGAND FREE ENERGY PREDICTED BY IDOCK:   -5.06 KCAL/MOL
REMARK 924 INTRA-LIGAND FREE ENERGY PREDICTED BY IDOCK:   -0.30 KCAL/MOL
REMARK 927      BINDING AFFINITY PREDICTED BY RF-SCORE:    0.00 PKD
ROOT
HETATM    1  N   UNL     1      -8.952   9.263  67.790  1.00  0.00    -0.127 N  
HETATM    2  C   UNL     1      -9.470  10.074  68.760  1.00  0.00    -0.162 C  
HETATM    3  H1  UNL     1      -9.152   9.425  66.803  1.00  0.00     0.000 HD 
HETATM    4  H2  UNL     1      -8.353   8.482  68.058  1.00  0.00     0.000 HD 
HETATM    5  O   UNL     1      -9.229   9.880  69.947  1.00  0.00    -0.219 OA 
ENDROOT
BRANCH   2   6
HETATM    6  C   UNL     1     -10.328  11.141  68.270  1.00  0.00    -0.180 A  
HETATM    7  C   UNL     1     -10.228  12.490  68.543  1.00  0.00    -0.203 A  
HETATM    8  N   UNL     1     -11.315  13.040  67.926  1.00  0.00    -0.270 NA 
HETATM    9  N   UNL     1     -11.428  10.932  67.469  1.00  0.00    -0.512 NA 
HETATM   10  N   UNL     1     -12.024  12.100  67.268  1.00  0.00    -0.578 NA 
BRANCH   8  11
HETATM   11  C   UNL     1     -11.888  14.351  68.167  1.00  0.00    -0.327 C  
BRANCH  11  12
HETATM   12  C   UNL     1     -11.033  15.492  67.707  1.00  0.00    -0.317 A  
HETATM   13  C   UNL     1     -10.672  15.625  66.366  1.00  0.00    -0.291 A  
HETATM   14  C   UNL     1     -10.031  16.772  65.895  1.00  0.00    -0.299 A  
HETATM   15  F   UNL     1     -10.991  14.663  65.491  1.00  0.00    -0.295 F  
HETATM   16  C   UNL     1      -9.721  17.806  66.776  1.00  0.00    -0.309 A  
HETATM   17  C   UNL     1     -10.021  17.665  68.130  1.00  0.00    -0.330 A  
HETATM   18  C   UNL     1     -10.664  16.513  68.582  1.00  0.00    -0.334 A  
HETATM   19  F   UNL     1     -10.973  16.415  69.883  1.00  0.00    -0.304 F  
ENDBRANCH  11  12
ENDBRANCH   8  11
ENDBRANCH   2   6
TORSDOF 3
ENDMDL
MODEL      139
REMARK 921   NORMALIZED FREE ENERGY PREDICTED BY IDOCK:   -4.20 KCAL/MOL
REMARK 922        TOTAL FREE ENERGY PREDICTED BY IDOCK:   -5.34 KCAL/MOL
REMARK 923 INTER-LIGAND FREE ENERGY PREDICTED BY IDOCK:   -5.15 KCAL/MOL
REMARK 924 INTRA-LIGAND FREE ENERGY PREDICTED BY IDOCK:   -0.19 KCAL/MOL
REMARK 927      BINDING AFFINITY PREDICTED BY RF-SCORE:    0.00 PKD
ROOT
HETATM    1  N   UNL     1     -11.803  13.227  70.359  1.00  0.00    -0.536 N  
HETATM    2  C   UNL     1     -11.475  13.316  69.036  1.00  0.00    -0.302 C  
HETATM    3  H1  UNL     1     -11.200  13.622  71.081  1.00  0.00     0.000 HD 
HETATM    4  H2  UNL     1     -12.667  12.757  70.630  1.00  0.00     0.000 HD 
HETATM    5  O   UNL     1     -12.201  12.841  68.167  1.00  0.00    -0.198 OA 
ENDROOT
BRANCH   2   6
HETATM    6  C   UNL     1     -10.214  13.984  68.762  1.00  0.00    -0.197 A  
HETATM    7  C   UNL     1      -9.869  15.285  69.066  1.00  0.00    -0.230 A  
HETATM    8  N   UNL     1      -8.628  15.442  68.519  1.00  0.00    -0.164 NA 
HETATM    9  N   UNL     1      -9.164  13.393  68.095  1.00  0.00    -0.211 NA 
HETATM   10  N   UNL     1      -8.202  14.295  67.951  1.00  0.00    -0.143 NA 
BRANCH   8  11
HETATM   11  C   UNL     1      -7.944  16.691  68.243  1.00  0.00    -0.192 C  
BRANCH  11  12
HETATM   12  C   UNL     1      -8.833  17.780  67.725  1.00  0.00    -0.249 A  
HETATM   13  C   UNL     1      -9.666  17.567  66.626  1.00  0.00    -0.299 A  
HETATM   14  C   UNL     1     -10.624  18.507  66.245  1.00  0.00    -0.370 A  
HETATM   15  F   UNL     1      -9.590  16.415  65.946  1.00  0.00    -0.304 F  
HETATM   16  C   UNL     1     -10.751  19.697  66.958  1.00  0.00    -0.575 A  
HETATM   17  C   UNL     1      -9.888  19.954  68.023  1.00  0.00    -0.534 A  
HETATM   18  C   UNL     1      -8.937  19.001  68.390  1.00  0.00    -0.338 A  
HETATM   19  F   UNL     1      -8.142  19.255  69.438  1.00  0.00    -0.307 F  
ENDBRANCH  11  12
ENDBRANCH   8  11
ENDBRANCH   2   6
TORSDOF 3
ENDMDL
MODEL      140
REMARK 921   NORMALIZED FREE ENERGY PREDICTED BY IDOCK:   -4.19 KCAL/MOL
REMARK 922        TOTAL FREE ENERGY PREDICTED BY IDOCK:   -5.34 KCAL/MOL
REMARK 923 INTER-LIGAND FREE ENERGY PREDICTED BY IDOCK:   -4.91 KCAL/MOL
REMARK 924 INTRA-LIGAND FREE ENERGY PREDICTED BY IDOCK:   -0.43 KCAL/MOL
REMARK 927      BINDING AFFINITY PREDICTED BY RF-SCORE:    0.00 PKD
ROOT
HETATM    1  N   UNL     1      -6.783  10.088  69.616  1.00  0.00    -0.057 N  
HETATM    2  C   UNL     1      -7.239   9.369  70.684  1.00  0.00    -0.128 C  
HETATM    3  H1  UNL     1      -7.427  10.564  68.985  1.00  0.00     0.000 HD 
HETATM    4  H2  UNL     1      -5.779  10.150  69.447  1.00  0.00     0.000 HD 
HETATM    5  O   UNL     1      -6.464   8.796  71.444  1.00  0.00    -0.059 OA 
ENDROOT
BRANCH   2   6
HETATM    6  C   UNL     1      -8.686   9.326  70.818  1.00  0.00    -0.217 A  
HETATM    7  C   UNL     1      -9.628   9.587  69.843  1.00  0.00    -0.223 A  
HETATM    8  N   UNL     1     -10.823   9.503  70.498  1.00  0.00    -0.266 NA 
HETATM    9  N   UNL     1      -9.337   9.048  71.999  1.00  0.00    -0.347 NA 
HETATM   10  N   UNL     1     -10.643   9.163  71.791  1.00  0.00    -0.358 NA 
BRANCH   8  11
HETATM   11  C   UNL     1     -12.105  10.014  70.050  1.00  0.00    -0.021 C  
BRANCH  11  12
HETATM   12  C   UNL     1     -12.398  11.416  70.486  1.00  0.00    -0.439 A  
HETATM   13  C   UNL     1     -13.042  11.673  71.696  1.00  0.00    -0.351 A  
HETATM   14  C   UNL     1     -13.162  12.970  72.197  1.00  0.00    -0.558 A  
HETATM   15  F   UNL     1     -13.513  10.656  72.429  1.00  0.00    -0.502 F  
HETATM   16  C   UNL     1     -12.646  14.044  71.473  1.00  0.00    -0.432 A  
HETATM   17  C   UNL     1     -12.051  13.813  70.234  1.00  0.00    -0.425 A  
HETATM   18  C   UNL     1     -11.940  12.509  69.751  1.00  0.00    -0.289 A  
HETATM   19  F   UNL     1     -11.334  12.308  68.572  1.00  0.00    -0.237 F  
ENDBRANCH  11  12
ENDBRANCH   8  11
ENDBRANCH   2   6
TORSDOF 3
ENDMDL
MODEL      141
REMARK 921   NORMALIZED FREE ENERGY PREDICTED BY IDOCK:   -4.19 KCAL/MOL
REMARK 922        TOTAL FREE ENERGY PREDICTED BY IDOCK:   -5.34 KCAL/MOL
REMARK 923 INTER-LIGAND FREE ENERGY PREDICTED BY IDOCK:   -5.08 KCAL/MOL
REMARK 924 INTRA-LIGAND FREE ENERGY PREDICTED BY IDOCK:   -0.26 KCAL/MOL
REMARK 927      BINDING AFFINITY PREDICTED BY RF-SCORE:    0.00 PKD
ROOT
HETATM    1  N   UNL     1     -11.653  12.318  65.961  1.00  0.00    -0.386 N  
HETATM    2  C   UNL     1     -11.735  12.775  67.246  1.00  0.00    -0.378 C  
HETATM    3  H1  UNL     1     -11.574  11.321  65.758  1.00  0.00     0.000 HD 
HETATM    4  H2  UNL     1     -11.670  12.986  65.190  1.00  0.00     0.000 HD 
HETATM    5  O   UNL     1     -11.829  13.974  67.489  1.00  0.00    -0.365 OA 
ENDROOT
BRANCH   2   6
HETATM    6  C   UNL     1     -11.678  11.742  68.266  1.00  0.00    -0.310 A  
HETATM    7  C   UNL     1     -12.328  11.727  69.484  1.00  0.00    -0.058 A  
HETATM    8  N   UNL     1     -11.869  10.597  70.098  1.00  0.00    -0.308 NA 
HETATM    9  N   UNL     1     -10.899  10.610  68.168  1.00  0.00    -0.224 NA 
HETATM   10  N   UNL     1     -11.023   9.921  69.295  1.00  0.00    -0.225 NA 
BRANCH   8  11
HETATM   11  C   UNL     1     -11.953  10.271  71.509  1.00  0.00    -0.268 C  
BRANCH  11  12
HETATM   12  C   UNL     1     -11.768   8.818  71.820  1.00  0.00    -0.416 A  
HETATM   13  C   UNL     1     -12.827   7.918  71.707  1.00  0.00    -0.328 A  
HETATM   14  C   UNL     1     -12.629   6.541  71.819  1.00  0.00    -0.240 A  
HETATM   15  F   UNL     1     -14.058   8.368  71.431  1.00  0.00    -0.395 F  
HETATM   16  C   UNL     1     -11.351   6.042  72.068  1.00  0.00    -0.345 A  
HETATM   17  C   UNL     1     -10.290   6.930  72.242  1.00  0.00    -0.219 A  
HETATM   18  C   UNL     1     -10.509   8.303  72.125  1.00  0.00    -0.301 A  
HETATM   19  F   UNL     1      -9.467   9.135  72.263  1.00  0.00    -0.310 F  
ENDBRANCH  11  12
ENDBRANCH   8  11
ENDBRANCH   2   6
TORSDOF 3
ENDMDL
MODEL      142
REMARK 921   NORMALIZED FREE ENERGY PREDICTED BY IDOCK:   -4.19 KCAL/MOL
REMARK 922        TOTAL FREE ENERGY PREDICTED BY IDOCK:   -5.33 KCAL/MOL
REMARK 923 INTER-LIGAND FREE ENERGY PREDICTED BY IDOCK:   -4.88 KCAL/MOL
REMARK 924 INTRA-LIGAND FREE ENERGY PREDICTED BY IDOCK:   -0.45 KCAL/MOL
REMARK 927      BINDING AFFINITY PREDICTED BY RF-SCORE:    0.00 PKD
ROOT
HETATM    1  N   UNL     1      -8.630   8.955  65.587  1.00  0.00    -0.156 N  
HETATM    2  C   UNL     1      -9.667   8.888  66.474  1.00  0.00    -0.254 C  
HETATM    3  H1  UNL     1      -8.146   9.834  65.405  1.00  0.00     0.000 HD 
HETATM    4  H2  UNL     1      -8.333   8.109  65.100  1.00  0.00     0.000 HD 
HETATM    5  O   UNL     1     -10.249   7.830  66.694  1.00  0.00    -0.269 OA 
ENDROOT
BRANCH   2   6
HETATM    6  C   UNL     1     -10.023  10.154  67.094  1.00  0.00    -0.196 A  
HETATM    7  C   UNL     1     -11.262  10.760  67.114  1.00  0.00    -0.147 A  
HETATM    8  N   UNL     1     -11.042  11.958  67.732  1.00  0.00    -0.223 NA 
HETATM    9  N   UNL     1      -9.120  10.972  67.736  1.00  0.00    -0.145 NA 
HETATM   10  N   UNL     1      -9.755  12.072  68.119  1.00  0.00    -0.194 NA 
BRANCH   8  11
HETATM   11  C   UNL     1     -11.906  13.123  67.716  1.00  0.00    -0.348 C  
BRANCH  11  12
HETATM   12  C   UNL     1     -11.639  14.075  66.592  1.00  0.00    -0.400 A  
HETATM   13  C   UNL     1     -12.305  13.952  65.372  1.00  0.00    -0.470 A  
HETATM   14  C   UNL     1     -12.200  14.931  64.383  1.00  0.00    -0.399 A  
HETATM   15  F   UNL     1     -13.108  12.904  65.154  1.00  0.00    -0.533 F  
HETATM   16  C   UNL     1     -11.401  16.053  64.598  1.00  0.00    -0.312 A  
HETATM   17  C   UNL     1     -10.681  16.164  65.787  1.00  0.00    -0.289 A  
HETATM   18  C   UNL     1     -10.800  15.176  66.764  1.00  0.00    -0.322 A  
HETATM   19  F   UNL     1     -10.125  15.321  67.913  1.00  0.00    -0.225 F  
ENDBRANCH  11  12
ENDBRANCH   8  11
ENDBRANCH   2   6
TORSDOF 3
ENDMDL
MODEL      143
REMARK 921   NORMALIZED FREE ENERGY PREDICTED BY IDOCK:   -4.18 KCAL/MOL
REMARK 922        TOTAL FREE ENERGY PREDICTED BY IDOCK:   -5.33 KCAL/MOL
REMARK 923 INTER-LIGAND FREE ENERGY PREDICTED BY IDOCK:   -5.07 KCAL/MOL
REMARK 924 INTRA-LIGAND FREE ENERGY PREDICTED BY IDOCK:   -0.25 KCAL/MOL
REMARK 927      BINDING AFFINITY PREDICTED BY RF-SCORE:    0.00 PKD
ROOT
HETATM    1  N   UNL     1      -7.861  18.420  68.745  1.00  0.00    -0.294 N  
HETATM    2  C   UNL     1      -7.689  17.071  68.612  1.00  0.00    -0.251 C  
HETATM    3  H1  UNL     1      -8.608  18.908  68.251  1.00  0.00     0.000 HD 
HETATM    4  H2  UNL     1      -7.231  18.948  69.349  1.00  0.00     0.000 HD 
HETATM    5  O   UNL     1      -6.790  16.483  69.206  1.00  0.00    -0.207 OA 
ENDROOT
BRANCH   2   6
HETATM    6  C   UNL     1      -8.625  16.421  67.710  1.00  0.00    -0.168 A  
HETATM    7  C   UNL     1     -10.001  16.381  67.814  1.00  0.00    -0.248 A  
HETATM    8  N   UNL     1     -10.393  15.576  66.783  1.00  0.00    -0.281 NA 
HETATM    9  N   UNL     1      -8.243  15.690  66.608  1.00  0.00    -0.268 NA 
HETATM   10  N   UNL     1      -9.333  15.177  66.052  1.00  0.00    -0.313 NA 
BRANCH   8  11
HETATM   11  C   UNL     1     -11.678  14.922  66.624  1.00  0.00    -0.217 C  
BRANCH  11  12
HETATM   12  C   UNL     1     -11.721  13.901  65.529  1.00  0.00    -0.356 A  
HETATM   13  C   UNL     1     -11.422  12.562  65.782  1.00  0.00    -0.365 A  
HETATM   14  C   UNL     1     -11.629  11.575  64.817  1.00  0.00    -0.086 A  
HETATM   15  F   UNL     1     -10.977  12.195  66.990  1.00  0.00    -0.251 F  
HETATM   16  C   UNL     1     -12.129  11.923  63.563  1.00  0.00    -0.575 A  
HETATM   17  C   UNL     1     -12.377  13.264  63.273  1.00  0.00    -0.317 A  
HETATM   18  C   UNL     1     -12.165  14.236  64.250  1.00  0.00    -0.423 A  
HETATM   19  F   UNL     1     -12.444  15.515  63.959  1.00  0.00    -0.453 F  
ENDBRANCH  11  12
ENDBRANCH   8  11
ENDBRANCH   2   6
TORSDOF 3
ENDMDL
MODEL      144
REMARK 921   NORMALIZED FREE ENERGY PREDICTED BY IDOCK:   -4.17 KCAL/MOL
REMARK 922        TOTAL FREE ENERGY PREDICTED BY IDOCK:   -5.32 KCAL/MOL
REMARK 923 INTER-LIGAND FREE ENERGY PREDICTED BY IDOCK:   -4.87 KCAL/MOL
REMARK 924 INTRA-LIGAND FREE ENERGY PREDICTED BY IDOCK:   -0.45 KCAL/MOL
REMARK 927      BINDING AFFINITY PREDICTED BY RF-SCORE:    0.00 PKD
ROOT
HETATM    1  N   UNL     1      -6.653   9.947  69.236  1.00  0.00    -0.048 N  
HETATM    2  C   UNL     1      -7.046   9.095  70.229  1.00  0.00    -0.063 C  
HETATM    3  H1  UNL     1      -7.321  10.565  68.775  1.00  0.00     0.000 HD 
HETATM    4  H2  UNL     1      -5.674   9.965  68.950  1.00  0.00     0.000 HD 
HETATM    5  O   UNL     1      -6.242   8.351  70.784  1.00  0.00    -0.032 OA 
ENDROOT
BRANCH   2   6
HETATM    6  C   UNL     1      -8.465   9.133  70.540  1.00  0.00    -0.205 A  
HETATM    7  C   UNL     1      -9.511   9.349  69.666  1.00  0.00    -0.189 A  
HETATM    8  N   UNL     1     -10.617   9.381  70.466  1.00  0.00    -0.248 NA 
HETATM    9  N   UNL     1      -8.973   8.994  71.813  1.00  0.00    -0.357 NA 
HETATM   10  N   UNL     1     -10.290   9.151  71.754  1.00  0.00    -0.331 NA 
BRANCH   8  11
HETATM   11  C   UNL     1     -11.926   9.909  70.129  1.00  0.00    -0.077 C  
BRANCH  11  12
HETATM   12  C   UNL     1     -12.175  11.303  70.619  1.00  0.00    -0.489 A  
HETATM   13  C   UNL     1     -11.687  12.408  69.921  1.00  0.00    -0.266 A  
HETATM   14  C   UNL     1     -12.060  13.708  70.263  1.00  0.00    -0.427 A  
HETATM   15  F   UNL     1     -10.887  12.227  68.863  1.00  0.00    -0.224 F  
HETATM   16  C   UNL     1     -12.923  13.923  71.336  1.00  0.00    -0.430 A  
HETATM   17  C   UNL     1     -13.374  12.835  72.082  1.00  0.00    -0.593 A  
HETATM   18  C   UNL     1     -12.991  11.542  71.723  1.00  0.00    -0.394 A  
HETATM   19  F   UNL     1     -13.464  10.509  72.434  1.00  0.00    -0.495 F  
ENDBRANCH  11  12
ENDBRANCH   8  11
ENDBRANCH   2   6
TORSDOF 3
ENDMDL
MODEL      145
REMARK 921   NORMALIZED FREE ENERGY PREDICTED BY IDOCK:   -4.13 KCAL/MOL
REMARK 922        TOTAL FREE ENERGY PREDICTED BY IDOCK:   -5.26 KCAL/MOL
REMARK 923 INTER-LIGAND FREE ENERGY PREDICTED BY IDOCK:   -4.92 KCAL/MOL
REMARK 924 INTRA-LIGAND FREE ENERGY PREDICTED BY IDOCK:   -0.34 KCAL/MOL
REMARK 927      BINDING AFFINITY PREDICTED BY RF-SCORE:    0.00 PKD
ROOT
HETATM    1  N   UNL     1     -12.342   8.600  70.919  1.00  0.00    -0.485 N  
HETATM    2  C   UNL     1     -11.100   8.980  70.494  1.00  0.00    -0.254 C  
HETATM    3  H1  UNL     1     -13.186   9.006  70.516  1.00  0.00     0.000 HD 
HETATM    4  H2  UNL     1     -12.425   7.897  71.654  1.00  0.00     0.000 HD 
HETATM    5  O   UNL     1     -10.084   8.493  70.979  1.00  0.00    -0.188 OA 
ENDROOT
BRANCH   2   6
HETATM    6  C   UNL     1     -11.096  10.004  69.462  1.00  0.00    -0.238 A  
HETATM    7  C   UNL     1     -11.491  11.321  69.583  1.00  0.00    -0.309 A  
HETATM    8  N   UNL     1     -11.382  11.823  68.318  1.00  0.00    -0.257 NA 
HETATM    9  N   UNL     1     -10.720   9.773  68.157  1.00  0.00    -0.237 NA 
HETATM   10  N   UNL     1     -10.902  10.893  67.468  1.00  0.00    -0.252 NA 
BRANCH   8  11
HETATM   11  C   UNL     1     -11.982  13.040  67.805  1.00  0.00    -0.295 C  
BRANCH  11  12
HETATM   12  C   UNL     1     -11.360  14.301  68.321  1.00  0.00    -0.314 A  
HETATM   13  C   UNL     1     -10.385  14.975  67.585  1.00  0.00    -0.243 A  
HETATM   14  C   UNL     1      -9.928  16.238  67.966  1.00  0.00    -0.240 A  
HETATM   15  F   UNL     1      -9.908  14.434  66.457  1.00  0.00    -0.248 F  
HETATM   16  C   UNL     1     -10.435  16.842  69.115  1.00  0.00    -0.343 A  
HETATM   17  C   UNL     1     -11.366  16.158  69.895  1.00  0.00    -0.318 A  
HETATM   18  C   UNL     1     -11.812  14.898  69.497  1.00  0.00    -0.325 A  
HETATM   19  F   UNL     1     -12.733  14.274  70.245  1.00  0.00    -0.377 F  
ENDBRANCH  11  12
ENDBRANCH   8  11
ENDBRANCH   2   6
TORSDOF 3
ENDMDL
MODEL      146
REMARK 921   NORMALIZED FREE ENERGY PREDICTED BY IDOCK:   -4.10 KCAL/MOL
REMARK 922        TOTAL FREE ENERGY PREDICTED BY IDOCK:   -5.23 KCAL/MOL
REMARK 923 INTER-LIGAND FREE ENERGY PREDICTED BY IDOCK:   -4.88 KCAL/MOL
REMARK 924 INTRA-LIGAND FREE ENERGY PREDICTED BY IDOCK:   -0.35 KCAL/MOL
REMARK 927      BINDING AFFINITY PREDICTED BY RF-SCORE:    0.00 PKD
ROOT
HETATM    1  N   UNL     1     -13.628  15.428  70.727  1.00  0.00    -0.814 N  
HETATM    2  C   UNL     1     -12.867  14.298  70.625  1.00  0.00    -0.314 C  
HETATM    3  H1  UNL     1     -13.582  16.162  70.020  1.00  0.00     0.000 HD 
HETATM    4  H2  UNL     1     -14.255  15.540  71.524  1.00  0.00     0.000 HD 
HETATM    5  O   UNL     1     -12.923  13.415  71.476  1.00  0.00    -0.350 OA 
ENDROOT
BRANCH   2   6
HETATM    6  C   UNL     1     -11.994  14.252  69.465  1.00  0.00    -0.336 A  
HETATM    7  C   UNL     1     -11.138  13.233  69.097  1.00  0.00    -0.209 A  
HETATM    8  N   UNL     1     -10.486  13.719  68.000  1.00  0.00    -0.239 NA 
HETATM    9  N   UNL     1     -11.867  15.283  68.561  1.00  0.00    -0.321 NA 
HETATM   10  N   UNL     1     -10.940  14.946  67.672  1.00  0.00    -0.290 NA 
BRANCH   8  11
HETATM   11  C   UNL     1      -9.254  13.218  67.421  1.00  0.00    -0.216 C  
BRANCH  11  12
HETATM   12  C   UNL     1      -9.383  11.882  66.756  1.00  0.00    -0.204 A  
HETATM   13  C   UNL     1     -10.182  11.716  65.625  1.00  0.00    -0.243 A  
HETATM   14  C   UNL     1     -10.172  10.528  64.893  1.00  0.00    -0.371 A  
HETATM   15  F   UNL     1     -10.940  12.731  65.189  1.00  0.00    -0.296 F  
HETATM   16  C   UNL     1      -9.364   9.468  65.302  1.00  0.00    -0.317 A  
HETATM   17  C   UNL     1      -8.603   9.595  66.463  1.00  0.00    -0.135 A  
HETATM   18  C   UNL     1      -8.626  10.791  67.180  1.00  0.00    -0.128 A  
HETATM   19  F   UNL     1      -7.860  10.901  68.274  1.00  0.00    -0.100 F  
ENDBRANCH  11  12
ENDBRANCH   8  11
ENDBRANCH   2   6
TORSDOF 3
ENDMDL
MODEL      147
REMARK 921   NORMALIZED FREE ENERGY PREDICTED BY IDOCK:   -4.10 KCAL/MOL
REMARK 922        TOTAL FREE ENERGY PREDICTED BY IDOCK:   -5.23 KCAL/MOL
REMARK 923 INTER-LIGAND FREE ENERGY PREDICTED BY IDOCK:   -4.92 KCAL/MOL
REMARK 924 INTRA-LIGAND FREE ENERGY PREDICTED BY IDOCK:   -0.30 KCAL/MOL
REMARK 927      BINDING AFFINITY PREDICTED BY RF-SCORE:    0.00 PKD
ROOT
HETATM    1  N   UNL     1     -11.189   4.499  65.214  1.00  0.00    -0.973 N  
HETATM    2  C   UNL     1     -10.039   4.827  65.875  1.00  0.00    -0.242 C  
HETATM    3  H1  UNL     1     -12.069   4.974  65.416  1.00  0.00     0.000 HD 
HETATM    4  H2  UNL     1     -11.167   3.765  64.506  1.00  0.00     0.000 HD 
HETATM    5  O   UNL     1      -8.980   4.255  65.632  1.00  0.00    -0.122 OA 
ENDROOT
BRANCH   2   6
HETATM    6  C   UNL     1     -10.187   5.867  66.879  1.00  0.00    -0.214 A  
HETATM    7  C   UNL     1      -9.504   7.065  66.954  1.00  0.00    -0.160 A  
HETATM    8  N   UNL     1      -9.939   7.628  68.120  1.00  0.00    -0.169 NA 
HETATM    9  N   UNL     1     -11.034   5.773  67.960  1.00  0.00    -0.169 NA 
HETATM   10  N   UNL     1     -10.871   6.854  68.712  1.00  0.00    -0.213 NA 
BRANCH   8  11
HETATM   11  C   UNL     1      -9.312   8.709  68.857  1.00  0.00    -0.145 C  
BRANCH  11  12
HETATM   12  C   UNL     1     -10.275   9.634  69.536  1.00  0.00    -0.233 A  
HETATM   13  C   UNL     1     -10.909  10.656  68.829  1.00  0.00    -0.229 A  
HETATM   14  C   UNL     1     -11.936  11.408  69.401  1.00  0.00    -0.407 A  
HETATM   15  F   UNL     1     -10.570  10.896  67.556  1.00  0.00    -0.212 F  
HETATM   16  C   UNL     1     -12.336  11.154  70.712  1.00  0.00    -0.504 A  
HETATM   17  C   UNL     1     -11.674  10.176  71.453  1.00  0.00    -0.373 A  
HETATM   18  C   UNL     1     -10.650   9.434  70.863  1.00  0.00    -0.320 A  
HETATM   19  F   UNL     1     -10.052   8.475  71.584  1.00  0.00    -0.239 F  
ENDBRANCH  11  12
ENDBRANCH   8  11
ENDBRANCH   2   6
TORSDOF 3
ENDMDL
MODEL      148
REMARK 921   NORMALIZED FREE ENERGY PREDICTED BY IDOCK:   -4.10 KCAL/MOL
REMARK 922        TOTAL FREE ENERGY PREDICTED BY IDOCK:   -5.23 KCAL/MOL
REMARK 923 INTER-LIGAND FREE ENERGY PREDICTED BY IDOCK:   -4.93 KCAL/MOL
REMARK 924 INTRA-LIGAND FREE ENERGY PREDICTED BY IDOCK:   -0.29 KCAL/MOL
REMARK 927      BINDING AFFINITY PREDICTED BY RF-SCORE:    0.00 PKD
ROOT
HETATM    1  N   UNL     1     -12.756  11.615  62.858  1.00  0.00    -0.816 N  
HETATM    2  C   UNL     1     -12.241  12.699  63.510  1.00  0.00    -0.547 C  
HETATM    3  H1  UNL     1     -12.500  10.665  63.128  1.00  0.00     0.000 HD 
HETATM    4  H2  UNL     1     -13.408  11.758  62.086  1.00  0.00     0.000 HD 
HETATM    5  O   UNL     1     -12.549  13.842  63.185  1.00  0.00    -0.793 OA 
ENDROOT
BRANCH   2   6
HETATM    6  C   UNL     1     -11.306  12.383  64.577  1.00  0.00    -0.328 A  
HETATM    7  C   UNL     1     -11.466  12.609  65.929  1.00  0.00    -0.363 A  
HETATM    8  N   UNL     1     -10.276  12.224  66.478  1.00  0.00    -0.212 NA 
HETATM    9  N   UNL     1     -10.062  11.832  64.365  1.00  0.00    -0.271 NA 
HETATM   10  N   UNL     1      -9.442  11.742  65.535  1.00  0.00    -0.206 NA 
BRANCH   8  11
HETATM   11  C   UNL     1      -9.772  12.559  67.797  1.00  0.00    -0.202 C  
BRANCH  11  12
HETATM   12  C   UNL     1      -9.135  11.414  68.524  1.00  0.00    -0.169 A  
HETATM   13  C   UNL     1      -9.903  10.521  69.272  1.00  0.00    -0.205 A  
HETATM   14  C   UNL     1      -9.351   9.355  69.804  1.00  0.00    -0.217 A  
HETATM   15  F   UNL     1     -11.211  10.750  69.445  1.00  0.00    -0.226 F  
HETATM   16  C   UNL     1      -8.001   9.073  69.606  1.00  0.00    -0.093 A  
HETATM   17  C   UNL     1      -7.205   9.983  68.911  1.00  0.00    -0.077 A  
HETATM   18  C   UNL     1      -7.775  11.142  68.386  1.00  0.00    -0.125 A  
HETATM   19  F   UNL     1      -6.997  11.985  67.692  1.00  0.00    -0.082 F  
ENDBRANCH  11  12
ENDBRANCH   8  11
ENDBRANCH   2   6
TORSDOF 3
ENDMDL
MODEL      149
REMARK 921   NORMALIZED FREE ENERGY PREDICTED BY IDOCK:   -4.10 KCAL/MOL
REMARK 922        TOTAL FREE ENERGY PREDICTED BY IDOCK:   -5.23 KCAL/MOL
REMARK 923 INTER-LIGAND FREE ENERGY PREDICTED BY IDOCK:   -5.16 KCAL/MOL
REMARK 924 INTRA-LIGAND FREE ENERGY PREDICTED BY IDOCK:   -0.07 KCAL/MOL
REMARK 927      BINDING AFFINITY PREDICTED BY RF-SCORE:    0.00 PKD
ROOT
HETATM    1  N   UNL     1     -11.796  16.635  72.130  1.00  0.00    -0.597 N  
HETATM    2  C   UNL     1     -12.735  15.691  71.825  1.00  0.00    -0.451 C  
HETATM    3  H1  UNL     1     -10.878  16.631  71.684  1.00  0.00     0.000 HD 
HETATM    4  H2  UNL     1     -12.017  17.358  72.816  1.00  0.00     0.000 HD 
HETATM    5  O   UNL     1     -13.839  15.696  72.361  1.00  0.00    -0.515 OA 
ENDROOT
BRANCH   2   6
HETATM    6  C   UNL     1     -12.310  14.696  70.855  1.00  0.00    -0.336 A  
HETATM    7  C   UNL     1     -12.820  13.426  70.675  1.00  0.00    -0.087 A  
HETATM    8  N   UNL     1     -12.019  12.875  69.716  1.00  0.00    -0.315 NA 
HETATM    9  N   UNL     1     -11.266  14.882  69.976  1.00  0.00    -0.261 NA 
HETATM   10  N   UNL     1     -11.097  13.760  69.288  1.00  0.00    -0.238 NA 
BRANCH   8  11
HETATM   11  C   UNL     1     -11.885  11.467  69.392  1.00  0.00    -0.351 C  
BRANCH  11  12
HETATM   12  C   UNL     1     -10.914  11.176  68.289  1.00  0.00    -0.278 A  
HETATM   13  C   UNL     1      -9.778  10.400  68.518  1.00  0.00    -0.168 A  
HETATM   14  C   UNL     1      -8.963   9.974  67.468  1.00  0.00    -0.141 A  
HETATM   15  F   UNL     1      -9.482  10.002  69.762  1.00  0.00    -0.204 F  
HETATM   16  C   UNL     1      -9.270  10.341  66.159  1.00  0.00    -0.192 A  
HETATM   17  C   UNL     1     -10.367  11.166  65.917  1.00  0.00    -0.314 A  
HETATM   18  C   UNL     1     -11.171  11.580  66.980  1.00  0.00    -0.300 A  
HETATM   19  F   UNL     1     -12.240  12.344  66.719  1.00  0.00    -0.413 F  
ENDBRANCH  11  12
ENDBRANCH   8  11
ENDBRANCH   2   6
TORSDOF 3
ENDMDL
MODEL      150
REMARK 921   NORMALIZED FREE ENERGY PREDICTED BY IDOCK:   -4.09 KCAL/MOL
REMARK 922        TOTAL FREE ENERGY PREDICTED BY IDOCK:   -5.22 KCAL/MOL
REMARK 923 INTER-LIGAND FREE ENERGY PREDICTED BY IDOCK:   -4.81 KCAL/MOL
REMARK 924 INTRA-LIGAND FREE ENERGY PREDICTED BY IDOCK:   -0.42 KCAL/MOL
REMARK 927      BINDING AFFINITY PREDICTED BY RF-SCORE:    0.00 PKD
ROOT
HETATM    1  N   UNL     1      -8.467   7.211  63.958  1.00  0.00    -0.341 N  
HETATM    2  C   UNL     1      -8.026   8.260  64.714  1.00  0.00    -0.146 C  
HETATM    3  H1  UNL     1      -9.275   7.305  63.343  1.00  0.00     0.000 HD 
HETATM    4  H2  UNL     1      -7.977   6.317  64.009  1.00  0.00     0.000 HD 
HETATM    5  O   UNL     1      -7.053   8.146  65.454  1.00  0.00    -0.062 OA 
ENDROOT
BRANCH   2   6
HETATM    6  C   UNL     1      -8.808   9.478  64.584  1.00  0.00    -0.213 A  
HETATM    7  C   UNL     1      -9.775   9.951  65.448  1.00  0.00    -0.306 A  
HETATM    8  N   UNL     1     -10.265  11.065  64.828  1.00  0.00    -0.297 NA 
HETATM    9  N   UNL     1      -8.714  10.337  63.512  1.00  0.00    -0.189 NA 
HETATM   10  N   UNL     1      -9.612  11.301  63.672  1.00  0.00    -0.262 NA 
BRANCH   8  11
HETATM   11  C   UNL     1     -11.511  11.751  65.116  1.00  0.00    -0.183 C  
BRANCH  11  12
HETATM   12  C   UNL     1     -11.403  12.811  66.169  1.00  0.00    -0.371 A  
HETATM   13  C   UNL     1     -11.201  14.147  65.825  1.00  0.00    -0.312 A  
HETATM   14  C   UNL     1     -11.278  15.164  66.778  1.00  0.00    -0.285 A  
HETATM   15  F   UNL     1     -10.981  14.481  64.547  1.00  0.00    -0.371 F  
HETATM   16  C   UNL     1     -11.543  14.849  68.109  1.00  0.00    -0.356 A  
HETATM   17  C   UNL     1     -11.690  13.513  68.482  1.00  0.00    -0.392 A  
HETATM   18  C   UNL     1     -11.611  12.511  67.514  1.00  0.00    -0.361 A  
HETATM   19  F   UNL     1     -11.790  11.237  67.890  1.00  0.00    -0.358 F  
ENDBRANCH  11  12
ENDBRANCH   8  11
ENDBRANCH   2   6
TORSDOF 3
ENDMDL
MODEL      151
REMARK 921   NORMALIZED FREE ENERGY PREDICTED BY IDOCK:   -4.09 KCAL/MOL
REMARK 922        TOTAL FREE ENERGY PREDICTED BY IDOCK:   -5.22 KCAL/MOL
REMARK 923 INTER-LIGAND FREE ENERGY PREDICTED BY IDOCK:   -5.07 KCAL/MOL
REMARK 924 INTRA-LIGAND FREE ENERGY PREDICTED BY IDOCK:   -0.14 KCAL/MOL
REMARK 927      BINDING AFFINITY PREDICTED BY RF-SCORE:    0.00 PKD
ROOT
HETATM    1  N   UNL     1     -11.965  16.493  72.425  1.00  0.00    -0.598 N  
HETATM    2  C   UNL     1     -12.672  15.332  72.293  1.00  0.00    -0.351 C  
HETATM    3  H1  UNL     1     -11.240  16.750  71.754  1.00  0.00     0.000 HD 
HETATM    4  H2  UNL     1     -12.167  17.116  73.207  1.00  0.00     0.000 HD 
HETATM    5  O   UNL     1     -13.545  15.023  73.099  1.00  0.00    -0.480 OA 
ENDROOT
BRANCH   2   6
HETATM    6  C   UNL     1     -12.289  14.508  71.158  1.00  0.00    -0.345 A  
HETATM    7  C   UNL     1     -12.743  13.242  70.847  1.00  0.00    -0.254 A  
HETATM    8  N   UNL     1     -12.011  12.881  69.753  1.00  0.00    -0.315 NA 
HETATM    9  N   UNL     1     -11.349  14.882  70.224  1.00  0.00    -0.259 NA 
HETATM   10  N   UNL     1     -11.186  13.878  69.373  1.00  0.00    -0.247 NA 
BRANCH   8  11
HETATM   11  C   UNL     1     -11.832  11.542  69.223  1.00  0.00    -0.348 C  
BRANCH  11  12
HETATM   12  C   UNL     1     -10.687  11.405  68.267  1.00  0.00    -0.240 A  
HETATM   13  C   UNL     1     -10.790  11.858  66.952  1.00  0.00    -0.263 A  
HETATM   14  C   UNL     1      -9.680  11.900  66.106  1.00  0.00    -0.251 A  
HETATM   15  F   UNL     1     -11.962  12.317  66.495  1.00  0.00    -0.436 F  
HETATM   16  C   UNL     1      -8.439  11.464  66.568  1.00  0.00    -0.170 A  
HETATM   17  C   UNL     1      -8.330  10.952  67.860  1.00  0.00    -0.119 A  
HETATM   18  C   UNL     1      -9.450  10.920  68.691  1.00  0.00    -0.190 A  
HETATM   19  F   UNL     1      -9.313  10.456  69.941  1.00  0.00    -0.207 F  
ENDBRANCH  11  12
ENDBRANCH   8  11
ENDBRANCH   2   6
TORSDOF 3
ENDMDL
MODEL      152
REMARK 921   NORMALIZED FREE ENERGY PREDICTED BY IDOCK:   -4.08 KCAL/MOL
REMARK 922        TOTAL FREE ENERGY PREDICTED BY IDOCK:   -5.21 KCAL/MOL
REMARK 923 INTER-LIGAND FREE ENERGY PREDICTED BY IDOCK:   -4.82 KCAL/MOL
REMARK 924 INTRA-LIGAND FREE ENERGY PREDICTED BY IDOCK:   -0.39 KCAL/MOL
REMARK 927      BINDING AFFINITY PREDICTED BY RF-SCORE:    0.00 PKD
ROOT
HETATM    1  N   UNL     1     -10.860   9.412  71.116  1.00  0.00    -0.331 N  
HETATM    2  C   UNL     1     -12.025  10.114  71.251  1.00  0.00    -0.382 C  
HETATM    3  H1  UNL     1     -10.098   9.759  70.533  1.00  0.00     0.000 HD 
HETATM    4  H2  UNL     1     -10.750   8.526  71.609  1.00  0.00     0.000 HD 
HETATM    5  O   UNL     1     -12.941   9.697  71.953  1.00  0.00    -0.375 OA 
ENDROOT
BRANCH   2   6
HETATM    6  C   UNL     1     -12.085  11.349  70.488  1.00  0.00    -0.394 A  
HETATM    7  C   UNL     1     -11.906  11.507  69.129  1.00  0.00    -0.340 A  
HETATM    8  N   UNL     1     -11.968  12.857  68.935  1.00  0.00    -0.289 NA 
HETATM    9  N   UNL     1     -12.297  12.587  71.053  1.00  0.00    -0.306 NA 
HETATM   10  N   UNL     1     -12.220  13.501  70.093  1.00  0.00    -0.340 NA 
BRANCH   8  11
HETATM   11  C   UNL     1     -11.511  13.597  67.773  1.00  0.00    -0.318 C  
BRANCH  11  12
HETATM   12  C   UNL     1     -10.310  14.457  68.021  1.00  0.00    -0.227 A  
HETATM   13  C   UNL     1     -10.447  15.806  68.346  1.00  0.00    -0.245 A  
HETATM   14  C   UNL     1      -9.354  16.572  68.753  1.00  0.00    -0.247 A  
HETATM   15  F   UNL     1     -11.658  16.378  68.324  1.00  0.00    -0.344 F  
HETATM   16  C   UNL     1      -8.088  15.993  68.823  1.00  0.00    -0.212 A  
HETATM   17  C   UNL     1      -7.922  14.661  68.446  1.00  0.00    -0.137 A  
HETATM   18  C   UNL     1      -9.027  13.912  68.043  1.00  0.00    -0.184 A  
HETATM   19  F   UNL     1      -8.848  12.624  67.718  1.00  0.00    -0.148 F  
ENDBRANCH  11  12
ENDBRANCH   8  11
ENDBRANCH   2   6
TORSDOF 3
ENDMDL
MODEL      153
REMARK 921   NORMALIZED FREE ENERGY PREDICTED BY IDOCK:   -4.07 KCAL/MOL
REMARK 922        TOTAL FREE ENERGY PREDICTED BY IDOCK:   -5.20 KCAL/MOL
REMARK 923 INTER-LIGAND FREE ENERGY PREDICTED BY IDOCK:   -4.73 KCAL/MOL
REMARK 924 INTRA-LIGAND FREE ENERGY PREDICTED BY IDOCK:   -0.47 KCAL/MOL
REMARK 927      BINDING AFFINITY PREDICTED BY RF-SCORE:    0.00 PKD
ROOT
HETATM    1  N   UNL     1     -12.485  16.081  73.456  1.00  0.00    -0.516 N  
HETATM    2  C   UNL     1     -13.087  15.705  72.289  1.00  0.00    -0.456 C  
HETATM    3  H1  UNL     1     -11.533  16.449  73.466  1.00  0.00     0.000 HD 
HETATM    4  H2  UNL     1     -12.996  15.992  74.334  1.00  0.00     0.000 HD 
HETATM    5  O   UNL     1     -14.231  15.263  72.277  1.00  0.00    -0.518 OA 
ENDROOT
BRANCH   2   6
HETATM    6  C   UNL     1     -12.261  15.851  71.101  1.00  0.00    -0.399 A  
HETATM    7  C   UNL     1     -12.489  15.317  69.849  1.00  0.00    -0.240 A  
HETATM    8  N   UNL     1     -11.384  15.666  69.128  1.00  0.00    -0.313 NA 
HETATM    9  N   UNL     1     -11.067  16.536  71.079  1.00  0.00    -0.034 NA 
HETATM   10  N   UNL     1     -10.539  16.413  69.868  1.00  0.00    -0.282 NA 
BRANCH   8  11
HETATM   11  C   UNL     1     -10.939  15.088  67.873  1.00  0.00    -0.291 C  
BRANCH  11  12
HETATM   12  C   UNL     1     -10.686  13.613  67.928  1.00  0.00    -0.257 A  
HETATM   13  C   UNL     1     -11.626  12.704  67.444  1.00  0.00    -0.360 A  
HETATM   14  C   UNL     1     -11.332  11.345  67.325  1.00  0.00    -0.347 A  
HETATM   15  F   UNL     1     -12.824  13.139  67.032  1.00  0.00    -0.020 F  
HETATM   16  C   UNL     1     -10.079  10.870  67.711  1.00  0.00    -0.203 A  
HETATM   17  C   UNL     1      -9.147  11.754  68.252  1.00  0.00    -0.187 A  
HETATM   18  C   UNL     1      -9.460  13.109  68.362  1.00  0.00    -0.166 A  
HETATM   19  F   UNL     1      -8.536  13.946  68.852  1.00  0.00    -0.140 F  
ENDBRANCH  11  12
ENDBRANCH   8  11
ENDBRANCH   2   6
TORSDOF 3
ENDMDL
MODEL      154
REMARK 921   NORMALIZED FREE ENERGY PREDICTED BY IDOCK:   -4.02 KCAL/MOL
REMARK 922        TOTAL FREE ENERGY PREDICTED BY IDOCK:   -5.14 KCAL/MOL
REMARK 923 INTER-LIGAND FREE ENERGY PREDICTED BY IDOCK:   -4.92 KCAL/MOL
REMARK 924 INTRA-LIGAND FREE ENERGY PREDICTED BY IDOCK:   -0.22 KCAL/MOL
REMARK 927      BINDING AFFINITY PREDICTED BY RF-SCORE:    0.00 PKD
ROOT
HETATM    1  N   UNL     1      -5.197  18.902  70.972  1.00  0.00    -0.266 N  
HETATM    2  C   UNL     1      -6.089  19.889  70.664  1.00  0.00    -0.270 C  
HETATM    3  H1  UNL     1      -4.748  18.348  70.242  1.00  0.00     0.000 HD 
HETATM    4  H2  UNL     1      -4.975  18.715  71.950  1.00  0.00     0.000 HD 
HETATM    5  O   UNL     1      -6.629  20.556  71.542  1.00  0.00    -0.517 OA 
ENDROOT
BRANCH   2   6
HETATM    6  C   UNL     1      -6.351  20.055  69.244  1.00  0.00    -0.330 A  
HETATM    7  C   UNL     1      -7.548  19.869  68.583  1.00  0.00    -0.216 A  
HETATM    8  N   UNL     1      -7.239  20.057  67.266  1.00  0.00    -0.239 NA 
HETATM    9  N   UNL     1      -5.385  20.393  68.322  1.00  0.00    -0.216 NA 
HETATM   10  N   UNL     1      -5.940  20.388  67.117  1.00  0.00    -0.177 NA 
BRANCH   8  11
HETATM   11  C   UNL     1      -8.026  19.653  66.116  1.00  0.00    -0.343 C  
BRANCH  11  12
HETATM   12  C   UNL     1      -8.628  18.286  66.228  1.00  0.00    -0.208 A  
HETATM   13  C   UNL     1      -9.987  18.078  65.995  1.00  0.00    -0.216 A  
HETATM   14  C   UNL     1     -10.525  16.792  65.921  1.00  0.00    -0.311 A  
HETATM   15  F   UNL     1     -10.795  19.125  65.784  1.00  0.00    -0.497 F  
HETATM   16  C   UNL     1      -9.700  15.683  66.098  1.00  0.00    -0.348 A  
HETATM   17  C   UNL     1      -8.350  15.873  66.389  1.00  0.00    -0.310 A  
HETATM   18  C   UNL     1      -7.831  17.166  66.459  1.00  0.00    -0.290 A  
HETATM   19  F   UNL     1      -6.523  17.323  66.706  1.00  0.00    -0.166 F  
ENDBRANCH  11  12
ENDBRANCH   8  11
ENDBRANCH   2   6
TORSDOF 3
ENDMDL
MODEL      155
REMARK 921   NORMALIZED FREE ENERGY PREDICTED BY IDOCK:   -4.01 KCAL/MOL
REMARK 922        TOTAL FREE ENERGY PREDICTED BY IDOCK:   -5.12 KCAL/MOL
REMARK 923 INTER-LIGAND FREE ENERGY PREDICTED BY IDOCK:   -4.84 KCAL/MOL
REMARK 924 INTRA-LIGAND FREE ENERGY PREDICTED BY IDOCK:   -0.28 KCAL/MOL
REMARK 927      BINDING AFFINITY PREDICTED BY RF-SCORE:    0.00 PKD
ROOT
HETATM    1  N   UNL     1     -12.021  12.595  65.968  1.00  0.00    -0.431 N  
HETATM    2  C   UNL     1     -10.865  12.184  66.570  1.00  0.00    -0.270 C  
HETATM    3  H1  UNL     1     -12.931  12.267  66.292  1.00  0.00     0.000 HD 
HETATM    4  H2  UNL     1     -11.972  13.240  65.179  1.00  0.00     0.000 HD 
HETATM    5  O   UNL     1      -9.770  12.578  66.181  1.00  0.00    -0.254 OA 
ENDROOT
BRANCH   2   6
HETATM    6  C   UNL     1     -11.047  11.247  67.666  1.00  0.00    -0.277 A  
HETATM    7  C   UNL     1     -11.731  11.458  68.847  1.00  0.00    -0.343 A  
HETATM    8  N   UNL     1     -11.524  10.315  69.565  1.00  0.00    -0.233 NA 
HETATM    9  N   UNL     1     -10.501   9.984  67.692  1.00  0.00    -0.228 NA 
HETATM   10  N   UNL     1     -10.797   9.426  68.859  1.00  0.00    -0.171 NA 
BRANCH   8  11
HETATM   11  C   UNL     1     -11.721  10.130  70.990  1.00  0.00    -0.382 C  
BRANCH  11  12
HETATM   12  C   UNL     1     -11.569   8.714  71.456  1.00  0.00    -0.368 A  
HETATM   13  C   UNL     1     -10.360   8.255  71.979  1.00  0.00    -0.279 A  
HETATM   14  C   UNL     1     -10.255   6.999  72.578  1.00  0.00    -0.207 A  
HETATM   15  F   UNL     1      -9.282   9.049  71.960  1.00  0.00    -0.329 F  
HETATM   16  C   UNL     1     -11.371   6.167  72.646  1.00  0.00    -0.298 A  
HETATM   17  C   UNL     1     -12.573   6.585  72.076  1.00  0.00    -0.212 A  
HETATM   18  C   UNL     1     -12.658   7.844  71.483  1.00  0.00    -0.321 A  
HETATM   19  F   UNL     1     -13.833   8.238  70.972  1.00  0.00    -0.241 F  
ENDBRANCH  11  12
ENDBRANCH   8  11
ENDBRANCH   2   6
TORSDOF 3
ENDMDL
MODEL      156
REMARK 921   NORMALIZED FREE ENERGY PREDICTED BY IDOCK:   -4.00 KCAL/MOL
REMARK 922        TOTAL FREE ENERGY PREDICTED BY IDOCK:   -5.11 KCAL/MOL
REMARK 923 INTER-LIGAND FREE ENERGY PREDICTED BY IDOCK:   -4.89 KCAL/MOL
REMARK 924 INTRA-LIGAND FREE ENERGY PREDICTED BY IDOCK:   -0.22 KCAL/MOL
REMARK 927      BINDING AFFINITY PREDICTED BY RF-SCORE:    0.00 PKD
ROOT
HETATM    1  N   UNL     1     -11.415  14.967  72.071  1.00  0.00    -0.489 N  
HETATM    2  C   UNL     1     -12.206  15.108  70.965  1.00  0.00    -0.334 C  
HETATM    3  H1  UNL     1     -10.577  14.386  72.050  1.00  0.00     0.000 HD 
HETATM    4  H2  UNL     1     -11.668  15.452  72.932  1.00  0.00     0.000 HD 
HETATM    5  O   UNL     1     -13.214  15.808  70.990  1.00  0.00    -0.547 OA 
ENDROOT
BRANCH   2   6
HETATM    6  C   UNL     1     -11.768  14.357  69.801  1.00  0.00    -0.305 A  
HETATM    7  C   UNL     1     -10.791  14.710  68.892  1.00  0.00    -0.250 A  
HETATM    8  N   UNL     1     -10.834  13.722  67.950  1.00  0.00    -0.240 NA 
HETATM    9  N   UNL     1     -12.324  13.160  69.410  1.00  0.00    -0.111 NA 
HETATM   10  N   UNL     1     -11.747  12.784  68.275  1.00  0.00    -0.329 NA 
BRANCH   8  11
HETATM   11  C   UNL     1     -10.274  13.763  66.612  1.00  0.00    -0.276 C  
BRANCH  11  12
HETATM   12  C   UNL     1      -9.814  12.435  66.094  1.00  0.00    -0.263 A  
HETATM   13  C   UNL     1      -8.889  11.668  66.803  1.00  0.00    -0.184 A  
HETATM   14  C   UNL     1      -8.588  10.359  66.426  1.00  0.00    -0.137 A  
HETATM   15  F   UNL     1      -8.310  12.169  67.901  1.00  0.00    -0.129 F  
HETATM   16  C   UNL     1      -9.204   9.798  65.309  1.00  0.00    -0.294 A  
HETATM   17  C   UNL     1     -10.087  10.569  64.554  1.00  0.00    -0.402 A  
HETATM   18  C   UNL     1     -10.377  11.876  64.947  1.00  0.00    -0.286 A  
HETATM   19  F   UNL     1     -11.255  12.587  64.226  1.00  0.00    -0.318 F  
ENDBRANCH  11  12
ENDBRANCH   8  11
ENDBRANCH   2   6
TORSDOF 3
ENDMDL
MODEL      157
REMARK 921   NORMALIZED FREE ENERGY PREDICTED BY IDOCK:   -4.00 KCAL/MOL
REMARK 922        TOTAL FREE ENERGY PREDICTED BY IDOCK:   -5.11 KCAL/MOL
REMARK 923 INTER-LIGAND FREE ENERGY PREDICTED BY IDOCK:   -4.66 KCAL/MOL
REMARK 924 INTRA-LIGAND FREE ENERGY PREDICTED BY IDOCK:   -0.45 KCAL/MOL
REMARK 927      BINDING AFFINITY PREDICTED BY RF-SCORE:    0.00 PKD
ROOT
HETATM    1  N   UNL     1     -11.848  12.960  63.186  1.00  0.00    -0.848 N  
HETATM    2  C   UNL     1     -11.915  13.554  64.414  1.00  0.00    -0.422 C  
HETATM    3  H1  UNL     1     -11.104  12.300  62.958  1.00  0.00     0.000 HD 
HETATM    4  H2  UNL     1     -12.555  13.180  62.484  1.00  0.00     0.000 HD 
HETATM    5  O   UNL     1     -12.811  14.347  64.689  1.00  0.00    -0.643 OA 
ENDROOT
BRANCH   2   6
HETATM    6  C   UNL     1     -10.846  13.189  65.329  1.00  0.00    -0.297 A  
HETATM    7  C   UNL     1      -9.960  12.138  65.208  1.00  0.00    -0.237 A  
HETATM    8  N   UNL     1      -9.231  12.178  66.362  1.00  0.00    -0.220 NA 
HETATM    9  N   UNL     1     -10.592  13.848  66.511  1.00  0.00    -0.277 NA 
HETATM   10  N   UNL     1      -9.604  13.218  67.134  1.00  0.00    -0.232 NA 
BRANCH   8  11
HETATM   11  C   UNL     1      -8.406  11.119  66.913  1.00  0.00    -0.147 C  
BRANCH  11  12
HETATM   12  C   UNL     1      -9.122   9.819  67.114  1.00  0.00    -0.152 A  
HETATM   13  C   UNL     1      -9.951   9.618  68.218  1.00  0.00    -0.155 A  
HETATM   14  C   UNL     1     -10.760   8.486  68.326  1.00  0.00    -0.092 A  
HETATM   15  F   UNL     1     -10.021  10.551  69.177  1.00  0.00    -0.184 F  
HETATM   16  C   UNL     1     -10.735   7.518  67.324  1.00  0.00    -0.365 A  
HETATM   17  C   UNL     1      -9.870   7.673  66.242  1.00  0.00    -0.080 A  
HETATM   18  C   UNL     1      -9.070   8.812  66.152  1.00  0.00    -0.202 A  
HETATM   19  F   UNL     1      -8.271   8.955  65.085  1.00  0.00    -0.111 F  
ENDBRANCH  11  12
ENDBRANCH   8  11
ENDBRANCH   2   6
TORSDOF 3
ENDMDL
MODEL      158
REMARK 921   NORMALIZED FREE ENERGY PREDICTED BY IDOCK:   -4.00 KCAL/MOL
REMARK 922        TOTAL FREE ENERGY PREDICTED BY IDOCK:   -5.11 KCAL/MOL
REMARK 923 INTER-LIGAND FREE ENERGY PREDICTED BY IDOCK:   -4.76 KCAL/MOL
REMARK 924 INTRA-LIGAND FREE ENERGY PREDICTED BY IDOCK:   -0.34 KCAL/MOL
REMARK 927      BINDING AFFINITY PREDICTED BY RF-SCORE:    0.00 PKD
ROOT
HETATM    1  N   UNL     1     -10.278  13.720  64.637  1.00  0.00    -0.609 N  
HETATM    2  C   UNL     1     -11.390  13.319  65.322  1.00  0.00    -0.295 C  
HETATM    3  H1  UNL     1      -9.577  14.320  65.072  1.00  0.00     0.000 HD 
HETATM    4  H2  UNL     1     -10.147  13.414  63.672  1.00  0.00     0.000 HD 
HETATM    5  O   UNL     1     -12.234  12.597  64.799  1.00  0.00    -0.416 OA 
ENDROOT
BRANCH   2   6
HETATM    6  C   UNL     1     -11.490  13.831  66.678  1.00  0.00    -0.345 A  
HETATM    7  C   UNL     1     -10.983  15.019  67.167  1.00  0.00    -0.329 A  
HETATM    8  N   UNL     1     -11.263  14.980  68.503  1.00  0.00    -0.273 NA 
HETATM    9  N   UNL     1     -12.092  13.150  67.711  1.00  0.00    -0.288 NA 
HETATM   10  N   UNL     1     -11.944  13.861  68.822  1.00  0.00    -0.356 NA 
BRANCH   8  11
HETATM   11  C   UNL     1     -10.667  15.794  69.546  1.00  0.00    -0.278 C  
BRANCH  11  12
HETATM   12  C   UNL     1      -9.344  16.395  69.180  1.00  0.00    -0.224 A  
HETATM   13  C   UNL     1      -9.263  17.672  68.625  1.00  0.00    -0.266 A  
HETATM   14  C   UNL     1      -8.036  18.312  68.446  1.00  0.00    -0.322 A  
HETATM   15  F   UNL     1     -10.383  18.330  68.301  1.00  0.00    -0.337 F  
HETATM   16  C   UNL     1      -6.856  17.665  68.810  1.00  0.00    -0.235 A  
HETATM   17  C   UNL     1      -6.913  16.366  69.312  1.00  0.00    -0.223 A  
HETATM   18  C   UNL     1      -8.149  15.743  69.484  1.00  0.00    -0.137 A  
HETATM   19  F   UNL     1      -8.182  14.507  70.001  1.00  0.00     0.168 F  
ENDBRANCH  11  12
ENDBRANCH   8  11
ENDBRANCH   2   6
TORSDOF 3
ENDMDL
MODEL      159
REMARK 921   NORMALIZED FREE ENERGY PREDICTED BY IDOCK:   -3.99 KCAL/MOL
REMARK 922        TOTAL FREE ENERGY PREDICTED BY IDOCK:   -5.10 KCAL/MOL
REMARK 923 INTER-LIGAND FREE ENERGY PREDICTED BY IDOCK:   -4.69 KCAL/MOL
REMARK 924 INTRA-LIGAND FREE ENERGY PREDICTED BY IDOCK:   -0.42 KCAL/MOL
REMARK 927      BINDING AFFINITY PREDICTED BY RF-SCORE:    0.00 PKD
ROOT
HETATM    1  N   UNL     1     -10.612  19.136  65.803  1.00  0.00    -0.438 N  
HETATM    2  C   UNL     1      -9.480  19.016  66.559  1.00  0.00    -0.345 C  
HETATM    3  H1  UNL     1     -11.449  18.593  66.015  1.00  0.00     0.000 HD 
HETATM    4  H2  UNL     1     -10.619  19.780  65.012  1.00  0.00     0.000 HD 
HETATM    5  O   UNL     1      -8.473  19.669  66.304  1.00  0.00    -0.341 OA 
ENDROOT
BRANCH   2   6
HETATM    6  C   UNL     1      -9.571  18.054  67.645  1.00  0.00    -0.271 A  
HETATM    7  C   UNL     1      -9.059  16.773  67.677  1.00  0.00    -0.218 A  
HETATM    8  N   UNL     1      -9.495  16.265  68.867  1.00  0.00    -0.242 NA 
HETATM    9  N   UNL     1     -10.245  18.290  68.822  1.00  0.00    -0.367 NA 
HETATM   10  N   UNL     1     -10.194  17.188  69.559  1.00  0.00    -0.156 NA 
BRANCH   8  11
HETATM   11  C   UNL     1      -9.541  14.869  69.258  1.00  0.00    -0.128 C  
BRANCH  11  12
HETATM   12  C   UNL     1     -10.260  13.980  68.291  1.00  0.00    -0.249 A  
HETATM   13  C   UNL     1     -11.623  14.142  68.042  1.00  0.00    -0.334 A  
HETATM   14  C   UNL     1     -12.265  13.444  67.018  1.00  0.00    -0.321 A  
HETATM   15  F   UNL     1     -12.331  15.024  68.759  1.00  0.00    -0.258 F  
HETATM   16  C   UNL     1     -11.544  12.548  66.231  1.00  0.00    -0.449 A  
HETATM   17  C   UNL     1     -10.194  12.329  66.503  1.00  0.00    -0.235 A  
HETATM   18  C   UNL     1      -9.570  13.037  67.530  1.00  0.00    -0.204 A  
HETATM   19  F   UNL     1      -8.263  12.835  67.751  1.00  0.00    -0.132 F  
ENDBRANCH  11  12
ENDBRANCH   8  11
ENDBRANCH   2   6
TORSDOF 3
ENDMDL
MODEL      160
REMARK 921   NORMALIZED FREE ENERGY PREDICTED BY IDOCK:   -3.99 KCAL/MOL
REMARK 922        TOTAL FREE ENERGY PREDICTED BY IDOCK:   -5.10 KCAL/MOL
REMARK 923 INTER-LIGAND FREE ENERGY PREDICTED BY IDOCK:   -4.81 KCAL/MOL
REMARK 924 INTRA-LIGAND FREE ENERGY PREDICTED BY IDOCK:   -0.29 KCAL/MOL
REMARK 927      BINDING AFFINITY PREDICTED BY RF-SCORE:    0.00 PKD
ROOT
HETATM    1  N   UNL     1      -6.388   8.920  69.664  1.00  0.00    -0.042 N  
HETATM    2  C   UNL     1      -6.822  10.202  69.849  1.00  0.00    -0.124 C  
HETATM    3  H1  UNL     1      -6.715   8.360  68.876  1.00  0.00     0.000 HD 
HETATM    4  H2  UNL     1      -5.725   8.515  70.325  1.00  0.00     0.000 HD 
HETATM    5  O   UNL     1      -6.429  10.876  70.796  1.00  0.00    -0.339 OA 
ENDROOT
BRANCH   2   6
HETATM    6  C   UNL     1      -7.782  10.670  68.864  1.00  0.00    -0.121 A  
HETATM    7  C   UNL     1      -9.159  10.612  68.939  1.00  0.00    -0.176 A  
HETATM    8  N   UNL     1      -9.583  11.090  67.732  1.00  0.00    -0.167 NA 
HETATM    9  N   UNL     1      -7.429  11.220  67.652  1.00  0.00    -0.097 NA 
HETATM   10  N   UNL     1      -8.539  11.470  66.968  1.00  0.00    -0.155 NA 
BRANCH   8  11
HETATM   11  C   UNL     1     -10.900  10.935  67.143  1.00  0.00    -0.280 C  
BRANCH  11  12
HETATM   12  C   UNL     1     -11.237  11.961  66.105  1.00  0.00    -0.387 A  
HETATM   13  C   UNL     1     -11.061  11.693  64.747  1.00  0.00    -0.264 A  
HETATM   14  C   UNL     1     -11.534  12.565  63.765  1.00  0.00    -0.542 A  
HETATM   15  F   UNL     1     -10.473  10.553  64.363  1.00  0.00    -0.422 F  
HETATM   16  C   UNL     1     -12.184  13.741  64.136  1.00  0.00    -0.443 A  
HETATM   17  C   UNL     1     -12.317  14.054  65.488  1.00  0.00    -0.503 A  
HETATM   18  C   UNL     1     -11.838  13.169  66.455  1.00  0.00    -0.400 A  
HETATM   19  F   UNL     1     -12.008  13.474  67.749  1.00  0.00    -0.351 F  
ENDBRANCH  11  12
ENDBRANCH   8  11
ENDBRANCH   2   6
TORSDOF 3
ENDMDL
MODEL      161
REMARK 921   NORMALIZED FREE ENERGY PREDICTED BY IDOCK:   -3.99 KCAL/MOL
REMARK 922        TOTAL FREE ENERGY PREDICTED BY IDOCK:   -5.10 KCAL/MOL
REMARK 923 INTER-LIGAND FREE ENERGY PREDICTED BY IDOCK:   -4.68 KCAL/MOL
REMARK 924 INTRA-LIGAND FREE ENERGY PREDICTED BY IDOCK:   -0.42 KCAL/MOL
REMARK 927      BINDING AFFINITY PREDICTED BY RF-SCORE:    0.00 PKD
ROOT
HETATM    1  N   UNL     1     -10.919   6.877  73.446  1.00  0.00    -0.516 N  
HETATM    2  C   UNL     1     -11.684   6.866  72.314  1.00  0.00    -0.257 C  
HETATM    3  H1  UNL     1     -10.407   7.712  73.730  1.00  0.00     0.000 HD 
HETATM    4  H2  UNL     1     -10.858   6.034  74.017  1.00  0.00     0.000 HD 
HETATM    5  O   UNL     1     -12.300   5.861  71.972  1.00  0.00    -0.121 OA 
ENDROOT
BRANCH   2   6
HETATM    6  C   UNL     1     -11.680   8.110  71.563  1.00  0.00    -0.286 A  
HETATM    7  C   UNL     1     -10.716   8.557  70.682  1.00  0.00    -0.220 A  
HETATM    8  N   UNL     1     -11.138   9.806  70.325  1.00  0.00    -0.271 NA 
HETATM    9  N   UNL     1     -12.662   9.070  71.668  1.00  0.00    -0.340 NA 
HETATM   10  N   UNL     1     -12.317  10.103  70.908  1.00  0.00    -0.337 NA 
BRANCH   8  11
HETATM   11  C   UNL     1     -10.348  10.851  69.700  1.00  0.00    -0.038 C  
BRANCH  11  12
HETATM   12  C   UNL     1     -10.649  11.068  68.249  1.00  0.00    -0.220 A  
HETATM   13  C   UNL     1     -11.504  12.090  67.838  1.00  0.00    -0.330 A  
HETATM   14  C   UNL     1     -11.653  12.417  66.489  1.00  0.00    -0.447 A  
HETATM   15  F   UNL     1     -12.161  12.818  68.750  1.00  0.00    -0.336 F  
HETATM   16  C   UNL     1     -10.951  11.702  65.520  1.00  0.00    -0.327 A  
HETATM   17  C   UNL     1     -10.137  10.638  65.908  1.00  0.00    -0.321 A  
HETATM   18  C   UNL     1     -10.001  10.328  67.261  1.00  0.00    -0.190 A  
HETATM   19  F   UNL     1      -9.186   9.323  67.613  1.00  0.00    -0.125 F  
ENDBRANCH  11  12
ENDBRANCH   8  11
ENDBRANCH   2   6
TORSDOF 3
ENDMDL
MODEL      162
REMARK 921   NORMALIZED FREE ENERGY PREDICTED BY IDOCK:   -3.97 KCAL/MOL
REMARK 922        TOTAL FREE ENERGY PREDICTED BY IDOCK:   -5.08 KCAL/MOL
REMARK 923 INTER-LIGAND FREE ENERGY PREDICTED BY IDOCK:   -4.83 KCAL/MOL
REMARK 924 INTRA-LIGAND FREE ENERGY PREDICTED BY IDOCK:   -0.25 KCAL/MOL
REMARK 927      BINDING AFFINITY PREDICTED BY RF-SCORE:    0.00 PKD
ROOT
HETATM    1  N   UNL     1      -7.376  11.350  68.350  1.00  0.00    -0.089 N  
HETATM    2  C   UNL     1      -7.569  11.437  67.000  1.00  0.00    -0.151 C  
HETATM    3  H1  UNL     1      -8.065  11.716  69.007  1.00  0.00     0.000 HD 
HETATM    4  H2  UNL     1      -6.527  10.911  68.707  1.00  0.00     0.000 HD 
HETATM    5  O   UNL     1      -6.740  10.996  66.210  1.00  0.00    -0.134 OA 
ENDROOT
BRANCH   2   6
HETATM    6  C   UNL     1      -8.798  12.101  66.600  1.00  0.00    -0.182 A  
HETATM    7  C   UNL     1      -9.272  13.323  67.033  1.00  0.00    -0.237 A  
HETATM    8  N   UNL     1     -10.494  13.442  66.436  1.00  0.00    -0.282 NA 
HETATM    9  N   UNL     1      -9.715  11.555  65.730  1.00  0.00    -0.228 NA 
HETATM   10  N   UNL     1     -10.748  12.383  65.640  1.00  0.00    -0.257 NA 
BRANCH   8  11
HETATM   11  C   UNL     1     -11.562  14.353  66.801  1.00  0.00    -0.385 C  
BRANCH  11  12
HETATM   12  C   UNL     1     -11.839  14.422  68.271  1.00  0.00    -0.361 A  
HETATM   13  C   UNL     1     -12.101  13.266  69.008  1.00  0.00    -0.226 A  
HETATM   14  C   UNL     1     -12.184  13.294  70.401  1.00  0.00    -0.404 A  
HETATM   15  F   UNL     1     -12.223  12.089  68.381  1.00  0.00    -0.369 F  
HETATM   16  C   UNL     1     -12.021  14.499  71.082  1.00  0.00    -0.401 A  
HETATM   17  C   UNL     1     -11.818  15.673  70.359  1.00  0.00    -0.395 A  
HETATM   18  C   UNL     1     -11.737  15.625  68.968  1.00  0.00    -0.395 A  
HETATM   19  F   UNL     1     -11.507  16.762  68.296  1.00  0.00    -0.334 F  
ENDBRANCH  11  12
ENDBRANCH   8  11
ENDBRANCH   2   6
TORSDOF 3
ENDMDL
MODEL      163
REMARK 921   NORMALIZED FREE ENERGY PREDICTED BY IDOCK:   -3.97 KCAL/MOL
REMARK 922        TOTAL FREE ENERGY PREDICTED BY IDOCK:   -5.07 KCAL/MOL
REMARK 923 INTER-LIGAND FREE ENERGY PREDICTED BY IDOCK:   -4.62 KCAL/MOL
REMARK 924 INTRA-LIGAND FREE ENERGY PREDICTED BY IDOCK:   -0.46 KCAL/MOL
REMARK 927      BINDING AFFINITY PREDICTED BY RF-SCORE:    0.00 PKD
ROOT
HETATM    1  N   UNL     1     -13.332  10.373  72.109  1.00  0.00    -0.567 N  
HETATM    2  C   UNL     1     -12.226  10.345  71.309  1.00  0.00    -0.389 C  
HETATM    3  H1  UNL     1     -14.042  11.098  72.005  1.00  0.00     0.000 HD 
HETATM    4  H2  UNL     1     -13.451   9.655  72.825  1.00  0.00     0.000 HD 
HETATM    5  O   UNL     1     -11.372   9.473  71.434  1.00  0.00    -0.350 OA 
ENDROOT
BRANCH   2   6
HETATM    6  C   UNL     1     -12.144  11.427  70.341  1.00  0.00    -0.384 A  
HETATM    7  C   UNL     1     -11.717  11.351  69.031  1.00  0.00    -0.343 A  
HETATM    8  N   UNL     1     -11.743  12.644  68.592  1.00  0.00    -0.309 NA 
HETATM    9  N   UNL     1     -12.456  12.737  70.629  1.00  0.00    -0.293 NA 
HETATM   10  N   UNL     1     -12.203  13.471  69.553  1.00  0.00    -0.280 NA 
BRANCH   8  11
HETATM   11  C   UNL     1     -11.080  13.184  67.420  1.00  0.00    -0.275 C  
BRANCH  11  12
HETATM   12  C   UNL     1      -9.632  13.510  67.625  1.00  0.00    -0.222 A  
HETATM   13  C   UNL     1      -8.638  12.570  67.352  1.00  0.00    -0.187 A  
HETATM   14  C   UNL     1      -7.286  12.914  67.366  1.00  0.00    -0.130 A  
HETATM   15  F   UNL     1      -8.978  11.319  67.014  1.00  0.00    -0.145 F  
HETATM   16  C   UNL     1      -6.905  14.219  67.676  1.00  0.00    -0.201 A  
HETATM   17  C   UNL     1      -7.881  15.157  68.009  1.00  0.00    -0.135 A  
HETATM   18  C   UNL     1      -9.228  14.793  67.988  1.00  0.00    -0.194 A  
HETATM   19  F   UNL     1     -10.150  15.722  68.278  1.00  0.00    -0.214 F  
ENDBRANCH  11  12
ENDBRANCH   8  11
ENDBRANCH   2   6
TORSDOF 3
ENDMDL
MODEL      164
REMARK 921   NORMALIZED FREE ENERGY PREDICTED BY IDOCK:   -3.95 KCAL/MOL
REMARK 922        TOTAL FREE ENERGY PREDICTED BY IDOCK:   -5.05 KCAL/MOL
REMARK 923 INTER-LIGAND FREE ENERGY PREDICTED BY IDOCK:   -4.63 KCAL/MOL
REMARK 924 INTRA-LIGAND FREE ENERGY PREDICTED BY IDOCK:   -0.42 KCAL/MOL
REMARK 927      BINDING AFFINITY PREDICTED BY RF-SCORE:    0.00 PKD
ROOT
HETATM    1  N   UNL     1      -8.304   6.274  66.728  1.00  0.00    -0.109 N  
HETATM    2  C   UNL     1      -8.661   7.527  66.319  1.00  0.00    -0.149 C  
HETATM    3  H1  UNL     1      -8.465   5.965  67.687  1.00  0.00     0.000 HD 
HETATM    4  H2  UNL     1      -7.870   5.635  66.062  1.00  0.00     0.000 HD 
HETATM    5  O   UNL     1      -8.468   7.899  65.166  1.00  0.00    -0.143 OA 
ENDROOT
BRANCH   2   6
HETATM    6  C   UNL     1      -9.250   8.363  67.353  1.00  0.00    -0.140 A  
HETATM    7  C   UNL     1      -8.933   8.385  68.696  1.00  0.00    -0.140 A  
HETATM    8  N   UNL     1      -9.829   9.262  69.239  1.00  0.00    -0.167 NA 
HETATM    9  N   UNL     1     -10.277   9.251  67.126  1.00  0.00    -0.238 NA 
HETATM   10  N   UNL     1     -10.623   9.792  68.287  1.00  0.00    -0.220 NA 
BRANCH   8  11
HETATM   11  C   UNL     1     -10.172   9.407  70.641  1.00  0.00    -0.288 C  
BRANCH  11  12
HETATM   12  C   UNL     1     -11.566   8.978  70.983  1.00  0.00    -0.360 A  
HETATM   13  C   UNL     1     -11.918   7.629  71.004  1.00  0.00    -0.273 A  
HETATM   14  C   UNL     1     -13.156   7.206  71.491  1.00  0.00    -0.427 A  
HETATM   15  F   UNL     1     -11.038   6.703  70.602  1.00  0.00    -0.265 F  
HETATM   16  C   UNL     1     -14.078   8.145  71.952  1.00  0.00    -0.493 A  
HETATM   17  C   UNL     1     -13.766   9.502  71.884  1.00  0.00    -0.410 A  
HETATM   18  C   UNL     1     -12.523   9.904  71.395  1.00  0.00    -0.398 A  
HETATM   19  F   UNL     1     -12.233  11.213  71.370  1.00  0.00    -0.409 F  
ENDBRANCH  11  12
ENDBRANCH   8  11
ENDBRANCH   2   6
TORSDOF 3
ENDMDL
MODEL      165
REMARK 921   NORMALIZED FREE ENERGY PREDICTED BY IDOCK:   -3.94 KCAL/MOL
REMARK 922        TOTAL FREE ENERGY PREDICTED BY IDOCK:   -5.05 KCAL/MOL
REMARK 923 INTER-LIGAND FREE ENERGY PREDICTED BY IDOCK:   -4.62 KCAL/MOL
REMARK 924 INTRA-LIGAND FREE ENERGY PREDICTED BY IDOCK:   -0.43 KCAL/MOL
REMARK 927      BINDING AFFINITY PREDICTED BY RF-SCORE:    0.00 PKD
ROOT
HETATM    1  N   UNL     1     -13.001  11.861  62.944  1.00  0.00    -0.695 N  
HETATM    2  C   UNL     1     -11.884  12.361  63.551  1.00  0.00    -0.521 C  
HETATM    3  H1  UNL     1     -13.080  10.869  62.716  1.00  0.00     0.000 HD 
HETATM    4  H2  UNL     1     -13.770  12.490  62.714  1.00  0.00     0.000 HD 
HETATM    5  O   UNL     1     -11.789  13.553  63.825  1.00  0.00    -0.427 OA 
ENDROOT
BRANCH   2   6
HETATM    6  C   UNL     1     -10.841  11.383  63.812  1.00  0.00    -0.395 A  
HETATM    7  C   UNL     1     -10.627  10.673  64.977  1.00  0.00    -0.117 A  
HETATM    8  N   UNL     1      -9.480   9.972  64.738  1.00  0.00    -0.285 NA 
HETATM    9  N   UNL     1      -9.858  11.052  62.906  1.00  0.00    -0.306 NA 
HETATM   10  N   UNL     1      -9.031  10.191  63.486  1.00  0.00    -0.222 NA 
BRANCH   8  11
HETATM   11  C   UNL     1      -8.621   9.338  65.721  1.00  0.00    -0.152 C  
BRANCH  11  12
HETATM   12  C   UNL     1      -8.934   7.895  65.975  1.00  0.00    -0.195 A  
HETATM   13  C   UNL     1      -9.927   7.524  66.881  1.00  0.00    -0.248 A  
HETATM   14  C   UNL     1     -10.350   6.199  66.996  1.00  0.00    -0.295 A  
HETATM   15  F   UNL     1     -10.534   8.457  67.625  1.00  0.00    -0.267 F  
HETATM   16  C   UNL     1      -9.763   5.212  66.206  1.00  0.00    -0.188 A  
HETATM   17  C   UNL     1      -8.728   5.555  65.338  1.00  0.00    -0.148 A  
HETATM   18  C   UNL     1      -8.320   6.885  65.237  1.00  0.00    -0.098 A  
HETATM   19  F   UNL     1      -7.346   7.196  64.370  1.00  0.00    -0.061 F  
ENDBRANCH  11  12
ENDBRANCH   8  11
ENDBRANCH   2   6
TORSDOF 3
ENDMDL
MODEL      166
REMARK 921   NORMALIZED FREE ENERGY PREDICTED BY IDOCK:   -3.94 KCAL/MOL
REMARK 922        TOTAL FREE ENERGY PREDICTED BY IDOCK:   -5.04 KCAL/MOL
REMARK 923 INTER-LIGAND FREE ENERGY PREDICTED BY IDOCK:   -4.75 KCAL/MOL
REMARK 924 INTRA-LIGAND FREE ENERGY PREDICTED BY IDOCK:   -0.29 KCAL/MOL
REMARK 927      BINDING AFFINITY PREDICTED BY RF-SCORE:    0.00 PKD
ROOT
HETATM    1  N   UNL     1      -7.595   8.409  70.295  1.00  0.00    -0.065 N  
HETATM    2  C   UNL     1      -7.459   9.766  70.228  1.00  0.00    -0.164 C  
HETATM    3  H1  UNL     1      -8.261   7.914  69.700  1.00  0.00     0.000 HD 
HETATM    4  H2  UNL     1      -7.021   7.880  70.952  1.00  0.00     0.000 HD 
HETATM    5  O   UNL     1      -6.659  10.361  70.944  1.00  0.00    -0.341 OA 
ENDROOT
BRANCH   2   6
HETATM    6  C   UNL     1      -8.341  10.423  69.278  1.00  0.00    -0.155 A  
HETATM    7  C   UNL     1      -9.713  10.303  69.184  1.00  0.00    -0.217 A  
HETATM    8  N   UNL     1     -10.041  11.039  68.082  1.00  0.00    -0.174 NA 
HETATM    9  N   UNL     1      -7.901  11.255  68.273  1.00  0.00    -0.122 NA 
HETATM   10  N   UNL     1      -8.949  11.622  67.548  1.00  0.00    -0.161 NA 
BRANCH   8  11
HETATM   11  C   UNL     1     -11.281  10.984  67.330  1.00  0.00    -0.285 C  
BRANCH  11  12
HETATM   12  C   UNL     1     -11.539  12.186  66.475  1.00  0.00    -0.425 A  
HETATM   13  C   UNL     1     -11.946  13.396  67.039  1.00  0.00    -0.379 A  
HETATM   14  C   UNL     1     -12.016  14.566  66.281  1.00  0.00    -0.335 A  
HETATM   15  F   UNL     1     -12.226  13.460  68.347  1.00  0.00    -0.377 F  
HETATM   16  C   UNL     1     -11.693  14.535  64.926  1.00  0.00    -0.402 A  
HETATM   17  C   UNL     1     -11.341  13.324  64.332  1.00  0.00    -0.415 A  
HETATM   18  C   UNL     1     -11.275  12.166  65.106  1.00  0.00    -0.329 A  
HETATM   19  F   UNL     1     -10.901  11.020  64.520  1.00  0.00    -0.403 F  
ENDBRANCH  11  12
ENDBRANCH   8  11
ENDBRANCH   2   6
TORSDOF 3
ENDMDL
MODEL      167
REMARK 921   NORMALIZED FREE ENERGY PREDICTED BY IDOCK:   -3.94 KCAL/MOL
REMARK 922        TOTAL FREE ENERGY PREDICTED BY IDOCK:   -5.04 KCAL/MOL
REMARK 923 INTER-LIGAND FREE ENERGY PREDICTED BY IDOCK:   -4.60 KCAL/MOL
REMARK 924 INTRA-LIGAND FREE ENERGY PREDICTED BY IDOCK:   -0.44 KCAL/MOL
REMARK 927      BINDING AFFINITY PREDICTED BY RF-SCORE:    0.00 PKD
ROOT
HETATM    1  N   UNL     1     -11.599  13.766  70.311  1.00  0.00    -0.500 N  
HETATM    2  C   UNL     1     -11.380  13.946  68.974  1.00  0.00    -0.283 C  
HETATM    3  H1  UNL     1     -10.903  14.045  71.003  1.00  0.00     0.000 HD 
HETATM    4  H2  UNL     1     -12.475  13.346  70.622  1.00  0.00     0.000 HD 
HETATM    5  O   UNL     1     -12.217  13.612  68.142  1.00  0.00    -0.322 OA 
ENDROOT
BRANCH   2   6
HETATM    6  C   UNL     1     -10.092  14.531  68.639  1.00  0.00    -0.244 A  
HETATM    7  C   UNL     1      -9.375  15.457  69.369  1.00  0.00    -0.266 A  
HETATM    8  N   UNL     1      -8.297  15.745  68.582  1.00  0.00    -0.172 NA 
HETATM    9  N   UNL     1      -9.407  14.258  67.476  1.00  0.00    -0.194 NA 
HETATM   10  N   UNL     1      -8.313  15.009  67.453  1.00  0.00    -0.176 NA 
BRANCH   8  11
HETATM   11  C   UNL     1      -7.409  16.887  68.697  1.00  0.00    -0.222 C  
BRANCH  11  12
HETATM   12  C   UNL     1      -7.586  17.916  67.623  1.00  0.00    -0.215 A  
HETATM   13  C   UNL     1      -8.585  18.885  67.714  1.00  0.00    -0.292 A  
HETATM   14  C   UNL     1      -8.648  19.953  66.818  1.00  0.00    -0.394 A  
HETATM   15  F   UNL     1      -9.477  18.831  68.711  1.00  0.00    -0.337 F  
HETATM   16  C   UNL     1      -7.709  20.055  65.793  1.00  0.00    -0.249 A  
HETATM   17  C   UNL     1      -6.738  19.064  65.651  1.00  0.00    -0.316 A  
HETATM   18  C   UNL     1      -6.691  18.006  66.558  1.00  0.00    -0.208 A  
HETATM   19  F   UNL     1      -5.728  17.083  66.422  1.00  0.00    -0.211 F  
ENDBRANCH  11  12
ENDBRANCH   8  11
ENDBRANCH   2   6
TORSDOF 3
ENDMDL
MODEL      168
REMARK 921   NORMALIZED FREE ENERGY PREDICTED BY IDOCK:   -3.94 KCAL/MOL
REMARK 922        TOTAL FREE ENERGY PREDICTED BY IDOCK:   -5.04 KCAL/MOL
REMARK 923 INTER-LIGAND FREE ENERGY PREDICTED BY IDOCK:   -4.62 KCAL/MOL
REMARK 924 INTRA-LIGAND FREE ENERGY PREDICTED BY IDOCK:   -0.42 KCAL/MOL
REMARK 927      BINDING AFFINITY PREDICTED BY RF-SCORE:    0.00 PKD
ROOT
HETATM    1  N   UNL     1     -12.452  13.276  63.912  1.00  0.00    -0.687 N  
HETATM    2  C   UNL     1     -11.346  12.482  64.026  1.00  0.00    -0.405 C  
HETATM    3  H1  UNL     1     -13.118  13.368  64.679  1.00  0.00     0.000 HD 
HETATM    4  H2  UNL     1     -12.614  13.786  63.043  1.00  0.00     0.000 HD 
HETATM    5  O   UNL     1     -10.545  12.371  63.104  1.00  0.00    -0.337 OA 
ENDROOT
BRANCH   2   6
HETATM    6  C   UNL     1     -11.225  11.783  65.295  1.00  0.00    -0.254 A  
HETATM    7  C   UNL     1     -10.455  10.671  65.571  1.00  0.00    -0.176 A  
HETATM    8  N   UNL     1     -10.766  10.358  66.863  1.00  0.00    -0.236 NA 
HETATM    9  N   UNL     1     -11.926  12.128  66.429  1.00  0.00    -0.621 NA 
HETATM   10  N   UNL     1     -11.638  11.247  67.379  1.00  0.00    -0.554 NA 
BRANCH   8  11
HETATM   11  C   UNL     1     -10.515   9.101  67.544  1.00  0.00    -0.270 C  
BRANCH  11  12
HETATM   12  C   UNL     1      -9.257   9.079  68.356  1.00  0.00    -0.137 A  
HETATM   13  C   UNL     1      -8.013   8.899  67.750  1.00  0.00    -0.102 A  
HETATM   14  C   UNL     1      -6.825   9.054  68.465  1.00  0.00    -0.064 A  
HETATM   15  F   UNL     1      -7.943   8.625  66.441  1.00  0.00    -0.094 F  
HETATM   16  C   UNL     1      -6.868   9.377  69.821  1.00  0.00    -0.055 A  
HETATM   17  C   UNL     1      -8.102   9.503  70.457  1.00  0.00    -0.199 A  
HETATM   18  C   UNL     1      -9.279   9.346  69.724  1.00  0.00    -0.196 A  
HETATM   19  F   UNL     1     -10.454   9.505  70.350  1.00  0.00    -0.236 F  
ENDBRANCH  11  12
ENDBRANCH   8  11
ENDBRANCH   2   6
TORSDOF 3
ENDMDL
MODEL      169
REMARK 921   NORMALIZED FREE ENERGY PREDICTED BY IDOCK:   -3.93 KCAL/MOL
REMARK 922        TOTAL FREE ENERGY PREDICTED BY IDOCK:   -5.03 KCAL/MOL
REMARK 923 INTER-LIGAND FREE ENERGY PREDICTED BY IDOCK:   -4.69 KCAL/MOL
REMARK 924 INTRA-LIGAND FREE ENERGY PREDICTED BY IDOCK:   -0.35 KCAL/MOL
REMARK 927      BINDING AFFINITY PREDICTED BY RF-SCORE:    0.00 PKD
ROOT
HETATM    1  N   UNL     1     -12.880  12.151  63.823  1.00  0.00    -0.754 N  
HETATM    2  C   UNL     1     -12.654  12.954  64.905  1.00  0.00    -0.458 C  
HETATM    3  H1  UNL     1     -12.506  11.203  63.781  1.00  0.00     0.000 HD 
HETATM    4  H2  UNL     1     -13.433  12.506  63.043  1.00  0.00     0.000 HD 
HETATM    5  O   UNL     1     -13.104  14.094  64.956  1.00  0.00    -0.728 OA 
ENDROOT
BRANCH   2   6
HETATM    6  C   UNL     1     -11.834  12.358  65.947  1.00  0.00    -0.405 A  
HETATM    7  C   UNL     1     -10.731  11.545  65.786  1.00  0.00    -0.271 A  
HETATM    8  N   UNL     1     -10.390  11.183  67.058  1.00  0.00    -0.214 NA 
HETATM    9  N   UNL     1     -12.088  12.498  67.294  1.00  0.00    -0.480 NA 
HETATM   10  N   UNL     1     -11.199  11.773  67.961  1.00  0.00    -0.242 NA 
BRANCH   8  11
HETATM   11  C   UNL     1      -9.532  10.083  67.455  1.00  0.00    -0.152 C  
BRANCH  11  12
HETATM   12  C   UNL     1      -8.474   9.732  66.454  1.00  0.00    -0.128 A  
HETATM   13  C   UNL     1      -7.344  10.535  66.292  1.00  0.00    -0.133 A  
HETATM   14  C   UNL     1      -6.271  10.130  65.497  1.00  0.00    -0.101 A  
HETATM   15  F   UNL     1      -7.252  11.697  66.950  1.00  0.00    -0.126 F  
HETATM   16  C   UNL     1      -6.324   8.907  64.831  1.00  0.00    -0.065 A  
HETATM   17  C   UNL     1      -7.469   8.118  64.934  1.00  0.00    -0.092 A  
HETATM   18  C   UNL     1      -8.531   8.540  65.734  1.00  0.00    -0.154 A  
HETATM   19  F   UNL     1      -9.607   7.749  65.846  1.00  0.00    -0.185 F  
ENDBRANCH  11  12
ENDBRANCH   8  11
ENDBRANCH   2   6
TORSDOF 3
ENDMDL
MODEL      170
REMARK 921   NORMALIZED FREE ENERGY PREDICTED BY IDOCK:   -3.92 KCAL/MOL
REMARK 922        TOTAL FREE ENERGY PREDICTED BY IDOCK:   -5.02 KCAL/MOL
REMARK 923 INTER-LIGAND FREE ENERGY PREDICTED BY IDOCK:   -4.68 KCAL/MOL
REMARK 924 INTRA-LIGAND FREE ENERGY PREDICTED BY IDOCK:   -0.34 KCAL/MOL
REMARK 927      BINDING AFFINITY PREDICTED BY RF-SCORE:    0.00 PKD
ROOT
HETATM    1  N   UNL     1      -8.086  10.856  68.008  1.00  0.00    -0.115 N  
HETATM    2  C   UNL     1      -9.366  11.264  68.255  1.00  0.00    -0.180 C  
HETATM    3  H1  UNL     1      -7.422  11.460  67.523  1.00  0.00     0.000 HD 
HETATM    4  H2  UNL     1      -7.788   9.929  68.315  1.00  0.00     0.000 HD 
HETATM    5  O   UNL     1     -10.164  10.537  68.838  1.00  0.00    -0.187 OA 
ENDROOT
BRANCH   2   6
HETATM    6  C   UNL     1      -9.691  12.590  67.755  1.00  0.00    -0.202 A  
HETATM    7  C   UNL     1     -10.280  13.628  68.449  1.00  0.00    -0.245 A  
HETATM    8  N   UNL     1     -10.451  14.605  67.511  1.00  0.00    -0.246 NA 
HETATM    9  N   UNL     1      -9.485  12.989  66.454  1.00  0.00    -0.249 NA 
HETATM   10  N   UNL     1      -9.956  14.222  66.317  1.00  0.00    -0.295 NA 
BRANCH   8  11
HETATM   11  C   UNL     1     -11.320  15.764  67.604  1.00  0.00    -0.194 C  
BRANCH  11  12
HETATM   12  C   UNL     1     -10.596  17.074  67.680  1.00  0.00    -0.333 A  
HETATM   13  C   UNL     1     -10.195  17.741  66.523  1.00  0.00    -0.358 A  
HETATM   14  C   UNL     1      -9.683  19.039  66.571  1.00  0.00    -0.396 A  
HETATM   15  F   UNL     1     -10.349  17.157  65.329  1.00  0.00    -0.223 F  
HETATM   16  C   UNL     1      -9.548  19.687  67.798  1.00  0.00    -0.460 A  
HETATM   17  C   UNL     1      -9.889  19.013  68.970  1.00  0.00    -0.408 A  
HETATM   18  C   UNL     1     -10.400  17.717  68.901  1.00  0.00    -0.323 A  
HETATM   19  F   UNL     1     -10.753  17.102  70.039  1.00  0.00    -0.269 F  
ENDBRANCH  11  12
ENDBRANCH   8  11
ENDBRANCH   2   6
TORSDOF 3
ENDMDL
MODEL      171
REMARK 921   NORMALIZED FREE ENERGY PREDICTED BY IDOCK:   -3.92 KCAL/MOL
REMARK 922        TOTAL FREE ENERGY PREDICTED BY IDOCK:   -5.02 KCAL/MOL
REMARK 923 INTER-LIGAND FREE ENERGY PREDICTED BY IDOCK:   -4.79 KCAL/MOL
REMARK 924 INTRA-LIGAND FREE ENERGY PREDICTED BY IDOCK:   -0.23 KCAL/MOL
REMARK 927      BINDING AFFINITY PREDICTED BY RF-SCORE:    0.00 PKD
ROOT
HETATM    1  N   UNL     1     -13.105   9.335  70.720  1.00  0.00    -0.523 N  
HETATM    2  C   UNL     1     -12.922  10.609  71.177  1.00  0.00    -0.387 C  
HETATM    3  H1  UNL     1     -12.839   9.070  69.771  1.00  0.00     0.000 HD 
HETATM    4  H2  UNL     1     -13.514   8.635  71.339  1.00  0.00     0.000 HD 
HETATM    5  O   UNL     1     -13.241  10.927  72.319  1.00  0.00    -0.406 OA 
ENDROOT
BRANCH   2   6
HETATM    6  C   UNL     1     -12.354  11.530  70.207  1.00  0.00    -0.273 A  
HETATM    7  C   UNL     1     -11.834  11.227  68.965  1.00  0.00    -0.352 A  
HETATM    8  N   UNL     1     -11.351  12.418  68.502  1.00  0.00    -0.268 NA 
HETATM    9  N   UNL     1     -12.214  12.883  70.427  1.00  0.00    -0.345 NA 
HETATM   10  N   UNL     1     -11.597  13.413  69.378  1.00  0.00    -0.296 NA 
BRANCH   8  11
HETATM   11  C   UNL     1     -10.410  12.617  67.416  1.00  0.00    -0.220 C  
BRANCH  11  12
HETATM   12  C   UNL     1      -9.758  11.362  66.925  1.00  0.00    -0.213 A  
HETATM   13  C   UNL     1      -8.802  10.700  67.695  1.00  0.00    -0.131 A  
HETATM   14  C   UNL     1      -8.319   9.441  67.334  1.00  0.00    -0.125 A  
HETATM   15  F   UNL     1      -8.369  11.249  68.837  1.00  0.00    -0.146 F  
HETATM   16  C   UNL     1      -8.781   8.829  66.170  1.00  0.00    -0.184 A  
HETATM   17  C   UNL     1      -9.692   9.501  65.357  1.00  0.00    -0.314 A  
HETATM   18  C   UNL     1     -10.164  10.758  65.736  1.00  0.00    -0.257 A  
HETATM   19  F   UNL     1     -11.066  11.369  64.955  1.00  0.00    -0.342 F  
ENDBRANCH  11  12
ENDBRANCH   8  11
ENDBRANCH   2   6
TORSDOF 3
ENDMDL
MODEL      172
REMARK 921   NORMALIZED FREE ENERGY PREDICTED BY IDOCK:   -3.89 KCAL/MOL
REMARK 922        TOTAL FREE ENERGY PREDICTED BY IDOCK:   -4.98 KCAL/MOL
REMARK 923 INTER-LIGAND FREE ENERGY PREDICTED BY IDOCK:   -4.57 KCAL/MOL
REMARK 924 INTRA-LIGAND FREE ENERGY PREDICTED BY IDOCK:   -0.41 KCAL/MOL
REMARK 927      BINDING AFFINITY PREDICTED BY RF-SCORE:    0.00 PKD
ROOT
HETATM    1  N   UNL     1     -13.602  11.103  72.386  1.00  0.00    -0.394 N  
HETATM    2  C   UNL     1     -13.338   9.796  72.087  1.00  0.00    -0.431 C  
HETATM    3  H1  UNL     1     -12.876  11.817  72.324  1.00  0.00     0.000 HD 
HETATM    4  H2  UNL     1     -14.544  11.369  72.676  1.00  0.00     0.000 HD 
HETATM    5  O   UNL     1     -14.211   8.937  72.162  1.00  0.00    -0.429 OA 
ENDROOT
BRANCH   2   6
HETATM    6  C   UNL     1     -11.961   9.523  71.709  1.00  0.00    -0.371 A  
HETATM    7  C   UNL     1     -11.343   9.824  70.512  1.00  0.00    -0.314 A  
HETATM    8  N   UNL     1     -10.097   9.278  70.629  1.00  0.00    -0.254 NA 
HETATM    9  N   UNL     1     -11.063   8.859  72.515  1.00  0.00    -0.058 NA 
HETATM   10  N   UNL     1      -9.929   8.713  71.842  1.00  0.00    -0.294 NA 
BRANCH   8  11
HETATM   11  C   UNL     1      -9.160   8.999  69.557  1.00  0.00    -0.151 C  
BRANCH  11  12
HETATM   12  C   UNL     1      -9.519   7.814  68.715  1.00  0.00    -0.149 A  
HETATM   13  C   UNL     1      -9.061   6.537  69.038  1.00  0.00    -0.132 A  
HETATM   14  C   UNL     1      -9.530   5.404  68.371  1.00  0.00    -0.153 A  
HETATM   15  F   UNL     1      -8.193   6.375  70.044  1.00  0.00    -0.115 F  
HETATM   16  C   UNL     1     -10.464   5.540  67.345  1.00  0.00    -0.284 A  
HETATM   17  C   UNL     1     -10.889   6.813  66.969  1.00  0.00    -0.453 A  
HETATM   18  C   UNL     1     -10.409   7.933  67.648  1.00  0.00    -0.241 A  
HETATM   19  F   UNL     1     -10.858   9.145  67.292  1.00  0.00    -0.347 F  
ENDBRANCH  11  12
ENDBRANCH   8  11
ENDBRANCH   2   6
TORSDOF 3
ENDMDL
MODEL      173
REMARK 921   NORMALIZED FREE ENERGY PREDICTED BY IDOCK:   -3.89 KCAL/MOL
REMARK 922        TOTAL FREE ENERGY PREDICTED BY IDOCK:   -4.98 KCAL/MOL
REMARK 923 INTER-LIGAND FREE ENERGY PREDICTED BY IDOCK:   -4.64 KCAL/MOL
REMARK 924 INTRA-LIGAND FREE ENERGY PREDICTED BY IDOCK:   -0.34 KCAL/MOL
REMARK 927      BINDING AFFINITY PREDICTED BY RF-SCORE:    0.00 PKD
ROOT
HETATM    1  N   UNL     1     -13.747  15.512  73.316  1.00  0.00    -0.574 N  
HETATM    2  C   UNL     1     -13.482  14.412  72.550  1.00  0.00    -0.497 C  
HETATM    3  H1  UNL     1     -13.568  16.454  72.968  1.00  0.00     0.000 HD 
HETATM    4  H2  UNL     1     -14.131  15.388  74.253  1.00  0.00     0.000 HD 
HETATM    5  O   UNL     1     -13.697  13.279  72.968  1.00  0.00    -0.448 OA 
ENDROOT
BRANCH   2   6
HETATM    6  C   UNL     1     -12.915  14.701  71.243  1.00  0.00    -0.339 A  
HETATM    7  C   UNL     1     -12.860  13.862  70.148  1.00  0.00     0.003 A  
HETATM    8  N   UNL     1     -12.153  14.569  69.218  1.00  0.00    -0.313 NA 
HETATM    9  N   UNL     1     -12.290  15.886  70.924  1.00  0.00    -0.392 NA 
HETATM   10  N   UNL     1     -11.826  15.791  69.684  1.00  0.00    -0.352 NA 
BRANCH   8  11
HETATM   11  C   UNL     1     -11.511  14.048  68.025  1.00  0.00    -0.311 C  
BRANCH  11  12
HETATM   12  C   UNL     1     -10.071  14.433  67.879  1.00  0.00    -0.228 A  
HETATM   13  C   UNL     1      -9.058  13.646  68.426  1.00  0.00    -0.165 A  
HETATM   14  C   UNL     1      -7.713  13.894  68.148  1.00  0.00    -0.142 A  
HETATM   15  F   UNL     1      -9.371  12.594  69.193  1.00  0.00     0.127 F  
HETATM   16  C   UNL     1      -7.360  14.959  67.321  1.00  0.00    -0.174 A  
HETATM   17  C   UNL     1      -8.356  15.792  66.813  1.00  0.00    -0.309 A  
HETATM   18  C   UNL     1      -9.695  15.527  67.101  1.00  0.00    -0.222 A  
HETATM   19  F   UNL     1     -10.637  16.321  66.574  1.00  0.00    -0.304 F  
ENDBRANCH  11  12
ENDBRANCH   8  11
ENDBRANCH   2   6
TORSDOF 3
ENDMDL
MODEL      174
REMARK 921   NORMALIZED FREE ENERGY PREDICTED BY IDOCK:   -3.89 KCAL/MOL
REMARK 922        TOTAL FREE ENERGY PREDICTED BY IDOCK:   -4.98 KCAL/MOL
REMARK 923 INTER-LIGAND FREE ENERGY PREDICTED BY IDOCK:   -4.63 KCAL/MOL
REMARK 924 INTRA-LIGAND FREE ENERGY PREDICTED BY IDOCK:   -0.34 KCAL/MOL
REMARK 927      BINDING AFFINITY PREDICTED BY RF-SCORE:    0.00 PKD
ROOT
HETATM    1  N   UNL     1     -12.853  12.131  63.193  1.00  0.00    -0.796 N  
HETATM    2  C   UNL     1     -11.696  12.599  63.748  1.00  0.00    -0.491 C  
HETATM    3  H1  UNL     1     -12.976  11.140  62.982  1.00  0.00     0.000 HD 
HETATM    4  H2  UNL     1     -13.609  12.785  62.985  1.00  0.00     0.000 HD 
HETATM    5  O   UNL     1     -11.549  13.791  64.002  1.00  0.00    -0.361 OA 
ENDROOT
BRANCH   2   6
HETATM    6  C   UNL     1     -10.678  11.588  63.981  1.00  0.00    -0.384 A  
HETATM    7  C   UNL     1     -10.309  11.029  65.188  1.00  0.00    -0.283 A  
HETATM    8  N   UNL     1      -9.258  10.216  64.876  1.00  0.00    -0.210 NA 
HETATM    9  N   UNL     1      -9.881  11.063  62.989  1.00  0.00    -0.339 NA 
HETATM   10  N   UNL     1      -9.016  10.227  63.549  1.00  0.00    -0.218 NA 
BRANCH   8  11
HETATM   11  C   UNL     1      -8.282   9.657  65.792  1.00  0.00    -0.120 C  
BRANCH  11  12
HETATM   12  C   UNL     1      -8.834   9.290  67.135  1.00  0.00    -0.137 A  
HETATM   13  C   UNL     1      -8.589  10.085  68.255  1.00  0.00    -0.115 A  
HETATM   14  C   UNL     1      -9.240   9.856  69.468  1.00  0.00    -0.238 A  
HETATM   15  F   UNL     1      -7.755  11.128  68.162  1.00  0.00    -0.092 F  
HETATM   16  C   UNL     1     -10.144   8.800  69.582  1.00  0.00    -0.204 A  
HETATM   17  C   UNL     1     -10.356   7.959  68.491  1.00  0.00    -0.229 A  
HETATM   18  C   UNL     1      -9.697   8.205  67.287  1.00  0.00    -0.178 A  
HETATM   19  F   UNL     1      -9.943   7.404  66.241  1.00  0.00    -0.241 F  
ENDBRANCH  11  12
ENDBRANCH   8  11
ENDBRANCH   2   6
TORSDOF 3
ENDMDL
MODEL      175
REMARK 921   NORMALIZED FREE ENERGY PREDICTED BY IDOCK:   -3.87 KCAL/MOL
REMARK 922        TOTAL FREE ENERGY PREDICTED BY IDOCK:   -4.96 KCAL/MOL
REMARK 923 INTER-LIGAND FREE ENERGY PREDICTED BY IDOCK:   -4.58 KCAL/MOL
REMARK 924 INTRA-LIGAND FREE ENERGY PREDICTED BY IDOCK:   -0.39 KCAL/MOL
REMARK 927      BINDING AFFINITY PREDICTED BY RF-SCORE:    0.00 PKD
ROOT
HETATM    1  N   UNL     1      -7.554  10.808  69.076  1.00  0.00    -0.116 N  
HETATM    2  C   UNL     1      -7.481  11.494  67.896  1.00  0.00    -0.103 C  
HETATM    3  H1  UNL     1      -8.383  10.861  69.668  1.00  0.00     0.000 HD 
HETATM    4  H2  UNL     1      -6.764  10.232  69.370  1.00  0.00     0.000 HD 
HETATM    5  O   UNL     1      -6.483  11.429  67.184  1.00  0.00    -0.085 OA 
ENDROOT
BRANCH   2   6
HETATM    6  C   UNL     1      -8.649  12.301  67.586  1.00  0.00    -0.169 A  
HETATM    7  C   UNL     1      -8.988  13.527  68.120  1.00  0.00    -0.187 A  
HETATM    8  N   UNL     1     -10.208  13.807  67.574  1.00  0.00    -0.240 NA 
HETATM    9  N   UNL     1      -9.637  11.912  66.709  1.00  0.00    -0.199 NA 
HETATM   10  N   UNL     1     -10.585  12.840  66.713  1.00  0.00    -0.250 NA 
BRANCH   8  11
HETATM   11  C   UNL     1     -11.171  14.788  68.038  1.00  0.00    -0.299 C  
BRANCH  11  12
HETATM   12  C   UNL     1     -11.474  14.710  69.503  1.00  0.00    -0.334 A  
HETATM   13  C   UNL     1     -11.201  15.784  70.351  1.00  0.00    -0.369 A  
HETATM   14  C   UNL     1     -11.639  15.794  71.677  1.00  0.00    -0.537 A  
HETATM   15  F   UNL     1     -10.554  16.857  69.881  1.00  0.00    -0.287 F  
HETATM   16  C   UNL     1     -12.349  14.707  72.182  1.00  0.00    -0.377 A  
HETATM   17  C   UNL     1     -12.579  13.600  71.367  1.00  0.00    -0.415 A  
HETATM   18  C   UNL     1     -12.135  13.608  70.044  1.00  0.00    -0.348 A  
HETATM   19  F   UNL     1     -12.398  12.547  69.269  1.00  0.00    -0.261 F  
ENDBRANCH  11  12
ENDBRANCH   8  11
ENDBRANCH   2   6
TORSDOF 3
ENDMDL
MODEL      176
REMARK 921   NORMALIZED FREE ENERGY PREDICTED BY IDOCK:   -3.85 KCAL/MOL
REMARK 922        TOTAL FREE ENERGY PREDICTED BY IDOCK:   -4.93 KCAL/MOL
REMARK 923 INTER-LIGAND FREE ENERGY PREDICTED BY IDOCK:   -4.47 KCAL/MOL
REMARK 924 INTRA-LIGAND FREE ENERGY PREDICTED BY IDOCK:   -0.46 KCAL/MOL
REMARK 927      BINDING AFFINITY PREDICTED BY RF-SCORE:    0.00 PKD
ROOT
HETATM    1  N   UNL     1     -13.550  10.993  72.210  1.00  0.00    -0.464 N  
HETATM    2  C   UNL     1     -13.284   9.655  72.144  1.00  0.00    -0.444 C  
HETATM    3  H1  UNL     1     -12.815  11.687  72.068  1.00  0.00     0.000 HD 
HETATM    4  H2  UNL     1     -14.502  11.305  72.405  1.00  0.00     0.000 HD 
HETATM    5  O   UNL     1     -14.168   8.821  72.315  1.00  0.00    -0.449 OA 
ENDROOT
BRANCH   2   6
HETATM    6  C   UNL     1     -11.893   9.321  71.885  1.00  0.00    -0.356 A  
HETATM    7  C   UNL     1     -11.051   9.893  70.952  1.00  0.00    -0.348 A  
HETATM    8  N   UNL     1      -9.899   9.166  71.047  1.00  0.00    -0.278 NA 
HETATM    9  N   UNL     1     -11.213   8.316  72.536  1.00  0.00    -0.380 NA 
HETATM   10  N   UNL     1      -9.997   8.229  72.012  1.00  0.00    -0.230 NA 
BRANCH   8  11
HETATM   11  C   UNL     1      -8.819   9.108  70.080  1.00  0.00    -0.197 C  
BRANCH  11  12
HETATM   12  C   UNL     1      -9.141   8.335  68.839  1.00  0.00    -0.147 A  
HETATM   13  C   UNL     1      -9.569   8.983  67.680  1.00  0.00    -0.150 A  
HETATM   14  C   UNL     1      -9.701   8.299  66.470  1.00  0.00    -0.323 A  
HETATM   15  F   UNL     1      -9.811  10.299  67.702  1.00  0.00    -0.173 F  
HETATM   16  C   UNL     1      -9.418   6.936  66.409  1.00  0.00    -0.170 A  
HETATM   17  C   UNL     1      -9.046   6.260  67.570  1.00  0.00    -0.110 A  
HETATM   18  C   UNL     1      -8.919   6.960  68.769  1.00  0.00    -0.130 A  
HETATM   19  F   UNL     1      -8.526   6.296  69.865  1.00  0.00    -0.121 F  
ENDBRANCH  11  12
ENDBRANCH   8  11
ENDBRANCH   2   6
TORSDOF 3
ENDMDL
MODEL      177
REMARK 921   NORMALIZED FREE ENERGY PREDICTED BY IDOCK:   -3.80 KCAL/MOL
REMARK 922        TOTAL FREE ENERGY PREDICTED BY IDOCK:   -4.88 KCAL/MOL
REMARK 923 INTER-LIGAND FREE ENERGY PREDICTED BY IDOCK:   -4.63 KCAL/MOL
REMARK 924 INTRA-LIGAND FREE ENERGY PREDICTED BY IDOCK:   -0.25 KCAL/MOL
REMARK 927      BINDING AFFINITY PREDICTED BY RF-SCORE:    0.00 PKD
ROOT
HETATM    1  N   UNL     1      -6.998  18.541  68.056  1.00  0.00    -0.223 N  
HETATM    2  C   UNL     1      -7.283  17.216  67.889  1.00  0.00    -0.170 C  
HETATM    3  H1  UNL     1      -7.735  19.221  68.246  1.00  0.00     0.000 HD 
HETATM    4  H2  UNL     1      -6.030  18.857  67.991  1.00  0.00     0.000 HD 
HETATM    5  O   UNL     1      -6.396  16.398  67.661  1.00  0.00    -0.127 OA 
ENDROOT
BRANCH   2   6
HETATM    6  C   UNL     1      -8.694  16.878  67.979  1.00  0.00    -0.215 A  
HETATM    7  C   UNL     1      -9.294  15.682  67.640  1.00  0.00    -0.206 A  
HETATM    8  N   UNL     1     -10.628  15.913  67.818  1.00  0.00    -0.295 NA 
HETATM    9  N   UNL     1      -9.667  17.761  68.391  1.00  0.00    -0.316 NA 
HETATM   10  N   UNL     1     -10.845  17.159  68.285  1.00  0.00    -0.357 NA 
BRANCH   8  11
HETATM   11  C   UNL     1     -11.730  15.127  67.294  1.00  0.00    -0.157 C  
BRANCH  11  12
HETATM   12  C   UNL     1     -11.312  13.979  66.427  1.00  0.00    -0.338 A  
HETATM   13  C   UNL     1     -11.221  14.120  65.042  1.00  0.00    -0.356 A  
HETATM   14  C   UNL     1     -10.666  13.120  64.243  1.00  0.00    -0.431 A  
HETATM   15  F   UNL     1     -11.623  15.257  64.460  1.00  0.00    -0.385 F  
HETATM   16  C   UNL     1     -10.203  11.942  64.827  1.00  0.00    -0.314 A  
HETATM   17  C   UNL     1     -10.340  11.759  66.202  1.00  0.00    -0.266 A  
HETATM   18  C   UNL     1     -10.897  12.771  66.984  1.00  0.00    -0.257 A  
HETATM   19  F   UNL     1     -10.986  12.586  68.309  1.00  0.00    -0.217 F  
ENDBRANCH  11  12
ENDBRANCH   8  11
ENDBRANCH   2   6
TORSDOF 3
ENDMDL
MODEL      178
REMARK 921   NORMALIZED FREE ENERGY PREDICTED BY IDOCK:   -3.77 KCAL/MOL
REMARK 922        TOTAL FREE ENERGY PREDICTED BY IDOCK:   -4.85 KCAL/MOL
REMARK 923 INTER-LIGAND FREE ENERGY PREDICTED BY IDOCK:   -4.44 KCAL/MOL
REMARK 924 INTRA-LIGAND FREE ENERGY PREDICTED BY IDOCK:   -0.41 KCAL/MOL
REMARK 927      BINDING AFFINITY PREDICTED BY RF-SCORE:    0.00 PKD
ROOT
HETATM    1  N   UNL     1     -12.624  14.220  63.963  1.00  0.00    -0.787 N  
HETATM    2  C   UNL     1     -12.489  12.864  64.056  1.00  0.00    -0.326 C  
HETATM    3  H1  UNL     1     -12.148  14.845  64.614  1.00  0.00     0.000 HD 
HETATM    4  H2  UNL     1     -13.213  14.615  63.229  1.00  0.00     0.000 HD 
HETATM    5  O   UNL     1     -13.061  12.113  63.273  1.00  0.00    -0.693 OA 
ENDROOT
BRANCH   2   6
HETATM    6  C   UNL     1     -11.648  12.408  65.150  1.00  0.00    -0.362 A  
HETATM    7  C   UNL     1     -10.269  12.346  65.180  1.00  0.00    -0.281 A  
HETATM    8  N   UNL     1      -9.984  11.764  66.382  1.00  0.00    -0.206 NA 
HETATM    9  N   UNL     1     -12.139  11.914  66.338  1.00  0.00    -0.451 NA 
HETATM   10  N   UNL     1     -11.112  11.521  67.081  1.00  0.00    -0.282 NA 
BRANCH   8  11
HETATM   11  C   UNL     1      -8.731  11.154  66.784  1.00  0.00    -0.157 C  
BRANCH  11  12
HETATM   12  C   UNL     1      -8.478   9.807  66.180  1.00  0.00    -0.130 A  
HETATM   13  C   UNL     1      -7.859   9.682  64.936  1.00  0.00    -0.123 A  
HETATM   14  C   UNL     1      -7.457   8.439  64.444  1.00  0.00    -0.104 A  
HETATM   15  F   UNL     1      -7.590  10.776  64.212  1.00  0.00    -0.037 F  
HETATM   16  C   UNL     1      -7.690   7.288  65.194  1.00  0.00    -0.113 A  
HETATM   17  C   UNL     1      -8.360   7.386  66.412  1.00  0.00    -0.127 A  
HETATM   18  C   UNL     1      -8.752   8.638  66.888  1.00  0.00    -0.124 A  
HETATM   19  F   UNL     1      -9.364   8.712  68.078  1.00  0.00    -0.135 F  
ENDBRANCH  11  12
ENDBRANCH   8  11
ENDBRANCH   2   6
TORSDOF 3
ENDMDL
MODEL      179
REMARK 921   NORMALIZED FREE ENERGY PREDICTED BY IDOCK:   -3.76 KCAL/MOL
REMARK 922        TOTAL FREE ENERGY PREDICTED BY IDOCK:   -4.84 KCAL/MOL
REMARK 923 INTER-LIGAND FREE ENERGY PREDICTED BY IDOCK:   -4.39 KCAL/MOL
REMARK 924 INTRA-LIGAND FREE ENERGY PREDICTED BY IDOCK:   -0.44 KCAL/MOL
REMARK 927      BINDING AFFINITY PREDICTED BY RF-SCORE:    0.00 PKD
ROOT
HETATM    1  N   UNL     1     -11.955  14.062  70.944  1.00  0.00    -0.468 N  
HETATM    2  C   UNL     1     -12.365  12.828  70.527  1.00  0.00    -0.275 C  
HETATM    3  H1  UNL     1     -11.108  14.493  70.570  1.00  0.00     0.000 HD 
HETATM    4  H2  UNL     1     -12.505  14.563  71.643  1.00  0.00     0.000 HD 
HETATM    5  O   UNL     1     -13.383  12.311  70.976  1.00  0.00     0.093 OA 
ENDROOT
BRANCH   2   6
HETATM    6  C   UNL     1     -11.497  12.194  69.548  1.00  0.00    -0.265 A  
HETATM    7  C   UNL     1     -10.388  12.737  68.933  1.00  0.00    -0.031 A  
HETATM    8  N   UNL     1      -9.993  11.779  68.043  1.00  0.00    -0.182 NA 
HETATM    9  N   UNL     1     -11.702  10.926  69.052  1.00  0.00    -0.316 NA 
HETATM   10  N   UNL     1     -10.777  10.686  68.131  1.00  0.00    -0.207 NA 
BRANCH   8  11
HETATM   11  C   UNL     1      -9.103  11.951  66.910  1.00  0.00    -0.196 C  
BRANCH  11  12
HETATM   12  C   UNL     1      -9.802  12.152  65.601  1.00  0.00    -0.256 A  
HETATM   13  C   UNL     1     -10.041  11.079  64.742  1.00  0.00    -0.308 A  
HETATM   14  C   UNL     1     -10.844  11.218  63.609  1.00  0.00    -0.410 A  
HETATM   15  F   UNL     1      -9.541   9.871  65.029  1.00  0.00    -0.280 F  
HETATM   16  C   UNL     1     -11.410  12.455  63.307  1.00  0.00    -0.399 A  
HETATM   17  C   UNL     1     -11.134  13.553  64.121  1.00  0.00    -0.302 A  
HETATM   18  C   UNL     1     -10.330  13.393  65.250  1.00  0.00    -0.319 A  
HETATM   19  F   UNL     1     -10.107  14.455  66.037  1.00  0.00    -0.273 F  
ENDBRANCH  11  12
ENDBRANCH   8  11
ENDBRANCH   2   6
TORSDOF 3
ENDMDL
MODEL      180
REMARK 921   NORMALIZED FREE ENERGY PREDICTED BY IDOCK:   -3.72 KCAL/MOL
REMARK 922        TOTAL FREE ENERGY PREDICTED BY IDOCK:   -4.78 KCAL/MOL
REMARK 923 INTER-LIGAND FREE ENERGY PREDICTED BY IDOCK:   -4.36 KCAL/MOL
REMARK 924 INTRA-LIGAND FREE ENERGY PREDICTED BY IDOCK:   -0.42 KCAL/MOL
REMARK 927      BINDING AFFINITY PREDICTED BY RF-SCORE:    0.00 PKD
ROOT
HETATM    1  N   UNL     1      -9.792   7.441  69.730  1.00  0.00    -0.170 N  
HETATM    2  C   UNL     1      -9.041   8.109  68.805  1.00  0.00    -0.144 C  
HETATM    3  H1  UNL     1     -10.638   7.854  70.122  1.00  0.00     0.000 HD 
HETATM    4  H2  UNL     1      -9.500   6.512  70.035  1.00  0.00     0.000 HD 
HETATM    5  O   UNL     1      -8.022   7.612  68.333  1.00  0.00    -0.119 OA 
ENDROOT
BRANCH   2   6
HETATM    6  C   UNL     1      -9.532   9.433  68.460  1.00  0.00    -0.145 A  
HETATM    7  C   UNL     1     -10.711  10.024  68.868  1.00  0.00    -0.219 A  
HETATM    8  N   UNL     1     -10.741  11.213  68.197  1.00  0.00    -0.190 NA 
HETATM    9  N   UNL     1      -8.878  10.293  67.607  1.00  0.00    -0.122 NA 
HETATM   10  N   UNL     1      -9.629  11.377  67.453  1.00  0.00    -0.173 NA 
BRANCH   8  11
HETATM   11  C   UNL     1     -11.894  12.069  67.986  1.00  0.00    -0.269 C  
BRANCH  11  12
HETATM   12  C   UNL     1     -11.817  13.391  68.685  1.00  0.00    -0.397 A  
HETATM   13  C   UNL     1     -11.499  14.556  67.987  1.00  0.00    -0.321 A  
HETATM   14  C   UNL     1     -11.598  15.813  68.584  1.00  0.00    -0.392 A  
HETATM   15  F   UNL     1     -11.140  14.484  66.699  1.00  0.00    -0.304 F  
HETATM   16  C   UNL     1     -12.006  15.920  69.913  1.00  0.00    -0.283 A  
HETATM   17  C   UNL     1     -12.271  14.764  70.644  1.00  0.00    -0.385 A  
HETATM   18  C   UNL     1     -12.168  13.516  70.029  1.00  0.00    -0.312 A  
HETATM   19  F   UNL     1     -12.461  12.419  70.742  1.00  0.00    -0.414 F  
ENDBRANCH  11  12
ENDBRANCH   8  11
ENDBRANCH   2   6
TORSDOF 3
ENDMDL
MODEL      181
REMARK 921   NORMALIZED FREE ENERGY PREDICTED BY IDOCK:   -3.71 KCAL/MOL
REMARK 922        TOTAL FREE ENERGY PREDICTED BY IDOCK:   -4.77 KCAL/MOL
REMARK 923 INTER-LIGAND FREE ENERGY PREDICTED BY IDOCK:   -4.53 KCAL/MOL
REMARK 924 INTRA-LIGAND FREE ENERGY PREDICTED BY IDOCK:   -0.24 KCAL/MOL
REMARK 927      BINDING AFFINITY PREDICTED BY RF-SCORE:    0.00 PKD
ROOT
HETATM    1  N   UNL     1      -8.446  20.508  67.086  1.00  0.00    -0.493 N  
HETATM    2  C   UNL     1      -7.568  19.742  67.800  1.00  0.00    -0.286 C  
HETATM    3  H1  UNL     1      -9.294  20.106  66.686  1.00  0.00     0.000 HD 
HETATM    4  H2  UNL     1      -8.250  21.500  66.951  1.00  0.00     0.000 HD 
HETATM    5  O   UNL     1      -6.548  20.225  68.281  1.00  0.00    -0.279 OA 
ENDROOT
BRANCH   2   6
HETATM    6  C   UNL     1      -7.932  18.339  67.911  1.00  0.00    -0.254 A  
HETATM    7  C   UNL     1      -7.425  17.280  67.185  1.00  0.00    -0.179 A  
HETATM    8  N   UNL     1      -8.158  16.205  67.601  1.00  0.00    -0.144 NA 
HETATM    9  N   UNL     1      -8.905  17.866  68.763  1.00  0.00    -0.248 NA 
HETATM   10  N   UNL     1      -9.035  16.561  68.562  1.00  0.00    -0.222 NA 
BRANCH   8  11
HETATM   11  C   UNL     1      -8.283  14.922  66.936  1.00  0.00    -0.143 C  
BRANCH  11  12
HETATM   12  C   UNL     1      -9.638  14.294  67.056  1.00  0.00    -0.260 A  
HETATM   13  C   UNL     1      -9.874  13.260  67.961  1.00  0.00    -0.230 A  
HETATM   14  C   UNL     1     -11.164  12.789  68.210  1.00  0.00    -0.308 A  
HETATM   15  F   UNL     1      -8.855  12.734  68.653  1.00  0.00    -0.161 F  
HETATM   16  C   UNL     1     -12.248  13.344  67.532  1.00  0.00    -0.231 A  
HETATM   17  C   UNL     1     -12.025  14.339  66.580  1.00  0.00    -0.454 A  
HETATM   18  C   UNL     1     -10.729  14.796  66.347  1.00  0.00    -0.313 A  
HETATM   19  F   UNL     1     -10.543  15.777  65.452  1.00  0.00    -0.327 F  
ENDBRANCH  11  12
ENDBRANCH   8  11
ENDBRANCH   2   6
TORSDOF 3
ENDMDL
MODEL      182
REMARK 921   NORMALIZED FREE ENERGY PREDICTED BY IDOCK:   -3.70 KCAL/MOL
REMARK 922        TOTAL FREE ENERGY PREDICTED BY IDOCK:   -4.76 KCAL/MOL
REMARK 923 INTER-LIGAND FREE ENERGY PREDICTED BY IDOCK:   -4.34 KCAL/MOL
REMARK 924 INTRA-LIGAND FREE ENERGY PREDICTED BY IDOCK:   -0.42 KCAL/MOL
REMARK 927      BINDING AFFINITY PREDICTED BY RF-SCORE:    0.00 PKD
ROOT
HETATM    1  N   UNL     1      -8.623   9.361  66.073  1.00  0.00    -0.137 N  
HETATM    2  C   UNL     1      -9.247   8.521  66.951  1.00  0.00    -0.158 C  
HETATM    3  H1  UNL     1      -8.592  10.368  66.236  1.00  0.00     0.000 HD 
HETATM    4  H2  UNL     1      -8.179   8.975  65.240  1.00  0.00     0.000 HD 
HETATM    5  O   UNL     1      -9.284   7.310  66.756  1.00  0.00    -0.142 OA 
ENDROOT
BRANCH   2   6
HETATM    6  C   UNL     1      -9.865   9.178  68.091  1.00  0.00    -0.164 A  
HETATM    7  C   UNL     1      -9.493   9.087  69.417  1.00  0.00    -0.159 A  
HETATM    8  N   UNL     1     -10.442   9.808  70.084  1.00  0.00    -0.266 NA 
HETATM    9  N   UNL     1     -10.980   9.981  67.999  1.00  0.00    -0.260 NA 
HETATM   10  N   UNL     1     -11.324  10.357  69.224  1.00  0.00    -0.243 NA 
BRANCH   8  11
HETATM   11  C   UNL     1     -10.735   9.766  71.504  1.00  0.00     0.118 C  
BRANCH  11  12
HETATM   12  C   UNL     1     -11.973   8.999  71.856  1.00  0.00    -0.445 A  
HETATM   13  C   UNL     1     -13.155   9.657  72.193  1.00  0.00    -0.431 A  
HETATM   14  C   UNL     1     -14.357   8.964  72.348  1.00  0.00    -0.385 A  
HETATM   15  F   UNL     1     -13.163  10.990  72.319  1.00  0.00    -0.580 F  
HETATM   16  C   UNL     1     -14.385   7.580  72.185  1.00  0.00    -0.336 A  
HETATM   17  C   UNL     1     -13.202   6.898  71.907  1.00  0.00    -0.218 A  
HETATM   18  C   UNL     1     -12.011   7.609  71.754  1.00  0.00    -0.299 A  
HETATM   19  F   UNL     1     -10.892   6.935  71.452  1.00  0.00    -0.236 F  
ENDBRANCH  11  12
ENDBRANCH   8  11
ENDBRANCH   2   6
TORSDOF 3
ENDMDL
MODEL      183
REMARK 921   NORMALIZED FREE ENERGY PREDICTED BY IDOCK:   -3.70 KCAL/MOL
REMARK 922        TOTAL FREE ENERGY PREDICTED BY IDOCK:   -4.76 KCAL/MOL
REMARK 923 INTER-LIGAND FREE ENERGY PREDICTED BY IDOCK:   -4.47 KCAL/MOL
REMARK 924 INTRA-LIGAND FREE ENERGY PREDICTED BY IDOCK:   -0.28 KCAL/MOL
REMARK 927      BINDING AFFINITY PREDICTED BY RF-SCORE:    0.00 PKD
ROOT
HETATM    1  N   UNL     1     -12.082  13.575  67.840  1.00  0.00    -0.323 N  
HETATM    2  C   UNL     1     -12.038  13.408  66.485  1.00  0.00    -0.388 C  
HETATM    3  H1  UNL     1     -11.681  12.881  68.471  1.00  0.00     0.000 HD 
HETATM    4  H2  UNL     1     -12.525  14.408  68.228  1.00  0.00     0.000 HD 
HETATM    5  O   UNL     1     -12.520  14.243  65.725  1.00  0.00    -0.441 OA 
ENDROOT
BRANCH   2   6
HETATM    6  C   UNL     1     -11.406  12.177  66.041  1.00  0.00    -0.358 A  
HETATM    7  C   UNL     1     -10.934  11.144  66.826  1.00  0.00    -0.249 A  
HETATM    8  N   UNL     1     -10.356  10.283  65.938  1.00  0.00    -0.211 NA 
HETATM    9  N   UNL     1     -11.144  11.884  64.721  1.00  0.00    -0.310 NA 
HETATM   10  N   UNL     1     -10.500  10.725  64.672  1.00  0.00    -0.329 NA 
BRANCH   8  11
HETATM   11  C   UNL     1      -9.418   9.217  66.238  1.00  0.00    -0.237 C  
BRANCH  11  12
HETATM   12  C   UNL     1      -9.552   8.645  67.615  1.00  0.00    -0.190 A  
HETATM   13  C   UNL     1      -8.846   9.185  68.690  1.00  0.00    -0.133 A  
HETATM   14  C   UNL     1      -9.094   8.781  70.002  1.00  0.00    -0.164 A  
HETATM   15  F   UNL     1      -7.944  10.153  68.476  1.00  0.00    -0.094 F  
HETATM   16  C   UNL     1     -10.054   7.804  70.258  1.00  0.00    -0.195 A  
HETATM   17  C   UNL     1     -10.729   7.210  69.191  1.00  0.00    -0.216 A  
HETATM   18  C   UNL     1     -10.467   7.628  67.887  1.00  0.00    -0.207 A  
HETATM   19  F   UNL     1     -11.152   7.068  66.880  1.00  0.00    -0.429 F  
ENDBRANCH  11  12
ENDBRANCH   8  11
ENDBRANCH   2   6
TORSDOF 3
ENDMDL
MODEL      184
REMARK 921   NORMALIZED FREE ENERGY PREDICTED BY IDOCK:   -3.69 KCAL/MOL
REMARK 922        TOTAL FREE ENERGY PREDICTED BY IDOCK:   -4.75 KCAL/MOL
REMARK 923 INTER-LIGAND FREE ENERGY PREDICTED BY IDOCK:   -4.32 KCAL/MOL
REMARK 924 INTRA-LIGAND FREE ENERGY PREDICTED BY IDOCK:   -0.43 KCAL/MOL
REMARK 927      BINDING AFFINITY PREDICTED BY RF-SCORE:    0.00 PKD
ROOT
HETATM    1  N   UNL     1     -12.176  14.536  66.543  1.00  0.00    -0.401 N  
HETATM    2  C   UNL     1     -12.157  14.192  65.221  1.00  0.00    -0.405 C  
HETATM    3  H1  UNL     1     -11.779  13.922  67.255  1.00  0.00     0.000 HD 
HETATM    4  H2  UNL     1     -12.595  15.423  66.824  1.00  0.00     0.000 HD 
HETATM    5  O   UNL     1     -12.635  14.930  64.365  1.00  0.00    -0.577 OA 
ENDROOT
BRANCH   2   6
HETATM    6  C   UNL     1     -11.560  12.898  64.935  1.00  0.00    -0.327 A  
HETATM    7  C   UNL     1     -11.252  11.897  65.834  1.00  0.00    -0.322 A  
HETATM    8  N   UNL     1     -10.631  10.945  65.079  1.00  0.00    -0.259 NA 
HETATM    9  N   UNL     1     -11.164  12.499  63.678  1.00  0.00    -0.454 NA 
HETATM   10  N   UNL     1     -10.595  11.305  63.780  1.00  0.00    -0.380 NA 
BRANCH   8  11
HETATM   11  C   UNL     1      -9.807   9.850  65.556  1.00  0.00    -0.311 C  
BRANCH  11  12
HETATM   12  C   UNL     1      -8.731  10.259  66.515  1.00  0.00    -0.139 A  
HETATM   13  C   UNL     1      -7.540  10.825  66.060  1.00  0.00    -0.130 A  
HETATM   14  C   UNL     1      -6.609  11.372  66.944  1.00  0.00    -0.141 A  
HETATM   15  F   UNL     1      -7.297  10.900  64.745  1.00  0.00     0.017 F  
HETATM   16  C   UNL     1      -6.854  11.342  68.316  1.00  0.00    -0.064 A  
HETATM   17  C   UNL     1      -8.011  10.727  68.793  1.00  0.00    -0.136 A  
HETATM   18  C   UNL     1      -8.930  10.187  67.893  1.00  0.00    -0.128 A  
HETATM   19  F   UNL     1     -10.052   9.633  68.372  1.00  0.00    -0.165 F  
ENDBRANCH  11  12
ENDBRANCH   8  11
ENDBRANCH   2   6
TORSDOF 3
ENDMDL
MODEL      185
REMARK 921   NORMALIZED FREE ENERGY PREDICTED BY IDOCK:   -3.69 KCAL/MOL
REMARK 922        TOTAL FREE ENERGY PREDICTED BY IDOCK:   -4.74 KCAL/MOL
REMARK 923 INTER-LIGAND FREE ENERGY PREDICTED BY IDOCK:   -4.32 KCAL/MOL
REMARK 924 INTRA-LIGAND FREE ENERGY PREDICTED BY IDOCK:   -0.43 KCAL/MOL
REMARK 927      BINDING AFFINITY PREDICTED BY RF-SCORE:    0.00 PKD
ROOT
HETATM    1  N   UNL     1     -11.462   6.976  72.747  1.00  0.00    -0.480 N  
HETATM    2  C   UNL     1     -10.233   7.491  73.047  1.00  0.00    -0.306 C  
HETATM    3  H1  UNL     1     -11.913   7.170  71.852  1.00  0.00     0.000 HD 
HETATM    4  H2  UNL     1     -11.937   6.385  73.429  1.00  0.00     0.000 HD 
HETATM    5  O   UNL     1      -9.691   7.257  74.122  1.00  0.00    -0.268 OA 
ENDROOT
BRANCH   2   6
HETATM    6  C   UNL     1      -9.657   8.337  72.015  1.00  0.00    -0.248 A  
HETATM    7  C   UNL     1     -10.250   8.748  70.838  1.00  0.00    -0.226 A  
HETATM    8  N   UNL     1      -9.266   9.438  70.189  1.00  0.00    -0.217 NA 
HETATM    9  N   UNL     1      -8.371   8.828  72.058  1.00  0.00    -0.368 NA 
HETATM   10  N   UNL     1      -8.144   9.496  70.934  1.00  0.00    -0.307 NA 
BRANCH   8  11
HETATM   11  C   UNL     1      -9.227   9.790  68.782  1.00  0.00    -0.143 C  
BRANCH  11  12
HETATM   12  C   UNL     1      -9.786  11.145  68.469  1.00  0.00    -0.196 A  
HETATM   13  C   UNL     1      -8.959  12.267  68.410  1.00  0.00    -0.141 A  
HETATM   14  C   UNL     1      -9.431  13.496  67.947  1.00  0.00    -0.215 A  
HETATM   15  F   UNL     1      -7.668  12.162  68.751  1.00  0.00    -0.118 F  
HETATM   16  C   UNL     1     -10.761  13.623  67.548  1.00  0.00    -0.266 A  
HETATM   17  C   UNL     1     -11.616  12.528  67.656  1.00  0.00    -0.416 A  
HETATM   18  C   UNL     1     -11.126  11.308  68.120  1.00  0.00    -0.259 A  
HETATM   19  F   UNL     1     -11.959  10.260  68.182  1.00  0.00    -0.145 F  
ENDBRANCH  11  12
ENDBRANCH   8  11
ENDBRANCH   2   6
TORSDOF 3
ENDMDL
MODEL      186
REMARK 921   NORMALIZED FREE ENERGY PREDICTED BY IDOCK:   -3.68 KCAL/MOL
REMARK 922        TOTAL FREE ENERGY PREDICTED BY IDOCK:   -4.74 KCAL/MOL
REMARK 923 INTER-LIGAND FREE ENERGY PREDICTED BY IDOCK:   -4.59 KCAL/MOL
REMARK 924 INTRA-LIGAND FREE ENERGY PREDICTED BY IDOCK:   -0.15 KCAL/MOL
REMARK 927      BINDING AFFINITY PREDICTED BY RF-SCORE:    0.00 PKD
ROOT
HETATM    1  N   UNL     1     -11.433   4.786  65.360  1.00  0.00    -0.911 N  
HETATM    2  C   UNL     1     -10.278   4.677  66.082  1.00  0.00    -0.277 C  
HETATM    3  H1  UNL     1     -11.902   5.686  65.245  1.00  0.00     0.000 HD 
HETATM    4  H2  UNL     1     -11.835   3.954  64.929  1.00  0.00     0.000 HD 
HETATM    5  O   UNL     1      -9.715   3.596  66.221  1.00  0.00    -0.170 OA 
ENDROOT
BRANCH   2   6
HETATM    6  C   UNL     1      -9.807   5.919  66.673  1.00  0.00    -0.163 A  
HETATM    7  C   UNL     1     -10.471   7.128  66.728  1.00  0.00    -0.230 A  
HETATM    8  N   UNL     1      -9.568   7.982  67.292  1.00  0.00    -0.153 NA 
HETATM    9  N   UNL     1      -8.563   6.071  67.242  1.00  0.00    -0.107 NA 
HETATM   10  N   UNL     1      -8.428   7.338  67.614  1.00  0.00    -0.117 NA 
BRANCH   8  11
HETATM   11  C   UNL     1      -9.607   9.433  67.275  1.00  0.00    -0.151 C  
BRANCH  11  12
HETATM   12  C   UNL     1      -9.935  10.026  65.940  1.00  0.00    -0.339 A  
HETATM   13  C   UNL     1     -10.910  11.016  65.813  1.00  0.00    -0.097 A  
HETATM   14  C   UNL     1     -11.101  11.701  64.612  1.00  0.00    -0.342 A  
HETATM   15  F   UNL     1     -11.650  11.363  66.874  1.00  0.00    -0.366 F  
HETATM   16  C   UNL     1     -10.319  11.387  63.502  1.00  0.00    -0.476 A  
HETATM   17  C   UNL     1      -9.380  10.361  63.593  1.00  0.00    -0.329 A  
HETATM   18  C   UNL     1      -9.203   9.688  64.802  1.00  0.00    -0.238 A  
HETATM   19  F   UNL     1      -8.271   8.728  64.876  1.00  0.00    -0.123 F  
ENDBRANCH  11  12
ENDBRANCH   8  11
ENDBRANCH   2   6
TORSDOF 3
ENDMDL
MODEL      187
REMARK 921   NORMALIZED FREE ENERGY PREDICTED BY IDOCK:   -3.66 KCAL/MOL
REMARK 922        TOTAL FREE ENERGY PREDICTED BY IDOCK:   -4.71 KCAL/MOL
REMARK 923 INTER-LIGAND FREE ENERGY PREDICTED BY IDOCK:   -4.62 KCAL/MOL
REMARK 924 INTRA-LIGAND FREE ENERGY PREDICTED BY IDOCK:   -0.09 KCAL/MOL
REMARK 927      BINDING AFFINITY PREDICTED BY RF-SCORE:    0.00 PKD
ROOT
HETATM    1  N   UNL     1     -11.213  11.508  62.875  1.00  0.00    -0.690 N  
HETATM    2  C   UNL     1     -11.970  12.160  63.807  1.00  0.00    -0.513 C  
HETATM    3  H1  UNL     1     -10.531  10.800  63.149  1.00  0.00     0.000 HD 
HETATM    4  H2  UNL     1     -11.332  11.733  61.887  1.00  0.00     0.000 HD 
HETATM    5  O   UNL     1     -12.790  13.011  63.478  1.00  0.00    -0.664 OA 
ENDROOT
BRANCH   2   6
HETATM    6  C   UNL     1     -11.704  11.780  65.185  1.00  0.00    -0.087 A  
HETATM    7  C   UNL     1     -10.802  10.837  65.637  1.00  0.00     0.006 A  
HETATM    8  N   UNL     1     -11.007  10.796  66.986  1.00  0.00    -0.259 NA 
HETATM    9  N   UNL     1     -12.376  12.303  66.266  1.00  0.00    -0.419 NA 
HETATM   10  N   UNL     1     -11.943  11.691  67.361  1.00  0.00    -0.612 NA 
BRANCH   8  11
HETATM   11  C   UNL     1     -10.583   9.755  67.904  1.00  0.00    -0.259 C  
BRANCH  11  12
HETATM   12  C   UNL     1      -9.906   8.591  67.248  1.00  0.00    -0.259 A  
HETATM   13  C   UNL     1      -8.604   8.700  66.758  1.00  0.00    -0.120 A  
HETATM   14  C   UNL     1      -7.899   7.582  66.308  1.00  0.00    -0.102 A  
HETATM   15  F   UNL     1      -7.987   9.888  66.763  1.00  0.00    -0.111 F  
HETATM   16  C   UNL     1      -8.504   6.326  66.327  1.00  0.00    -0.133 A  
HETATM   17  C   UNL     1      -9.825   6.208  66.758  1.00  0.00    -0.203 A  
HETATM   18  C   UNL     1     -10.512   7.336  67.205  1.00  0.00    -0.310 A  
HETATM   19  F   UNL     1     -11.769   7.192  67.647  1.00  0.00     0.112 F  
ENDBRANCH  11  12
ENDBRANCH   8  11
ENDBRANCH   2   6
TORSDOF 3
ENDMDL
MODEL      188
REMARK 921   NORMALIZED FREE ENERGY PREDICTED BY IDOCK:   -3.64 KCAL/MOL
REMARK 922        TOTAL FREE ENERGY PREDICTED BY IDOCK:   -4.69 KCAL/MOL
REMARK 923 INTER-LIGAND FREE ENERGY PREDICTED BY IDOCK:   -4.50 KCAL/MOL
REMARK 924 INTRA-LIGAND FREE ENERGY PREDICTED BY IDOCK:   -0.19 KCAL/MOL
REMARK 927      BINDING AFFINITY PREDICTED BY RF-SCORE:    0.00 PKD
ROOT
HETATM    1  N   UNL     1      -7.489   4.982  73.235  1.00  0.00    -0.087 N  
HETATM    2  C   UNL     1      -7.254   6.322  73.116  1.00  0.00    -0.087 C  
HETATM    3  H1  UNL     1      -8.415   4.590  73.060  1.00  0.00     0.000 HD 
HETATM    4  H2  UNL     1      -6.725   4.361  73.502  1.00  0.00     0.000 HD 
HETATM    5  O   UNL     1      -6.140   6.794  73.326  1.00  0.00    -0.057 OA 
ENDROOT
BRANCH   2   6
HETATM    6  C   UNL     1      -8.416   7.117  72.754  1.00  0.00    -0.107 A  
HETATM    7  C   UNL     1      -9.606   6.669  72.217  1.00  0.00    -0.145 A  
HETATM    8  N   UNL     1     -10.317   7.809  71.977  1.00  0.00    -0.205 NA 
HETATM    9  N   UNL     1      -8.469   8.489  72.864  1.00  0.00    -0.395 NA 
HETATM   10  N   UNL     1      -9.635   8.900  72.383  1.00  0.00    -0.251 NA 
BRANCH   8  11
HETATM   11  C   UNL     1     -11.477   7.952  71.117  1.00  0.00    -0.273 C  
BRANCH  11  12
HETATM   12  C   UNL     1     -11.778   9.363  70.715  1.00  0.00    -0.349 A  
HETATM   13  C   UNL     1     -12.610  10.170  71.492  1.00  0.00    -0.434 A  
HETATM   14  C   UNL     1     -12.756  11.533  71.229  1.00  0.00    -0.469 A  
HETATM   15  F   UNL     1     -13.245   9.649  72.550  1.00  0.00    -0.473 F  
HETATM   16  C   UNL     1     -12.076  12.110  70.158  1.00  0.00    -0.368 A  
HETATM   17  C   UNL     1     -11.287  11.308  69.335  1.00  0.00    -0.360 A  
HETATM   18  C   UNL     1     -11.153   9.948  69.615  1.00  0.00    -0.241 A  
HETATM   19  F   UNL     1     -10.361   9.203  68.830  1.00  0.00    -0.198 F  
ENDBRANCH  11  12
ENDBRANCH   8  11
ENDBRANCH   2   6
TORSDOF 3
ENDMDL
MODEL      189
REMARK 921   NORMALIZED FREE ENERGY PREDICTED BY IDOCK:   -3.64 KCAL/MOL
REMARK 922        TOTAL FREE ENERGY PREDICTED BY IDOCK:   -4.69 KCAL/MOL
REMARK 923 INTER-LIGAND FREE ENERGY PREDICTED BY IDOCK:   -4.30 KCAL/MOL
REMARK 924 INTRA-LIGAND FREE ENERGY PREDICTED BY IDOCK:   -0.39 KCAL/MOL
REMARK 927      BINDING AFFINITY PREDICTED BY RF-SCORE:    0.00 PKD
ROOT
HETATM    1  N   UNL     1     -11.525  12.236  63.085  1.00  0.00    -0.707 N  
HETATM    2  C   UNL     1     -12.066  12.401  64.328  1.00  0.00    -0.433 C  
HETATM    3  H1  UNL     1     -10.643  11.740  62.953  1.00  0.00     0.000 HD 
HETATM    4  H2  UNL     1     -12.013  12.616  62.273  1.00  0.00     0.000 HD 
HETATM    5  O   UNL     1     -13.126  12.997  64.487  1.00  0.00    -0.693 OA 
ENDROOT
BRANCH   2   6
HETATM    6  C   UNL     1     -11.278  11.842  65.415  1.00  0.00    -0.295 A  
HETATM    7  C   UNL     1     -10.050  11.219  65.329  1.00  0.00    -0.267 A  
HETATM    8  N   UNL     1      -9.794  10.800  66.603  1.00  0.00    -0.193 NA 
HETATM    9  N   UNL     1     -11.693  11.822  66.728  1.00  0.00    -0.571 NA 
HETATM   10  N   UNL     1     -10.778  11.180  67.443  1.00  0.00    -0.233 NA 
BRANCH   8  11
HETATM   11  C   UNL     1      -8.821   9.807  67.019  1.00  0.00    -0.135 C  
BRANCH  11  12
HETATM   12  C   UNL     1      -7.805  10.311  67.998  1.00  0.00    -0.100 A  
HETATM   13  C   UNL     1      -6.871  11.279  67.630  1.00  0.00    -0.077 A  
HETATM   14  C   UNL     1      -6.039  11.884  68.574  1.00  0.00    -0.050 A  
HETATM   15  F   UNL     1      -6.798  11.685  66.357  1.00  0.00    -0.110 F  
HETATM   16  C   UNL     1      -6.121  11.509  69.914  1.00  0.00    -0.141 A  
HETATM   17  C   UNL     1      -7.007  10.501  70.290  1.00  0.00    -0.046 A  
HETATM   18  C   UNL     1      -7.831   9.909  69.333  1.00  0.00    -0.127 A  
HETATM   19  F   UNL     1      -8.700   8.966  69.724  1.00  0.00    -0.122 F  
ENDBRANCH  11  12
ENDBRANCH   8  11
ENDBRANCH   2   6
TORSDOF 3
ENDMDL
MODEL      190
REMARK 921   NORMALIZED FREE ENERGY PREDICTED BY IDOCK:   -3.62 KCAL/MOL
REMARK 922        TOTAL FREE ENERGY PREDICTED BY IDOCK:   -4.67 KCAL/MOL
REMARK 923 INTER-LIGAND FREE ENERGY PREDICTED BY IDOCK:   -4.26 KCAL/MOL
REMARK 924 INTRA-LIGAND FREE ENERGY PREDICTED BY IDOCK:   -0.41 KCAL/MOL
REMARK 927      BINDING AFFINITY PREDICTED BY RF-SCORE:    0.00 PKD
ROOT
HETATM    1  N   UNL     1     -12.393   8.096  72.656  1.00  0.00    -0.606 N  
HETATM    2  C   UNL     1     -11.091   7.695  72.749  1.00  0.00    -0.383 C  
HETATM    3  H1  UNL     1     -12.727   8.623  71.849  1.00  0.00     0.000 HD 
HETATM    4  H2  UNL     1     -13.043   7.863  73.407  1.00  0.00     0.000 HD 
HETATM    5  O   UNL     1     -10.688   7.060  73.720  1.00  0.00    -0.360 OA 
ENDROOT
BRANCH   2   6
HETATM    6  C   UNL     1     -10.246   8.099  71.638  1.00  0.00    -0.206 A  
HETATM    7  C   UNL     1     -10.226   7.571  70.363  1.00  0.00    -0.202 A  
HETATM    8  N   UNL     1      -9.202   8.227  69.742  1.00  0.00    -0.154 NA 
HETATM    9  N   UNL     1      -9.280   9.077  71.726  1.00  0.00    -0.361 NA 
HETATM   10  N   UNL     1      -8.648   9.143  70.562  1.00  0.00    -0.199 NA 
BRANCH   8  11
HETATM   11  C   UNL     1      -8.524   7.836  68.520  1.00  0.00    -0.129 C  
BRANCH  11  12
HETATM   12  C   UNL     1      -8.641   8.827  67.404  1.00  0.00    -0.126 A  
HETATM   13  C   UNL     1      -9.810   8.927  66.651  1.00  0.00    -0.262 A  
HETATM   14  C   UNL     1      -9.999   9.960  65.731  1.00  0.00    -0.347 A  
HETATM   15  F   UNL     1     -10.804   8.051  66.843  1.00  0.00    -0.400 F  
HETATM   16  C   UNL     1      -8.996  10.909  65.538  1.00  0.00    -0.213 A  
HETATM   17  C   UNL     1      -7.797  10.791  66.239  1.00  0.00    -0.156 A  
HETATM   18  C   UNL     1      -7.628   9.753  67.155  1.00  0.00    -0.092 A  
HETATM   19  F   UNL     1      -6.480   9.680  67.842  1.00  0.00    -0.058 F  
ENDBRANCH  11  12
ENDBRANCH   8  11
ENDBRANCH   2   6
TORSDOF 3
ENDMDL
MODEL      191
REMARK 921   NORMALIZED FREE ENERGY PREDICTED BY IDOCK:   -3.61 KCAL/MOL
REMARK 922        TOTAL FREE ENERGY PREDICTED BY IDOCK:   -4.65 KCAL/MOL
REMARK 923 INTER-LIGAND FREE ENERGY PREDICTED BY IDOCK:   -4.23 KCAL/MOL
REMARK 924 INTRA-LIGAND FREE ENERGY PREDICTED BY IDOCK:   -0.42 KCAL/MOL
REMARK 927      BINDING AFFINITY PREDICTED BY RF-SCORE:    0.00 PKD
ROOT
HETATM    1  N   UNL     1      -8.948   7.645  70.060  1.00  0.00    -0.143 N  
HETATM    2  C   UNL     1      -9.617   8.504  70.885  1.00  0.00    -0.185 C  
HETATM    3  H1  UNL     1      -9.094   7.659  69.050  1.00  0.00     0.000 HD 
HETATM    4  H2  UNL     1      -8.289   6.977  70.461  1.00  0.00     0.000 HD 
HETATM    5  O   UNL     1      -9.441   8.487  72.099  1.00  0.00    -0.257 OA 
ENDROOT
BRANCH   2   6
HETATM    6  C   UNL     1     -10.547   9.396  70.213  1.00  0.00    -0.250 A  
HETATM    7  C   UNL     1     -10.546   9.764  68.883  1.00  0.00    -0.218 A  
HETATM    8  N   UNL     1     -11.554  10.680  68.785  1.00  0.00    -0.268 NA 
HETATM    9  N   UNL     1     -11.574  10.054  70.853  1.00  0.00    -0.350 NA 
HETATM   10  N   UNL     1     -12.180  10.838  69.969  1.00  0.00    -0.331 NA 
BRANCH   8  11
HETATM   11  C   UNL     1     -11.771  11.631  67.712  1.00  0.00    -0.245 C  
BRANCH  11  12
HETATM   12  C   UNL     1     -10.936  12.871  67.807  1.00  0.00    -0.269 A  
HETATM   13  C   UNL     1     -11.321  13.936  68.623  1.00  0.00    -0.278 A  
HETATM   14  C   UNL     1     -10.470  15.016  68.860  1.00  0.00    -0.241 A  
HETATM   15  F   UNL     1     -12.508  13.907  69.241  1.00  0.00    -0.375 F  
HETATM   16  C   UNL     1      -9.212  15.054  68.260  1.00  0.00    -0.184 A  
HETATM   17  C   UNL     1      -8.834  14.028  67.395  1.00  0.00    -0.210 A  
HETATM   18  C   UNL     1      -9.698  12.956  67.172  1.00  0.00    -0.221 A  
HETATM   19  F   UNL     1      -9.299  11.964  66.364  1.00  0.00    -0.202 F  
ENDBRANCH  11  12
ENDBRANCH   8  11
ENDBRANCH   2   6
TORSDOF 3
ENDMDL
MODEL      192
REMARK 921   NORMALIZED FREE ENERGY PREDICTED BY IDOCK:   -3.60 KCAL/MOL
REMARK 922        TOTAL FREE ENERGY PREDICTED BY IDOCK:   -4.65 KCAL/MOL
REMARK 923 INTER-LIGAND FREE ENERGY PREDICTED BY IDOCK:   -4.34 KCAL/MOL
REMARK 924 INTRA-LIGAND FREE ENERGY PREDICTED BY IDOCK:   -0.31 KCAL/MOL
REMARK 927      BINDING AFFINITY PREDICTED BY RF-SCORE:    0.00 PKD
ROOT
HETATM    1  N   UNL     1     -11.521   9.238  70.198  1.00  0.00    -0.423 N  
HETATM    2  C   UNL     1     -12.385  10.241  70.534  1.00  0.00    -0.284 C  
HETATM    3  H1  UNL     1     -10.792   9.379  69.498  1.00  0.00     0.000 HD 
HETATM    4  H2  UNL     1     -11.607   8.330  70.656  1.00  0.00     0.000 HD 
HETATM    5  O   UNL     1     -13.262  10.071  71.376  1.00  0.00    -0.379 OA 
ENDROOT
BRANCH   2   6
HETATM    6  C   UNL     1     -12.190  11.484  69.806  1.00  0.00    -0.244 A  
HETATM    7  C   UNL     1     -11.862  11.634  68.473  1.00  0.00    -0.292 A  
HETATM    8  N   UNL     1     -11.706  12.982  68.315  1.00  0.00    -0.335 NA 
HETATM    9  N   UNL     1     -12.269  12.731  70.385  1.00  0.00    -0.338 NA 
HETATM   10  N   UNL     1     -11.968  13.637  69.463  1.00  0.00    -0.330 NA 
BRANCH   8  11
HETATM   11  C   UNL     1     -11.037  13.662  67.221  1.00  0.00    -0.293 C  
BRANCH  11  12
HETATM   12  C   UNL     1      -9.542  13.611  67.284  1.00  0.00    -0.238 A  
HETATM   13  C   UNL     1      -8.808  14.675  67.809  1.00  0.00    -0.177 A  
HETATM   14  C   UNL     1      -7.435  14.570  68.037  1.00  0.00    -0.142 A  
HETATM   15  F   UNL     1      -9.431  15.809  68.155  1.00  0.00    -0.193 F  
HETATM   16  C   UNL     1      -6.767  13.388  67.722  1.00  0.00    -0.163 A  
HETATM   17  C   UNL     1      -7.473  12.335  67.143  1.00  0.00    -0.113 A  
HETATM   18  C   UNL     1      -8.845  12.459  66.923  1.00  0.00    -0.205 A  
HETATM   19  F   UNL     1      -9.510  11.420  66.397  1.00  0.00    -0.189 F  
ENDBRANCH  11  12
ENDBRANCH   8  11
ENDBRANCH   2   6
TORSDOF 3
ENDMDL
MODEL      193
REMARK 921   NORMALIZED FREE ENERGY PREDICTED BY IDOCK:   -3.58 KCAL/MOL
REMARK 922        TOTAL FREE ENERGY PREDICTED BY IDOCK:   -4.62 KCAL/MOL
REMARK 923 INTER-LIGAND FREE ENERGY PREDICTED BY IDOCK:   -4.20 KCAL/MOL
REMARK 924 INTRA-LIGAND FREE ENERGY PREDICTED BY IDOCK:   -0.42 KCAL/MOL
REMARK 927      BINDING AFFINITY PREDICTED BY RF-SCORE:    0.00 PKD
ROOT
HETATM    1  N   UNL     1      -8.408   8.148  69.277  1.00  0.00    -0.128 N  
HETATM    2  C   UNL     1      -8.392   9.506  69.427  1.00  0.00    -0.140 C  
HETATM    3  H1  UNL     1      -8.925   7.707  68.516  1.00  0.00     0.000 HD 
HETATM    4  H2  UNL     1      -7.892   7.565  69.936  1.00  0.00     0.000 HD 
HETATM    5  O   UNL     1      -7.769  10.037  70.342  1.00  0.00    -0.227 OA 
ENDROOT
BRANCH   2   6
HETATM    6  C   UNL     1      -9.177  10.239  68.448  1.00  0.00    -0.136 A  
HETATM    7  C   UNL     1      -9.943  11.368  68.660  1.00  0.00    -0.202 A  
HETATM    8  N   UNL     1     -10.544  11.598  67.456  1.00  0.00    -0.202 NA 
HETATM    9  N   UNL     1      -9.302   9.862  67.130  1.00  0.00    -0.144 NA 
HETATM   10  N   UNL     1     -10.142  10.699  66.535  1.00  0.00    -0.216 NA 
BRANCH   8  11
HETATM   11  C   UNL     1     -11.700  12.437  67.202  1.00  0.00    -0.345 C  
BRANCH  11  12
HETATM   12  C   UNL     1     -11.480  13.893  67.478  1.00  0.00    -0.368 A  
HETATM   13  C   UNL     1     -12.022  14.499  68.611  1.00  0.00    -0.285 A  
HETATM   14  C   UNL     1     -11.679  15.803  68.974  1.00  0.00    -0.405 A  
HETATM   15  F   UNL     1     -12.848  13.808  69.406  1.00  0.00    -0.178 F  
HETATM   16  C   UNL     1     -10.791  16.532  68.185  1.00  0.00    -0.345 A  
HETATM   17  C   UNL     1     -10.286  15.964  67.017  1.00  0.00    -0.283 A  
HETATM   18  C   UNL     1     -10.639  14.659  66.672  1.00  0.00    -0.289 A  
HETATM   19  F   UNL     1     -10.113  14.121  65.563  1.00  0.00    -0.307 F  
ENDBRANCH  11  12
ENDBRANCH   8  11
ENDBRANCH   2   6
TORSDOF 3
ENDMDL
MODEL      194
REMARK 921   NORMALIZED FREE ENERGY PREDICTED BY IDOCK:   -3.57 KCAL/MOL
REMARK 922        TOTAL FREE ENERGY PREDICTED BY IDOCK:   -4.61 KCAL/MOL
REMARK 923 INTER-LIGAND FREE ENERGY PREDICTED BY IDOCK:   -4.28 KCAL/MOL
REMARK 924 INTRA-LIGAND FREE ENERGY PREDICTED BY IDOCK:   -0.34 KCAL/MOL
REMARK 927      BINDING AFFINITY PREDICTED BY RF-SCORE:    0.00 PKD
ROOT
HETATM    1  N   UNL     1      -7.420   5.582  66.983  1.00  0.00    -0.086 N  
HETATM    2  C   UNL     1      -8.503   6.286  67.428  1.00  0.00    -0.108 C  
HETATM    3  H1  UNL     1      -6.548   5.562  67.513  1.00  0.00     0.000 HD 
HETATM    4  H2  UNL     1      -7.484   5.067  66.105  1.00  0.00     0.000 HD 
HETATM    5  O   UNL     1      -9.551   6.310  66.791  1.00  0.00    -0.144 OA 
ENDROOT
BRANCH   2   6
HETATM    6  C   UNL     1      -8.296   7.001  68.676  1.00  0.00    -0.122 A  
HETATM    7  C   UNL     1      -9.141   7.049  69.767  1.00  0.00    -0.144 A  
HETATM    8  N   UNL     1      -8.535   7.922  70.624  1.00  0.00    -0.123 NA 
HETATM    9  N   UNL     1      -7.200   7.795  68.931  1.00  0.00    -0.079 NA 
HETATM   10  N   UNL     1      -7.360   8.355  70.123  1.00  0.00    -0.057 NA 
BRANCH   8  11
HETATM   11  C   UNL     1      -9.139   8.599  71.756  1.00  0.00    -0.247 C  
BRANCH  11  12
HETATM   12  C   UNL     1     -10.557   9.028  71.534  1.00  0.00    -0.415 A  
HETATM   13  C   UNL     1     -11.586   8.559  72.350  1.00  0.00    -0.354 A  
HETATM   14  C   UNL     1     -12.877   9.084  72.270  1.00  0.00    -0.474 A  
HETATM   15  F   UNL     1     -11.332   7.621  73.271  1.00  0.00    -0.419 F  
HETATM   16  C   UNL     1     -13.161  10.089  71.346  1.00  0.00    -0.512 A  
HETATM   17  C   UNL     1     -12.159  10.529  70.482  1.00  0.00    -0.437 A  
HETATM   18  C   UNL     1     -10.875   9.992  70.579  1.00  0.00    -0.314 A  
HETATM   19  F   UNL     1      -9.919  10.456  69.761  1.00  0.00    -0.241 F  
ENDBRANCH  11  12
ENDBRANCH   8  11
ENDBRANCH   2   6
TORSDOF 3
ENDMDL
MODEL      195
REMARK 921   NORMALIZED FREE ENERGY PREDICTED BY IDOCK:   -3.57 KCAL/MOL
REMARK 922        TOTAL FREE ENERGY PREDICTED BY IDOCK:   -4.60 KCAL/MOL
REMARK 923 INTER-LIGAND FREE ENERGY PREDICTED BY IDOCK:   -4.57 KCAL/MOL
REMARK 924 INTRA-LIGAND FREE ENERGY PREDICTED BY IDOCK:   -0.04 KCAL/MOL
REMARK 927      BINDING AFFINITY PREDICTED BY RF-SCORE:    0.00 PKD
ROOT
HETATM    1  N   UNL     1     -12.100  13.073  66.730  1.00  0.00    -0.356 N  
HETATM    2  C   UNL     1     -10.949  12.599  67.294  1.00  0.00    -0.256 C  
HETATM    3  H1  UNL     1     -12.758  12.447  66.265  1.00  0.00     0.000 HD 
HETATM    4  H2  UNL     1     -12.305  14.072  66.775  1.00  0.00     0.000 HD 
HETATM    5  O   UNL     1     -10.158  13.353  67.853  1.00  0.00    -0.226 OA 
ENDROOT
BRANCH   2   6
HETATM    6  C   UNL     1     -10.744  11.167  67.152  1.00  0.00    -0.259 A  
HETATM    7  C   UNL     1     -11.151  10.171  68.017  1.00  0.00    -0.240 A  
HETATM    8  N   UNL     1     -10.634   9.027  67.480  1.00  0.00    -0.266 NA 
HETATM    9  N   UNL     1     -10.048  10.593  66.112  1.00  0.00    -0.240 NA 
HETATM   10  N   UNL     1      -9.985   9.285  66.326  1.00  0.00    -0.287 NA 
BRANCH   8  11
HETATM   11  C   UNL     1     -10.462   7.749  68.144  1.00  0.00    -0.176 C  
BRANCH  11  12
HETATM   12  C   UNL     1     -10.326   7.839  69.633  1.00  0.00    -0.212 A  
HETATM   13  C   UNL     1      -9.360   8.657  70.218  1.00  0.00    -0.167 A  
HETATM   14  C   UNL     1      -9.337   8.889  71.594  1.00  0.00    -0.328 A  
HETATM   15  F   UNL     1      -8.461   9.284  69.447  1.00  0.00    -0.115 F  
HETATM   16  C   UNL     1     -10.285   8.281  72.416  1.00  0.00    -0.397 A  
HETATM   17  C   UNL     1     -11.221   7.413  71.856  1.00  0.00    -0.282 A  
HETATM   18  C   UNL     1     -11.228   7.195  70.478  1.00  0.00    -0.290 A  
HETATM   19  F   UNL     1     -12.160   6.384  69.959  1.00  0.00    -0.469 F  
ENDBRANCH  11  12
ENDBRANCH   8  11
ENDBRANCH   2   6
TORSDOF 3
ENDMDL
MODEL      196
REMARK 921   NORMALIZED FREE ENERGY PREDICTED BY IDOCK:   -3.56 KCAL/MOL
REMARK 922        TOTAL FREE ENERGY PREDICTED BY IDOCK:   -4.60 KCAL/MOL
REMARK 923 INTER-LIGAND FREE ENERGY PREDICTED BY IDOCK:   -4.28 KCAL/MOL
REMARK 924 INTRA-LIGAND FREE ENERGY PREDICTED BY IDOCK:   -0.32 KCAL/MOL
REMARK 927      BINDING AFFINITY PREDICTED BY RF-SCORE:    0.00 PKD
ROOT
HETATM    1  N   UNL     1      -9.306   4.603  66.198  1.00  0.00    -0.142 N  
HETATM    2  C   UNL     1     -10.199   5.334  66.929  1.00  0.00    -0.241 C  
HETATM    3  H1  UNL     1      -8.507   4.148  66.640  1.00  0.00     0.000 HD 
HETATM    4  H2  UNL     1      -9.442   4.510  65.191  1.00  0.00     0.000 HD 
HETATM    5  O   UNL     1     -11.160   5.881  66.398  1.00  0.00    -0.140 OA 
ENDROOT
BRANCH   2   6
HETATM    6  C   UNL     1      -9.898   5.422  68.349  1.00  0.00    -0.147 A  
HETATM    7  C   UNL     1     -10.770   5.728  69.374  1.00  0.00    -0.326 A  
HETATM    8  N   UNL     1      -9.979   5.772  70.487  1.00  0.00    -0.185 NA 
HETATM    9  N   UNL     1      -8.639   5.246  68.877  1.00  0.00    -0.091 NA 
HETATM   10  N   UNL     1      -8.701   5.465  70.184  1.00  0.00    -0.124 NA 
BRANCH   8  11
HETATM   11  C   UNL     1     -10.302   6.376  71.766  1.00  0.00    -0.203 C  
BRANCH  11  12
HETATM   12  C   UNL     1     -11.185   7.582  71.675  1.00  0.00    -0.275 A  
HETATM   13  C   UNL     1     -10.648   8.851  71.460  1.00  0.00    -0.329 A  
HETATM   14  C   UNL     1     -11.464   9.952  71.196  1.00  0.00    -0.459 A  
HETATM   15  F   UNL     1      -9.320   9.021  71.451  1.00  0.00    -0.263 F  
HETATM   16  C   UNL     1     -12.849   9.797  71.161  1.00  0.00    -0.434 A  
HETATM   17  C   UNL     1     -13.406   8.549  71.432  1.00  0.00    -0.245 A  
HETATM   18  C   UNL     1     -12.574   7.460  71.693  1.00  0.00    -0.358 A  
HETATM   19  F   UNL     1     -13.131   6.262  71.916  1.00  0.00    -0.313 F  
ENDBRANCH  11  12
ENDBRANCH   8  11
ENDBRANCH   2   6
TORSDOF 3
ENDMDL
MODEL      197
REMARK 921   NORMALIZED FREE ENERGY PREDICTED BY IDOCK:   -3.56 KCAL/MOL
REMARK 922        TOTAL FREE ENERGY PREDICTED BY IDOCK:   -4.60 KCAL/MOL
REMARK 923 INTER-LIGAND FREE ENERGY PREDICTED BY IDOCK:   -4.13 KCAL/MOL
REMARK 924 INTRA-LIGAND FREE ENERGY PREDICTED BY IDOCK:   -0.47 KCAL/MOL
REMARK 927      BINDING AFFINITY PREDICTED BY RF-SCORE:    0.00 PKD
ROOT
HETATM    1  N   UNL     1     -11.355   4.706  65.263  1.00  0.00    -0.982 N  
HETATM    2  C   UNL     1     -10.134   4.472  65.830  1.00  0.00    -0.258 C  
HETATM    3  H1  UNL     1     -11.895   5.541  65.495  1.00  0.00     0.000 HD 
HETATM    4  H2  UNL     1     -11.734   4.034  64.596  1.00  0.00     0.000 HD 
HETATM    5  O   UNL     1      -9.485   3.469  65.552  1.00  0.00    -0.159 OA 
ENDROOT
BRANCH   2   6
HETATM    6  C   UNL     1      -9.701   5.480  66.784  1.00  0.00    -0.155 A  
HETATM    7  C   UNL     1      -9.164   5.273  68.039  1.00  0.00    -0.113 A  
HETATM    8  N   UNL     1      -9.019   6.529  68.554  1.00  0.00    -0.127 NA 
HETATM    9  N   UNL     1      -9.812   6.835  66.569  1.00  0.00    -0.144 NA 
HETATM   10  N   UNL     1      -9.395   7.465  67.660  1.00  0.00    -0.132 NA 
BRANCH   8  11
HETATM   11  C   UNL     1      -8.825   6.886  69.947  1.00  0.00    -0.142 C  
BRANCH  11  12
HETATM   12  C   UNL     1      -9.832   6.292  70.883  1.00  0.00    -0.207 A  
HETATM   13  C   UNL     1      -9.507   5.201  71.690  1.00  0.00    -0.150 A  
HETATM   14  C   UNL     1     -10.371   4.751  72.690  1.00  0.00    -0.253 A  
HETATM   15  F   UNL     1      -8.321   4.596  71.547  1.00  0.00    -0.094 F  
HETATM   16  C   UNL     1     -11.596   5.387  72.886  1.00  0.00    -0.296 A  
HETATM   17  C   UNL     1     -11.963   6.441  72.051  1.00  0.00    -0.375 A  
HETATM   18  C   UNL     1     -11.085   6.877  71.058  1.00  0.00    -0.266 A  
HETATM   19  F   UNL     1     -11.445   7.915  70.290  1.00  0.00    -0.272 F  
ENDBRANCH  11  12
ENDBRANCH   8  11
ENDBRANCH   2   6
TORSDOF 3
ENDMDL
MODEL      198
REMARK 921   NORMALIZED FREE ENERGY PREDICTED BY IDOCK:   -3.56 KCAL/MOL
REMARK 922        TOTAL FREE ENERGY PREDICTED BY IDOCK:   -4.59 KCAL/MOL
REMARK 923 INTER-LIGAND FREE ENERGY PREDICTED BY IDOCK:   -4.12 KCAL/MOL
REMARK 924 INTRA-LIGAND FREE ENERGY PREDICTED BY IDOCK:   -0.47 KCAL/MOL
REMARK 927      BINDING AFFINITY PREDICTED BY RF-SCORE:    0.00 PKD
ROOT
HETATM    1  N   UNL     1     -12.629   8.079  72.651  1.00  0.00    -0.586 N  
HETATM    2  C   UNL     1     -11.287   7.822  72.663  1.00  0.00    -0.393 C  
HETATM    3  H1  UNL     1     -13.076   8.515  71.845  1.00  0.00     0.000 HD 
HETATM    4  H2  UNL     1     -13.193   7.829  73.463  1.00  0.00     0.000 HD 
HETATM    5  O   UNL     1     -10.748   7.297  73.633  1.00  0.00    -0.378 OA 
ENDROOT
BRANCH   2   6
HETATM    6  C   UNL     1     -10.574   8.239  71.467  1.00  0.00    -0.235 A  
HETATM    7  C   UNL     1     -10.948   8.039  70.154  1.00  0.00    -0.226 A  
HETATM    8  N   UNL     1      -9.902   8.531  69.427  1.00  0.00    -0.181 NA 
HETATM    9  N   UNL     1      -9.356   8.881  71.487  1.00  0.00    -0.266 NA 
HETATM   10  N   UNL     1      -8.955   9.050  70.234  1.00  0.00    -0.179 NA 
BRANCH   8  11
HETATM   11  C   UNL     1      -9.610   8.272  68.029  1.00  0.00    -0.153 C  
BRANCH  11  12
HETATM   12  C   UNL     1      -9.448   6.823  67.689  1.00  0.00    -0.126 A  
HETATM   13  C   UNL     1     -10.464   6.118  67.043  1.00  0.00    -0.277 A  
HETATM   14  C   UNL     1     -10.261   4.824  66.563  1.00  0.00    -0.294 A  
HETATM   15  F   UNL     1     -11.647   6.705  66.825  1.00  0.00    -0.407 F  
HETATM   16  C   UNL     1      -9.026   4.203  66.742  1.00  0.00    -0.131 A  
HETATM   17  C   UNL     1      -8.018   4.869  67.438  1.00  0.00    -0.095 A  
HETATM   18  C   UNL     1      -8.240   6.163  67.909  1.00  0.00    -0.117 A  
HETATM   19  F   UNL     1      -7.244   6.796  68.545  1.00  0.00    -0.074 F  
ENDBRANCH  11  12
ENDBRANCH   8  11
ENDBRANCH   2   6
TORSDOF 3
ENDMDL
MODEL      199
REMARK 921   NORMALIZED FREE ENERGY PREDICTED BY IDOCK:   -3.56 KCAL/MOL
REMARK 922        TOTAL FREE ENERGY PREDICTED BY IDOCK:   -4.59 KCAL/MOL
REMARK 923 INTER-LIGAND FREE ENERGY PREDICTED BY IDOCK:   -4.74 KCAL/MOL
REMARK 924 INTRA-LIGAND FREE ENERGY PREDICTED BY IDOCK:    0.14 KCAL/MOL
REMARK 927      BINDING AFFINITY PREDICTED BY RF-SCORE:    0.00 PKD
ROOT
HETATM    1  N   UNL     1      -6.193  18.427  66.540  1.00  0.00    -0.167 N  
HETATM    2  C   UNL     1      -7.496  18.593  66.162  1.00  0.00    -0.255 C  
HETATM    3  H1  UNL     1      -5.898  17.610  67.074  1.00  0.00     0.000 HD 
HETATM    4  H2  UNL     1      -5.504  19.134  66.283  1.00  0.00     0.000 HD 
HETATM    5  O   UNL     1      -7.851  19.576  65.520  1.00  0.00    -0.402 OA 
ENDROOT
BRANCH   2   6
HETATM    6  C   UNL     1      -8.398  17.541  66.600  1.00  0.00    -0.261 A  
HETATM    7  C   UNL     1      -8.255  16.714  67.696  1.00  0.00    -0.172 A  
HETATM    8  N   UNL     1      -9.309  15.851  67.607  1.00  0.00    -0.216 NA 
HETATM    9  N   UNL     1      -9.543  17.185  65.924  1.00  0.00    -0.529 NA 
HETATM   10  N   UNL     1     -10.089  16.149  66.549  1.00  0.00    -0.277 NA 
BRANCH   8  11
HETATM   11  C   UNL     1      -9.459  14.580  68.290  1.00  0.00    -0.207 C  
BRANCH  11  12
HETATM   12  C   UNL     1     -10.543  14.558  69.323  1.00  0.00    -0.224 A  
HETATM   13  C   UNL     1     -10.791  15.670  70.128  1.00  0.00    -0.343 A  
HETATM   14  C   UNL     1     -11.906  15.728  70.966  1.00  0.00    -0.460 A  
HETATM   15  F   UNL     1      -9.980  16.733  70.064  1.00  0.00    -0.034 F  
HETATM   16  C   UNL     1     -12.789  14.651  71.023  1.00  0.00    -0.414 A  
HETATM   17  C   UNL     1     -12.524  13.508  70.271  1.00  0.00    -0.309 A  
HETATM   18  C   UNL     1     -11.406  13.469  69.438  1.00  0.00    -0.233 A  
HETATM   19  F   UNL     1     -11.191  12.372  68.698  1.00  0.00    -0.232 F  
ENDBRANCH  11  12
ENDBRANCH   8  11
ENDBRANCH   2   6
TORSDOF 3
ENDMDL
MODEL      200
REMARK 921   NORMALIZED FREE ENERGY PREDICTED BY IDOCK:   -3.56 KCAL/MOL
REMARK 922        TOTAL FREE ENERGY PREDICTED BY IDOCK:   -4.59 KCAL/MOL
REMARK 923 INTER-LIGAND FREE ENERGY PREDICTED BY IDOCK:   -4.21 KCAL/MOL
REMARK 924 INTRA-LIGAND FREE ENERGY PREDICTED BY IDOCK:   -0.38 KCAL/MOL
REMARK 927      BINDING AFFINITY PREDICTED BY RF-SCORE:    0.00 PKD
ROOT
HETATM    1  N   UNL     1      -8.823   7.540  65.418  1.00  0.00    -0.373 N  
HETATM    2  C   UNL     1      -9.464   8.698  65.758  1.00  0.00    -0.122 C  
HETATM    3  H1  UNL     1      -8.790   6.746  66.058  1.00  0.00     0.000 HD 
HETATM    4  H2  UNL     1      -8.369   7.469  64.507  1.00  0.00     0.000 HD 
HETATM    5  O   UNL     1      -9.504   9.652  64.988  1.00  0.00    -0.261 OA 
ENDROOT
BRANCH   2   6
HETATM    6  C   UNL     1     -10.056   8.701  67.086  1.00  0.00    -0.261 A  
HETATM    7  C   UNL     1     -10.245   9.786  67.918  1.00  0.00    -0.194 A  
HETATM    8  N   UNL     1     -10.742   9.245  69.069  1.00  0.00    -0.201 NA 
HETATM    9  N   UNL     1     -10.485   7.566  67.736  1.00  0.00    -0.222 NA 
HETATM   10  N   UNL     1     -10.899   7.912  68.948  1.00  0.00    -0.058 NA 
BRANCH   8  11
HETATM   11  C   UNL     1     -10.799   9.872  70.377  1.00  0.00    -0.319 C  
BRANCH  11  12
HETATM   12  C   UNL     1     -10.157   9.076  71.471  1.00  0.00    -0.409 A  
HETATM   13  C   UNL     1     -10.927   8.323  72.358  1.00  0.00    -0.368 A  
HETATM   14  C   UNL     1     -10.339   7.440  73.265  1.00  0.00    -0.405 A  
HETATM   15  F   UNL     1     -12.263   8.399  72.312  1.00  0.00    -0.348 F  
HETATM   16  C   UNL     1      -8.951   7.312  73.308  1.00  0.00    -0.192 A  
HETATM   17  C   UNL     1      -8.164   8.099  72.470  1.00  0.00    -0.215 A  
HETATM   18  C   UNL     1      -8.770   8.975  71.570  1.00  0.00    -0.075 A  
HETATM   19  F   UNL     1      -7.994   9.697  70.750  1.00  0.00    -0.183 F  
ENDBRANCH  11  12
ENDBRANCH   8  11
ENDBRANCH   2   6
TORSDOF 3
ENDMDL
MODEL      201
REMARK 921   NORMALIZED FREE ENERGY PREDICTED BY IDOCK:   -3.55 KCAL/MOL
REMARK 922        TOTAL FREE ENERGY PREDICTED BY IDOCK:   -4.59 KCAL/MOL
REMARK 923 INTER-LIGAND FREE ENERGY PREDICTED BY IDOCK:   -4.28 KCAL/MOL
REMARK 924 INTRA-LIGAND FREE ENERGY PREDICTED BY IDOCK:   -0.31 KCAL/MOL
REMARK 927      BINDING AFFINITY PREDICTED BY RF-SCORE:    0.00 PKD
ROOT
HETATM    1  N   UNL     1     -12.149  11.627  62.961  1.00  0.00    -0.927 N  
HETATM    2  C   UNL     1     -11.409  11.842  64.089  1.00  0.00    -0.380 C  
HETATM    3  H1  UNL     1     -12.018  10.789  62.394  1.00  0.00     0.000 HD 
HETATM    4  H2  UNL     1     -12.846  12.318  62.681  1.00  0.00     0.000 HD 
HETATM    5  O   UNL     1     -11.566  12.850  64.772  1.00  0.00    -0.308 OA 
ENDROOT
BRANCH   2   6
HETATM    6  C   UNL     1     -10.430  10.809  64.383  1.00  0.00    -0.274 A  
HETATM    7  C   UNL     1     -10.250  10.137  65.576  1.00  0.00    -0.218 A  
HETATM    8  N   UNL     1      -9.155   9.351  65.358  1.00  0.00    -0.212 NA 
HETATM    9  N   UNL     1      -9.481  10.375  63.484  1.00  0.00    -0.292 NA 
HETATM   10  N   UNL     1      -8.707   9.486  64.093  1.00  0.00    -0.207 NA 
BRANCH   8  11
HETATM   11  C   UNL     1      -8.329   8.703  66.360  1.00  0.00    -0.113 C  
BRANCH  11  12
HETATM   12  C   UNL     1      -8.749   8.969  67.773  1.00  0.00    -0.125 A  
HETATM   13  C   UNL     1      -9.730   8.193  68.389  1.00  0.00    -0.161 A  
HETATM   14  C   UNL     1     -10.004   8.312  69.752  1.00  0.00    -0.191 A  
HETATM   15  F   UNL     1     -10.394   7.271  67.680  1.00  0.00    -0.203 F  
HETATM   16  C   UNL     1      -9.301   9.236  70.523  1.00  0.00    -0.316 A  
HETATM   17  C   UNL     1      -8.358  10.062  69.913  1.00  0.00    -0.169 A  
HETATM   18  C   UNL     1      -8.098   9.927  68.549  1.00  0.00    -0.101 A  
HETATM   19  F   UNL     1      -7.162  10.708  67.991  1.00  0.00    -0.081 F  
ENDBRANCH  11  12
ENDBRANCH   8  11
ENDBRANCH   2   6
TORSDOF 3
ENDMDL
MODEL      202
REMARK 921   NORMALIZED FREE ENERGY PREDICTED BY IDOCK:   -3.55 KCAL/MOL
REMARK 922        TOTAL FREE ENERGY PREDICTED BY IDOCK:   -4.58 KCAL/MOL
REMARK 923 INTER-LIGAND FREE ENERGY PREDICTED BY IDOCK:   -4.14 KCAL/MOL
REMARK 924 INTRA-LIGAND FREE ENERGY PREDICTED BY IDOCK:   -0.44 KCAL/MOL
REMARK 927      BINDING AFFINITY PREDICTED BY RF-SCORE:    0.00 PKD
ROOT
HETATM    1  N   UNL     1      -7.148   8.296  64.406  1.00  0.00    -0.076 N  
HETATM    2  C   UNL     1      -7.802   7.897  65.537  1.00  0.00    -0.112 C  
HETATM    3  H1  UNL     1      -7.223   9.254  64.062  1.00  0.00     0.000 HD 
HETATM    4  H2  UNL     1      -6.573   7.624  63.897  1.00  0.00     0.000 HD 
HETATM    5  O   UNL     1      -7.712   6.746  65.952  1.00  0.00    -0.087 OA 
ENDROOT
BRANCH   2   6
HETATM    6  C   UNL     1      -8.611   8.926  66.170  1.00  0.00    -0.140 A  
HETATM    7  C   UNL     1      -8.219   9.821  67.145  1.00  0.00    -0.121 A  
HETATM    8  N   UNL     1      -9.362  10.498  67.461  1.00  0.00    -0.149 NA 
HETATM    9  N   UNL     1      -9.947   9.124  65.899  1.00  0.00    -0.257 NA 
HETATM   10  N   UNL     1     -10.395  10.085  66.697  1.00  0.00    -0.230 NA 
BRANCH   8  11
HETATM   11  C   UNL     1      -9.605  11.302  68.644  1.00  0.00    -0.190 C  
BRANCH  11  12
HETATM   12  C   UNL     1     -10.602  10.716  69.595  1.00  0.00    -0.260 A  
HETATM   13  C   UNL     1     -10.247   9.681  70.461  1.00  0.00    -0.287 A  
HETATM   14  C   UNL     1     -11.108   9.248  71.471  1.00  0.00    -0.443 A  
HETATM   15  F   UNL     1      -9.036   9.118  70.366  1.00  0.00    -0.161 F  
HETATM   16  C   UNL     1     -12.360   9.843  71.617  1.00  0.00    -0.496 A  
HETATM   17  C   UNL     1     -12.755  10.838  70.725  1.00  0.00    -0.451 A  
HETATM   18  C   UNL     1     -11.880  11.257  69.723  1.00  0.00    -0.364 A  
HETATM   19  F   UNL     1     -12.269  12.240  68.898  1.00  0.00    -0.312 F  
ENDBRANCH  11  12
ENDBRANCH   8  11
ENDBRANCH   2   6
TORSDOF 3
ENDMDL
MODEL      203
REMARK 921   NORMALIZED FREE ENERGY PREDICTED BY IDOCK:   -3.53 KCAL/MOL
REMARK 922        TOTAL FREE ENERGY PREDICTED BY IDOCK:   -4.56 KCAL/MOL
REMARK 923 INTER-LIGAND FREE ENERGY PREDICTED BY IDOCK:   -4.18 KCAL/MOL
REMARK 924 INTRA-LIGAND FREE ENERGY PREDICTED BY IDOCK:   -0.39 KCAL/MOL
REMARK 927      BINDING AFFINITY PREDICTED BY RF-SCORE:    0.00 PKD
ROOT
HETATM    1  N   UNL     1     -12.205  13.585  67.366  1.00  0.00    -0.308 N  
HETATM    2  C   UNL     1     -11.321  12.880  66.599  1.00  0.00    -0.317 C  
HETATM    3  H1  UNL     1     -12.486  13.253  68.289  1.00  0.00     0.000 HD 
HETATM    4  H2  UNL     1     -12.591  14.459  67.010  1.00  0.00     0.000 HD 
HETATM    5  O   UNL     1     -10.982  13.280  65.489  1.00  0.00    -0.279 OA 
ENDROOT
BRANCH   2   6
HETATM    6  C   UNL     1     -10.852  11.639  67.191  1.00  0.00    -0.261 A  
HETATM    7  C   UNL     1     -10.452  11.429  68.496  1.00  0.00    -0.203 A  
HETATM    8  N   UNL     1     -10.020  10.134  68.512  1.00  0.00    -0.158 NA 
HETATM    9  N   UNL     1     -10.697  10.466  66.487  1.00  0.00    -0.144 NA 
HETATM   10  N   UNL     1     -10.185   9.554  67.305  1.00  0.00    -0.218 NA 
BRANCH   8  11
HETATM   11  C   UNL     1      -9.189   9.501  69.518  1.00  0.00    -0.189 C  
BRANCH  11  12
HETATM   12  C   UNL     1      -9.904   8.494  70.367  1.00  0.00    -0.198 A  
HETATM   13  C   UNL     1     -10.877   8.889  71.285  1.00  0.00    -0.290 A  
HETATM   14  C   UNL     1     -11.673   7.956  71.950  1.00  0.00    -0.342 A  
HETATM   15  F   UNL     1     -11.098  10.192  71.502  1.00  0.00    -0.356 F  
HETATM   16  C   UNL     1     -11.490   6.594  71.714  1.00  0.00    -0.334 A  
HETATM   17  C   UNL     1     -10.483   6.178  70.844  1.00  0.00    -0.282 A  
HETATM   18  C   UNL     1      -9.698   7.127  70.188  1.00  0.00    -0.171 A  
HETATM   19  F   UNL     1      -8.759   6.704  69.330  1.00  0.00    -0.130 F  
ENDBRANCH  11  12
ENDBRANCH   8  11
ENDBRANCH   2   6
TORSDOF 3
ENDMDL
MODEL      204
REMARK 921   NORMALIZED FREE ENERGY PREDICTED BY IDOCK:   -3.53 KCAL/MOL
REMARK 922        TOTAL FREE ENERGY PREDICTED BY IDOCK:   -4.56 KCAL/MOL
REMARK 923 INTER-LIGAND FREE ENERGY PREDICTED BY IDOCK:   -4.16 KCAL/MOL
REMARK 924 INTRA-LIGAND FREE ENERGY PREDICTED BY IDOCK:   -0.40 KCAL/MOL
REMARK 927      BINDING AFFINITY PREDICTED BY RF-SCORE:    0.00 PKD
ROOT
HETATM    1  N   UNL     1      -9.708   5.971  68.832  1.00  0.00    -0.129 N  
HETATM    2  C   UNL     1     -10.488   6.630  69.739  1.00  0.00    -0.211 C  
HETATM    3  H1  UNL     1      -9.087   6.479  68.201  1.00  0.00     0.000 HD 
HETATM    4  H2  UNL     1      -9.748   4.953  68.783  1.00  0.00     0.000 HD 
HETATM    5  O   UNL     1     -11.235   6.019  70.498  1.00  0.00    -0.323 OA 
ENDROOT
BRANCH   2   6
HETATM    6  C   UNL     1     -10.372   8.078  69.707  1.00  0.00    -0.219 A  
HETATM    7  C   UNL     1     -10.030   8.870  68.629  1.00  0.00    -0.177 A  
HETATM    8  N   UNL     1      -9.972  10.133  69.144  1.00  0.00    -0.198 NA 
HETATM    9  N   UNL     1     -10.554   8.885  70.808  1.00  0.00    -0.211 NA 
HETATM   10  N   UNL     1     -10.303  10.139  70.451  1.00  0.00    -0.204 NA 
BRANCH   8  11
HETATM   11  C   UNL     1      -9.335  11.293  68.548  1.00  0.00    -0.182 C  
BRANCH  11  12
HETATM   12  C   UNL     1     -10.111  11.916  67.429  1.00  0.00    -0.211 A  
HETATM   13  C   UNL     1      -9.676  11.812  66.107  1.00  0.00    -0.229 A  
HETATM   14  C   UNL     1     -10.475  12.231  65.042  1.00  0.00    -0.322 A  
HETATM   15  F   UNL     1      -8.490  11.251  65.838  1.00  0.00    -0.170 F  
HETATM   16  C   UNL     1     -11.730  12.783  65.291  1.00  0.00    -0.403 A  
HETATM   17  C   UNL     1     -12.157  12.949  66.608  1.00  0.00    -0.360 A  
HETATM   18  C   UNL     1     -11.344  12.524  67.659  1.00  0.00    -0.306 A  
HETATM   19  F   UNL     1     -11.790  12.662  68.915  1.00  0.00    -0.301 F  
ENDBRANCH  11  12
ENDBRANCH   8  11
ENDBRANCH   2   6
TORSDOF 3
ENDMDL
MODEL      205
REMARK 921   NORMALIZED FREE ENERGY PREDICTED BY IDOCK:   -3.52 KCAL/MOL
REMARK 922        TOTAL FREE ENERGY PREDICTED BY IDOCK:   -4.55 KCAL/MOL
REMARK 923 INTER-LIGAND FREE ENERGY PREDICTED BY IDOCK:   -4.43 KCAL/MOL
REMARK 924 INTRA-LIGAND FREE ENERGY PREDICTED BY IDOCK:   -0.11 KCAL/MOL
REMARK 927      BINDING AFFINITY PREDICTED BY RF-SCORE:    0.00 PKD
ROOT
HETATM    1  N   UNL     1     -12.720   8.293  72.731  1.00  0.00    -0.608 N  
HETATM    2  C   UNL     1     -12.415   7.801  71.493  1.00  0.00    -0.324 C  
HETATM    3  H1  UNL     1     -12.202   9.076  73.131  1.00  0.00     0.000 HD 
HETATM    4  H2  UNL     1     -13.479   7.869  73.264  1.00  0.00     0.000 HD 
HETATM    5  O   UNL     1     -13.037   6.860  71.011  1.00  0.00    -0.270 OA 
ENDROOT
BRANCH   2   6
HETATM    6  C   UNL     1     -11.302   8.462  70.830  1.00  0.00    -0.268 A  
HETATM    7  C   UNL     1     -11.132   8.664  69.476  1.00  0.00     0.033 A  
HETATM    8  N   UNL     1      -9.896   9.236  69.373  1.00  0.00    -0.168 NA 
HETATM    9  N   UNL     1     -10.202   8.958  71.493  1.00  0.00    -0.300 NA 
HETATM   10  N   UNL     1      -9.349   9.426  70.591  1.00  0.00    -0.260 NA 
BRANCH   8  11
HETATM   11  C   UNL     1      -9.078   9.344  68.180  1.00  0.00    -0.127 C  
BRANCH  11  12
HETATM   12  C   UNL     1      -9.703  10.134  67.071  1.00  0.00    -0.224 A  
HETATM   13  C   UNL     1     -10.288  11.376  67.315  1.00  0.00    -0.198 A  
HETATM   14  C   UNL     1     -10.713  12.199  66.271  1.00  0.00    -0.296 A  
HETATM   15  F   UNL     1     -10.401  11.825  68.572  1.00  0.00    -0.191 F  
HETATM   16  C   UNL     1     -10.571  11.774  64.951  1.00  0.00    -0.344 A  
HETATM   17  C   UNL     1     -10.043  10.511  64.690  1.00  0.00    -0.408 A  
HETATM   18  C   UNL     1      -9.624   9.703  65.747  1.00  0.00    -0.263 A  
HETATM   19  F   UNL     1      -9.087   8.506  65.471  1.00  0.00    -0.217 F  
ENDBRANCH  11  12
ENDBRANCH   8  11
ENDBRANCH   2   6
TORSDOF 3
ENDMDL
MODEL      206
REMARK 921   NORMALIZED FREE ENERGY PREDICTED BY IDOCK:   -3.51 KCAL/MOL
REMARK 922        TOTAL FREE ENERGY PREDICTED BY IDOCK:   -4.54 KCAL/MOL
REMARK 923 INTER-LIGAND FREE ENERGY PREDICTED BY IDOCK:   -4.11 KCAL/MOL
REMARK 924 INTRA-LIGAND FREE ENERGY PREDICTED BY IDOCK:   -0.43 KCAL/MOL
REMARK 927      BINDING AFFINITY PREDICTED BY RF-SCORE:    0.00 PKD
ROOT
HETATM    1  N   UNL     1     -12.605   8.433  72.512  1.00  0.00    -0.570 N  
HETATM    2  C   UNL     1     -11.301   8.025  72.473  1.00  0.00    -0.406 C  
HETATM    3  H1  UNL     1     -12.981   9.068  71.807  1.00  0.00     0.000 HD 
HETATM    4  H2  UNL     1     -13.212   8.096  73.259  1.00  0.00     0.000 HD 
HETATM    5  O   UNL     1     -10.848   7.262  73.321  1.00  0.00    -0.350 OA 
ENDROOT
BRANCH   2   6
HETATM    6  C   UNL     1     -10.519   8.583  71.383  1.00  0.00    -0.237 A  
HETATM    7  C   UNL     1     -10.973   8.987  70.143  1.00  0.00    -0.233 A  
HETATM    8  N   UNL     1      -9.840   9.338  69.467  1.00  0.00    -0.174 NA 
HETATM    9  N   UNL     1      -9.153   8.750  71.428  1.00  0.00    -0.223 NA 
HETATM   10  N   UNL     1      -8.750   9.209  70.250  1.00  0.00    -0.180 NA 
BRANCH   8  11
HETATM   11  C   UNL     1      -9.693   9.507  68.034  1.00  0.00    -0.147 C  
BRANCH  11  12
HETATM   12  C   UNL     1      -9.636  10.934  67.582  1.00  0.00    -0.177 A  
HETATM   13  C   UNL     1     -10.802  11.654  67.323  1.00  0.00    -0.256 A  
HETATM   14  C   UNL     1     -10.772  13.027  67.076  1.00  0.00    -0.270 A  
HETATM   15  F   UNL     1     -11.990  11.035  67.362  1.00  0.00    -0.218 F  
HETATM   16  C   UNL     1      -9.553  13.704  67.068  1.00  0.00    -0.251 A  
HETATM   17  C   UNL     1      -8.372  12.991  67.267  1.00  0.00    -0.186 A  
HETATM   18  C   UNL     1      -8.423  11.619  67.513  1.00  0.00    -0.150 A  
HETATM   19  F   UNL     1      -7.277  10.960  67.735  1.00  0.00    -0.084 F  
ENDBRANCH  11  12
ENDBRANCH   8  11
ENDBRANCH   2   6
TORSDOF 3
ENDMDL
MODEL      207
REMARK 921   NORMALIZED FREE ENERGY PREDICTED BY IDOCK:   -3.50 KCAL/MOL
REMARK 922        TOTAL FREE ENERGY PREDICTED BY IDOCK:   -4.53 KCAL/MOL
REMARK 923 INTER-LIGAND FREE ENERGY PREDICTED BY IDOCK:   -4.13 KCAL/MOL
REMARK 924 INTRA-LIGAND FREE ENERGY PREDICTED BY IDOCK:   -0.40 KCAL/MOL
REMARK 927      BINDING AFFINITY PREDICTED BY RF-SCORE:    0.00 PKD
ROOT
HETATM    1  N   UNL     1     -12.219   8.558  72.540  1.00  0.00    -0.448 N  
HETATM    2  C   UNL     1     -11.155   8.942  71.774  1.00  0.00    -0.363 C  
HETATM    3  H1  UNL     1     -13.175   8.800  72.277  1.00  0.00     0.000 HD 
HETATM    4  H2  UNL     1     -12.055   8.018  73.389  1.00  0.00     0.000 HD 
HETATM    5  O   UNL     1     -10.005   8.650  72.089  1.00  0.00    -0.297 OA 
ENDROOT
BRANCH   2   6
HETATM    6  C   UNL     1     -11.499   9.726  70.599  1.00  0.00    -0.324 A  
HETATM    7  C   UNL     1     -10.936   9.646  69.341  1.00  0.00    -0.190 A  
HETATM    8  N   UNL     1     -11.540  10.649  68.638  1.00  0.00    -0.305 NA 
HETATM    9  N   UNL     1     -12.444  10.727  70.598  1.00  0.00    -0.344 NA 
HETATM   10  N   UNL     1     -12.457  11.285  69.394  1.00  0.00    -0.272 NA 
BRANCH   8  11
HETATM   11  C   UNL     1     -11.092  11.233  67.387  1.00  0.00    -0.297 C  
BRANCH  11  12
HETATM   12  C   UNL     1      -9.604  11.352  67.259  1.00  0.00    -0.187 A  
HETATM   13  C   UNL     1      -8.899  12.333  67.957  1.00  0.00    -0.182 A  
HETATM   14  C   UNL     1      -7.504  12.345  67.988  1.00  0.00    -0.114 A  
HETATM   15  F   UNL     1      -9.564  13.259  68.660  1.00  0.00    -0.213 F  
HETATM   16  C   UNL     1      -6.786  11.370  67.296  1.00  0.00    -0.115 A  
HETATM   17  C   UNL     1      -7.473  10.417  66.546  1.00  0.00    -0.119 A  
HETATM   18  C   UNL     1      -8.868  10.421  66.528  1.00  0.00    -0.138 A  
HETATM   19  F   UNL     1      -9.506   9.474  65.828  1.00  0.00    -0.219 F  
ENDBRANCH  11  12
ENDBRANCH   8  11
ENDBRANCH   2   6
TORSDOF 3
ENDMDL
MODEL      208
REMARK 921   NORMALIZED FREE ENERGY PREDICTED BY IDOCK:   -3.49 KCAL/MOL
REMARK 922        TOTAL FREE ENERGY PREDICTED BY IDOCK:   -4.51 KCAL/MOL
REMARK 923 INTER-LIGAND FREE ENERGY PREDICTED BY IDOCK:   -4.16 KCAL/MOL
REMARK 924 INTRA-LIGAND FREE ENERGY PREDICTED BY IDOCK:   -0.35 KCAL/MOL
REMARK 927      BINDING AFFINITY PREDICTED BY RF-SCORE:    0.00 PKD
ROOT
HETATM    1  N   UNL     1     -11.749  15.154  64.088  1.00  0.00    -0.780 N  
HETATM    2  C   UNL     1     -11.835  13.796  63.966  1.00  0.00    -0.370 C  
HETATM    3  H1  UNL     1     -11.090  15.586  64.736  1.00  0.00     0.000 HD 
HETATM    4  H2  UNL     1     -12.354  15.747  63.520  1.00  0.00     0.000 HD 
HETATM    5  O   UNL     1     -12.628  13.277  63.186  1.00  0.00    -0.666 OA 
ENDROOT
BRANCH   2   6
HETATM    6  C   UNL     1     -10.946  13.046  64.837  1.00  0.00    -0.307 A  
HETATM    7  C   UNL     1     -10.718  11.685  64.834  1.00  0.00    -0.296 A  
HETATM    8  N   UNL     1      -9.884  11.481  65.896  1.00  0.00    -0.223 NA 
HETATM    9  N   UNL     1     -10.212  13.615  65.854  1.00  0.00    -0.304 NA 
HETATM   10  N   UNL     1      -9.570  12.647  66.495  1.00  0.00    -0.245 NA 
BRANCH   8  11
HETATM   11  C   UNL     1      -9.601  10.221  66.557  1.00  0.00    -0.181 C  
BRANCH  11  12
HETATM   12  C   UNL     1      -8.307  10.195  67.311  1.00  0.00    -0.121 A  
HETATM   13  C   UNL     1      -8.288  10.188  68.706  1.00  0.00    -0.122 A  
HETATM   14  C   UNL     1      -7.105   9.985  69.417  1.00  0.00    -0.074 A  
HETATM   15  F   UNL     1      -9.432  10.324  69.389  1.00  0.00    -0.187 F  
HETATM   16  C   UNL     1      -5.906   9.801  68.731  1.00  0.00    -0.038 A  
HETATM   17  C   UNL     1      -5.896   9.864  67.339  1.00  0.00    -0.050 A  
HETATM   18  C   UNL     1      -7.089  10.067  66.645  1.00  0.00    -0.091 A  
HETATM   19  F   UNL     1      -7.061  10.089  65.306  1.00  0.00    -0.108 F  
ENDBRANCH  11  12
ENDBRANCH   8  11
ENDBRANCH   2   6
TORSDOF 3
ENDMDL
MODEL      209
REMARK 921   NORMALIZED FREE ENERGY PREDICTED BY IDOCK:   -3.44 KCAL/MOL
REMARK 922        TOTAL FREE ENERGY PREDICTED BY IDOCK:   -4.45 KCAL/MOL
REMARK 923 INTER-LIGAND FREE ENERGY PREDICTED BY IDOCK:   -3.99 KCAL/MOL
REMARK 924 INTRA-LIGAND FREE ENERGY PREDICTED BY IDOCK:   -0.46 KCAL/MOL
REMARK 927      BINDING AFFINITY PREDICTED BY RF-SCORE:    0.00 PKD
ROOT
HETATM    1  N   UNL     1      -9.183   8.285  71.289  1.00  0.00    -0.152 N  
HETATM    2  C   UNL     1      -9.645   8.093  70.018  1.00  0.00    -0.171 C  
HETATM    3  H1  UNL     1      -8.495   9.009  71.498  1.00  0.00     0.000 HD 
HETATM    4  H2  UNL     1      -9.532   7.693  72.044  1.00  0.00     0.000 HD 
HETATM    5  O   UNL     1     -10.472   7.222  69.767  1.00  0.00    -0.215 OA 
ENDROOT
BRANCH   2   6
HETATM    6  C   UNL     1      -9.064   8.974  69.018  1.00  0.00    -0.143 A  
HETATM    7  C   UNL     1      -9.059  10.354  69.015  1.00  0.00    -0.187 A  
HETATM    8  N   UNL     1      -8.481  10.686  67.824  1.00  0.00    -0.115 NA 
HETATM    9  N   UNL     1      -8.453   8.527  67.868  1.00  0.00    -0.130 NA 
HETATM   10  N   UNL     1      -8.104   9.584  67.145  1.00  0.00    -0.106 NA 
BRANCH   8  11
HETATM   11  C   UNL     1      -8.532  11.973  67.155  1.00  0.00    -0.180 C  
BRANCH  11  12
HETATM   12  C   UNL     1      -9.915  12.448  66.833  1.00  0.00    -0.223 A  
HETATM   13  C   UNL     1     -10.506  13.484  67.556  1.00  0.00    -0.237 A  
HETATM   14  C   UNL     1     -11.715  14.055  67.155  1.00  0.00    -0.421 A  
HETATM   15  F   UNL     1      -9.884  13.988  68.629  1.00  0.00    -0.216 F  
HETATM   16  C   UNL     1     -12.366  13.576  66.020  1.00  0.00    -0.486 A  
HETATM   17  C   UNL     1     -11.820  12.502  65.318  1.00  0.00    -0.461 A  
HETATM   18  C   UNL     1     -10.610  11.946  65.733  1.00  0.00    -0.267 A  
HETATM   19  F   UNL     1     -10.087  10.937  65.023  1.00  0.00    -0.277 F  
ENDBRANCH  11  12
ENDBRANCH   8  11
ENDBRANCH   2   6
TORSDOF 3
ENDMDL
MODEL      210
REMARK 921   NORMALIZED FREE ENERGY PREDICTED BY IDOCK:   -3.43 KCAL/MOL
REMARK 922        TOTAL FREE ENERGY PREDICTED BY IDOCK:   -4.45 KCAL/MOL
REMARK 923 INTER-LIGAND FREE ENERGY PREDICTED BY IDOCK:   -3.99 KCAL/MOL
REMARK 924 INTRA-LIGAND FREE ENERGY PREDICTED BY IDOCK:   -0.46 KCAL/MOL
REMARK 927      BINDING AFFINITY PREDICTED BY RF-SCORE:    0.00 PKD
ROOT
HETATM    1  N   UNL     1     -10.591   9.082  72.031  1.00  0.00    -0.325 N  
HETATM    2  C   UNL     1     -11.821   9.453  71.567  1.00  0.00    -0.385 C  
HETATM    3  H1  UNL     1      -9.736   9.476  71.638  1.00  0.00     0.000 HD 
HETATM    4  H2  UNL     1     -10.526   8.398  72.785  1.00  0.00     0.000 HD 
HETATM    5  O   UNL     1     -12.849   8.979  72.041  1.00  0.00    -0.343 OA 
ENDROOT
BRANCH   2   6
HETATM    6  C   UNL     1     -11.798  10.415  70.477  1.00  0.00    -0.337 A  
HETATM    7  C   UNL     1     -11.300  10.228  69.203  1.00  0.00    -0.186 A  
HETATM    8  N   UNL     1     -11.431  11.450  68.608  1.00  0.00    -0.267 NA 
HETATM    9  N   UNL     1     -12.251  11.710  70.590  1.00  0.00    -0.384 NA 
HETATM   10  N   UNL     1     -12.018  12.333  69.441  1.00  0.00    -0.286 NA 
BRANCH   8  11
HETATM   11  C   UNL     1     -10.766  11.913  67.405  1.00  0.00    -0.232 C  
BRANCH  11  12
HETATM   12  C   UNL     1      -9.294  12.144  67.562  1.00  0.00    -0.181 A  
HETATM   13  C   UNL     1      -8.369  11.175  67.174  1.00  0.00    -0.136 A  
HETATM   14  C   UNL     1      -7.000  11.445  67.147  1.00  0.00    -0.128 A  
HETATM   15  F   UNL     1      -8.794   9.974  66.763  1.00  0.00    -0.129 F  
HETATM   16  C   UNL     1      -6.532  12.700  67.532  1.00  0.00    -0.158 A  
HETATM   17  C   UNL     1      -7.437  13.662  67.979  1.00  0.00    -0.133 A  
HETATM   18  C   UNL     1      -8.802  13.374  67.997  1.00  0.00    -0.183 A  
HETATM   19  F   UNL     1      -9.656  14.326  68.398  1.00  0.00    -0.195 F  
ENDBRANCH  11  12
ENDBRANCH   8  11
ENDBRANCH   2   6
TORSDOF 3
ENDMDL
MODEL      211
REMARK 921   NORMALIZED FREE ENERGY PREDICTED BY IDOCK:   -3.43 KCAL/MOL
REMARK 922        TOTAL FREE ENERGY PREDICTED BY IDOCK:   -4.44 KCAL/MOL
REMARK 923 INTER-LIGAND FREE ENERGY PREDICTED BY IDOCK:   -4.29 KCAL/MOL
REMARK 924 INTRA-LIGAND FREE ENERGY PREDICTED BY IDOCK:   -0.14 KCAL/MOL
REMARK 927      BINDING AFFINITY PREDICTED BY RF-SCORE:    0.00 PKD
ROOT
HETATM    1  N   UNL     1      -9.286  16.530  66.059  1.00  0.00    -0.291 N  
HETATM    2  C   UNL     1     -10.277  16.510  66.999  1.00  0.00    -0.288 C  
HETATM    3  H1  UNL     1      -8.838  15.669  65.745  1.00  0.00     0.000 HD 
HETATM    4  H2  UNL     1      -8.990  17.422  65.664  1.00  0.00     0.000 HD 
HETATM    5  O   UNL     1     -10.817  17.546  67.377  1.00  0.00    -0.296 OA 
ENDROOT
BRANCH   2   6
HETATM    6  C   UNL     1     -10.606  15.191  67.513  1.00  0.00    -0.269 A  
HETATM    7  C   UNL     1      -9.829  14.387  68.322  1.00  0.00    -0.229 A  
HETATM    8  N   UNL     1     -10.545  13.230  68.436  1.00  0.00    -0.247 NA 
HETATM    9  N   UNL     1     -11.770  14.520  67.211  1.00  0.00    -0.396 NA 
HETATM   10  N   UNL     1     -11.719  13.322  67.779  1.00  0.00    -0.340 NA 
BRANCH   8  11
HETATM   11  C   UNL     1     -10.056  11.938  68.880  1.00  0.00    -0.042 C  
BRANCH  11  12
HETATM   12  C   UNL     1     -10.097  10.868  67.833  1.00  0.00    -0.199 A  
HETATM   13  C   UNL     1      -9.486  11.054  66.593  1.00  0.00    -0.184 A  
HETATM   14  C   UNL     1      -9.361  10.007  65.678  1.00  0.00    -0.257 A  
HETATM   15  F   UNL     1      -8.955  12.243  66.282  1.00  0.00    -0.210 F  
HETATM   16  C   UNL     1      -9.870   8.747  65.992  1.00  0.00    -0.234 A  
HETATM   17  C   UNL     1     -10.536   8.559  67.202  1.00  0.00    -0.370 A  
HETATM   18  C   UNL     1     -10.649   9.617  68.103  1.00  0.00    -0.226 A  
HETATM   19  F   UNL     1     -11.264   9.403  69.275  1.00  0.00    -0.215 F  
ENDBRANCH  11  12
ENDBRANCH   8  11
ENDBRANCH   2   6
TORSDOF 3
ENDMDL
MODEL      212
REMARK 921   NORMALIZED FREE ENERGY PREDICTED BY IDOCK:   -3.41 KCAL/MOL
REMARK 922        TOTAL FREE ENERGY PREDICTED BY IDOCK:   -4.41 KCAL/MOL
REMARK 923 INTER-LIGAND FREE ENERGY PREDICTED BY IDOCK:   -3.97 KCAL/MOL
REMARK 924 INTRA-LIGAND FREE ENERGY PREDICTED BY IDOCK:   -0.44 KCAL/MOL
REMARK 927      BINDING AFFINITY PREDICTED BY RF-SCORE:    0.00 PKD
ROOT
HETATM    1  N   UNL     1     -10.089  10.089  65.787  1.00  0.00    -0.271 N  
HETATM    2  C   UNL     1      -9.276   8.993  65.841  1.00  0.00    -0.230 C  
HETATM    3  H1  UNL     1     -10.995  10.099  66.257  1.00  0.00     0.000 HD 
HETATM    4  H2  UNL     1      -9.785  10.914  65.269  1.00  0.00     0.000 HD 
HETATM    5  O   UNL     1      -8.186   8.981  65.276  1.00  0.00    -0.122 OA 
ENDROOT
BRANCH   2   6
HETATM    6  C   UNL     1      -9.816   7.867  66.585  1.00  0.00    -0.241 A  
HETATM    7  C   UNL     1     -10.639   7.909  67.692  1.00  0.00    -0.206 A  
HETATM    8  N   UNL     1     -10.777   6.601  68.059  1.00  0.00    -0.243 NA 
HETATM    9  N   UNL     1      -9.530   6.552  66.296  1.00  0.00    -0.128 NA 
HETATM   10  N   UNL     1     -10.121   5.788  67.207  1.00  0.00    -0.156 NA 
BRANCH   8  11
HETATM   11  C   UNL     1     -11.246   6.096  69.336  1.00  0.00    -0.396 C  
BRANCH  11  12
HETATM   12  C   UNL     1     -10.679   6.805  70.527  1.00  0.00    -0.277 A  
HETATM   13  C   UNL     1      -9.349   6.625  70.905  1.00  0.00    -0.157 A  
HETATM   14  C   UNL     1      -8.761   7.411  71.898  1.00  0.00    -0.127 A  
HETATM   15  F   UNL     1      -8.593   5.719  70.273  1.00  0.00    -0.122 F  
HETATM   16  C   UNL     1      -9.514   8.388  72.547  1.00  0.00    -0.360 A  
HETATM   17  C   UNL     1     -10.861   8.542  72.223  1.00  0.00    -0.418 A  
HETATM   18  C   UNL     1     -11.430   7.749  71.227  1.00  0.00    -0.269 A  
HETATM   19  F   UNL     1     -12.718   7.939  70.909  1.00  0.00    -0.249 F  
ENDBRANCH  11  12
ENDBRANCH   8  11
ENDBRANCH   2   6
TORSDOF 3
ENDMDL
MODEL      213
REMARK 921   NORMALIZED FREE ENERGY PREDICTED BY IDOCK:   -3.40 KCAL/MOL
REMARK 922        TOTAL FREE ENERGY PREDICTED BY IDOCK:   -4.41 KCAL/MOL
REMARK 923 INTER-LIGAND FREE ENERGY PREDICTED BY IDOCK:   -3.99 KCAL/MOL
REMARK 924 INTRA-LIGAND FREE ENERGY PREDICTED BY IDOCK:   -0.42 KCAL/MOL
REMARK 927      BINDING AFFINITY PREDICTED BY RF-SCORE:    0.00 PKD
ROOT
HETATM    1  N   UNL     1     -11.227   4.294  65.154  1.00  0.00    -0.837 N  
HETATM    2  C   UNL     1     -10.078   4.554  65.845  1.00  0.00    -0.258 C  
HETATM    3  H1  UNL     1     -12.020   4.935  65.186  1.00  0.00     0.000 HD 
HETATM    4  H2  UNL     1     -11.294   3.442  64.596  1.00  0.00     0.000 HD 
HETATM    5  O   UNL     1      -9.124   3.783  65.807  1.00  0.00    -0.135 OA 
ENDROOT
BRANCH   2   6
HETATM    6  C   UNL     1     -10.099   5.780  66.626  1.00  0.00    -0.193 A  
HETATM    7  C   UNL     1      -9.202   6.828  66.568  1.00  0.00    -0.162 A  
HETATM    8  N   UNL     1      -9.611   7.676  67.557  1.00  0.00    -0.139 NA 
HETATM    9  N   UNL     1     -11.034   6.052  67.599  1.00  0.00    -0.296 NA 
HETATM   10  N   UNL     1     -10.723   7.212  68.163  1.00  0.00    -0.188 NA 
BRANCH   8  11
HETATM   11  C   UNL     1      -8.845   8.750  68.161  1.00  0.00    -0.141 C  
BRANCH  11  12
HETATM   12  C   UNL     1      -9.384  10.121  67.889  1.00  0.00    -0.151 A  
HETATM   13  C   UNL     1      -9.156  10.753  66.666  1.00  0.00    -0.159 A  
HETATM   14  C   UNL     1      -9.797  11.947  66.333  1.00  0.00    -0.234 A  
HETATM   15  F   UNL     1      -8.349  10.184  65.762  1.00  0.00    -0.127 F  
HETATM   16  C   UNL     1     -10.673  12.541  67.240  1.00  0.00    -0.259 A  
HETATM   17  C   UNL     1     -10.867  11.955  68.490  1.00  0.00    -0.257 A  
HETATM   18  C   UNL     1     -10.218  10.761  68.804  1.00  0.00    -0.193 A  
HETATM   19  F   UNL     1     -10.447  10.198  69.998  1.00  0.00    -0.258 F  
ENDBRANCH  11  12
ENDBRANCH   8  11
ENDBRANCH   2   6
TORSDOF 3
ENDMDL
MODEL      214
REMARK 921   NORMALIZED FREE ENERGY PREDICTED BY IDOCK:   -3.40 KCAL/MOL
REMARK 922        TOTAL FREE ENERGY PREDICTED BY IDOCK:   -4.41 KCAL/MOL
REMARK 923 INTER-LIGAND FREE ENERGY PREDICTED BY IDOCK:   -4.02 KCAL/MOL
REMARK 924 INTRA-LIGAND FREE ENERGY PREDICTED BY IDOCK:   -0.39 KCAL/MOL
REMARK 927      BINDING AFFINITY PREDICTED BY RF-SCORE:    0.00 PKD
ROOT
HETATM    1  N   UNL     1      -7.153   8.510  67.112  1.00  0.00    -0.075 N  
HETATM    2  C   UNL     1      -8.238   9.205  66.657  1.00  0.00    -0.115 C  
HETATM    3  H1  UNL     1      -7.034   8.306  68.104  1.00  0.00     0.000 HD 
HETATM    4  H2  UNL     1      -6.450   8.189  66.446  1.00  0.00     0.000 HD 
HETATM    5  O   UNL     1      -8.383   9.450  65.464  1.00  0.00    -0.124 OA 
ENDROOT
BRANCH   2   6
HETATM    6  C   UNL     1      -9.165   9.635  67.691  1.00  0.00    -0.130 A  
HETATM    7  C   UNL     1     -10.540   9.719  67.605  1.00  0.00    -0.276 A  
HETATM    8  N   UNL     1     -10.920  10.261  68.799  1.00  0.00    -0.236 NA 
HETATM    9  N   UNL     1      -8.772  10.076  68.935  1.00  0.00    -0.138 NA 
HETATM   10  N   UNL     1      -9.854  10.459  69.601  1.00  0.00    -0.188 NA 
BRANCH   8  11
HETATM   11  C   UNL     1     -12.195  10.878  69.114  1.00  0.00    -0.110 C  
BRANCH  11  12
HETATM   12  C   UNL     1     -12.106  12.326  69.484  1.00  0.00    -0.260 A  
HETATM   13  C   UNL     1     -12.337  12.749  70.793  1.00  0.00    -0.287 A  
HETATM   14  C   UNL     1     -12.085  14.063  71.190  1.00  0.00    -0.355 A  
HETATM   15  F   UNL     1     -12.759  11.871  71.713  1.00  0.00    -0.426 F  
HETATM   16  C   UNL     1     -11.608  14.989  70.263  1.00  0.00    -0.329 A  
HETATM   17  C   UNL     1     -11.428  14.599  68.936  1.00  0.00    -0.323 A  
HETATM   18  C   UNL     1     -11.685  13.281  68.560  1.00  0.00    -0.352 A  
HETATM   19  F   UNL     1     -11.471  12.921  67.286  1.00  0.00    -0.292 F  
ENDBRANCH  11  12
ENDBRANCH   8  11
ENDBRANCH   2   6
TORSDOF 3
ENDMDL
MODEL      215
REMARK 921   NORMALIZED FREE ENERGY PREDICTED BY IDOCK:   -3.38 KCAL/MOL
REMARK 922        TOTAL FREE ENERGY PREDICTED BY IDOCK:   -4.38 KCAL/MOL
REMARK 923 INTER-LIGAND FREE ENERGY PREDICTED BY IDOCK:   -3.95 KCAL/MOL
REMARK 924 INTRA-LIGAND FREE ENERGY PREDICTED BY IDOCK:   -0.43 KCAL/MOL
REMARK 927      BINDING AFFINITY PREDICTED BY RF-SCORE:    0.00 PKD
ROOT
HETATM    1  N   UNL     1      -7.673  21.027  67.039  1.00  0.00    -0.573 N  
HETATM    2  C   UNL     1      -6.851  20.084  66.489  1.00  0.00    -0.221 C  
HETATM    3  H1  UNL     1      -8.307  20.794  67.803  1.00  0.00     0.000 HD 
HETATM    4  H2  UNL     1      -7.651  21.981  66.678  1.00  0.00     0.000 HD 
HETATM    5  O   UNL     1      -6.088  20.363  65.570  1.00  0.00    -0.197 OA 
ENDROOT
BRANCH   2   6
HETATM    6  C   UNL     1      -6.980  18.753  67.060  1.00  0.00    -0.203 A  
HETATM    7  C   UNL     1      -8.120  18.165  67.570  1.00  0.00    -0.238 A  
HETATM    8  N   UNL     1      -7.689  16.966  68.061  1.00  0.00    -0.173 NA 
HETATM    9  N   UNL     1      -5.926  17.881  67.214  1.00  0.00    -0.134 NA 
HETATM   10  N   UNL     1      -6.372  16.794  67.830  1.00  0.00    -0.133 NA 
BRANCH   8  11
HETATM   11  C   UNL     1      -8.385  16.103  68.998  1.00  0.00    -0.247 C  
BRANCH  11  12
HETATM   12  C   UNL     1      -9.207  15.029  68.354  1.00  0.00    -0.193 A  
HETATM   13  C   UNL     1     -10.529  15.266  67.975  1.00  0.00    -0.248 A  
HETATM   14  C   UNL     1     -11.246  14.339  67.217  1.00  0.00    -0.330 A  
HETATM   15  F   UNL     1     -11.115  16.427  68.292  1.00  0.00    -0.315 F  
HETATM   16  C   UNL     1     -10.647  13.138  66.841  1.00  0.00    -0.265 A  
HETATM   17  C   UNL     1      -9.348  12.859  67.261  1.00  0.00    -0.212 A  
HETATM   18  C   UNL     1      -8.646  13.798  68.016  1.00  0.00    -0.177 A  
HETATM   19  F   UNL     1      -7.386  13.522  68.379  1.00  0.00    -0.086 F  
ENDBRANCH  11  12
ENDBRANCH   8  11
ENDBRANCH   2   6
TORSDOF 3
ENDMDL
MODEL      216
REMARK 921   NORMALIZED FREE ENERGY PREDICTED BY IDOCK:   -3.37 KCAL/MOL
REMARK 922        TOTAL FREE ENERGY PREDICTED BY IDOCK:   -4.37 KCAL/MOL
REMARK 923 INTER-LIGAND FREE ENERGY PREDICTED BY IDOCK:   -3.95 KCAL/MOL
REMARK 924 INTRA-LIGAND FREE ENERGY PREDICTED BY IDOCK:   -0.43 KCAL/MOL
REMARK 927      BINDING AFFINITY PREDICTED BY RF-SCORE:    0.00 PKD
ROOT
HETATM    1  N   UNL     1     -10.214   6.005  74.203  1.00  0.00    -0.275 N  
HETATM    2  C   UNL     1     -11.075   6.062  73.144  1.00  0.00    -0.203 C  
HETATM    3  H1  UNL     1      -9.558   6.764  74.393  1.00  0.00     0.000 HD 
HETATM    4  H2  UNL     1     -10.226   5.189  74.816  1.00  0.00     0.000 HD 
HETATM    5  O   UNL     1     -11.864   5.149  72.917  1.00  0.00    -0.256 OA 
ENDROOT
BRANCH   2   6
HETATM    6  C   UNL     1     -10.957   7.255  72.323  1.00  0.00    -0.249 A  
HETATM    7  C   UNL     1      -9.987   7.534  71.381  1.00  0.00    -0.185 A  
HETATM    8  N   UNL     1     -10.272   8.805  70.971  1.00  0.00    -0.218 NA 
HETATM    9  N   UNL     1     -11.810   8.333  72.412  1.00  0.00    -0.388 NA 
HETATM   10  N   UNL     1     -11.378   9.274  71.582  1.00  0.00    -0.381 NA 
BRANCH   8  11
HETATM   11  C   UNL     1      -9.392   9.711  70.257  1.00  0.00    -0.242 C  
BRANCH  11  12
HETATM   12  C   UNL     1      -9.609   9.743  68.775  1.00  0.00    -0.155 A  
HETATM   13  C   UNL     1      -9.013   8.797  67.941  1.00  0.00    -0.140 A  
HETATM   14  C   UNL     1      -9.347   8.705  66.589  1.00  0.00    -0.246 A  
HETATM   15  F   UNL     1      -8.142   7.916  68.448  1.00  0.00    -0.114 F  
HETATM   16  C   UNL     1     -10.280   9.584  66.043  1.00  0.00    -0.242 A  
HETATM   17  C   UNL     1     -10.842  10.575  66.847  1.00  0.00    -0.252 A  
HETATM   18  C   UNL     1     -10.497  10.649  68.197  1.00  0.00    -0.185 A  
HETATM   19  F   UNL     1     -11.076  11.588  68.959  1.00  0.00    -0.214 F  
ENDBRANCH  11  12
ENDBRANCH   8  11
ENDBRANCH   2   6
TORSDOF 3
ENDMDL
MODEL      217
REMARK 921   NORMALIZED FREE ENERGY PREDICTED BY IDOCK:   -3.36 KCAL/MOL
REMARK 922        TOTAL FREE ENERGY PREDICTED BY IDOCK:   -4.36 KCAL/MOL
REMARK 923 INTER-LIGAND FREE ENERGY PREDICTED BY IDOCK:   -4.93 KCAL/MOL
REMARK 924 INTRA-LIGAND FREE ENERGY PREDICTED BY IDOCK:    0.57 KCAL/MOL
REMARK 927      BINDING AFFINITY PREDICTED BY RF-SCORE:    0.00 PKD
ROOT
HETATM    1  N   UNL     1      -8.540  16.384  66.026  1.00  0.00    -0.296 N  
HETATM    2  C   UNL     1      -9.804  16.842  66.265  1.00  0.00    -0.302 C  
HETATM    3  H1  UNL     1      -8.210  15.507  66.429  1.00  0.00     0.000 HD 
HETATM    4  H2  UNL     1      -7.914  16.929  65.432  1.00  0.00     0.000 HD 
HETATM    5  O   UNL     1     -10.201  17.897  65.780  1.00  0.00    -0.577 OA 
ENDROOT
BRANCH   2   6
HETATM    6  C   UNL     1     -10.603  16.002  67.141  1.00  0.00    -0.305 A  
HETATM    7  C   UNL     1     -10.588  15.974  68.521  1.00  0.00    -0.268 A  
HETATM    8  N   UNL     1     -11.440  14.958  68.847  1.00  0.00    -0.283 NA 
HETATM    9  N   UNL     1     -11.488  15.049  66.690  1.00  0.00    -0.302 NA 
HETATM   10  N   UNL     1     -11.991  14.417  67.742  1.00  0.00    -0.362 NA 
BRANCH   8  11
HETATM   11  C   UNL     1     -11.539  14.275  70.123  1.00  0.00    -0.246 C  
BRANCH  11  12
HETATM   12  C   UNL     1     -11.582  12.781  70.022  1.00  0.00    -0.194 A  
HETATM   13  C   UNL     1     -12.493  12.036  70.770  1.00  0.00    -0.279 A  
HETATM   14  C   UNL     1     -12.666  10.667  70.556  1.00  0.00    -0.395 A  
HETATM   15  F   UNL     1     -13.264  12.644  71.681  1.00  0.00    -0.466 F  
HETATM   16  C   UNL     1     -11.905  10.015  69.587  1.00  0.00    -0.037 A  
HETATM   17  C   UNL     1     -10.948  10.732  68.870  1.00  0.00    -0.289 A  
HETATM   18  C   UNL     1     -10.791  12.099  69.099  1.00  0.00    -0.115 A  
HETATM   19  F   UNL     1      -9.888  12.774  68.373  1.00  0.00    -0.212 F  
ENDBRANCH  11  12
ENDBRANCH   8  11
ENDBRANCH   2   6
TORSDOF 3
ENDMDL
MODEL      218
REMARK 921   NORMALIZED FREE ENERGY PREDICTED BY IDOCK:   -3.35 KCAL/MOL
REMARK 922        TOTAL FREE ENERGY PREDICTED BY IDOCK:   -4.35 KCAL/MOL
REMARK 923 INTER-LIGAND FREE ENERGY PREDICTED BY IDOCK:   -3.93 KCAL/MOL
REMARK 924 INTRA-LIGAND FREE ENERGY PREDICTED BY IDOCK:   -0.42 KCAL/MOL
REMARK 927      BINDING AFFINITY PREDICTED BY RF-SCORE:    0.00 PKD
ROOT
HETATM    1  N   UNL     1      -8.177   7.768  68.829  1.00  0.00    -0.126 N  
HETATM    2  C   UNL     1      -7.689   9.001  68.501  1.00  0.00    -0.097 C  
HETATM    3  H1  UNL     1      -9.043   7.416  68.421  1.00  0.00     0.000 HD 
HETATM    4  H2  UNL     1      -7.664   7.188  69.495  1.00  0.00     0.000 HD 
HETATM    5  O   UNL     1      -6.647   9.424  68.992  1.00  0.00    -0.046 OA 
ENDROOT
BRANCH   2   6
HETATM    6  C   UNL     1      -8.508   9.752  67.565  1.00  0.00    -0.122 A  
HETATM    7  C   UNL     1      -9.317  10.837  67.838  1.00  0.00    -0.150 A  
HETATM    8  N   UNL     1      -9.933  11.107  66.650  1.00  0.00    -0.202 NA 
HETATM    9  N   UNL     1      -8.624   9.440  66.229  1.00  0.00    -0.129 NA 
HETATM   10  N   UNL     1      -9.500  10.274  65.681  1.00  0.00    -0.204 NA 
BRANCH   8  11
HETATM   11  C   UNL     1     -11.123  11.911  66.443  1.00  0.00    -0.309 C  
BRANCH  11  12
HETATM   12  C   UNL     1     -10.868  13.385  66.378  1.00  0.00    -0.294 A  
HETATM   13  C   UNL     1     -10.372  13.978  65.217  1.00  0.00    -0.383 A  
HETATM   14  C   UNL     1     -10.299  15.366  65.081  1.00  0.00    -0.405 A  
HETATM   15  F   UNL     1     -10.006  13.213  64.181  1.00  0.00    -0.380 F  
HETATM   16  C   UNL     1     -10.710  16.188  66.129  1.00  0.00    -0.222 A  
HETATM   17  C   UNL     1     -11.153  15.612  67.319  1.00  0.00    -0.238 A  
HETATM   18  C   UNL     1     -11.220  14.224  67.435  1.00  0.00    -0.316 A  
HETATM   19  F   UNL     1     -11.681  13.694  68.576  1.00  0.00    -0.305 F  
ENDBRANCH  11  12
ENDBRANCH   8  11
ENDBRANCH   2   6
TORSDOF 3
ENDMDL
MODEL      219
REMARK 921   NORMALIZED FREE ENERGY PREDICTED BY IDOCK:   -3.31 KCAL/MOL
REMARK 922        TOTAL FREE ENERGY PREDICTED BY IDOCK:   -4.31 KCAL/MOL
REMARK 923 INTER-LIGAND FREE ENERGY PREDICTED BY IDOCK:   -4.05 KCAL/MOL
REMARK 924 INTRA-LIGAND FREE ENERGY PREDICTED BY IDOCK:   -0.26 KCAL/MOL
REMARK 927      BINDING AFFINITY PREDICTED BY RF-SCORE:    0.00 PKD
ROOT
HETATM    1  N   UNL     1     -10.693  13.032  68.340  1.00  0.00    -0.249 N  
HETATM    2  C   UNL     1     -10.984  12.591  67.080  1.00  0.00    -0.267 C  
HETATM    3  H1  UNL     1     -10.334  12.396  69.053  1.00  0.00     0.000 HD 
HETATM    4  H2  UNL     1     -10.837  14.015  68.572  1.00  0.00     0.000 HD 
HETATM    5  O   UNL     1     -11.415  13.356  66.222  1.00  0.00    -0.307 OA 
ENDROOT
BRANCH   2   6
HETATM    6  C   UNL     1     -10.765  11.171  66.863  1.00  0.00    -0.274 A  
HETATM    7  C   UNL     1     -11.151  10.127  67.680  1.00  0.00    -0.206 A  
HETATM    8  N   UNL     1     -10.628   9.018  67.080  1.00  0.00    -0.242 NA 
HETATM    9  N   UNL     1     -10.074  10.658  65.788  1.00  0.00    -0.256 NA 
HETATM   10  N   UNL     1      -9.995   9.342  65.934  1.00  0.00    -0.289 NA 
BRANCH   8  11
HETATM   11  C   UNL     1     -10.435   7.709  67.676  1.00  0.00    -0.244 C  
BRANCH  11  12
HETATM   12  C   UNL     1     -10.180   7.734  69.152  1.00  0.00    -0.210 A  
HETATM   13  C   UNL     1     -11.021   7.061  70.038  1.00  0.00    -0.270 A  
HETATM   14  C   UNL     1     -10.698   6.927  71.389  1.00  0.00    -0.247 A  
HETATM   15  F   UNL     1     -12.140   6.481  69.585  1.00  0.00    -0.393 F  
HETATM   16  C   UNL     1      -9.521   7.487  71.880  1.00  0.00    -0.173 A  
HETATM   17  C   UNL     1      -8.697   8.213  71.022  1.00  0.00    -0.156 A  
HETATM   18  C   UNL     1      -9.036   8.336  69.674  1.00  0.00    -0.154 A  
HETATM   19  F   UNL     1      -8.211   9.009  68.860  1.00  0.00    -0.110 F  
ENDBRANCH  11  12
ENDBRANCH   8  11
ENDBRANCH   2   6
TORSDOF 3
ENDMDL
MODEL      220
REMARK 921   NORMALIZED FREE ENERGY PREDICTED BY IDOCK:   -3.30 KCAL/MOL
REMARK 922        TOTAL FREE ENERGY PREDICTED BY IDOCK:   -4.29 KCAL/MOL
REMARK 923 INTER-LIGAND FREE ENERGY PREDICTED BY IDOCK:   -3.92 KCAL/MOL
REMARK 924 INTRA-LIGAND FREE ENERGY PREDICTED BY IDOCK:   -0.37 KCAL/MOL
REMARK 927      BINDING AFFINITY PREDICTED BY RF-SCORE:    0.00 PKD
ROOT
HETATM    1  N   UNL     1     -11.464  12.270  66.112  1.00  0.00    -0.357 N  
HETATM    2  C   UNL     1     -10.165  11.982  66.422  1.00  0.00    -0.216 C  
HETATM    3  H1  UNL     1     -12.224  11.648  66.389  1.00  0.00     0.000 HD 
HETATM    4  H2  UNL     1     -11.678  13.123  65.595  1.00  0.00     0.000 HD 
HETATM    5  O   UNL     1      -9.251  12.731  66.090  1.00  0.00    -0.162 OA 
ENDROOT
BRANCH   2   6
HETATM    6  C   UNL     1      -9.970  10.733  67.138  1.00  0.00    -0.194 A  
HETATM    7  C   UNL     1      -9.799  10.562  68.497  1.00  0.00    -0.168 A  
HETATM    8  N   UNL     1      -9.564   9.224  68.642  1.00  0.00    -0.146 NA 
HETATM    9  N   UNL     1      -9.884   9.504  66.524  1.00  0.00    -0.221 NA 
HETATM   10  N   UNL     1      -9.633   8.590  67.453  1.00  0.00    -0.153 NA 
BRANCH   8  11
HETATM   11  C   UNL     1      -8.988   8.556  69.793  1.00  0.00    -0.145 C  
BRANCH  11  12
HETATM   12  C   UNL     1      -9.967   7.760  70.600  1.00  0.00    -0.186 A  
HETATM   13  C   UNL     1      -9.928   6.366  70.608  1.00  0.00    -0.185 A  
HETATM   14  C   UNL     1     -10.712   5.619  71.488  1.00  0.00    -0.306 A  
HETATM   15  F   UNL     1      -9.083   5.719  69.795  1.00  0.00    -0.129 F  
HETATM   16  C   UNL     1     -11.573   6.268  72.372  1.00  0.00    -0.325 A  
HETATM   17  C   UNL     1     -11.669   7.659  72.338  1.00  0.00    -0.366 A  
HETATM   18  C   UNL     1     -10.875   8.387  71.452  1.00  0.00    -0.244 A  
HETATM   19  F   UNL     1     -10.960   9.725  71.462  1.00  0.00    -0.417 F  
ENDBRANCH  11  12
ENDBRANCH   8  11
ENDBRANCH   2   6
TORSDOF 3
ENDMDL
MODEL      221
REMARK 921   NORMALIZED FREE ENERGY PREDICTED BY IDOCK:   -3.30 KCAL/MOL
REMARK 922        TOTAL FREE ENERGY PREDICTED BY IDOCK:   -4.29 KCAL/MOL
REMARK 923 INTER-LIGAND FREE ENERGY PREDICTED BY IDOCK:   -3.91 KCAL/MOL
REMARK 924 INTRA-LIGAND FREE ENERGY PREDICTED BY IDOCK:   -0.38 KCAL/MOL
REMARK 927      BINDING AFFINITY PREDICTED BY RF-SCORE:    0.00 PKD
ROOT
HETATM    1  N   UNL     1     -10.338  10.477  66.099  1.00  0.00    -0.233 N  
HETATM    2  C   UNL     1      -9.399  10.175  67.045  1.00  0.00    -0.154 C  
HETATM    3  H1  UNL     1     -11.287  10.107  66.159  1.00  0.00     0.000 HD 
HETATM    4  H2  UNL     1     -10.084  11.083  65.319  1.00  0.00     0.000 HD 
HETATM    5  O   UNL     1      -8.258  10.619  66.973  1.00  0.00    -0.120 OA 
ENDROOT
BRANCH   2   6
HETATM    6  C   UNL     1      -9.858   9.284  68.098  1.00  0.00    -0.162 A  
HETATM    7  C   UNL     1     -10.072   7.923  68.014  1.00  0.00    -0.192 A  
HETATM    8  N   UNL     1     -10.584   7.586  69.234  1.00  0.00    -0.224 NA 
HETATM    9  N   UNL     1     -10.196   9.707  69.365  1.00  0.00    -0.197 NA 
HETATM   10  N   UNL     1     -10.640   8.660  70.048  1.00  0.00    -0.224 NA 
BRANCH   8  11
HETATM   11  C   UNL     1     -11.298   6.371  69.579  1.00  0.00    -0.393 C  
BRANCH  11  12
HETATM   12  C   UNL     1     -10.872   5.751  70.874  1.00  0.00    -0.326 A  
HETATM   13  C   UNL     1     -11.644   5.895  72.027  1.00  0.00    -0.228 A  
HETATM   14  C   UNL     1     -11.356   5.180  73.191  1.00  0.00    -0.385 A  
HETATM   15  F   UNL     1     -12.718   6.694  72.015  1.00  0.00    -0.369 F  
HETATM   16  C   UNL     1     -10.266   4.311  73.220  1.00  0.00    -0.216 A  
HETATM   17  C   UNL     1      -9.449   4.198  72.095  1.00  0.00    -0.189 A  
HETATM   18  C   UNL     1      -9.754   4.921  70.942  1.00  0.00    -0.195 A  
HETATM   19  F   UNL     1      -8.974   4.770  69.862  1.00  0.00    -0.103 F  
ENDBRANCH  11  12
ENDBRANCH   8  11
ENDBRANCH   2   6
TORSDOF 3
ENDMDL
MODEL      222
REMARK 921   NORMALIZED FREE ENERGY PREDICTED BY IDOCK:   -3.29 KCAL/MOL
REMARK 922        TOTAL FREE ENERGY PREDICTED BY IDOCK:   -4.28 KCAL/MOL
REMARK 923 INTER-LIGAND FREE ENERGY PREDICTED BY IDOCK:   -3.91 KCAL/MOL
REMARK 924 INTRA-LIGAND FREE ENERGY PREDICTED BY IDOCK:   -0.36 KCAL/MOL
REMARK 927      BINDING AFFINITY PREDICTED BY RF-SCORE:    0.00 PKD
ROOT
HETATM    1  N   UNL     1      -7.235  21.062  66.681  1.00  0.00    -0.549 N  
HETATM    2  C   UNL     1      -6.844  20.126  65.766  1.00  0.00    -0.274 C  
HETATM    3  H1  UNL     1      -7.989  20.874  67.341  1.00  0.00     0.000 HD 
HETATM    4  H2  UNL     1      -6.763  21.967  66.704  1.00  0.00     0.000 HD 
HETATM    5  O   UNL     1      -5.936  20.353  64.972  1.00  0.00    -0.204 OA 
ENDROOT
BRANCH   2   6
HETATM    6  C   UNL     1      -7.597  18.884  65.804  1.00  0.00    -0.077 A  
HETATM    7  C   UNL     1      -8.955  18.719  65.621  1.00  0.00     0.732 A  
HETATM    8  N   UNL     1      -9.167  17.389  65.848  1.00  0.00    -0.523 NA 
HETATM    9  N   UNL     1      -7.036  17.657  66.082  1.00  0.00    -0.296 NA 
HETATM   10  N   UNL     1      -8.007  16.752  66.108  1.00  0.00    -0.372 NA 
BRANCH   8  11
HETATM   11  C   UNL     1     -10.434  16.739  66.124  1.00  0.00    -0.277 C  
BRANCH  11  12
HETATM   12  C   UNL     1     -10.468  15.973  67.411  1.00  0.00    -0.308 A  
HETATM   13  C   UNL     1     -10.801  16.600  68.612  1.00  0.00    -0.344 A  
HETATM   14  C   UNL     1     -11.011  15.869  69.782  1.00  0.00    -0.328 A  
HETATM   15  F   UNL     1     -10.980  17.927  68.644  1.00  0.00    -0.201 F  
HETATM   16  C   UNL     1     -10.869  14.482  69.768  1.00  0.00    -0.132 A  
HETATM   17  C   UNL     1     -10.479  13.845  68.592  1.00  0.00    -0.249 A  
HETATM   18  C   UNL     1     -10.276  14.593  67.432  1.00  0.00    -0.240 A  
HETATM   19  F   UNL     1      -9.935  13.954  66.304  1.00  0.00    -0.269 F  
ENDBRANCH  11  12
ENDBRANCH   8  11
ENDBRANCH   2   6
TORSDOF 3
ENDMDL
MODEL      223
REMARK 921   NORMALIZED FREE ENERGY PREDICTED BY IDOCK:   -3.28 KCAL/MOL
REMARK 922        TOTAL FREE ENERGY PREDICTED BY IDOCK:   -4.26 KCAL/MOL
REMARK 923 INTER-LIGAND FREE ENERGY PREDICTED BY IDOCK:   -3.84 KCAL/MOL
REMARK 924 INTRA-LIGAND FREE ENERGY PREDICTED BY IDOCK:   -0.42 KCAL/MOL
REMARK 927      BINDING AFFINITY PREDICTED BY RF-SCORE:    0.00 PKD
ROOT
HETATM    1  N   UNL     1     -10.053   7.119  74.109  1.00  0.00    -0.442 N  
HETATM    2  C   UNL     1      -9.684   6.565  72.916  1.00  0.00    -0.154 C  
HETATM    3  H1  UNL     1     -10.266   8.114  74.187  1.00  0.00     0.000 HD 
HETATM    4  H2  UNL     1     -10.116   6.527  74.937  1.00  0.00     0.000 HD 
HETATM    5  O   UNL     1      -9.428   5.369  72.822  1.00  0.00    -0.145 OA 
ENDROOT
BRANCH   2   6
HETATM    6  C   UNL     1      -9.602   7.501  71.807  1.00  0.00    -0.152 A  
HETATM    7  C   UNL     1     -10.649   8.066  71.106  1.00  0.00    -0.203 A  
HETATM    8  N   UNL     1     -10.042   8.787  70.118  1.00  0.00    -0.182 NA 
HETATM    9  N   UNL     1      -8.417   7.934  71.257  1.00  0.00    -0.113 NA 
HETATM   10  N   UNL     1      -8.699   8.717  70.223  1.00  0.00    -0.139 NA 
BRANCH   8  11
HETATM   11  C   UNL     1     -10.653   9.297  68.905  1.00  0.00    -0.199 C  
BRANCH  11  12
HETATM   12  C   UNL     1     -10.908  10.773  68.914  1.00  0.00    -0.269 A  
HETATM   13  C   UNL     1     -12.008  11.308  69.584  1.00  0.00    -0.353 A  
HETATM   14  C   UNL     1     -12.160  12.685  69.752  1.00  0.00    -0.301 A  
HETATM   15  F   UNL     1     -12.919  10.491  70.129  1.00  0.00    -0.373 F  
HETATM   16  C   UNL     1     -11.207  13.557  69.228  1.00  0.00    -0.285 A  
HETATM   17  C   UNL     1     -10.132  13.043  68.505  1.00  0.00    -0.195 A  
HETATM   18  C   UNL     1      -9.997  11.664  68.349  1.00  0.00    -0.201 A  
HETATM   19  F   UNL     1      -8.936  11.192  67.680  1.00  0.00    -0.135 F  
ENDBRANCH  11  12
ENDBRANCH   8  11
ENDBRANCH   2   6
TORSDOF 3
ENDMDL
MODEL      224
REMARK 921   NORMALIZED FREE ENERGY PREDICTED BY IDOCK:   -3.26 KCAL/MOL
REMARK 922        TOTAL FREE ENERGY PREDICTED BY IDOCK:   -4.25 KCAL/MOL
REMARK 923 INTER-LIGAND FREE ENERGY PREDICTED BY IDOCK:   -3.94 KCAL/MOL
REMARK 924 INTRA-LIGAND FREE ENERGY PREDICTED BY IDOCK:   -0.31 KCAL/MOL
REMARK 927      BINDING AFFINITY PREDICTED BY RF-SCORE:    0.00 PKD
ROOT
HETATM    1  N   UNL     1     -10.501  12.993  67.012  1.00  0.00    -0.246 N  
HETATM    2  C   UNL     1     -10.941  11.705  66.896  1.00  0.00    -0.292 C  
HETATM    3  H1  UNL     1      -9.954  13.295  67.819  1.00  0.00     0.000 HD 
HETATM    4  H2  UNL     1     -10.723  13.666  66.277  1.00  0.00     0.000 HD 
HETATM    5  O   UNL     1     -11.598  11.342  65.925  1.00  0.00    -0.200 OA 
ENDROOT
BRANCH   2   6
HETATM    6  C   UNL     1     -10.590  10.837  68.008  1.00  0.00    -0.207 A  
HETATM    7  C   UNL     1     -11.386  10.478  69.077  1.00  0.00    -0.257 A  
HETATM    8  N   UNL     1     -10.563   9.737  69.876  1.00  0.00    -0.245 NA 
HETATM    9  N   UNL     1      -9.347  10.268  68.171  1.00  0.00    -0.138 NA 
HETATM   10  N   UNL     1      -9.343   9.601  69.318  1.00  0.00    -0.169 NA 
BRANCH   8  11
HETATM   11  C   UNL     1     -10.770   9.400  71.272  1.00  0.00    -0.350 C  
BRANCH  11  12
HETATM   12  C   UNL     1     -10.348   8.011  71.641  1.00  0.00    -0.267 A  
HETATM   13  C   UNL     1     -11.181   6.919  71.400  1.00  0.00    -0.259 A  
HETATM   14  C   UNL     1     -10.733   5.608  71.572  1.00  0.00    -0.306 A  
HETATM   15  F   UNL     1     -12.423   7.117  70.941  1.00  0.00    -0.371 F  
HETATM   16  C   UNL     1      -9.431   5.372  72.012  1.00  0.00    -0.172 A  
HETATM   17  C   UNL     1      -8.603   6.452  72.314  1.00  0.00    -0.117 A  
HETATM   18  C   UNL     1      -9.069   7.755  72.135  1.00  0.00    -0.144 A  
HETATM   19  F   UNL     1      -8.244   8.777  72.399  1.00  0.00    -0.197 F  
ENDBRANCH  11  12
ENDBRANCH   8  11
ENDBRANCH   2   6
TORSDOF 3
ENDMDL
MODEL      225
REMARK 921   NORMALIZED FREE ENERGY PREDICTED BY IDOCK:   -3.26 KCAL/MOL
REMARK 922        TOTAL FREE ENERGY PREDICTED BY IDOCK:   -4.24 KCAL/MOL
REMARK 923 INTER-LIGAND FREE ENERGY PREDICTED BY IDOCK:   -3.99 KCAL/MOL
REMARK 924 INTRA-LIGAND FREE ENERGY PREDICTED BY IDOCK:   -0.25 KCAL/MOL
REMARK 927      BINDING AFFINITY PREDICTED BY RF-SCORE:    0.00 PKD
ROOT
HETATM    1  N   UNL     1     -11.401   4.614  65.219  1.00  0.00    -0.982 N  
HETATM    2  C   UNL     1     -10.185   4.651  65.840  1.00  0.00    -0.276 C  
HETATM    3  H1  UNL     1     -12.073   5.374  65.326  1.00  0.00     0.000 HD 
HETATM    4  H2  UNL     1     -11.641   3.812  64.636  1.00  0.00     0.000 HD 
HETATM    5  O   UNL     1      -9.376   3.737  65.710  1.00  0.00    -0.149 OA 
ENDROOT
BRANCH   2   6
HETATM    6  C   UNL     1      -9.955   5.826  66.663  1.00  0.00    -0.176 A  
HETATM    7  C   UNL     1     -10.898   6.708  67.151  1.00  0.00    -0.401 A  
HETATM    8  N   UNL     1     -10.164   7.676  67.775  1.00  0.00    -0.188 NA 
HETATM    9  N   UNL     1      -8.705   6.260  67.046  1.00  0.00    -0.108 NA 
HETATM   10  N   UNL     1      -8.847   7.392  67.723  1.00  0.00    -0.128 NA 
BRANCH   8  11
HETATM   11  C   UNL     1     -10.611   9.001  68.160  1.00  0.00    -0.171 C  
BRANCH  11  12
HETATM   12  C   UNL     1      -9.608  10.086  67.918  1.00  0.00    -0.163 A  
HETATM   13  C   UNL     1      -8.675  10.434  68.896  1.00  0.00    -0.157 A  
HETATM   14  C   UNL     1      -7.626  11.312  68.623  1.00  0.00    -0.129 A  
HETATM   15  F   UNL     1      -8.745   9.877  70.112  1.00  0.00    -0.197 F  
HETATM   16  C   UNL     1      -7.506  11.877  67.354  1.00  0.00    -0.148 A  
HETATM   17  C   UNL     1      -8.462  11.587  66.382  1.00  0.00    -0.138 A  
HETATM   18  C   UNL     1      -9.503  10.706  66.674  1.00  0.00    -0.167 A  
HETATM   19  F   UNL     1     -10.391  10.415  65.712  1.00  0.00    -0.308 F  
ENDBRANCH  11  12
ENDBRANCH   8  11
ENDBRANCH   2   6
TORSDOF 3
ENDMDL
MODEL      226
REMARK 921   NORMALIZED FREE ENERGY PREDICTED BY IDOCK:   -3.25 KCAL/MOL
REMARK 922        TOTAL FREE ENERGY PREDICTED BY IDOCK:   -4.23 KCAL/MOL
REMARK 923 INTER-LIGAND FREE ENERGY PREDICTED BY IDOCK:   -3.81 KCAL/MOL
REMARK 924 INTRA-LIGAND FREE ENERGY PREDICTED BY IDOCK:   -0.43 KCAL/MOL
REMARK 927      BINDING AFFINITY PREDICTED BY RF-SCORE:    0.00 PKD
ROOT
HETATM    1  N   UNL     1     -10.113  12.369  64.644  1.00  0.00    -0.422 N  
HETATM    2  C   UNL     1     -10.636  13.070  65.693  1.00  0.00    -0.282 C  
HETATM    3  H1  UNL     1      -9.889  11.377  64.730  1.00  0.00     0.000 HD 
HETATM    4  H2  UNL     1      -9.943  12.846  63.759  1.00  0.00     0.000 HD 
HETATM    5  O   UNL     1     -10.906  14.263  65.590  1.00  0.00    -0.292 OA 
ENDROOT
BRANCH   2   6
HETATM    6  C   UNL     1     -10.816  12.300  66.913  1.00  0.00    -0.251 A  
HETATM    7  C   UNL     1     -10.719  10.932  67.065  1.00  0.00    -0.271 A  
HETATM    8  N   UNL     1     -11.067  10.712  68.367  1.00  0.00    -0.252 NA 
HETATM    9  N   UNL     1     -11.165  12.856  68.124  1.00  0.00    -0.253 NA 
HETATM   10  N   UNL     1     -11.318  11.874  69.003  1.00  0.00    -0.257 NA 
BRANCH   8  11
HETATM   11  C   UNL     1     -11.463   9.451  68.966  1.00  0.00     0.364 C  
BRANCH  11  12
HETATM   12  C   UNL     1     -10.462   8.882  69.925  1.00  0.00    -0.223 A  
HETATM   13  C   UNL     1      -9.350   8.175  69.468  1.00  0.00    -0.155 A  
HETATM   14  C   UNL     1      -8.322   7.795  70.333  1.00  0.00    -0.123 A  
HETATM   15  F   UNL     1      -9.228   7.895  68.164  1.00  0.00    -0.136 F  
HETATM   16  C   UNL     1      -8.406   8.107  71.689  1.00  0.00    -0.165 A  
HETATM   17  C   UNL     1      -9.537   8.761  72.174  1.00  0.00    -0.325 A  
HETATM   18  C   UNL     1     -10.553   9.133  71.293  1.00  0.00    -0.329 A  
HETATM   19  F   UNL     1     -11.616   9.792  71.777  1.00  0.00    -0.435 F  
ENDBRANCH  11  12
ENDBRANCH   8  11
ENDBRANCH   2   6
TORSDOF 3
ENDMDL
MODEL      227
REMARK 921   NORMALIZED FREE ENERGY PREDICTED BY IDOCK:   -3.24 KCAL/MOL
REMARK 922        TOTAL FREE ENERGY PREDICTED BY IDOCK:   -4.22 KCAL/MOL
REMARK 923 INTER-LIGAND FREE ENERGY PREDICTED BY IDOCK:   -4.11 KCAL/MOL
REMARK 924 INTRA-LIGAND FREE ENERGY PREDICTED BY IDOCK:   -0.11 KCAL/MOL
REMARK 927      BINDING AFFINITY PREDICTED BY RF-SCORE:    0.00 PKD
ROOT
HETATM    1  N   UNL     1      -9.914   6.215  68.705  1.00  0.00    -0.140 N  
HETATM    2  C   UNL     1     -10.799   6.972  69.418  1.00  0.00    -0.227 C  
HETATM    3  H1  UNL     1      -9.270   6.642  68.038  1.00  0.00     0.000 HD 
HETATM    4  H2  UNL     1      -9.896   5.204  68.841  1.00  0.00     0.000 HD 
HETATM    5  O   UNL     1     -11.574   6.459  70.220  1.00  0.00    -0.399 OA 
ENDROOT
BRANCH   2   6
HETATM    6  C   UNL     1     -10.757   8.396  69.129  1.00  0.00    -0.106 A  
HETATM    7  C   UNL     1     -10.635   8.999  67.894  1.00  0.00    -0.196 A  
HETATM    8  N   UNL     1     -10.550  10.332  68.177  1.00  0.00    -0.204 NA 
HETATM    9  N   UNL     1     -10.791   9.374  70.098  1.00  0.00    -0.237 NA 
HETATM   10  N   UNL     1     -10.660  10.553  69.502  1.00  0.00    -0.237 NA 
BRANCH   8  11
HETATM   11  C   UNL     1     -10.074  11.385  67.298  1.00  0.00    -0.192 C  
BRANCH  11  12
HETATM   12  C   UNL     1      -9.911  10.970  65.869  1.00  0.00    -0.289 A  
HETATM   13  C   UNL     1     -10.793  11.418  64.885  1.00  0.00    -0.257 A  
HETATM   14  C   UNL     1     -10.552  11.187  63.530  1.00  0.00    -0.393 A  
HETATM   15  F   UNL     1     -11.870  12.135  65.232  1.00  0.00    -0.400 F  
HETATM   16  C   UNL     1      -9.418  10.478  63.138  1.00  0.00    -0.367 A  
HETATM   17  C   UNL     1      -8.557   9.971  64.110  1.00  0.00    -0.195 A  
HETATM   18  C   UNL     1      -8.814  10.213  65.459  1.00  0.00    -0.169 A  
HETATM   19  F   UNL     1      -7.953   9.746  66.374  1.00  0.00    -0.105 F  
ENDBRANCH  11  12
ENDBRANCH   8  11
ENDBRANCH   2   6
TORSDOF 3
ENDMDL
MODEL      228
REMARK 921   NORMALIZED FREE ENERGY PREDICTED BY IDOCK:   -3.23 KCAL/MOL
REMARK 922        TOTAL FREE ENERGY PREDICTED BY IDOCK:   -4.21 KCAL/MOL
REMARK 923 INTER-LIGAND FREE ENERGY PREDICTED BY IDOCK:   -3.78 KCAL/MOL
REMARK 924 INTRA-LIGAND FREE ENERGY PREDICTED BY IDOCK:   -0.42 KCAL/MOL
REMARK 927      BINDING AFFINITY PREDICTED BY RF-SCORE:    0.00 PKD
ROOT
HETATM    1  N   UNL     1     -12.284   7.886  72.612  1.00  0.00    -0.597 N  
HETATM    2  C   UNL     1     -11.858   6.770  71.949  1.00  0.00    -0.326 C  
HETATM    3  H1  UNL     1     -12.225   8.810  72.184  1.00  0.00     0.000 HD 
HETATM    4  H2  UNL     1     -12.670   7.792  73.552  1.00  0.00     0.000 HD 
HETATM    5  O   UNL     1     -11.929   5.658  72.463  1.00  0.00    -0.258 OA 
ENDROOT
BRANCH   2   6
HETATM    6  C   UNL     1     -11.305   7.018  70.628  1.00  0.00    -0.307 A  
HETATM    7  C   UNL     1     -11.004   8.240  70.059  1.00  0.00    -0.197 A  
HETATM    8  N   UNL     1     -10.608   7.932  68.789  1.00  0.00    -0.172 NA 
HETATM    9  N   UNL     1     -11.037   6.026  69.711  1.00  0.00    -0.397 NA 
HETATM   10  N   UNL     1     -10.614   6.598  68.591  1.00  0.00    -0.214 NA 
BRANCH   8  11
HETATM   11  C   UNL     1     -10.507   8.837  67.660  1.00  0.00    -0.244 C  
BRANCH  11  12
HETATM   12  C   UNL     1      -9.296   9.717  67.680  1.00  0.00    -0.157 A  
HETATM   13  C   UNL     1      -8.072   9.268  67.183  1.00  0.00    -0.109 A  
HETATM   14  C   UNL     1      -6.986  10.131  67.031  1.00  0.00    -0.088 A  
HETATM   15  F   UNL     1      -7.940   7.995  66.789  1.00  0.00    -0.097 F  
HETATM   16  C   UNL     1      -7.107  11.470  67.397  1.00  0.00    -0.119 A  
HETATM   17  C   UNL     1      -8.304  11.924  67.951  1.00  0.00    -0.152 A  
HETATM   18  C   UNL     1      -9.379  11.046  68.093  1.00  0.00    -0.173 A  
HETATM   19  F   UNL     1     -10.530  11.514  68.596  1.00  0.00    -0.177 F  
ENDBRANCH  11  12
ENDBRANCH   8  11
ENDBRANCH   2   6
TORSDOF 3
ENDMDL
MODEL      229
REMARK 921   NORMALIZED FREE ENERGY PREDICTED BY IDOCK:   -3.23 KCAL/MOL
REMARK 922        TOTAL FREE ENERGY PREDICTED BY IDOCK:   -4.20 KCAL/MOL
REMARK 923 INTER-LIGAND FREE ENERGY PREDICTED BY IDOCK:   -3.89 KCAL/MOL
REMARK 924 INTRA-LIGAND FREE ENERGY PREDICTED BY IDOCK:   -0.31 KCAL/MOL
REMARK 927      BINDING AFFINITY PREDICTED BY RF-SCORE:    0.00 PKD
ROOT
HETATM    1  N   UNL     1      -8.171   7.215  65.754  1.00  0.00    -0.126 N  
HETATM    2  C   UNL     1      -9.004   6.681  66.697  1.00  0.00    -0.142 C  
HETATM    3  H1  UNL     1      -7.963   8.214  65.737  1.00  0.00     0.000 HD 
HETATM    4  H2  UNL     1      -7.750   6.603  65.055  1.00  0.00     0.000 HD 
HETATM    5  O   UNL     1      -9.254   5.480  66.717  1.00  0.00    -0.124 OA 
ENDROOT
BRANCH   2   6
HETATM    6  C   UNL     1      -9.568   7.643  67.629  1.00  0.00    -0.145 A  
HETATM    7  C   UNL     1      -9.431   7.661  69.002  1.00  0.00    -0.150 A  
HETATM    8  N   UNL     1     -10.222   8.698  69.406  1.00  0.00    -0.206 NA 
HETATM    9  N   UNL     1     -10.384   8.686  67.252  1.00  0.00    -0.274 NA 
HETATM   10  N   UNL     1     -10.780   9.321  68.348  1.00  0.00    -0.185 NA 
BRANCH   8  11
HETATM   11  C   UNL     1     -10.717   8.951  70.746  1.00  0.00    -0.233 C  
BRANCH  11  12
HETATM   12  C   UNL     1     -10.681   7.760  71.653  1.00  0.00    -0.257 A  
HETATM   13  C   UNL     1      -9.798   7.704  72.732  1.00  0.00    -0.226 A  
HETATM   14  C   UNL     1      -9.876   6.687  73.685  1.00  0.00    -0.248 A  
HETATM   15  F   UNL     1      -8.886   8.670  72.898  1.00  0.00    -0.295 F  
HETATM   16  C   UNL     1     -10.842   5.690  73.558  1.00  0.00    -0.295 A  
HETATM   17  C   UNL     1     -11.694   5.697  72.456  1.00  0.00    -0.255 A  
HETATM   18  C   UNL     1     -11.602   6.722  71.514  1.00  0.00    -0.300 A  
HETATM   19  F   UNL     1     -12.455   6.727  70.480  1.00  0.00    -0.428 F  
ENDBRANCH  11  12
ENDBRANCH   8  11
ENDBRANCH   2   6
TORSDOF 3
ENDMDL
MODEL      230
REMARK 921   NORMALIZED FREE ENERGY PREDICTED BY IDOCK:   -3.22 KCAL/MOL
REMARK 922        TOTAL FREE ENERGY PREDICTED BY IDOCK:   -4.19 KCAL/MOL
REMARK 923 INTER-LIGAND FREE ENERGY PREDICTED BY IDOCK:   -3.74 KCAL/MOL
REMARK 924 INTRA-LIGAND FREE ENERGY PREDICTED BY IDOCK:   -0.45 KCAL/MOL
REMARK 927      BINDING AFFINITY PREDICTED BY RF-SCORE:    0.00 PKD
ROOT
HETATM    1  N   UNL     1     -10.652  18.636  66.199  1.00  0.00    -0.418 N  
HETATM    2  C   UNL     1      -9.306  18.484  66.374  1.00  0.00    -0.282 C  
HETATM    3  H1  UNL     1     -11.306  17.897  66.462  1.00  0.00     0.000 HD 
HETATM    4  H2  UNL     1     -11.010  19.504  65.800  1.00  0.00     0.000 HD 
HETATM    5  O   UNL     1      -8.519  19.372  66.059  1.00  0.00    -0.404 OA 
ENDROOT
BRANCH   2   6
HETATM    6  C   UNL     1      -8.902  17.202  66.927  1.00  0.00    -0.235 A  
HETATM    7  C   UNL     1      -8.201  16.196  66.292  1.00  0.00    -0.240 A  
HETATM    8  N   UNL     1      -8.165  15.182  67.206  1.00  0.00    -0.192 NA 
HETATM    9  N   UNL     1      -9.216  16.785  68.201  1.00  0.00    -0.219 NA 
HETATM   10  N   UNL     1      -8.763  15.548  68.358  1.00  0.00    -0.169 NA 
BRANCH   8  11
HETATM   11  C   UNL     1      -7.860  13.787  66.952  1.00  0.00     0.312 C  
BRANCH  11  12
HETATM   12  C   UNL     1      -9.026  12.860  67.113  1.00  0.00    -0.219 A  
HETATM   13  C   UNL     1     -10.012  12.768  66.130  1.00  0.00    -0.266 A  
HETATM   14  C   UNL     1     -11.003  11.787  66.181  1.00  0.00    -0.355 A  
HETATM   15  F   UNL     1      -9.986  13.599  65.080  1.00  0.00    -0.320 F  
HETATM   16  C   UNL     1     -11.031  10.884  67.243  1.00  0.00    -0.355 A  
HETATM   17  C   UNL     1     -10.090  10.998  68.265  1.00  0.00    -0.191 A  
HETATM   18  C   UNL     1      -9.106  11.985  68.195  1.00  0.00    -0.191 A  
HETATM   19  F   UNL     1      -8.191  12.053  69.172  1.00  0.00     0.002 F  
ENDBRANCH  11  12
ENDBRANCH   8  11
ENDBRANCH   2   6
TORSDOF 3
ENDMDL
MODEL      231
REMARK 921   NORMALIZED FREE ENERGY PREDICTED BY IDOCK:   -3.22 KCAL/MOL
REMARK 922        TOTAL FREE ENERGY PREDICTED BY IDOCK:   -4.19 KCAL/MOL
REMARK 923 INTER-LIGAND FREE ENERGY PREDICTED BY IDOCK:   -3.92 KCAL/MOL
REMARK 924 INTRA-LIGAND FREE ENERGY PREDICTED BY IDOCK:   -0.27 KCAL/MOL
REMARK 927      BINDING AFFINITY PREDICTED BY RF-SCORE:    0.00 PKD
ROOT
HETATM    1  N   UNL     1      -8.783   6.960  65.439  1.00  0.00    -0.347 N  
HETATM    2  C   UNL     1      -9.462   7.721  66.348  1.00  0.00    -0.180 C  
HETATM    3  H1  UNL     1      -8.501   6.003  65.656  1.00  0.00     0.000 HD 
HETATM    4  H2  UNL     1      -8.554   7.355  64.527  1.00  0.00     0.000 HD 
HETATM    5  O   UNL     1      -9.802   8.871  66.087  1.00  0.00    -0.271 OA 
ENDROOT
BRANCH   2   6
HETATM    6  C   UNL     1      -9.715   7.070  67.622  1.00  0.00    -0.136 A  
HETATM    7  C   UNL     1     -10.940   6.812  68.205  1.00  0.00    -0.197 A  
HETATM    8  N   UNL     1     -10.628   6.279  69.423  1.00  0.00    -0.239 NA 
HETATM    9  N   UNL     1      -8.722   6.644  68.475  1.00  0.00    -0.124 NA 
HETATM   10  N   UNL     1      -9.292   6.165  69.573  1.00  0.00    -0.137 NA 
BRANCH   8  11
HETATM   11  C   UNL     1     -11.505   6.145  70.571  1.00  0.00    -0.260 C  
BRANCH  11  12
HETATM   12  C   UNL     1     -10.799   6.150  71.892  1.00  0.00    -0.295 A  
HETATM   13  C   UNL     1     -10.607   7.336  72.599  1.00  0.00    -0.266 A  
HETATM   14  C   UNL     1     -10.114   7.334  73.905  1.00  0.00    -0.312 A  
HETATM   15  F   UNL     1     -10.949   8.506  72.045  1.00  0.00    -0.312 F  
HETATM   16  C   UNL     1      -9.786   6.127  74.521  1.00  0.00    -0.287 A  
HETATM   17  C   UNL     1      -9.916   4.936  73.809  1.00  0.00    -0.188 A  
HETATM   18  C   UNL     1     -10.411   4.959  72.505  1.00  0.00    -0.205 A  
HETATM   19  F   UNL     1     -10.561   3.798  71.852  1.00  0.00    -0.162 F  
ENDBRANCH  11  12
ENDBRANCH   8  11
ENDBRANCH   2   6
TORSDOF 3
ENDMDL
MODEL      232
REMARK 921   NORMALIZED FREE ENERGY PREDICTED BY IDOCK:   -3.21 KCAL/MOL
REMARK 922        TOTAL FREE ENERGY PREDICTED BY IDOCK:   -4.19 KCAL/MOL
REMARK 923 INTER-LIGAND FREE ENERGY PREDICTED BY IDOCK:   -3.90 KCAL/MOL
REMARK 924 INTRA-LIGAND FREE ENERGY PREDICTED BY IDOCK:   -0.28 KCAL/MOL
REMARK 927      BINDING AFFINITY PREDICTED BY RF-SCORE:    0.00 PKD
ROOT
HETATM    1  N   UNL     1      -7.517   9.543  67.995  1.00  0.00    -0.083 N  
HETATM    2  C   UNL     1      -8.208  10.408  68.795  1.00  0.00    -0.128 C  
HETATM    3  H1  UNL     1      -7.200   9.820  67.066  1.00  0.00     0.000 HD 
HETATM    4  H2  UNL     1      -7.315   8.602  68.333  1.00  0.00     0.000 HD 
HETATM    5  O   UNL     1      -8.590  10.075  69.913  1.00  0.00    -0.194 OA 
ENDROOT
BRANCH   2   6
HETATM    6  C   UNL     1      -8.463  11.713  68.207  1.00  0.00    -0.160 A  
HETATM    7  C   UNL     1      -9.372  12.024  67.216  1.00  0.00    -0.180 A  
HETATM    8  N   UNL     1      -9.152  13.347  66.961  1.00  0.00    -0.236 NA 
HETATM    9  N   UNL     1      -7.771  12.854  68.546  1.00  0.00    -0.127 NA 
HETATM   10  N   UNL     1      -8.200  13.845  67.775  1.00  0.00    -0.158 NA 
BRANCH   8  11
HETATM   11  C   UNL     1      -9.579  14.096  65.794  1.00  0.00    -0.133 C  
BRANCH  11  12
HETATM   12  C   UNL     1     -10.696  13.459  65.025  1.00  0.00    -0.354 A  
HETATM   13  C   UNL     1     -10.434  12.558  63.992  1.00  0.00    -0.422 A  
HETATM   14  C   UNL     1     -11.457  11.824  63.390  1.00  0.00    -0.424 A  
HETATM   15  F   UNL     1      -9.172  12.343  63.599  1.00  0.00     0.042 F  
HETATM   16  C   UNL     1     -12.775  11.999  63.806  1.00  0.00    -0.516 A  
HETATM   17  C   UNL     1     -13.062  12.938  64.796  1.00  0.00    -0.035 A  
HETATM   18  C   UNL     1     -12.027  13.661  65.387  1.00  0.00    -0.378 A  
HETATM   19  F   UNL     1     -12.323  14.533  66.361  1.00  0.00    -0.416 F  
ENDBRANCH  11  12
ENDBRANCH   8  11
ENDBRANCH   2   6
TORSDOF 3
ENDMDL
MODEL      233
REMARK 921   NORMALIZED FREE ENERGY PREDICTED BY IDOCK:   -3.21 KCAL/MOL
REMARK 922        TOTAL FREE ENERGY PREDICTED BY IDOCK:   -4.19 KCAL/MOL
REMARK 923 INTER-LIGAND FREE ENERGY PREDICTED BY IDOCK:   -3.76 KCAL/MOL
REMARK 924 INTRA-LIGAND FREE ENERGY PREDICTED BY IDOCK:   -0.42 KCAL/MOL
REMARK 927      BINDING AFFINITY PREDICTED BY RF-SCORE:    0.00 PKD
ROOT
HETATM    1  N   UNL     1     -11.215   5.452  66.016  1.00  0.00    -0.774 N  
HETATM    2  C   UNL     1     -10.717   6.342  66.925  1.00  0.00    -0.338 C  
HETATM    3  H1  UNL     1     -11.165   4.446  66.179  1.00  0.00     0.000 HD 
HETATM    4  H2  UNL     1     -11.646   5.800  65.159  1.00  0.00     0.000 HD 
HETATM    5  O   UNL     1     -10.777   7.552  66.729  1.00  0.00    -0.319 OA 
ENDROOT
BRANCH   2   6
HETATM    6  C   UNL     1     -10.105   5.740  68.098  1.00  0.00    -0.165 A  
HETATM    7  C   UNL     1     -10.743   5.228  69.209  1.00  0.00    -0.000 A  
HETATM    8  N   UNL     1      -9.726   4.876  70.050  1.00  0.00    -0.193 NA 
HETATM    9  N   UNL     1      -8.744   5.635  68.282  1.00  0.00    -0.107 NA 
HETATM   10  N   UNL     1      -8.526   5.108  69.480  1.00  0.00    -0.092 NA 
BRANCH   8  11
HETATM   11  C   UNL     1      -9.820   4.610  71.473  1.00  0.00    -0.190 C  
BRANCH  11  12
HETATM   12  C   UNL     1      -9.503   5.787  72.344  1.00  0.00    -0.155 A  
HETATM   13  C   UNL     1      -8.204   6.015  72.799  1.00  0.00    -0.118 A  
HETATM   14  C   UNL     1      -7.860   7.196  73.459  1.00  0.00    -0.113 A  
HETATM   15  F   UNL     1      -7.245   5.112  72.558  1.00  0.00    -0.079 F  
HETATM   16  C   UNL     1      -8.830   8.170  73.689  1.00  0.00    -0.296 A  
HETATM   17  C   UNL     1     -10.146   7.934  73.293  1.00  0.00    -0.313 A  
HETATM   18  C   UNL     1     -10.470   6.748  72.635  1.00  0.00    -0.213 A  
HETATM   19  F   UNL     1     -11.734   6.558  72.233  1.00  0.00    -0.299 F  
ENDBRANCH  11  12
ENDBRANCH   8  11
ENDBRANCH   2   6
TORSDOF 3
ENDMDL
MODEL      234
REMARK 921   NORMALIZED FREE ENERGY PREDICTED BY IDOCK:   -3.18 KCAL/MOL
REMARK 922        TOTAL FREE ENERGY PREDICTED BY IDOCK:   -4.14 KCAL/MOL
REMARK 923 INTER-LIGAND FREE ENERGY PREDICTED BY IDOCK:   -3.99 KCAL/MOL
REMARK 924 INTRA-LIGAND FREE ENERGY PREDICTED BY IDOCK:   -0.15 KCAL/MOL
REMARK 927      BINDING AFFINITY PREDICTED BY RF-SCORE:    0.00 PKD
ROOT
HETATM    1  N   UNL     1     -10.016   5.771  69.594  1.00  0.00    -0.174 N  
HETATM    2  C   UNL     1     -10.796   6.781  70.083  1.00  0.00    -0.266 C  
HETATM    3  H1  UNL     1      -9.138   5.967  69.113  1.00  0.00     0.000 HD 
HETATM    4  H2  UNL     1     -10.318   4.804  69.714  1.00  0.00     0.000 HD 
HETATM    5  O   UNL     1     -11.852   6.547  70.662  1.00  0.00    -0.384 OA 
ENDROOT
BRANCH   2   6
HETATM    6  C   UNL     1     -10.285   8.120  69.838  1.00  0.00    -0.204 A  
HETATM    7  C   UNL     1     -10.622   8.971  68.805  1.00  0.00    -0.169 A  
HETATM    8  N   UNL     1      -9.802  10.050  68.977  1.00  0.00    -0.188 NA 
HETATM    9  N   UNL     1      -9.324   8.726  70.615  1.00  0.00    -0.179 NA 
HETATM   10  N   UNL     1      -9.035   9.904  70.076  1.00  0.00    -0.210 NA 
BRANCH   8  11
HETATM   11  C   UNL     1      -9.490  11.076  67.999  1.00  0.00    -0.166 C  
BRANCH  11  12
HETATM   12  C   UNL     1     -10.049  12.428  68.323  1.00  0.00    -0.227 A  
HETATM   13  C   UNL     1      -9.225  13.552  68.377  1.00  0.00    -0.159 A  
HETATM   14  C   UNL     1      -9.754  14.838  68.500  1.00  0.00    -0.218 A  
HETATM   15  F   UNL     1      -7.899  13.413  68.257  1.00  0.00    -0.111 F  
HETATM   16  C   UNL     1     -11.134  15.015  68.589  1.00  0.00    -0.272 A  
HETATM   17  C   UNL     1     -11.969  13.899  68.595  1.00  0.00    -0.401 A  
HETATM   18  C   UNL     1     -11.421  12.622  68.471  1.00  0.00    -0.311 A  
HETATM   19  F   UNL     1     -12.247  11.566  68.444  1.00  0.00    -0.353 F  
ENDBRANCH  11  12
ENDBRANCH   8  11
ENDBRANCH   2   6
TORSDOF 3
ENDMDL
MODEL      235
REMARK 921   NORMALIZED FREE ENERGY PREDICTED BY IDOCK:   -3.17 KCAL/MOL
REMARK 922        TOTAL FREE ENERGY PREDICTED BY IDOCK:   -4.14 KCAL/MOL
REMARK 923 INTER-LIGAND FREE ENERGY PREDICTED BY IDOCK:   -3.98 KCAL/MOL
REMARK 924 INTRA-LIGAND FREE ENERGY PREDICTED BY IDOCK:   -0.16 KCAL/MOL
REMARK 927      BINDING AFFINITY PREDICTED BY RF-SCORE:    0.00 PKD
ROOT
HETATM    1  N   UNL     1     -11.192   4.477  65.183  1.00  0.00    -0.978 N  
HETATM    2  C   UNL     1     -10.035   4.775  65.845  1.00  0.00    -0.228 C  
HETATM    3  H1  UNL     1     -12.070   4.941  65.419  1.00  0.00     0.000 HD 
HETATM    4  H2  UNL     1     -11.178   3.779  64.440  1.00  0.00     0.000 HD 
HETATM    5  O   UNL     1      -8.979   4.218  65.562  1.00  0.00    -0.123 OA 
ENDROOT
BRANCH   2   6
HETATM    6  C   UNL     1     -10.172   5.765  66.900  1.00  0.00    -0.218 A  
HETATM    7  C   UNL     1      -9.488   6.957  67.028  1.00  0.00    -0.151 A  
HETATM    8  N   UNL     1      -9.910   7.462  68.224  1.00  0.00    -0.156 NA 
HETATM    9  N   UNL     1     -11.009   5.618  67.983  1.00  0.00    -0.081 NA 
HETATM   10  N   UNL     1     -10.838   6.661  68.786  1.00  0.00    -0.260 NA 
BRANCH   8  11
HETATM   11  C   UNL     1      -9.275   8.506  69.007  1.00  0.00    -0.146 C  
BRANCH  11  12
HETATM   12  C   UNL     1      -9.651   8.506  70.457  1.00  0.00    -0.194 A  
HETATM   13  C   UNL     1     -10.849   9.075  70.888  1.00  0.00    -0.258 A  
HETATM   14  C   UNL     1     -11.295   8.926  72.202  1.00  0.00    -0.369 A  
HETATM   15  F   UNL     1     -11.624   9.736  70.019  1.00  0.00    -0.258 F  
HETATM   16  C   UNL     1     -10.527   8.209  73.119  1.00  0.00    -0.110 A  
HETATM   17  C   UNL     1      -9.299   7.683  72.721  1.00  0.00    -0.236 A  
HETATM   18  C   UNL     1      -8.871   7.842  71.402  1.00  0.00    -0.135 A  
HETATM   19  F   UNL     1      -7.703   7.298  71.034  1.00  0.00    -0.083 F  
ENDBRANCH  11  12
ENDBRANCH   8  11
ENDBRANCH   2   6
TORSDOF 3
ENDMDL
MODEL      236
REMARK 921   NORMALIZED FREE ENERGY PREDICTED BY IDOCK:   -3.17 KCAL/MOL
REMARK 922        TOTAL FREE ENERGY PREDICTED BY IDOCK:   -4.14 KCAL/MOL
REMARK 923 INTER-LIGAND FREE ENERGY PREDICTED BY IDOCK:   -3.70 KCAL/MOL
REMARK 924 INTRA-LIGAND FREE ENERGY PREDICTED BY IDOCK:   -0.44 KCAL/MOL
REMARK 927      BINDING AFFINITY PREDICTED BY RF-SCORE:    0.00 PKD
ROOT
HETATM    1  N   UNL     1     -11.282   5.429  66.083  1.00  0.00    -0.750 N  
HETATM    2  C   UNL     1     -10.670   6.316  66.922  1.00  0.00    -0.339 C  
HETATM    3  H1  UNL     1     -11.196   4.422  66.224  1.00  0.00     0.000 HD 
HETATM    4  H2  UNL     1     -11.835   5.779  65.301  1.00  0.00     0.000 HD 
HETATM    5  O   UNL     1     -10.774   7.527  66.752  1.00  0.00    -0.319 OA 
ENDROOT
BRANCH   2   6
HETATM    6  C   UNL     1      -9.888   5.711  67.987  1.00  0.00    -0.133 A  
HETATM    7  C   UNL     1     -10.359   5.127  69.146  1.00  0.00    -0.156 A  
HETATM    8  N   UNL     1      -9.230   4.805  69.843  1.00  0.00    -0.114 NA 
HETATM    9  N   UNL     1      -8.512   5.676  68.002  1.00  0.00    -0.103 NA 
HETATM   10  N   UNL     1      -8.122   5.123  69.143  1.00  0.00    -0.084 NA 
BRANCH   8  11
HETATM   11  C   UNL     1      -9.134   4.486  71.256  1.00  0.00    -0.130 C  
BRANCH  11  12
HETATM   12  C   UNL     1      -9.143   5.680  72.160  1.00  0.00    -0.147 A  
HETATM   13  C   UNL     1     -10.341   6.208  72.641  1.00  0.00    -0.196 A  
HETATM   14  C   UNL     1     -10.358   7.202  73.621  1.00  0.00    -0.411 A  
HETATM   15  F   UNL     1     -11.509   5.722  72.201  1.00  0.00    -0.312 F  
HETATM   16  C   UNL     1      -9.158   7.700  74.125  1.00  0.00    -0.207 A  
HETATM   17  C   UNL     1      -7.951   7.226  73.614  1.00  0.00    -0.133 A  
HETATM   18  C   UNL     1      -7.954   6.231  72.636  1.00  0.00    -0.106 A  
HETATM   19  F   UNL     1      -6.781   5.766  72.185  1.00  0.00    -0.058 F  
ENDBRANCH  11  12
ENDBRANCH   8  11
ENDBRANCH   2   6
TORSDOF 3
ENDMDL
MODEL      237
REMARK 921   NORMALIZED FREE ENERGY PREDICTED BY IDOCK:   -3.15 KCAL/MOL
REMARK 922        TOTAL FREE ENERGY PREDICTED BY IDOCK:   -4.12 KCAL/MOL
REMARK 923 INTER-LIGAND FREE ENERGY PREDICTED BY IDOCK:   -3.81 KCAL/MOL
REMARK 924 INTRA-LIGAND FREE ENERGY PREDICTED BY IDOCK:   -0.31 KCAL/MOL
REMARK 927      BINDING AFFINITY PREDICTED BY RF-SCORE:    0.00 PKD
ROOT
HETATM    1  N   UNL     1      -7.418  20.989  67.315  1.00  0.00    -0.516 N  
HETATM    2  C   UNL     1      -6.402  20.513  66.536  1.00  0.00    -0.223 C  
HETATM    3  H1  UNL     1      -8.048  20.356  67.809  1.00  0.00     0.000 HD 
HETATM    4  H2  UNL     1      -7.550  21.997  67.406  1.00  0.00     0.000 HD 
HETATM    5  O   UNL     1      -5.644  21.276  65.943  1.00  0.00    -0.231 OA 
ENDROOT
BRANCH   2   6
HETATM    6  C   UNL     1      -6.319  19.064  66.458  1.00  0.00    -0.187 A  
HETATM    7  C   UNL     1      -7.365  18.167  66.374  1.00  0.00    -0.250 A  
HETATM    8  N   UNL     1      -6.762  16.942  66.421  1.00  0.00    -0.189 NA 
HETATM    9  N   UNL     1      -5.136  18.362  66.502  1.00  0.00    -0.136 NA 
HETATM   10  N   UNL     1      -5.421  17.066  66.482  1.00  0.00    -0.330 NA 
BRANCH   8  11
HETATM   11  C   UNL     1      -7.392  15.668  66.711  1.00  0.00     0.045 C  
BRANCH  11  12
HETATM   12  C   UNL     1      -8.655  15.770  67.510  1.00  0.00    -0.180 A  
HETATM   13  C   UNL     1      -8.620  15.842  68.903  1.00  0.00    -0.220 A  
HETATM   14  C   UNL     1      -9.768  16.115  69.647  1.00  0.00    -0.110 A  
HETATM   15  F   UNL     1      -7.456  15.700  69.549  1.00  0.00    -0.184 F  
HETATM   16  C   UNL     1     -10.987  16.306  68.998  1.00  0.00    -0.325 A  
HETATM   17  C   UNL     1     -11.052  16.180  67.611  1.00  0.00    -0.212 A  
HETATM   18  C   UNL     1      -9.893  15.907  66.884  1.00  0.00    -0.243 A  
HETATM   19  F   UNL     1      -9.974  15.825  65.549  1.00  0.00    -0.318 F  
ENDBRANCH  11  12
ENDBRANCH   8  11
ENDBRANCH   2   6
TORSDOF 3
ENDMDL
MODEL      238
REMARK 921   NORMALIZED FREE ENERGY PREDICTED BY IDOCK:   -3.10 KCAL/MOL
REMARK 922        TOTAL FREE ENERGY PREDICTED BY IDOCK:   -4.05 KCAL/MOL
REMARK 923 INTER-LIGAND FREE ENERGY PREDICTED BY IDOCK:   -3.60 KCAL/MOL
REMARK 924 INTRA-LIGAND FREE ENERGY PREDICTED BY IDOCK:   -0.46 KCAL/MOL
REMARK 927      BINDING AFFINITY PREDICTED BY RF-SCORE:    0.00 PKD
ROOT
HETATM    1  N   UNL     1     -11.064  15.564  66.805  1.00  0.00    -0.261 N  
HETATM    2  C   UNL     1      -9.935  14.865  66.486  1.00  0.00    -0.265 C  
HETATM    3  H1  UNL     1     -11.988  15.231  66.528  1.00  0.00     0.000 HD 
HETATM    4  H2  UNL     1     -10.982  16.435  67.329  1.00  0.00     0.000 HD 
HETATM    5  O   UNL     1      -8.824  15.265  66.819  1.00  0.00    -0.232 OA 
ENDROOT
BRANCH   2   6
HETATM    6  C   UNL     1     -10.163  13.652  65.718  1.00  0.00    -0.308 A  
HETATM    7  C   UNL     1     -10.011  12.348  66.143  1.00  0.00    -0.253 A  
HETATM    8  N   UNL     1     -10.255  11.599  65.028  1.00  0.00    -0.263 NA 
HETATM    9  N   UNL     1     -10.537  13.644  64.393  1.00  0.00    -0.404 NA 
HETATM   10  N   UNL     1     -10.586  12.383  63.982  1.00  0.00    -0.379 NA 
BRANCH   8  11
HETATM   11  C   UNL     1      -9.905  10.207  64.814  1.00  0.00    -0.312 C  
BRANCH  11  12
HETATM   12  C   UNL     1      -8.443   9.911  64.940  1.00  0.00    -0.168 A  
HETATM   13  C   UNL     1      -7.921   9.350  66.106  1.00  0.00    -0.110 A  
HETATM   14  C   UNL     1      -6.599   8.906  66.172  1.00  0.00    -0.065 A  
HETATM   15  F   UNL     1      -8.709   9.180  67.175  1.00  0.00    -0.120 F  
HETATM   16  C   UNL     1      -5.767   9.036  65.062  1.00  0.00    -0.058 A  
HETATM   17  C   UNL     1      -6.254   9.648  63.908  1.00  0.00    -0.108 A  
HETATM   18  C   UNL     1      -7.578  10.084  63.860  1.00  0.00    -0.138 A  
HETATM   19  F   UNL     1      -8.034  10.638  62.728  1.00  0.00    -0.150 F  
ENDBRANCH  11  12
ENDBRANCH   8  11
ENDBRANCH   2   6
TORSDOF 3
ENDMDL
MODEL      239
REMARK 921   NORMALIZED FREE ENERGY PREDICTED BY IDOCK:   -3.09 KCAL/MOL
REMARK 922        TOTAL FREE ENERGY PREDICTED BY IDOCK:   -4.05 KCAL/MOL
REMARK 923 INTER-LIGAND FREE ENERGY PREDICTED BY IDOCK:   -3.59 KCAL/MOL
REMARK 924 INTRA-LIGAND FREE ENERGY PREDICTED BY IDOCK:   -0.46 KCAL/MOL
REMARK 927      BINDING AFFINITY PREDICTED BY RF-SCORE:    0.00 PKD
ROOT
HETATM    1  N   UNL     1     -11.431   6.731  66.820  1.00  0.00    -0.653 N  
HETATM    2  C   UNL     1     -10.482   7.695  67.012  1.00  0.00    -0.349 C  
HETATM    3  H1  UNL     1     -11.438   5.877  67.378  1.00  0.00     0.000 HD 
HETATM    4  H2  UNL     1     -12.147   6.869  66.107  1.00  0.00     0.000 HD 
HETATM    5  O   UNL     1     -10.475   8.723  66.341  1.00  0.00    -0.216 OA 
ENDROOT
BRANCH   2   6
HETATM    6  C   UNL     1      -9.497   7.388  68.035  1.00  0.00    -0.141 A  
HETATM    7  C   UNL     1      -9.286   6.176  68.661  1.00  0.00    -0.121 A  
HETATM    8  N   UNL     1      -8.326   6.441  69.595  1.00  0.00    -0.125 NA 
HETATM    9  N   UNL     1      -8.635   8.318  68.571  1.00  0.00    -0.133 NA 
HETATM   10  N   UNL     1      -7.927   7.727  69.525  1.00  0.00    -0.114 NA 
BRANCH   8  11
HETATM   11  C   UNL     1      -7.975   5.629  70.745  1.00  0.00    -0.112 C  
BRANCH  11  12
HETATM   12  C   UNL     1      -9.118   5.343  71.670  1.00  0.00    -0.154 A  
HETATM   13  C   UNL     1      -9.681   4.069  71.744  1.00  0.00    -0.171 A  
HETATM   14  C   UNL     1     -10.620   3.743  72.724  1.00  0.00    -0.198 A  
HETATM   15  F   UNL     1      -9.280   3.113  70.897  1.00  0.00    -0.144 F  
HETATM   16  C   UNL     1     -11.027   4.708  73.644  1.00  0.00    -0.392 A  
HETATM   17  C   UNL     1     -10.519   6.003  73.548  1.00  0.00    -0.275 A  
HETATM   18  C   UNL     1      -9.580   6.309  72.563  1.00  0.00    -0.142 A  
HETATM   19  F   UNL     1      -9.080   7.551  72.513  1.00  0.00    -0.148 F  
ENDBRANCH  11  12
ENDBRANCH   8  11
ENDBRANCH   2   6
TORSDOF 3
ENDMDL
MODEL      240
REMARK 921   NORMALIZED FREE ENERGY PREDICTED BY IDOCK:   -3.07 KCAL/MOL
REMARK 922        TOTAL FREE ENERGY PREDICTED BY IDOCK:   -4.02 KCAL/MOL
REMARK 923 INTER-LIGAND FREE ENERGY PREDICTED BY IDOCK:   -3.76 KCAL/MOL
REMARK 924 INTRA-LIGAND FREE ENERGY PREDICTED BY IDOCK:   -0.26 KCAL/MOL
REMARK 927      BINDING AFFINITY PREDICTED BY RF-SCORE:    0.00 PKD
ROOT
HETATM    1  N   UNL     1     -12.099  14.528  66.504  1.00  0.00    -0.365 N  
HETATM    2  C   UNL     1     -11.012  14.270  67.290  1.00  0.00    -0.297 C  
HETATM    3  H1  UNL     1     -12.802  13.811  66.322  1.00  0.00     0.000 HD 
HETATM    4  H2  UNL     1     -12.210  15.454  66.091  1.00  0.00     0.000 HD 
HETATM    5  O   UNL     1     -10.167  15.132  67.509  1.00  0.00    -0.236 OA 
ENDROOT
BRANCH   2   6
HETATM    6  C   UNL     1     -10.940  12.914  67.807  1.00  0.00    -0.243 A  
HETATM    7  C   UNL     1      -9.918  12.349  68.544  1.00  0.00    -0.170 A  
HETATM    8  N   UNL     1     -10.292  11.044  68.694  1.00  0.00    -0.185 NA 
HETATM    9  N   UNL     1     -11.904  11.957  67.583  1.00  0.00    -0.583 NA 
HETATM   10  N   UNL     1     -11.495  10.818  68.128  1.00  0.00    -0.432 NA 
BRANCH   8  11
HETATM   11  C   UNL     1      -9.447   9.931  69.082  1.00  0.00    -0.196 C  
BRANCH  11  12
HETATM   12  C   UNL     1      -9.295   8.875  68.030  1.00  0.00    -0.153 A  
HETATM   13  C   UNL     1      -8.196   8.869  67.171  1.00  0.00    -0.103 A  
HETATM   14  C   UNL     1      -7.949   7.798  66.311  1.00  0.00    -0.100 A  
HETATM   15  F   UNL     1      -7.320   9.882  67.202  1.00  0.00    -0.087 F  
HETATM   16  C   UNL     1      -8.823   6.712  66.286  1.00  0.00    -0.156 A  
HETATM   17  C   UNL     1      -9.959   6.728  67.095  1.00  0.00    -0.220 A  
HETATM   18  C   UNL     1     -10.187   7.807  67.949  1.00  0.00    -0.206 A  
HETATM   19  F   UNL     1     -11.267   7.783  68.742  1.00  0.00    -0.025 F  
ENDBRANCH  11  12
ENDBRANCH   8  11
ENDBRANCH   2   6
TORSDOF 3
ENDMDL
MODEL      241
REMARK 921   NORMALIZED FREE ENERGY PREDICTED BY IDOCK:   -3.05 KCAL/MOL
REMARK 922        TOTAL FREE ENERGY PREDICTED BY IDOCK:   -4.00 KCAL/MOL
REMARK 923 INTER-LIGAND FREE ENERGY PREDICTED BY IDOCK:   -3.58 KCAL/MOL
REMARK 924 INTRA-LIGAND FREE ENERGY PREDICTED BY IDOCK:   -0.41 KCAL/MOL
REMARK 927      BINDING AFFINITY PREDICTED BY RF-SCORE:    0.00 PKD
ROOT
HETATM    1  N   UNL     1      -8.044   6.503  65.020  1.00  0.00    -0.128 N  
HETATM    2  C   UNL     1      -8.720   5.422  65.511  1.00  0.00    -0.154 C  
HETATM    3  H1  UNL     1      -7.998   7.379  65.540  1.00  0.00     0.000 HD 
HETATM    4  H2  UNL     1      -7.577   6.432  64.115  1.00  0.00     0.000 HD 
HETATM    5  O   UNL     1      -8.776   4.368  64.885  1.00  0.00    -0.124 OA 
ENDROOT
BRANCH   2   6
HETATM    6  C   UNL     1      -9.368   5.639  66.794  1.00  0.00    -0.134 A  
HETATM    7  C   UNL     1      -8.981   5.147  68.024  1.00  0.00    -0.110 A  
HETATM    8  N   UNL     1      -9.966   5.557  68.876  1.00  0.00    -0.160 NA 
HETATM    9  N   UNL     1     -10.530   6.360  66.952  1.00  0.00    -0.252 NA 
HETATM   10  N   UNL     1     -10.887   6.300  68.229  1.00  0.00    -0.294 NA 
BRANCH   8  11
HETATM   11  C   UNL     1     -10.246   5.041  70.204  1.00  0.00    -0.259 C  
BRANCH  11  12
HETATM   12  C   UNL     1      -9.978   6.012  71.312  1.00  0.00    -0.223 A  
HETATM   13  C   UNL     1     -11.016   6.736  71.900  1.00  0.00    -0.239 A  
HETATM   14  C   UNL     1     -10.810   7.506  73.045  1.00  0.00    -0.445 A  
HETATM   15  F   UNL     1     -12.254   6.656  71.395  1.00  0.00    -0.355 F  
HETATM   16  C   UNL     1      -9.540   7.577  73.615  1.00  0.00    -0.347 A  
HETATM   17  C   UNL     1      -8.478   6.908  73.008  1.00  0.00    -0.128 A  
HETATM   18  C   UNL     1      -8.704   6.142  71.864  1.00  0.00    -0.137 A  
HETATM   19  F   UNL     1      -7.675   5.480  71.317  1.00  0.00    -0.094 F  
ENDBRANCH  11  12
ENDBRANCH   8  11
ENDBRANCH   2   6
TORSDOF 3
ENDMDL
MODEL      242
REMARK 921   NORMALIZED FREE ENERGY PREDICTED BY IDOCK:   -3.04 KCAL/MOL
REMARK 922        TOTAL FREE ENERGY PREDICTED BY IDOCK:   -3.98 KCAL/MOL
REMARK 923 INTER-LIGAND FREE ENERGY PREDICTED BY IDOCK:   -3.57 KCAL/MOL
REMARK 924 INTRA-LIGAND FREE ENERGY PREDICTED BY IDOCK:   -0.41 KCAL/MOL
REMARK 927      BINDING AFFINITY PREDICTED BY RF-SCORE:    0.00 PKD
ROOT
HETATM    1  N   UNL     1     -11.174   6.851  72.542  1.00  0.00    -0.262 N  
HETATM    2  C   UNL     1     -10.029   7.345  73.097  1.00  0.00    -0.268 C  
HETATM    3  H1  UNL     1     -11.384   6.988  71.552  1.00  0.00     0.000 HD 
HETATM    4  H2  UNL     1     -11.832   6.335  73.126  1.00  0.00     0.000 HD 
HETATM    5  O   UNL     1      -9.776   7.180  74.287  1.00  0.00    -0.263 OA 
ENDROOT
BRANCH   2   6
HETATM    6  C   UNL     1      -9.175   8.083  72.182  1.00  0.00    -0.172 A  
HETATM    7  C   UNL     1      -9.290   8.168  70.809  1.00  0.00    -0.158 A  
HETATM    8  N   UNL     1      -8.200   8.894  70.423  1.00  0.00    -0.122 NA 
HETATM    9  N   UNL     1      -8.062   8.792  72.576  1.00  0.00    -0.388 NA 
HETATM   10  N   UNL     1      -7.473   9.280  71.492  1.00  0.00    -0.338 NA 
BRANCH   8  11
HETATM   11  C   UNL     1      -7.643   8.993  69.087  1.00  0.00    -0.073 C  
BRANCH  11  12
HETATM   12  C   UNL     1      -8.601   9.502  68.055  1.00  0.00    -0.120 A  
HETATM   13  C   UNL     1      -8.821  10.870  67.891  1.00  0.00    -0.134 A  
HETATM   14  C   UNL     1      -9.569  11.365  66.822  1.00  0.00    -0.207 A  
HETATM   15  F   UNL     1      -8.263  11.742  68.740  1.00  0.00    -0.145 F  
HETATM   16  C   UNL     1     -10.130  10.482  65.900  1.00  0.00    -0.323 A  
HETATM   17  C   UNL     1      -9.970   9.109  66.081  1.00  0.00    -0.338 A  
HETATM   18  C   UNL     1      -9.218   8.634  67.155  1.00  0.00    -0.144 A  
HETATM   19  F   UNL     1      -9.049   7.311  67.289  1.00  0.00    -0.120 F  
ENDBRANCH  11  12
ENDBRANCH   8  11
ENDBRANCH   2   6
TORSDOF 3
ENDMDL
MODEL      243
REMARK 921   NORMALIZED FREE ENERGY PREDICTED BY IDOCK:   -3.04 KCAL/MOL
REMARK 922        TOTAL FREE ENERGY PREDICTED BY IDOCK:   -3.98 KCAL/MOL
REMARK 923 INTER-LIGAND FREE ENERGY PREDICTED BY IDOCK:   -3.57 KCAL/MOL
REMARK 924 INTRA-LIGAND FREE ENERGY PREDICTED BY IDOCK:   -0.41 KCAL/MOL
REMARK 927      BINDING AFFINITY PREDICTED BY RF-SCORE:    0.00 PKD
ROOT
HETATM    1  N   UNL     1      -7.220  17.066  68.787  1.00  0.00    -0.216 N  
HETATM    2  C   UNL     1      -7.127  15.703  68.750  1.00  0.00    -0.127 C  
HETATM    3  H1  UNL     1      -8.122  17.536  68.703  1.00  0.00     0.000 HD 
HETATM    4  H2  UNL     1      -6.373  17.622  68.902  1.00  0.00     0.000 HD 
HETATM    5  O   UNL     1      -6.043  15.137  68.852  1.00  0.00    -0.091 OA 
ENDROOT
BRANCH   2   6
HETATM    6  C   UNL     1      -8.390  15.009  68.559  1.00  0.00    -0.161 A  
HETATM    7  C   UNL     1      -8.590  13.774  67.976  1.00  0.00    -0.177 A  
HETATM    8  N   UNL     1      -9.947  13.626  67.957  1.00  0.00    -0.240 NA 
HETATM    9  N   UNL     1      -9.612  15.534  68.913  1.00  0.00    -0.206 NA 
HETATM   10  N   UNL     1     -10.556  14.680  68.537  1.00  0.00    -0.238 NA 
BRANCH   8  11
HETATM   11  C   UNL     1     -10.714  12.687  67.160  1.00  0.00    -0.241 C  
BRANCH  11  12
HETATM   12  C   UNL     1     -10.734  11.290  67.701  1.00  0.00    -0.270 A  
HETATM   13  C   UNL     1     -10.019  10.268  67.076  1.00  0.00    -0.201 A  
HETATM   14  C   UNL     1      -9.883   9.010  67.664  1.00  0.00    -0.220 A  
HETATM   15  F   UNL     1      -9.399  10.503  65.913  1.00  0.00    -0.178 F  
HETATM   16  C   UNL     1     -10.486   8.750  68.894  1.00  0.00    -0.217 A  
HETATM   17  C   UNL     1     -11.253   9.741  69.505  1.00  0.00    -0.181 A  
HETATM   18  C   UNL     1     -11.376  10.993  68.902  1.00  0.00    -0.280 A  
HETATM   19  F   UNL     1     -12.090  11.941  69.524  1.00  0.00    -0.324 F  
ENDBRANCH  11  12
ENDBRANCH   8  11
ENDBRANCH   2   6
TORSDOF 3
ENDMDL
MODEL      244
REMARK 921   NORMALIZED FREE ENERGY PREDICTED BY IDOCK:   -3.03 KCAL/MOL
REMARK 922        TOTAL FREE ENERGY PREDICTED BY IDOCK:   -3.97 KCAL/MOL
REMARK 923 INTER-LIGAND FREE ENERGY PREDICTED BY IDOCK:   -3.59 KCAL/MOL
REMARK 924 INTRA-LIGAND FREE ENERGY PREDICTED BY IDOCK:   -0.39 KCAL/MOL
REMARK 927      BINDING AFFINITY PREDICTED BY RF-SCORE:    0.00 PKD
ROOT
HETATM    1  N   UNL     1      -5.714   8.376  66.212  1.00  0.00    -0.042 N  
HETATM    2  C   UNL     1      -6.959   8.632  65.711  1.00  0.00    -0.075 C  
HETATM    3  H1  UNL     1      -5.366   8.863  67.038  1.00  0.00     0.000 HD 
HETATM    4  H2  UNL     1      -5.121   7.685  65.751  1.00  0.00     0.000 HD 
HETATM    5  O   UNL     1      -7.377   8.046  64.718  1.00  0.00    -0.074 OA 
ENDROOT
BRANCH   2   6
HETATM    6  C   UNL     1      -7.709   9.649  66.429  1.00  0.00    -0.101 A  
HETATM    7  C   UNL     1      -8.996   9.555  66.919  1.00  0.00    -0.131 A  
HETATM    8  N   UNL     1      -9.259  10.799  67.417  1.00  0.00    -0.147 NA 
HETATM    9  N   UNL     1      -7.228  10.913  66.689  1.00  0.00    -0.132 NA 
HETATM   10  N   UNL     1      -8.186  11.606  67.291  1.00  0.00    -0.152 NA 
BRANCH   8  11
HETATM   11  C   UNL     1     -10.560  11.357  67.736  1.00  0.00    -0.195 C  
BRANCH  11  12
HETATM   12  C   UNL     1     -11.041  12.393  66.768  1.00  0.00    -0.333 A  
HETATM   13  C   UNL     1     -11.434  12.043  65.476  1.00  0.00    -0.313 A  
HETATM   14  C   UNL     1     -12.050  12.964  64.627  1.00  0.00    -0.474 A  
HETATM   15  F   UNL     1     -11.270  10.785  65.048  1.00  0.00    -0.139 F  
HETATM   16  C   UNL     1     -12.267  14.271  65.061  1.00  0.00    -0.438 A  
HETATM   17  C   UNL     1     -11.829  14.654  66.327  1.00  0.00    -0.299 A  
HETATM   18  C   UNL     1     -11.216  13.719  67.162  1.00  0.00    -0.311 A  
HETATM   19  F   UNL     1     -10.834  14.102  68.388  1.00  0.00    -0.231 F  
ENDBRANCH  11  12
ENDBRANCH   8  11
ENDBRANCH   2   6
TORSDOF 3
ENDMDL
MODEL      245
REMARK 921   NORMALIZED FREE ENERGY PREDICTED BY IDOCK:   -3.02 KCAL/MOL
REMARK 922        TOTAL FREE ENERGY PREDICTED BY IDOCK:   -3.96 KCAL/MOL
REMARK 923 INTER-LIGAND FREE ENERGY PREDICTED BY IDOCK:   -3.52 KCAL/MOL
REMARK 924 INTRA-LIGAND FREE ENERGY PREDICTED BY IDOCK:   -0.44 KCAL/MOL
REMARK 927      BINDING AFFINITY PREDICTED BY RF-SCORE:    0.00 PKD
ROOT
HETATM    1  N   UNL     1      -5.155   9.583  66.690  1.00  0.00    -0.039 N  
HETATM    2  C   UNL     1      -6.226   9.917  67.469  1.00  0.00    -0.059 C  
HETATM    3  H1  UNL     1      -4.528  10.297  66.317  1.00  0.00     0.000 HD 
HETATM    4  H2  UNL     1      -4.978   8.601  66.477  1.00  0.00     0.000 HD 
HETATM    5  O   UNL     1      -6.979   9.059  67.917  1.00  0.00    -0.076 OA 
ENDROOT
BRANCH   2   6
HETATM    6  C   UNL     1      -6.399  11.344  67.690  1.00  0.00    -0.062 A  
HETATM    7  C   UNL     1      -7.314  11.960  68.519  1.00  0.00    -0.111 A  
HETATM    8  N   UNL     1      -7.128  13.294  68.294  1.00  0.00    -0.096 NA 
HETATM    9  N   UNL     1      -5.669  12.313  67.039  1.00  0.00    -0.296 NA 
HETATM   10  N   UNL     1      -6.127  13.501  67.415  1.00  0.00    -0.336 NA 
BRANCH   8  11
HETATM   11  C   UNL     1      -8.036  14.374  68.634  1.00  0.00    -0.145 C  
BRANCH  11  12
HETATM   12  C   UNL     1      -9.238  14.473  67.745  1.00  0.00    -0.194 A  
HETATM   13  C   UNL     1      -9.206  15.232  66.576  1.00  0.00    -0.290 A  
HETATM   14  C   UNL     1     -10.252  15.191  65.652  1.00  0.00    -0.387 A  
HETATM   15  F   UNL     1      -8.131  15.980  66.295  1.00  0.00    -0.297 F  
HETATM   16  C   UNL     1     -11.366  14.391  65.900  1.00  0.00    -0.332 A  
HETATM   17  C   UNL     1     -11.442  13.671  67.091  1.00  0.00    -0.367 A  
HETATM   18  C   UNL     1     -10.386  13.725  68.002  1.00  0.00    -0.246 A  
HETATM   19  F   UNL     1     -10.466  12.997  69.125  1.00  0.00    -0.186 F  
ENDBRANCH  11  12
ENDBRANCH   8  11
ENDBRANCH   2   6
TORSDOF 3
ENDMDL
MODEL      246
REMARK 921   NORMALIZED FREE ENERGY PREDICTED BY IDOCK:   -3.00 KCAL/MOL
REMARK 922        TOTAL FREE ENERGY PREDICTED BY IDOCK:   -3.94 KCAL/MOL
REMARK 923 INTER-LIGAND FREE ENERGY PREDICTED BY IDOCK:   -3.58 KCAL/MOL
REMARK 924 INTRA-LIGAND FREE ENERGY PREDICTED BY IDOCK:   -0.37 KCAL/MOL
REMARK 927      BINDING AFFINITY PREDICTED BY RF-SCORE:    0.00 PKD
ROOT
HETATM    1  N   UNL     1      -8.628   7.964  74.485  1.00  0.00    -0.446 N  
HETATM    2  C   UNL     1      -8.285   7.062  73.518  1.00  0.00    -0.112 C  
HETATM    3  H1  UNL     1      -9.110   8.832  74.251  1.00  0.00     0.000 HD 
HETATM    4  H2  UNL     1      -8.399   7.765  75.459  1.00  0.00     0.000 HD 
HETATM    5  O   UNL     1      -7.705   6.017  73.799  1.00  0.00    -0.096 OA 
ENDROOT
BRANCH   2   6
HETATM    6  C   UNL     1      -8.637   7.455  72.163  1.00  0.00    -0.113 A  
HETATM    7  C   UNL     1      -9.894   7.475  71.594  1.00  0.00    -0.161 A  
HETATM    8  N   UNL     1      -9.670   7.823  70.293  1.00  0.00    -0.179 NA 
HETATM    9  N   UNL     1      -7.715   7.835  71.213  1.00  0.00    -0.082 NA 
HETATM   10  N   UNL     1      -8.359   8.055  70.074  1.00  0.00    -0.122 NA 
BRANCH   8  11
HETATM   11  C   UNL     1     -10.580   7.664  69.175  1.00  0.00    -0.186 C  
BRANCH  11  12
HETATM   12  C   UNL     1     -10.654   8.850  68.264  1.00  0.00    -0.203 A  
HETATM   13  C   UNL     1     -11.160  10.070  68.713  1.00  0.00    -0.173 A  
HETATM   14  C   UNL     1     -11.070  11.226  67.936  1.00  0.00    -0.325 A  
HETATM   15  F   UNL     1     -11.696  10.160  69.937  1.00  0.00    -0.270 F  
HETATM   16  C   UNL     1     -10.481  11.170  66.674  1.00  0.00    -0.298 A  
HETATM   17  C   UNL     1     -10.024   9.948  66.185  1.00  0.00    -0.331 A  
HETATM   18  C   UNL     1     -10.121   8.804  66.977  1.00  0.00    -0.265 A  
HETATM   19  F   UNL     1      -9.643   7.646  66.499  1.00  0.00    -0.214 F  
ENDBRANCH  11  12
ENDBRANCH   8  11
ENDBRANCH   2   6
TORSDOF 3
ENDMDL
MODEL      247
REMARK 921   NORMALIZED FREE ENERGY PREDICTED BY IDOCK:   -2.94 KCAL/MOL
REMARK 922        TOTAL FREE ENERGY PREDICTED BY IDOCK:   -3.86 KCAL/MOL
REMARK 923 INTER-LIGAND FREE ENERGY PREDICTED BY IDOCK:   -3.49 KCAL/MOL
REMARK 924 INTRA-LIGAND FREE ENERGY PREDICTED BY IDOCK:   -0.38 KCAL/MOL
REMARK 927      BINDING AFFINITY PREDICTED BY RF-SCORE:    0.00 PKD
ROOT
HETATM    1  N   UNL     1     -12.445   8.197  72.862  1.00  0.00    -0.571 N  
HETATM    2  C   UNL     1     -12.725   7.571  71.680  1.00  0.00    -0.355 C  
HETATM    3  H1  UNL     1     -11.483   8.376  73.151  1.00  0.00     0.000 HD 
HETATM    4  H2  UNL     1     -13.213   8.492  73.466  1.00  0.00     0.000 HD 
HETATM    5  O   UNL     1     -13.882   7.356  71.332  1.00  0.00    -0.393 OA 
ENDROOT
BRANCH   2   6
HETATM    6  C   UNL     1     -11.559   7.173  70.909  1.00  0.00    -0.311 A  
HETATM    7  C   UNL     1     -11.490   6.197  69.935  1.00  0.00    -0.301 A  
HETATM    8  N   UNL     1     -10.167   6.153  69.596  1.00  0.00    -0.187 NA 
HETATM    9  N   UNL     1     -10.304   7.711  71.086  1.00  0.00    -0.200 NA 
HETATM   10  N   UNL     1      -9.462   7.077  70.280  1.00  0.00    -0.165 NA 
BRANCH   8  11
HETATM   11  C   UNL     1      -9.482   5.092  68.882  1.00  0.00    -0.134 C  
BRANCH  11  12
HETATM   12  C   UNL     1      -8.631   5.563  67.744  1.00  0.00    -0.108 A  
HETATM   13  C   UNL     1      -7.254   5.730  67.896  1.00  0.00    -0.072 A  
HETATM   14  C   UNL     1      -6.427   5.994  66.804  1.00  0.00    -0.050 A  
HETATM   15  F   UNL     1      -6.695   5.582  69.104  1.00  0.00    -0.044 F  
HETATM   16  C   UNL     1      -6.977   6.115  65.529  1.00  0.00    -0.060 A  
HETATM   17  C   UNL     1      -8.358   6.010  65.366  1.00  0.00    -0.150 A  
HETATM   18  C   UNL     1      -9.168   5.745  66.470  1.00  0.00    -0.143 A  
HETATM   19  F   UNL     1     -10.489   5.614  66.284  1.00  0.00    -0.242 F  
ENDBRANCH  11  12
ENDBRANCH   8  11
ENDBRANCH   2   6
TORSDOF 3
ENDMDL
MODEL      248
REMARK 921   NORMALIZED FREE ENERGY PREDICTED BY IDOCK:   -2.93 KCAL/MOL
REMARK 922        TOTAL FREE ENERGY PREDICTED BY IDOCK:   -3.86 KCAL/MOL
REMARK 923 INTER-LIGAND FREE ENERGY PREDICTED BY IDOCK:   -3.81 KCAL/MOL
REMARK 924 INTRA-LIGAND FREE ENERGY PREDICTED BY IDOCK:   -0.05 KCAL/MOL
REMARK 927      BINDING AFFINITY PREDICTED BY RF-SCORE:    0.00 PKD
ROOT
HETATM    1  N   UNL     1      -9.123   6.028  68.374  1.00  0.00    -0.113 N  
HETATM    2  C   UNL     1     -10.253   6.610  68.875  1.00  0.00    -0.177 C  
HETATM    3  H1  UNL     1      -8.248   6.549  68.301  1.00  0.00     0.000 HD 
HETATM    4  H2  UNL     1      -9.154   5.056  68.068  1.00  0.00     0.000 HD 
HETATM    5  O   UNL     1     -11.305   5.983  68.963  1.00  0.00    -0.340 OA 
ENDROOT
BRANCH   2   6
HETATM    6  C   UNL     1     -10.105   8.004  69.258  1.00  0.00    -0.198 A  
HETATM    7  C   UNL     1      -9.800   9.072  68.440  1.00  0.00    -0.166 A  
HETATM    8  N   UNL     1      -9.685  10.130  69.295  1.00  0.00    -0.213 NA 
HETATM    9  N   UNL     1     -10.211   8.456  70.555  1.00  0.00    -0.193 NA 
HETATM   10  N   UNL     1      -9.950   9.757  70.564  1.00  0.00    -0.248 NA 
BRANCH   8  11
HETATM   11  C   UNL     1      -9.052  11.408  69.027  1.00  0.00     0.084 C  
BRANCH  11  12
HETATM   12  C   UNL     1      -9.923  12.389  68.303  1.00  0.00    -0.224 A  
HETATM   13  C   UNL     1     -11.221  12.656  68.739  1.00  0.00    -0.280 A  
HETATM   14  C   UNL     1     -11.976  13.691  68.186  1.00  0.00    -0.390 A  
HETATM   15  F   UNL     1     -11.746  11.945  69.745  1.00  0.00    -0.325 F  
HETATM   16  C   UNL     1     -11.441  14.472  67.163  1.00  0.00    -0.383 A  
HETATM   17  C   UNL     1     -10.167  14.182  66.675  1.00  0.00    -0.270 A  
HETATM   18  C   UNL     1      -9.428  13.144  67.241  1.00  0.00    -0.225 A  
HETATM   19  F   UNL     1      -8.192  12.906  66.778  1.00  0.00    -0.153 F  
ENDBRANCH  11  12
ENDBRANCH   8  11
ENDBRANCH   2   6
TORSDOF 3
ENDMDL
MODEL      249
REMARK 921   NORMALIZED FREE ENERGY PREDICTED BY IDOCK:   -2.92 KCAL/MOL
REMARK 922        TOTAL FREE ENERGY PREDICTED BY IDOCK:   -3.84 KCAL/MOL
REMARK 923 INTER-LIGAND FREE ENERGY PREDICTED BY IDOCK:   -3.48 KCAL/MOL
REMARK 924 INTRA-LIGAND FREE ENERGY PREDICTED BY IDOCK:   -0.36 KCAL/MOL
REMARK 927      BINDING AFFINITY PREDICTED BY RF-SCORE:    0.00 PKD
ROOT
HETATM    1  N   UNL     1     -12.445   8.197  72.864  1.00  0.00    -0.571 N  
HETATM    2  C   UNL     1     -12.720   7.569  71.682  1.00  0.00    -0.355 C  
HETATM    3  H1  UNL     1     -11.484   8.377  73.156  1.00  0.00     0.000 HD 
HETATM    4  H2  UNL     1     -13.215   8.493  73.464  1.00  0.00     0.000 HD 
HETATM    5  O   UNL     1     -13.875   7.353  71.330  1.00  0.00    -0.393 OA 
ENDROOT
BRANCH   2   6
HETATM    6  C   UNL     1     -11.550   7.170  70.916  1.00  0.00    -0.311 A  
HETATM    7  C   UNL     1     -11.477   6.192  69.944  1.00  0.00    -0.301 A  
HETATM    8  N   UNL     1     -10.153   6.148  69.611  1.00  0.00    -0.170 NA 
HETATM    9  N   UNL     1     -10.296   7.709  71.097  1.00  0.00    -0.200 NA 
HETATM   10  N   UNL     1      -9.451   7.074  70.296  1.00  0.00    -0.165 NA 
BRANCH   8  11
HETATM   11  C   UNL     1      -9.464   5.086  68.902  1.00  0.00    -0.140 C  
BRANCH  11  12
HETATM   12  C   UNL     1      -8.607   5.556  67.767  1.00  0.00    -0.108 A  
HETATM   13  C   UNL     1      -9.162   5.853  66.522  1.00  0.00    -0.145 A  
HETATM   14  C   UNL     1      -8.409   6.459  65.515  1.00  0.00    -0.147 A  
HETATM   15  F   UNL     1     -10.458   5.607  66.294  1.00  0.00    -0.242 F  
HETATM   16  C   UNL     1      -7.067   6.761  65.738  1.00  0.00    -0.072 A  
HETATM   17  C   UNL     1      -6.480   6.418  66.955  1.00  0.00    -0.046 A  
HETATM   18  C   UNL     1      -7.249   5.814  67.950  1.00  0.00    -0.072 A  
HETATM   19  F   UNL     1      -6.672   5.525  69.124  1.00  0.00    -0.044 F  
ENDBRANCH  11  12
ENDBRANCH   8  11
ENDBRANCH   2   6
TORSDOF 3
ENDMDL
MODEL      250
REMARK 921   NORMALIZED FREE ENERGY PREDICTED BY IDOCK:   -2.84 KCAL/MOL
REMARK 922        TOTAL FREE ENERGY PREDICTED BY IDOCK:   -3.75 KCAL/MOL
REMARK 923 INTER-LIGAND FREE ENERGY PREDICTED BY IDOCK:   -3.33 KCAL/MOL
REMARK 924 INTRA-LIGAND FREE ENERGY PREDICTED BY IDOCK:   -0.42 KCAL/MOL
REMARK 927      BINDING AFFINITY PREDICTED BY RF-SCORE:    0.00 PKD
ROOT
HETATM    1  N   UNL     1      -7.355  15.708  69.150  1.00  0.00    -0.172 N  
HETATM    2  C   UNL     1      -6.517  14.631  69.217  1.00  0.00    -0.122 C  
HETATM    3  H1  UNL     1      -8.135  15.732  68.492  1.00  0.00     0.000 HD 
HETATM    4  H2  UNL     1      -7.198  16.503  69.770  1.00  0.00     0.000 HD 
HETATM    5  O   UNL     1      -5.580  14.602  70.008  1.00  0.00    -0.102 OA 
ENDROOT
BRANCH   2   6
HETATM    6  C   UNL     1      -6.816  13.566  68.274  1.00  0.00    -0.108 A  
HETATM    7  C   UNL     1      -7.998  12.863  68.147  1.00  0.00    -0.153 A  
HETATM    8  N   UNL     1      -7.730  11.923  67.194  1.00  0.00    -0.159 NA 
HETATM    9  N   UNL     1      -5.905  13.064  67.371  1.00  0.00    -0.325 NA 
HETATM   10  N   UNL     1      -6.475  12.059  66.720  1.00  0.00    -0.059 NA 
BRANCH   8  11
HETATM   11  C   UNL     1      -8.488  10.717  66.916  1.00  0.00    -0.131 C  
BRANCH  11  12
HETATM   12  C   UNL     1      -9.174  10.712  65.584  1.00  0.00    -0.227 A  
HETATM   13  C   UNL     1     -10.321  11.474  65.364  1.00  0.00    -0.273 A  
HETATM   14  C   UNL     1     -10.865  11.619  64.086  1.00  0.00    -0.433 A  
HETATM   15  F   UNL     1     -10.892  12.130  66.382  1.00  0.00    -0.264 F  
HETATM   16  C   UNL     1     -10.269  10.978  63.002  1.00  0.00    -0.232 A  
HETATM   17  C   UNL     1      -9.156  10.165  63.212  1.00  0.00    -0.293 A  
HETATM   18  C   UNL     1      -8.626  10.034  64.496  1.00  0.00    -0.187 A  
HETATM   19  F   UNL     1      -7.536   9.275  64.669  1.00  0.00    -0.095 F  
ENDBRANCH  11  12
ENDBRANCH   8  11
ENDBRANCH   2   6
TORSDOF 3
ENDMDL
MODEL      251
REMARK 921   NORMALIZED FREE ENERGY PREDICTED BY IDOCK:   -2.82 KCAL/MOL
REMARK 922        TOTAL FREE ENERGY PREDICTED BY IDOCK:   -3.73 KCAL/MOL
REMARK 923 INTER-LIGAND FREE ENERGY PREDICTED BY IDOCK:   -3.34 KCAL/MOL
REMARK 924 INTRA-LIGAND FREE ENERGY PREDICTED BY IDOCK:   -0.39 KCAL/MOL
REMARK 927      BINDING AFFINITY PREDICTED BY RF-SCORE:    0.00 PKD
ROOT
HETATM    1  N   UNL     1     -11.942   7.884  72.863  1.00  0.00    -0.619 N  
HETATM    2  C   UNL     1     -12.208   7.775  71.528  1.00  0.00    -0.318 C  
HETATM    3  H1  UNL     1     -11.212   8.508  73.207  1.00  0.00     0.000 HD 
HETATM    4  H2  UNL     1     -12.482   7.330  73.528  1.00  0.00     0.000 HD 
HETATM    5  O   UNL     1     -13.086   7.023  71.113  1.00  0.00    -0.345 OA 
ENDROOT
BRANCH   2   6
HETATM    6  C   UNL     1     -11.365   8.588  70.668  1.00  0.00    -0.241 A  
HETATM    7  C   UNL     1     -10.512   8.153  69.673  1.00  0.00    -0.224 A  
HETATM    8  N   UNL     1      -9.892   9.290  69.240  1.00  0.00    -0.167 NA 
HETATM    9  N   UNL     1     -11.269   9.958  70.764  1.00  0.00    -0.329 NA 
HETATM   10  N   UNL     1     -10.363  10.374  69.888  1.00  0.00    -0.224 NA 
BRANCH   8  11
HETATM   11  C   UNL     1      -8.672   9.378  68.459  1.00  0.00    -0.128 C  
BRANCH  11  12
HETATM   12  C   UNL     1      -8.541   8.331  67.397  1.00  0.00    -0.125 A  
HETATM   13  C   UNL     1      -9.254   8.426  66.202  1.00  0.00    -0.205 A  
HETATM   14  C   UNL     1      -9.009   7.559  65.136  1.00  0.00     0.317 A  
HETATM   15  F   UNL     1     -10.159   9.400  66.041  1.00  0.00    -0.340 F  
HETATM   16  C   UNL     1      -8.046   6.560  65.262  1.00  0.00    -0.133 A  
HETATM   17  C   UNL     1      -7.365   6.412  66.469  1.00  0.00    -0.078 A  
HETATM   18  C   UNL     1      -7.623   7.289  67.522  1.00  0.00    -0.109 A  
HETATM   19  F   UNL     1      -6.931   7.149  68.662  1.00  0.00    -0.069 F  
ENDBRANCH  11  12
ENDBRANCH   8  11
ENDBRANCH   2   6
TORSDOF 3
ENDMDL
MODEL      252
REMARK 921   NORMALIZED FREE ENERGY PREDICTED BY IDOCK:   -2.82 KCAL/MOL
REMARK 922        TOTAL FREE ENERGY PREDICTED BY IDOCK:   -3.72 KCAL/MOL
REMARK 923 INTER-LIGAND FREE ENERGY PREDICTED BY IDOCK:   -3.26 KCAL/MOL
REMARK 924 INTRA-LIGAND FREE ENERGY PREDICTED BY IDOCK:   -0.46 KCAL/MOL
REMARK 927      BINDING AFFINITY PREDICTED BY RF-SCORE:    0.00 PKD
ROOT
HETATM    1  N   UNL     1     -11.556  12.928  64.336  1.00  0.00    -0.342 N  
HETATM    2  C   UNL     1     -11.268  13.667  65.448  1.00  0.00    -0.298 C  
HETATM    3  H1  UNL     1     -11.097  12.034  64.162  1.00  0.00     0.000 HD 
HETATM    4  H2  UNL     1     -12.244  13.276  63.668  1.00  0.00     0.000 HD 
HETATM    5  O   UNL     1     -11.821  14.743  65.658  1.00  0.00    -0.314 OA 
ENDROOT
BRANCH   2   6
HETATM    6  C   UNL     1     -10.258  13.091  66.320  1.00  0.00    -0.288 A  
HETATM    7  C   UNL     1      -9.292  12.163  65.988  1.00  0.00    -0.170 A  
HETATM    8  N   UNL     1      -8.669  11.886  67.171  1.00  0.00    -0.169 NA 
HETATM    9  N   UNL     1     -10.154  13.376  67.663  1.00  0.00    -0.225 NA 
HETATM   10  N   UNL     1      -9.181  12.631  68.172  1.00  0.00    -0.206 NA 
BRANCH   8  11
HETATM   11  C   UNL     1      -7.821  10.747  67.468  1.00  0.00    -0.109 C  
BRANCH  11  12
HETATM   12  C   UNL     1      -8.479   9.417  67.266  1.00  0.00    -0.125 A  
HETATM   13  C   UNL     1      -8.246   8.668  66.113  1.00  0.00    -0.121 A  
HETATM   14  C   UNL     1      -8.708   7.356  65.991  1.00  0.00    -0.171 A  
HETATM   15  F   UNL     1      -7.519   9.188  65.116  1.00  0.00    -0.092 F  
HETATM   16  C   UNL     1      -9.434   6.777  67.030  1.00  0.00    -0.175 A  
HETATM   17  C   UNL     1      -9.727   7.530  68.165  1.00  0.00    -0.167 A  
HETATM   18  C   UNL     1      -9.256   8.839  68.269  1.00  0.00    -0.140 A  
HETATM   19  F   UNL     1      -9.521   9.533  69.385  1.00  0.00    -0.148 F  
ENDBRANCH  11  12
ENDBRANCH   8  11
ENDBRANCH   2   6
TORSDOF 3
ENDMDL
MODEL      253
REMARK 921   NORMALIZED FREE ENERGY PREDICTED BY IDOCK:   -2.80 KCAL/MOL
REMARK 922        TOTAL FREE ENERGY PREDICTED BY IDOCK:   -3.71 KCAL/MOL
REMARK 923 INTER-LIGAND FREE ENERGY PREDICTED BY IDOCK:   -3.55 KCAL/MOL
REMARK 924 INTRA-LIGAND FREE ENERGY PREDICTED BY IDOCK:   -0.16 KCAL/MOL
REMARK 927      BINDING AFFINITY PREDICTED BY RF-SCORE:    0.00 PKD
ROOT
HETATM    1  N   UNL     1     -14.407  11.794  72.260  1.00  0.00     0.500 N  
HETATM    2  C   UNL     1     -13.100  11.918  71.880  1.00  0.00    -0.369 C  
HETATM    3  H1  UNL     1     -15.013  12.611  72.344  1.00  0.00     0.000 HD 
HETATM    4  H2  UNL     1     -14.784  10.868  72.464  1.00  0.00     0.000 HD 
HETATM    5  O   UNL     1     -12.372  10.935  71.779  1.00  0.00    -0.229 OA 
ENDROOT
BRANCH   2   6
HETATM    6  C   UNL     1     -12.661  13.282  71.638  1.00  0.00    -0.154 A  
HETATM    7  C   UNL     1     -12.044  13.777  70.507  1.00  0.00    -0.345 A  
HETATM    8  N   UNL     1     -11.756  15.075  70.821  1.00  0.00    -0.299 NA 
HETATM    9  N   UNL     1     -12.767  14.296  72.564  1.00  0.00    -0.318 NA 
HETATM   10  N   UNL     1     -12.208  15.385  72.053  1.00  0.00    -0.346 NA 
BRANCH   8  11
HETATM   11  C   UNL     1     -10.819  15.952  70.144  1.00  0.00    -0.353 C  
BRANCH  11  12
HETATM   12  C   UNL     1     -10.354  15.448  68.813  1.00  0.00    -0.229 A  
HETATM   13  C   UNL     1     -11.219  15.402  67.719  1.00  0.00    -0.321 A  
HETATM   14  C   UNL     1     -10.756  15.107  66.436  1.00  0.00    -0.317 A  
HETATM   15  F   UNL     1     -12.514  15.698  67.881  1.00  0.00     0.180 F  
HETATM   16  C   UNL     1      -9.405  14.832  66.232  1.00  0.00    -0.310 A  
HETATM   17  C   UNL     1      -8.536  14.816  67.322  1.00  0.00    -0.234 A  
HETATM   18  C   UNL     1      -9.017  15.115  68.596  1.00  0.00    -0.191 A  
HETATM   19  F   UNL     1      -8.157  15.127  69.624  1.00  0.00    -0.211 F  
ENDBRANCH  11  12
ENDBRANCH   8  11
ENDBRANCH   2   6
TORSDOF 3
ENDMDL
MODEL      254
REMARK 921   NORMALIZED FREE ENERGY PREDICTED BY IDOCK:   -2.79 KCAL/MOL
REMARK 922        TOTAL FREE ENERGY PREDICTED BY IDOCK:   -3.68 KCAL/MOL
REMARK 923 INTER-LIGAND FREE ENERGY PREDICTED BY IDOCK:   -3.26 KCAL/MOL
REMARK 924 INTRA-LIGAND FREE ENERGY PREDICTED BY IDOCK:   -0.42 KCAL/MOL
REMARK 927      BINDING AFFINITY PREDICTED BY RF-SCORE:    0.00 PKD
ROOT
HETATM    1  N   UNL     1     -11.986  11.485  63.266  1.00  0.00    -0.877 N  
HETATM    2  C   UNL     1     -12.295  12.765  63.631  1.00  0.00    -0.463 C  
HETATM    3  H1  UNL     1     -11.605  10.821  63.940  1.00  0.00     0.000 HD 
HETATM    4  H2  UNL     1     -12.140  11.189  62.302  1.00  0.00     0.000 HD 
HETATM    5  O   UNL     1     -12.754  13.564  62.821  1.00  0.00    -0.419 OA 
ENDROOT
BRANCH   2   6
HETATM    6  C   UNL     1     -12.015  13.089  65.020  1.00  0.00    -0.397 A  
HETATM    7  C   UNL     1     -11.392  14.219  65.510  1.00  0.00    -0.325 A  
HETATM    8  N   UNL     1     -11.291  13.992  66.853  1.00  0.00    -0.316 NA 
HETATM    9  N   UNL     1     -12.310  12.254  66.075  1.00  0.00    -0.494 NA 
HETATM   10  N   UNL     1     -11.859  12.816  67.189  1.00  0.00    -0.374 NA 
BRANCH   8  11
HETATM   11  C   UNL     1     -10.429  14.682  67.794  1.00  0.00    -0.246 C  
BRANCH  11  12
HETATM   12  C   UNL     1      -8.965  14.453  67.573  1.00  0.00    -0.192 A  
HETATM   13  C   UNL     1      -8.222  15.300  66.751  1.00  0.00    -0.180 A  
HETATM   14  C   UNL     1      -6.831  15.207  66.677  1.00  0.00     1.327 A  
HETATM   15  F   UNL     1      -8.838  16.262  66.052  1.00  0.00    -0.319 F  
HETATM   16  C   UNL     1      -6.159  14.240  67.423  1.00  0.00     0.224 A  
HETATM   17  C   UNL     1      -6.890  13.348  68.205  1.00  0.00    -0.106 A  
HETATM   18  C   UNL     1      -8.280  13.457  68.267  1.00  0.00    -0.160 A  
HETATM   19  F   UNL     1      -8.959  12.609  69.052  1.00  0.00     0.054 F  
ENDBRANCH  11  12
ENDBRANCH   8  11
ENDBRANCH   2   6
TORSDOF 3
ENDMDL
MODEL      255
REMARK 921   NORMALIZED FREE ENERGY PREDICTED BY IDOCK:   -2.77 KCAL/MOL
REMARK 922        TOTAL FREE ENERGY PREDICTED BY IDOCK:   -3.67 KCAL/MOL
REMARK 923 INTER-LIGAND FREE ENERGY PREDICTED BY IDOCK:   -3.46 KCAL/MOL
REMARK 924 INTRA-LIGAND FREE ENERGY PREDICTED BY IDOCK:   -0.21 KCAL/MOL
REMARK 927      BINDING AFFINITY PREDICTED BY RF-SCORE:    0.00 PKD
ROOT
HETATM    1  N   UNL     1     -10.603  18.695  66.071  1.00  0.00    -0.436 N  
HETATM    2  C   UNL     1      -9.311  19.008  66.389  1.00  0.00    -0.336 C  
HETATM    3  H1  UNL     1     -11.110  17.968  66.575  1.00  0.00     0.000 HD 
HETATM    4  H2  UNL     1     -11.068  19.199  65.315  1.00  0.00     0.000 HD 
HETATM    5  O   UNL     1      -8.701  19.883  65.783  1.00  0.00    -0.336 OA 
ENDROOT
BRANCH   2   6
HETATM    6  C   UNL     1      -8.738  18.214  67.464  1.00  0.00    -0.249 A  
HETATM    7  C   UNL     1      -7.417  18.167  67.860  1.00  0.00    -0.227 A  
HETATM    8  N   UNL     1      -7.391  17.210  68.833  1.00  0.00    -0.242 NA 
HETATM    9  N   UNL     1      -9.462  17.332  68.234  1.00  0.00    -0.273 NA 
HETATM   10  N   UNL     1      -8.626  16.723  69.066  1.00  0.00    -0.204 NA 
BRANCH   8  11
HETATM   11  C   UNL     1      -6.224  16.518  69.350  1.00  0.00    -0.197 C  
BRANCH  11  12
HETATM   12  C   UNL     1      -6.314  15.024  69.286  1.00  0.00    -0.116 A  
HETATM   13  C   UNL     1      -6.513  14.367  68.072  1.00  0.00    -0.151 A  
HETATM   14  C   UNL     1      -6.420  12.978  67.972  1.00  0.00    -0.120 A  
HETATM   15  F   UNL     1      -6.746  15.076  66.961  1.00  0.00    -0.154 F  
HETATM   16  C   UNL     1      -6.141  12.217  69.106  1.00  0.00    -0.083 A  
HETATM   17  C   UNL     1      -5.997  12.852  70.339  1.00  0.00    -0.105 A  
HETATM   18  C   UNL     1      -6.092  14.241  70.418  1.00  0.00    -0.176 A  
HETATM   19  F   UNL     1      -5.916  14.832  71.609  1.00  0.00    -0.053 F  
ENDBRANCH  11  12
ENDBRANCH   8  11
ENDBRANCH   2   6
TORSDOF 3
ENDMDL
MODEL      256
REMARK 921   NORMALIZED FREE ENERGY PREDICTED BY IDOCK:   -2.75 KCAL/MOL
REMARK 922        TOTAL FREE ENERGY PREDICTED BY IDOCK:   -3.65 KCAL/MOL
REMARK 923 INTER-LIGAND FREE ENERGY PREDICTED BY IDOCK:   -3.35 KCAL/MOL
REMARK 924 INTRA-LIGAND FREE ENERGY PREDICTED BY IDOCK:   -0.30 KCAL/MOL
REMARK 927      BINDING AFFINITY PREDICTED BY RF-SCORE:    0.00 PKD
ROOT
HETATM    1  N   UNL     1      -8.197   6.701  74.491  1.00  0.00    -0.127 N  
HETATM    2  C   UNL     1      -7.272   7.531  73.924  1.00  0.00    -0.096 C  
HETATM    3  H1  UNL     1      -9.111   6.556  74.061  1.00  0.00     0.000 HD 
HETATM    4  H2  UNL     1      -7.969   6.218  75.360  1.00  0.00     0.000 HD 
HETATM    5  O   UNL     1      -6.172   7.706  74.440  1.00  0.00    -0.086 OA 
ENDROOT
BRANCH   2   6
HETATM    6  C   UNL     1      -7.708   8.187  72.702  1.00  0.00    -0.132 A  
HETATM    7  C   UNL     1      -8.960   8.696  72.423  1.00  0.00    -0.135 A  
HETATM    8  N   UNL     1      -8.873   9.113  71.125  1.00  0.00    -0.273 NA 
HETATM    9  N   UNL     1      -6.905   8.357  71.596  1.00  0.00    -0.069 NA 
HETATM   10  N   UNL     1      -7.630   8.921  70.638  1.00  0.00    -0.085 NA 
BRANCH   8  11
HETATM   11  C   UNL     1      -9.972   9.408  70.225  1.00  0.00    -0.237 C  
BRANCH  11  12
HETATM   12  C   UNL     1     -10.252   8.334  69.219  1.00  0.00    -0.207 A  
HETATM   13  C   UNL     1     -10.749   7.092  69.615  1.00  0.00    -0.239 A  
HETATM   14  C   UNL     1     -11.182   6.150  68.680  1.00  0.00    -0.275 A  
HETATM   15  F   UNL     1     -10.870   6.806  70.917  1.00  0.00    -0.245 F  
HETATM   16  C   UNL     1     -11.105   6.437  67.318  1.00  0.00    -0.416 A  
HETATM   17  C   UNL     1     -10.556   7.649  66.903  1.00  0.00    -0.359 A  
HETATM   18  C   UNL     1     -10.130   8.578  67.852  1.00  0.00    -0.207 A  
HETATM   19  F   UNL     1      -9.638   9.751  67.430  1.00  0.00    -0.160 F  
ENDBRANCH  11  12
ENDBRANCH   8  11
ENDBRANCH   2   6
TORSDOF 3
ENDMDL
MODEL      257
REMARK 921   NORMALIZED FREE ENERGY PREDICTED BY IDOCK:   -2.75 KCAL/MOL
REMARK 922        TOTAL FREE ENERGY PREDICTED BY IDOCK:   -3.64 KCAL/MOL
REMARK 923 INTER-LIGAND FREE ENERGY PREDICTED BY IDOCK:   -3.48 KCAL/MOL
REMARK 924 INTRA-LIGAND FREE ENERGY PREDICTED BY IDOCK:   -0.16 KCAL/MOL
REMARK 927      BINDING AFFINITY PREDICTED BY RF-SCORE:    0.00 PKD
ROOT
HETATM    1  N   UNL     1     -12.298   7.857  72.342  1.00  0.00    -0.528 N  
HETATM    2  C   UNL     1     -11.815   6.613  72.051  1.00  0.00    -0.324 C  
HETATM    3  H1  UNL     1     -12.218   8.625  71.674  1.00  0.00     0.000 HD 
HETATM    4  H2  UNL     1     -12.748   8.021  73.242  1.00  0.00     0.000 HD 
HETATM    5  O   UNL     1     -11.911   5.689  72.853  1.00  0.00    -0.172 OA 
ENDROOT
BRANCH   2   6
HETATM    6  C   UNL     1     -11.172   6.495  70.753  1.00  0.00    -0.321 A  
HETATM    7  C   UNL     1     -11.050   7.471  69.784  1.00  0.00    -0.129 A  
HETATM    8  N   UNL     1     -10.459   6.831  68.733  1.00  0.00    -0.195 NA 
HETATM    9  N   UNL     1     -10.613   5.329  70.278  1.00  0.00    -0.260 NA 
HETATM   10  N   UNL     1     -10.183   5.547  69.042  1.00  0.00    -0.211 NA 
BRANCH   8  11
HETATM   11  C   UNL     1     -10.406   7.277  67.354  1.00  0.00    -0.260 C  
BRANCH  11  12
HETATM   12  C   UNL     1      -9.336   8.286  67.071  1.00  0.00    -0.203 A  
HETATM   13  C   UNL     1      -9.640   9.507  66.468  1.00  0.00    -0.201 A  
HETATM   14  C   UNL     1      -8.689  10.523  66.361  1.00  0.00    -0.152 A  
HETATM   15  F   UNL     1     -10.882   9.741  66.026  1.00  0.00    -0.119 F  
HETATM   16  C   UNL     1      -7.399  10.320  66.848  1.00  0.00    -0.097 A  
HETATM   17  C   UNL     1      -7.060   9.086  67.400  1.00  0.00    -0.079 A  
HETATM   18  C   UNL     1      -8.025   8.083  67.498  1.00  0.00    -0.122 A  
HETATM   19  F   UNL     1      -7.685   6.916  68.064  1.00  0.00    -0.102 F  
ENDBRANCH  11  12
ENDBRANCH   8  11
ENDBRANCH   2   6
TORSDOF 3
ENDMDL
MODEL      258
REMARK 921   NORMALIZED FREE ENERGY PREDICTED BY IDOCK:   -2.74 KCAL/MOL
REMARK 922        TOTAL FREE ENERGY PREDICTED BY IDOCK:   -3.63 KCAL/MOL
REMARK 923 INTER-LIGAND FREE ENERGY PREDICTED BY IDOCK:   -3.27 KCAL/MOL
REMARK 924 INTRA-LIGAND FREE ENERGY PREDICTED BY IDOCK:   -0.37 KCAL/MOL
REMARK 927      BINDING AFFINITY PREDICTED BY RF-SCORE:    0.00 PKD
ROOT
HETATM    1  N   UNL     1     -11.243  14.250  67.287  1.00  0.00    -0.306 N  
HETATM    2  C   UNL     1     -10.124  13.884  66.595  1.00  0.00    -0.273 C  
HETATM    3  H1  UNL     1     -11.994  13.583  67.469  1.00  0.00     0.000 HD 
HETATM    4  H2  UNL     1     -11.330  15.207  67.629  1.00  0.00     0.000 HD 
HETATM    5  O   UNL     1      -9.220  14.686  66.377  1.00  0.00    -0.274 OA 
ENDROOT
BRANCH   2   6
HETATM    6  C   UNL     1     -10.114  12.506  66.133  1.00  0.00    -0.251 A  
HETATM    7  C   UNL     1      -9.262  11.494  66.529  1.00  0.00    -0.194 A  
HETATM    8  N   UNL     1      -9.606  10.436  65.737  1.00  0.00    -0.201 NA 
HETATM    9  N   UNL     1     -10.962  12.017  65.166  1.00  0.00    -0.302 NA 
HETATM   10  N   UNL     1     -10.640  10.751  64.931  1.00  0.00    -0.255 NA 
BRANCH   8  11
HETATM   11  C   UNL     1      -8.824   9.239  65.488  1.00  0.00    -0.187 C  
BRANCH  11  12
HETATM   12  C   UNL     1      -8.486   8.455  66.718  1.00  0.00    -0.114 A  
HETATM   13  C   UNL     1      -9.329   7.443  67.180  1.00  0.00    -0.142 A  
HETATM   14  C   UNL     1      -8.944   6.589  68.214  1.00  0.00    -0.121 A  
HETATM   15  F   UNL     1     -10.514   7.242  66.590  1.00  0.00    -0.328 F  
HETATM   16  C   UNL     1      -7.699   6.751  68.820  1.00  0.00    -0.110 A  
HETATM   17  C   UNL     1      -6.868   7.793  68.412  1.00  0.00    -0.067 A  
HETATM   18  C   UNL     1      -7.270   8.636  67.376  1.00  0.00    -0.080 A  
HETATM   19  F   UNL     1      -6.440   9.609  66.977  1.00  0.00    -0.063 F  
ENDBRANCH  11  12
ENDBRANCH   8  11
ENDBRANCH   2   6
TORSDOF 3
ENDMDL
MODEL      259
REMARK 921   NORMALIZED FREE ENERGY PREDICTED BY IDOCK:   -2.70 KCAL/MOL
REMARK 922        TOTAL FREE ENERGY PREDICTED BY IDOCK:   -3.59 KCAL/MOL
REMARK 923 INTER-LIGAND FREE ENERGY PREDICTED BY IDOCK:   -3.14 KCAL/MOL
REMARK 924 INTRA-LIGAND FREE ENERGY PREDICTED BY IDOCK:   -0.45 KCAL/MOL
REMARK 927      BINDING AFFINITY PREDICTED BY RF-SCORE:    0.00 PKD
ROOT
HETATM    1  N   UNL     1      -7.401   6.126  74.490  1.00  0.00    -0.093 N  
HETATM    2  C   UNL     1      -7.128   7.021  73.494  1.00  0.00    -0.073 C  
HETATM    3  H1  UNL     1      -8.277   5.603  74.505  1.00  0.00     0.000 HD 
HETATM    4  H2  UNL     1      -6.716   5.978  75.231  1.00  0.00     0.000 HD 
HETATM    5  O   UNL     1      -6.074   7.650  73.475  1.00  0.00    -0.058 OA 
ENDROOT
BRANCH   2   6
HETATM    6  C   UNL     1      -8.180   7.172  72.503  1.00  0.00    -0.107 A  
HETATM    7  C   UNL     1      -9.303   6.384  72.344  1.00  0.00    -0.140 A  
HETATM    8  N   UNL     1      -9.910   6.885  71.227  1.00  0.00    -0.176 NA 
HETATM    9  N   UNL     1      -8.174   8.137  71.521  1.00  0.00    -0.114 NA 
HETATM   10  N   UNL     1      -9.235   7.949  70.746  1.00  0.00    -0.156 NA 
BRANCH   8  11
HETATM   11  C   UNL     1     -10.924   6.236  70.417  1.00  0.00    -0.322 C  
BRANCH  11  12
HETATM   12  C   UNL     1     -10.414   5.668  69.128  1.00  0.00    -0.339 A  
HETATM   13  C   UNL     1      -9.769   4.432  69.093  1.00  0.00    -0.170 A  
HETATM   14  C   UNL     1      -9.450   3.810  67.884  1.00  0.00    -0.224 A  
HETATM   15  F   UNL     1      -9.492   3.791  70.236  1.00  0.00    -0.192 F  
HETATM   16  C   UNL     1      -9.762   4.437  66.679  1.00  0.00    -0.233 A  
HETATM   17  C   UNL     1     -10.353   5.699  66.695  1.00  0.00    -0.311 A  
HETATM   18  C   UNL     1     -10.665   6.303  67.913  1.00  0.00    -0.305 A  
HETATM   19  F   UNL     1     -11.265   7.502  67.903  1.00  0.00    -0.121 F  
ENDBRANCH  11  12
ENDBRANCH   8  11
ENDBRANCH   2   6
TORSDOF 3
ENDMDL
MODEL      260
REMARK 921   NORMALIZED FREE ENERGY PREDICTED BY IDOCK:   -2.69 KCAL/MOL
REMARK 922        TOTAL FREE ENERGY PREDICTED BY IDOCK:   -3.57 KCAL/MOL
REMARK 923 INTER-LIGAND FREE ENERGY PREDICTED BY IDOCK:   -3.11 KCAL/MOL
REMARK 924 INTRA-LIGAND FREE ENERGY PREDICTED BY IDOCK:   -0.46 KCAL/MOL
REMARK 927      BINDING AFFINITY PREDICTED BY RF-SCORE:    0.00 PKD
ROOT
HETATM    1  N   UNL     1     -12.390   8.096  72.678  1.00  0.00    -0.606 N  
HETATM    2  C   UNL     1     -11.084   7.712  72.785  1.00  0.00    -0.383 C  
HETATM    3  H1  UNL     1     -12.719   8.636  71.877  1.00  0.00     0.000 HD 
HETATM    4  H2  UNL     1     -13.049   7.838  73.413  1.00  0.00     0.000 HD 
HETATM    5  O   UNL     1     -10.688   7.062  73.748  1.00  0.00    -0.360 OA 
ENDROOT
BRANCH   2   6
HETATM    6  C   UNL     1     -10.227   8.152  71.696  1.00  0.00    -0.206 A  
HETATM    7  C   UNL     1     -10.190   7.663  70.406  1.00  0.00    -0.203 A  
HETATM    8  N   UNL     1      -9.161   8.341  69.818  1.00  0.00    -0.146 NA 
HETATM    9  N   UNL     1      -9.265   9.129  71.826  1.00  0.00    -0.326 NA 
HETATM   10  N   UNL     1      -8.619   9.233  70.672  1.00  0.00    -0.218 NA 
BRANCH   8  11
HETATM   11  C   UNL     1      -8.467   7.988  68.593  1.00  0.00    -0.128 C  
BRANCH  11  12
HETATM   12  C   UNL     1      -7.812   6.642  68.620  1.00  0.00    -0.114 A  
HETATM   13  C   UNL     1      -6.602   6.444  69.285  1.00  0.00    -0.044 A  
HETATM   14  C   UNL     1      -6.072   5.166  69.470  1.00  0.00    -0.021 A  
HETATM   15  F   UNL     1      -5.951   7.490  69.809  1.00  0.00    -0.023 F  
HETATM   16  C   UNL     1      -6.749   4.055  68.968  1.00  0.00    -0.045 A  
HETATM   17  C   UNL     1      -7.929   4.238  68.250  1.00  0.00    -0.078 A  
HETATM   18  C   UNL     1      -8.443   5.524  68.076  1.00  0.00    -0.098 A  
HETATM   19  F   UNL     1      -9.597   5.672  67.412  1.00  0.00    -0.113 F  
ENDBRANCH  11  12
ENDBRANCH   8  11
ENDBRANCH   2   6
TORSDOF 3
ENDMDL
MODEL      261
REMARK 921   NORMALIZED FREE ENERGY PREDICTED BY IDOCK:   -2.57 KCAL/MOL
REMARK 922        TOTAL FREE ENERGY PREDICTED BY IDOCK:   -3.43 KCAL/MOL
REMARK 923 INTER-LIGAND FREE ENERGY PREDICTED BY IDOCK:   -3.04 KCAL/MOL
REMARK 924 INTRA-LIGAND FREE ENERGY PREDICTED BY IDOCK:   -0.40 KCAL/MOL
REMARK 927      BINDING AFFINITY PREDICTED BY RF-SCORE:    0.00 PKD
ROOT
HETATM    1  N   UNL     1     -11.813   9.431  71.654  1.00  0.00    -0.374 N  
HETATM    2  C   UNL     1     -10.966   8.428  72.030  1.00  0.00    -0.323 C  
HETATM    3  H1  UNL     1     -11.660   9.958  70.793  1.00  0.00     0.000 HD 
HETATM    4  H2  UNL     1     -12.614   9.658  72.244  1.00  0.00     0.000 HD 
HETATM    5  O   UNL     1     -11.150   7.794  73.064  1.00  0.00    -0.398 OA 
ENDROOT
BRANCH   2   6
HETATM    6  C   UNL     1      -9.846   8.204  71.130  1.00  0.00    -0.169 A  
HETATM    7  C   UNL     1      -9.578   7.071  70.388  1.00  0.00    -0.169 A  
HETATM    8  N   UNL     1      -8.376   7.334  69.795  1.00  0.00    -0.133 NA 
HETATM    9  N   UNL     1      -8.837   9.118  70.923  1.00  0.00    -0.233 NA 
HETATM   10  N   UNL     1      -7.943   8.572  70.107  1.00  0.00    -0.101 NA 
BRANCH   8  11
HETATM   11  C   UNL     1      -7.471   6.375  69.190  1.00  0.00    -0.095 C  
BRANCH  11  12
HETATM   12  C   UNL     1      -8.077   5.564  68.087  1.00  0.00    -0.096 A  
HETATM   13  C   UNL     1      -8.581   4.286  68.328  1.00  0.00    -0.095 A  
HETATM   14  C   UNL     1      -9.306   3.593  67.357  1.00  0.00    -0.240 A  
HETATM   15  F   UNL     1      -8.419   3.721  69.531  1.00  0.00    -0.069 F  
HETATM   16  C   UNL     1      -9.523   4.173  66.108  1.00  0.00    -0.187 A  
HETATM   17  C   UNL     1      -8.977   5.425  65.829  1.00  0.00    -0.161 A  
HETATM   18  C   UNL     1      -8.257   6.102  66.813  1.00  0.00    -0.109 A  
HETATM   19  F   UNL     1      -7.770   7.319  66.533  1.00  0.00    -0.085 F  
ENDBRANCH  11  12
ENDBRANCH   8  11
ENDBRANCH   2   6
TORSDOF 3
ENDMDL
MODEL      262
REMARK 921   NORMALIZED FREE ENERGY PREDICTED BY IDOCK:   -2.56 KCAL/MOL
REMARK 922        TOTAL FREE ENERGY PREDICTED BY IDOCK:   -3.42 KCAL/MOL
REMARK 923 INTER-LIGAND FREE ENERGY PREDICTED BY IDOCK:   -3.53 KCAL/MOL
REMARK 924 INTRA-LIGAND FREE ENERGY PREDICTED BY IDOCK:    0.11 KCAL/MOL
REMARK 927      BINDING AFFINITY PREDICTED BY RF-SCORE:    0.00 PKD
ROOT
HETATM    1  N   UNL     1     -11.343  15.719  66.801  1.00  0.00    -0.024 N  
HETATM    2  C   UNL     1     -10.153  15.055  66.702  1.00  0.00    -0.261 C  
HETATM    3  H1  UNL     1     -12.205  15.319  66.428  1.00  0.00     0.000 HD 
HETATM    4  H2  UNL     1     -11.371  16.632  67.256  1.00  0.00     0.000 HD 
HETATM    5  O   UNL     1      -9.117  15.537  67.150  1.00  0.00    -0.201 OA 
ENDROOT
BRANCH   2   6
HETATM    6  C   UNL     1     -10.223  13.776  66.015  1.00  0.00    -0.308 A  
HETATM    7  C   UNL     1     -10.037  12.521  66.557  1.00  0.00    -0.238 A  
HETATM    8  N   UNL     1     -10.113  11.677  65.486  1.00  0.00    -0.236 NA 
HETATM    9  N   UNL     1     -10.450  13.645  64.663  1.00  0.00    -0.429 NA 
HETATM   10  N   UNL     1     -10.377  12.357  64.352  1.00  0.00    -0.330 NA 
BRANCH   8  11
HETATM   11  C   UNL     1      -9.657  10.301  65.422  1.00  0.00    -0.251 C  
BRANCH  11  12
HETATM   12  C   UNL     1      -8.425  10.095  64.596  1.00  0.00    -0.178 A  
HETATM   13  C   UNL     1      -8.470  10.183  63.205  1.00  0.00    -0.182 A  
HETATM   14  C   UNL     1      -7.305  10.172  62.436  1.00  0.00    -0.146 A  
HETATM   15  F   UNL     1      -9.646  10.337  62.584  1.00  0.00    -0.290 F  
HETATM   16  C   UNL     1      -6.064  10.052  63.059  1.00  0.00    -0.129 A  
HETATM   17  C   UNL     1      -6.003   9.904  64.444  1.00  0.00    -0.111 A  
HETATM   18  C   UNL     1      -7.178   9.919  65.195  1.00  0.00    -0.133 A  
HETATM   19  F   UNL     1      -7.093   9.809  66.528  1.00  0.00    -0.084 F  
ENDBRANCH  11  12
ENDBRANCH   8  11
ENDBRANCH   2   6
TORSDOF 3
ENDMDL
MODEL      263
REMARK 921   NORMALIZED FREE ENERGY PREDICTED BY IDOCK:   -2.51 KCAL/MOL
REMARK 922        TOTAL FREE ENERGY PREDICTED BY IDOCK:   -3.37 KCAL/MOL
REMARK 923 INTER-LIGAND FREE ENERGY PREDICTED BY IDOCK:   -4.59 KCAL/MOL
REMARK 924 INTRA-LIGAND FREE ENERGY PREDICTED BY IDOCK:    1.22 KCAL/MOL
REMARK 927      BINDING AFFINITY PREDICTED BY RF-SCORE:    0.00 PKD
ROOT
HETATM    1  N   UNL     1     -14.404  14.395  72.008  1.00  0.00    -0.532 N  
HETATM    2  C   UNL     1     -13.613  13.301  71.799  1.00  0.00    -0.288 C  
HETATM    3  H1  UNL     1     -14.392  15.187  71.365  1.00  0.00     0.000 HD 
HETATM    4  H2  UNL     1     -15.019  14.420  72.822  1.00  0.00     0.000 HD 
HETATM    5  O   UNL     1     -13.628  12.348  72.573  1.00  0.00    -0.399 OA 
ENDROOT
BRANCH   2   6
HETATM    6  C   UNL     1     -12.760  13.380  70.625  1.00  0.00    -0.176 A  
HETATM    7  C   UNL     1     -12.823  14.303  69.601  1.00  0.00     0.311 A  
HETATM    8  N   UNL     1     -11.876  13.884  68.711  1.00  0.00    -0.344 NA 
HETATM    9  N   UNL     1     -11.758  12.477  70.345  1.00  0.00    -0.143 NA 
HETATM   10  N   UNL     1     -11.228  12.795  69.171  1.00  0.00    -0.254 NA 
BRANCH   8  11
HETATM   11  C   UNL     1     -11.750  14.275  67.319  1.00  0.00    -0.395 C  
BRANCH  11  12
HETATM   12  C   UNL     1     -11.030  15.571  67.105  1.00  0.00    -0.295 A  
HETATM   13  C   UNL     1     -10.331  15.818  65.924  1.00  0.00    -0.354 A  
HETATM   14  C   UNL     1      -9.809  17.080  65.636  1.00  0.00    -0.019 A  
HETATM   15  F   UNL     1     -10.197  14.846  65.013  1.00  0.00    -0.374 F  
HETATM   16  C   UNL     1      -9.968  18.121  66.549  1.00  0.00    -0.374 A  
HETATM   17  C   UNL     1     -10.613  17.878  67.761  1.00  0.00    -0.399 A  
HETATM   18  C   UNL     1     -11.128  16.610  68.029  1.00  0.00    -0.255 A  
HETATM   19  F   UNL     1     -11.775  16.409  69.186  1.00  0.00    -0.295 F  
ENDBRANCH  11  12
ENDBRANCH   8  11
ENDBRANCH   2   6
TORSDOF 3
ENDMDL
MODEL      264
REMARK 921   NORMALIZED FREE ENERGY PREDICTED BY IDOCK:   -2.48 KCAL/MOL
REMARK 922        TOTAL FREE ENERGY PREDICTED BY IDOCK:   -3.33 KCAL/MOL
REMARK 923 INTER-LIGAND FREE ENERGY PREDICTED BY IDOCK:   -2.90 KCAL/MOL
REMARK 924 INTRA-LIGAND FREE ENERGY PREDICTED BY IDOCK:   -0.42 KCAL/MOL
REMARK 927      BINDING AFFINITY PREDICTED BY RF-SCORE:    0.00 PKD
ROOT
HETATM    1  N   UNL     1      -8.514   7.473  74.333  1.00  0.00    -0.244 N  
HETATM    2  C   UNL     1      -8.550   6.592  73.290  1.00  0.00    -0.120 C  
HETATM    3  H1  UNL     1      -8.586   8.479  74.179  1.00  0.00     0.000 HD 
HETATM    4  H2  UNL     1      -8.413   7.119  75.285  1.00  0.00     0.000 HD 
HETATM    5  O   UNL     1      -8.463   5.382  73.476  1.00  0.00    -0.113 OA 
ENDROOT
BRANCH   2   6
HETATM    6  C   UNL     1      -8.672   7.204  71.977  1.00  0.00    -0.122 A  
HETATM    7  C   UNL     1      -9.823   7.661  71.367  1.00  0.00    -0.174 A  
HETATM    8  N   UNL     1      -9.413   8.050  70.124  1.00  0.00    -0.160 NA 
HETATM    9  N   UNL     1      -7.614   7.377  71.113  1.00  0.00    -0.081 NA 
HETATM   10  N   UNL     1      -8.081   7.893  69.983  1.00  0.00    -0.115 NA 
BRANCH   8  11
HETATM   11  C   UNL     1     -10.248   8.285  68.961  1.00  0.00    -0.217 C  
BRANCH  11  12
HETATM   12  C   UNL     1     -10.065   7.289  67.858  1.00  0.00    -0.217 A  
HETATM   13  C   UNL     1      -9.390   7.630  66.686  1.00  0.00    -0.190 A  
HETATM   14  C   UNL     1      -9.057   6.668  65.731  1.00  0.00     0.004 A  
HETATM   15  F   UNL     1      -8.999   8.895  66.486  1.00  0.00    -0.140 F  
HETATM   16  C   UNL     1      -9.418   5.336  65.931  1.00  0.00    -0.156 A  
HETATM   17  C   UNL     1     -10.144   4.987  67.069  1.00  0.00    -0.251 A  
HETATM   18  C   UNL     1     -10.466   5.962  68.012  1.00  0.00    -0.234 A  
HETATM   19  F   UNL     1     -11.136   5.597  69.115  1.00  0.00    -0.374 F  
ENDBRANCH  11  12
ENDBRANCH   8  11
ENDBRANCH   2   6
TORSDOF 3
ENDMDL
MODEL      265
REMARK 921   NORMALIZED FREE ENERGY PREDICTED BY IDOCK:   -2.47 KCAL/MOL
REMARK 922        TOTAL FREE ENERGY PREDICTED BY IDOCK:   -3.31 KCAL/MOL
REMARK 923 INTER-LIGAND FREE ENERGY PREDICTED BY IDOCK:   -3.19 KCAL/MOL
REMARK 924 INTRA-LIGAND FREE ENERGY PREDICTED BY IDOCK:   -0.12 KCAL/MOL
REMARK 927      BINDING AFFINITY PREDICTED BY RF-SCORE:    0.00 PKD
ROOT
HETATM    1  N   UNL     1      -9.216   9.775  66.148  1.00  0.00    -0.166 N  
HETATM    2  C   UNL     1      -7.999   9.722  66.766  1.00  0.00    -0.105 C  
HETATM    3  H1  UNL     1     -10.040   9.339  66.563  1.00  0.00     0.000 HD 
HETATM    4  H2  UNL     1      -9.303  10.261  65.255  1.00  0.00     0.000 HD 
HETATM    5  O   UNL     1      -7.008  10.247  66.267  1.00  0.00    -0.101 OA 
ENDROOT
BRANCH   2   6
HETATM    6  C   UNL     1      -7.982   8.986  68.019  1.00  0.00    -0.101 A  
HETATM    7  C   UNL     1      -8.205   7.636  68.204  1.00  0.00    -0.124 A  
HETATM    8  N   UNL     1      -8.171   7.471  69.559  1.00  0.00    -0.128 NA 
HETATM    9  N   UNL     1      -7.775   9.572  69.248  1.00  0.00    -0.081 NA 
HETATM   10  N   UNL     1      -7.896   8.636  70.181  1.00  0.00    -0.092 NA 
BRANCH   8  11
HETATM   11  C   UNL     1      -8.675   6.341  70.316  1.00  0.00    -0.142 C  
BRANCH  11  12
HETATM   12  C   UNL     1      -9.961   6.604  71.038  1.00  0.00    -0.200 A  
HETATM   13  C   UNL     1      -9.980   7.323  72.233  1.00  0.00    -0.169 A  
HETATM   14  C   UNL     1     -11.179   7.728  72.821  1.00  0.00    -0.456 A  
HETATM   15  F   UNL     1      -8.828   7.685  72.811  1.00  0.00    -0.144 F  
HETATM   16  C   UNL     1     -12.393   7.398  72.219  1.00  0.00    -0.164 A  
HETATM   17  C   UNL     1     -12.395   6.629  71.056  1.00  0.00    -0.289 A  
HETATM   18  C   UNL     1     -11.186   6.235  70.483  1.00  0.00    -0.354 A  
HETATM   19  F   UNL     1     -11.212   5.526  69.346  1.00  0.00    -0.374 F  
ENDBRANCH  11  12
ENDBRANCH   8  11
ENDBRANCH   2   6
TORSDOF 3
ENDMDL
MODEL      266
REMARK 921   NORMALIZED FREE ENERGY PREDICTED BY IDOCK:   -2.45 KCAL/MOL
REMARK 922        TOTAL FREE ENERGY PREDICTED BY IDOCK:   -3.29 KCAL/MOL
REMARK 923 INTER-LIGAND FREE ENERGY PREDICTED BY IDOCK:   -2.95 KCAL/MOL
REMARK 924 INTRA-LIGAND FREE ENERGY PREDICTED BY IDOCK:   -0.34 KCAL/MOL
REMARK 927      BINDING AFFINITY PREDICTED BY RF-SCORE:    0.00 PKD
ROOT
HETATM    1  N   UNL     1     -12.350   8.062  72.832  1.00  0.00    -0.586 N  
HETATM    2  C   UNL     1     -12.814   7.658  71.612  1.00  0.00    -0.349 C  
HETATM    3  H1  UNL     1     -11.396   8.405  72.948  1.00  0.00     0.000 HD 
HETATM    4  H2  UNL     1     -12.969   8.020  73.642  1.00  0.00     0.000 HD 
HETATM    5  O   UNL     1     -13.962   7.247  71.473  1.00  0.00    -0.404 OA 
ENDROOT
BRANCH   2   6
HETATM    6  C   UNL     1     -11.844   7.737  70.533  1.00  0.00    -0.045 A  
HETATM    7  C   UNL     1     -10.944   6.766  70.141  1.00  0.00    -0.292 A  
HETATM    8  N   UNL     1     -10.209   7.366  69.159  1.00  0.00    -0.191 NA 
HETATM    9  N   UNL     1     -11.657   8.855  69.751  1.00  0.00     0.186 NA 
HETATM   10  N   UNL     1     -10.653   8.616  68.917  1.00  0.00    -0.185 NA 
BRANCH   8  11
HETATM   11  C   UNL     1      -8.924   6.935  68.641  1.00  0.00    -0.129 C  
BRANCH  11  12
HETATM   12  C   UNL     1      -8.734   5.450  68.617  1.00  0.00    -0.097 A  
HETATM   13  C   UNL     1      -8.074   4.793  69.656  1.00  0.00    -0.065 A  
HETATM   14  C   UNL     1      -8.046   3.400  69.737  1.00  0.00    -0.060 A  
HETATM   15  F   UNL     1      -7.497   5.503  70.634  1.00  0.00    -0.073 F  
HETATM   16  C   UNL     1      -8.672   2.636  68.753  1.00  0.00    -0.131 A  
HETATM   17  C   UNL     1      -9.286   3.273  67.676  1.00  0.00    -0.245 A  
HETATM   18  C   UNL     1      -9.304   4.667  67.614  1.00  0.00    -0.144 A  
HETATM   19  F   UNL     1      -9.930   5.258  66.587  1.00  0.00    -0.141 F  
ENDBRANCH  11  12
ENDBRANCH   8  11
ENDBRANCH   2   6
TORSDOF 3
ENDMDL
MODEL      267
REMARK 921   NORMALIZED FREE ENERGY PREDICTED BY IDOCK:   -2.42 KCAL/MOL
REMARK 922        TOTAL FREE ENERGY PREDICTED BY IDOCK:   -3.26 KCAL/MOL
REMARK 923 INTER-LIGAND FREE ENERGY PREDICTED BY IDOCK:   -2.85 KCAL/MOL
REMARK 924 INTRA-LIGAND FREE ENERGY PREDICTED BY IDOCK:   -0.41 KCAL/MOL
REMARK 927      BINDING AFFINITY PREDICTED BY RF-SCORE:    0.00 PKD
ROOT
HETATM    1  N   UNL     1     -10.861  14.964  67.381  1.00  0.00    -0.296 N  
HETATM    2  C   UNL     1     -11.235  13.847  68.073  1.00  0.00    -0.271 C  
HETATM    3  H1  UNL     1      -9.934  15.040  66.960  1.00  0.00     0.000 HD 
HETATM    4  H2  UNL     1     -11.521  15.736  67.282  1.00  0.00     0.000 HD 
HETATM    5  O   UNL     1     -12.349  13.756  68.579  1.00  0.00    -0.269 OA 
ENDROOT
BRANCH   2   6
HETATM    6  C   UNL     1     -10.212  12.819  68.173  1.00  0.00    -0.241 A  
HETATM    7  C   UNL     1     -10.308  11.498  67.784  1.00  0.00    -0.182 A  
HETATM    8  N   UNL     1      -9.123  10.945  68.177  1.00  0.00    -0.149 NA 
HETATM    9  N   UNL     1      -8.972  13.026  68.735  1.00  0.00     0.080 NA 
HETATM   10  N   UNL     1      -8.317  11.872  68.733  1.00  0.00    -0.046 NA 
BRANCH   8  11
HETATM   11  C   UNL     1      -8.824   9.533  68.326  1.00  0.00    -0.124 C  
BRANCH  11  12
HETATM   12  C   UNL     1      -8.739   9.066  69.746  1.00  0.00    -0.148 A  
HETATM   13  C   UNL     1      -7.512   8.988  70.405  1.00  0.00    -0.089 A  
HETATM   14  C   UNL     1      -7.435   8.728  71.774  1.00  0.00    -0.080 A  
HETATM   15  F   UNL     1      -6.378   9.219  69.732  1.00  0.00    -0.037 F  
HETATM   16  C   UNL     1      -8.603   8.522  72.508  1.00  0.00    -0.204 A  
HETATM   17  C   UNL     1      -9.834   8.538  71.856  1.00  0.00    -0.358 A  
HETATM   18  C   UNL     1      -9.890   8.800  70.487  1.00  0.00    -0.188 A  
HETATM   19  F   UNL     1     -11.088   8.845  69.887  1.00  0.00    -0.244 F  
ENDBRANCH  11  12
ENDBRANCH   8  11
ENDBRANCH   2   6
TORSDOF 3
ENDMDL
MODEL      268
REMARK 921   NORMALIZED FREE ENERGY PREDICTED BY IDOCK:   -2.41 KCAL/MOL
REMARK 922        TOTAL FREE ENERGY PREDICTED BY IDOCK:   -3.24 KCAL/MOL
REMARK 923 INTER-LIGAND FREE ENERGY PREDICTED BY IDOCK:   -2.94 KCAL/MOL
REMARK 924 INTRA-LIGAND FREE ENERGY PREDICTED BY IDOCK:   -0.29 KCAL/MOL
REMARK 927      BINDING AFFINITY PREDICTED BY RF-SCORE:    0.00 PKD
ROOT
HETATM    1  N   UNL     1     -12.294   8.065  72.822  1.00  0.00    -0.610 N  
HETATM    2  C   UNL     1     -12.416   7.682  71.516  1.00  0.00    -0.336 C  
HETATM    3  H1  UNL     1     -11.433   8.487  73.171  1.00  0.00     0.000 HD 
HETATM    4  H2  UNL     1     -13.079   7.926  73.459  1.00  0.00     0.000 HD 
HETATM    5  O   UNL     1     -13.452   7.175  71.096  1.00  0.00    -0.316 OA 
ENDROOT
BRANCH   2   6
HETATM    6  C   UNL     1     -11.233   7.903  70.701  1.00  0.00    -0.263 A  
HETATM    7  C   UNL     1     -10.144   7.066  70.558  1.00  0.00    -0.191 A  
HETATM    8  N   UNL     1      -9.280   7.771  69.770  1.00  0.00    -0.150 NA 
HETATM    9  N   UNL     1     -11.012   9.046  69.966  1.00  0.00    -0.233 NA 
HETATM   10  N   UNL     1      -9.814   8.954  69.404  1.00  0.00    -0.179 NA 
BRANCH   8  11
HETATM   11  C   UNL     1      -7.862   7.522  69.587  1.00  0.00    -0.119 C  
BRANCH  11  12
HETATM   12  C   UNL     1      -7.011   8.755  69.598  1.00  0.00    -0.050 A  
HETATM   13  C   UNL     1      -6.627   9.373  68.408  1.00  0.00    -0.054 A  
HETATM   14  C   UNL     1      -5.989  10.615  68.405  1.00  0.00    -0.046 A  
HETATM   15  F   UNL     1      -6.918   8.799  67.234  1.00  0.00    -0.070 F  
HETATM   16  C   UNL     1      -5.708  11.253  69.612  1.00  0.00    -0.068 A  
HETATM   17  C   UNL     1      -6.032  10.624  70.812  1.00  0.00    -0.058 A  
HETATM   18  C   UNL     1      -6.670   9.383  70.795  1.00  0.00    -0.105 A  
HETATM   19  F   UNL     1      -7.004   8.813  71.961  1.00  0.00    -0.096 F  
ENDBRANCH  11  12
ENDBRANCH   8  11
ENDBRANCH   2   6
TORSDOF 3
ENDMDL
MODEL      269
REMARK 921   NORMALIZED FREE ENERGY PREDICTED BY IDOCK:   -2.32 KCAL/MOL
REMARK 922        TOTAL FREE ENERGY PREDICTED BY IDOCK:   -3.14 KCAL/MOL
REMARK 923 INTER-LIGAND FREE ENERGY PREDICTED BY IDOCK:   -2.85 KCAL/MOL
REMARK 924 INTRA-LIGAND FREE ENERGY PREDICTED BY IDOCK:   -0.29 KCAL/MOL
REMARK 927      BINDING AFFINITY PREDICTED BY RF-SCORE:    0.00 PKD
ROOT
HETATM    1  N   UNL     1      -8.765   5.285  73.206  1.00  0.00    -0.116 N  
HETATM    2  C   UNL     1      -8.448   6.519  72.713  1.00  0.00    -0.120 C  
HETATM    3  H1  UNL     1      -9.019   4.517  72.584  1.00  0.00     0.000 HD 
HETATM    4  H2  UNL     1      -8.745   5.129  74.214  1.00  0.00     0.000 HD 
HETATM    5  O   UNL     1      -8.141   7.443  73.460  1.00  0.00    -0.109 OA 
ENDROOT
BRANCH   2   6
HETATM    6  C   UNL     1      -8.530   6.639  71.266  1.00  0.00    -0.125 A  
HETATM    7  C   UNL     1      -9.672   6.714  70.493  1.00  0.00    -0.176 A  
HETATM    8  N   UNL     1      -9.209   6.718  69.209  1.00  0.00    -0.142 NA 
HETATM    9  N   UNL     1      -7.432   6.651  70.436  1.00  0.00    -0.088 NA 
HETATM   10  N   UNL     1      -7.861   6.697  69.181  1.00  0.00    -0.109 NA 
BRANCH   8  11
HETATM   11  C   UNL     1      -9.969   6.443  68.004  1.00  0.00    -0.135 C  
BRANCH  11  12
HETATM   12  C   UNL     1      -9.605   7.305  66.834  1.00  0.00    -0.225 A  
HETATM   13  C   UNL     1     -10.160   8.575  66.677  1.00  0.00    -0.294 A  
HETATM   14  C   UNL     1      -9.700   9.455  65.696  1.00  0.00    -0.336 A  
HETATM   15  F   UNL     1     -11.120   8.991  67.513  1.00  0.00    -0.289 F  
HETATM   16  C   UNL     1      -8.676   9.062  64.837  1.00  0.00    -0.200 A  
HETATM   17  C   UNL     1      -8.149   7.776  64.940  1.00  0.00    -0.136 A  
HETATM   18  C   UNL     1      -8.622   6.911  65.928  1.00  0.00    -0.145 A  
HETATM   19  F   UNL     1      -8.076   5.691  66.031  1.00  0.00    -0.100 F  
ENDBRANCH  11  12
ENDBRANCH   8  11
ENDBRANCH   2   6
TORSDOF 3
ENDMDL
MODEL      270
REMARK 921   NORMALIZED FREE ENERGY PREDICTED BY IDOCK:   -2.20 KCAL/MOL
REMARK 922        TOTAL FREE ENERGY PREDICTED BY IDOCK:   -2.99 KCAL/MOL
REMARK 923 INTER-LIGAND FREE ENERGY PREDICTED BY IDOCK:   -2.68 KCAL/MOL
REMARK 924 INTRA-LIGAND FREE ENERGY PREDICTED BY IDOCK:   -0.31 KCAL/MOL
REMARK 927      BINDING AFFINITY PREDICTED BY RF-SCORE:    0.00 PKD
ROOT
HETATM    1  N   UNL     1      -7.425  16.513  69.260  1.00  0.00    -0.226 N  
HETATM    2  C   UNL     1      -6.718  15.427  69.693  1.00  0.00    -0.184 C  
HETATM    3  H1  UNL     1      -8.244  16.406  68.661  1.00  0.00     0.000 HD 
HETATM    4  H2  UNL     1      -7.129  17.448  69.541  1.00  0.00     0.000 HD 
HETATM    5  O   UNL     1      -5.733  15.556  70.413  1.00  0.00    -0.145 OA 
ENDROOT
BRANCH   2   6
HETATM    6  C   UNL     1      -7.212  14.146  69.214  1.00  0.00    -0.049 A  
HETATM    7  C   UNL     1      -6.652  12.901  69.418  1.00  0.00    -0.062 A  
HETATM    8  N   UNL     1      -7.438  12.055  68.691  1.00  0.00    -0.117 NA 
HETATM    9  N   UNL     1      -8.329  14.004  68.423  1.00  0.00    -0.159 NA 
HETATM   10  N   UNL     1      -8.455  12.721  68.107  1.00  0.00    -0.172 NA 
BRANCH   8  11
HETATM   11  C   UNL     1      -7.117  10.703  68.273  1.00  0.00    -0.081 C  
BRANCH  11  12
HETATM   12  C   UNL     1      -8.310   9.853  67.961  1.00  0.00    -0.113 A  
HETATM   13  C   UNL     1      -9.095   9.314  68.981  1.00  0.00    -0.147 A  
HETATM   14  C   UNL     1     -10.304   8.673  68.708  1.00  0.00    -0.228 A  
HETATM   15  F   UNL     1      -8.719   9.457  70.258  1.00  0.00    -0.160 F  
HETATM   16  C   UNL     1     -10.739   8.545  67.390  1.00  0.00    -0.215 A  
HETATM   17  C   UNL     1      -9.939   9.024  66.354  1.00  0.00    -0.370 A  
HETATM   18  C   UNL     1      -8.734   9.663  66.647  1.00  0.00    -0.134 A  
HETATM   19  F   UNL     1      -7.999  10.147  65.636  1.00  0.00    -0.122 F  
ENDBRANCH  11  12
ENDBRANCH   8  11
ENDBRANCH   2   6
TORSDOF 3
ENDMDL
MODEL      271
REMARK 921   NORMALIZED FREE ENERGY PREDICTED BY IDOCK:   -2.06 KCAL/MOL
REMARK 922        TOTAL FREE ENERGY PREDICTED BY IDOCK:   -2.83 KCAL/MOL
REMARK 923 INTER-LIGAND FREE ENERGY PREDICTED BY IDOCK:   -2.81 KCAL/MOL
REMARK 924 INTRA-LIGAND FREE ENERGY PREDICTED BY IDOCK:   -0.02 KCAL/MOL
REMARK 927      BINDING AFFINITY PREDICTED BY RF-SCORE:    0.00 PKD
ROOT
HETATM    1  N   UNL     1     -14.367  11.776  72.281  1.00  0.00     0.500 N  
HETATM    2  C   UNL     1     -13.027  11.779  72.011  1.00  0.00    -0.265 C  
HETATM    3  H1  UNL     1     -14.917  12.633  72.236  1.00  0.00     0.000 HD 
HETATM    4  H2  UNL     1     -14.824  10.899  72.531  1.00  0.00     0.000 HD 
HETATM    5  O   UNL     1     -12.365  10.748  72.065  1.00  0.00    -0.070 OA 
ENDROOT
BRANCH   2   6
HETATM    6  C   UNL     1     -12.473  13.084  71.689  1.00  0.00     0.009 A  
HETATM    7  C   UNL     1     -11.786  13.446  70.548  1.00  0.00    -0.158 A  
HETATM    8  N   UNL     1     -11.404  14.736  70.779  1.00  0.00    -0.220 NA 
HETATM    9  N   UNL     1     -12.523  14.167  72.537  1.00  0.00    -0.160 NA 
HETATM   10  N   UNL     1     -11.864  15.170  71.970  1.00  0.00    -0.395 NA 
BRANCH   8  11
HETATM   11  C   UNL     1     -10.381  15.486  70.075  1.00  0.00    -0.302 C  
BRANCH  11  12
HETATM   12  C   UNL     1      -9.947  14.872  68.779  1.00  0.00    -0.228 A  
HETATM   13  C   UNL     1      -8.653  14.377  68.616  1.00  0.00    -0.161 A  
HETATM   14  C   UNL     1      -8.289  13.646  67.485  1.00  0.00    -0.191 A  
HETATM   15  F   UNL     1      -7.744  14.556  69.584  1.00  0.00    -0.113 F  
HETATM   16  C   UNL     1      -9.226  13.412  66.479  1.00  0.00    -0.182 A  
HETATM   17  C   UNL     1     -10.507  13.948  66.598  1.00  0.00    -0.272 A  
HETATM   18  C   UNL     1     -10.852  14.676  67.737  1.00  0.00    -0.267 A  
HETATM   19  F   UNL     1     -12.100  15.152  67.844  1.00  0.00    -0.332 F  
ENDBRANCH  11  12
ENDBRANCH   8  11
ENDBRANCH   2   6
TORSDOF 3
ENDMDL
MODEL      272
REMARK 921   NORMALIZED FREE ENERGY PREDICTED BY IDOCK:   -1.91 KCAL/MOL
REMARK 922        TOTAL FREE ENERGY PREDICTED BY IDOCK:   -2.65 KCAL/MOL
REMARK 923 INTER-LIGAND FREE ENERGY PREDICTED BY IDOCK:   -2.25 KCAL/MOL
REMARK 924 INTRA-LIGAND FREE ENERGY PREDICTED BY IDOCK:   -0.40 KCAL/MOL
REMARK 927      BINDING AFFINITY PREDICTED BY RF-SCORE:    0.00 PKD
ROOT
HETATM    1  N   UNL     1      -8.039   5.248  72.638  1.00  0.00    -0.109 N  
HETATM    2  C   UNL     1      -7.928   6.547  72.231  1.00  0.00    -0.102 C  
HETATM    3  H1  UNL     1      -8.300   4.510  71.984  1.00  0.00     0.000 HD 
HETATM    4  H2  UNL     1      -7.857   5.012  73.614  1.00  0.00     0.000 HD 
HETATM    5  O   UNL     1      -7.613   7.436  73.018  1.00  0.00    -0.080 OA 
ENDROOT
BRANCH   2   6
HETATM    6  C   UNL     1      -8.231   6.776  70.829  1.00  0.00    -0.123 A  
HETATM    7  C   UNL     1      -9.411   6.500  70.169  1.00  0.00    -0.157 A  
HETATM    8  N   UNL     1      -9.149   6.809  68.865  1.00  0.00    -0.134 NA 
HETATM    9  N   UNL     1      -7.326   7.282  69.922  1.00  0.00    -0.082 NA 
HETATM   10  N   UNL     1      -7.898   7.294  68.725  1.00  0.00    -0.119 NA 
BRANCH   8  11
HETATM   11  C   UNL     1      -9.906   6.397  67.698  1.00  0.00    -0.121 C  
BRANCH  11  12
HETATM   12  C   UNL     1      -9.298   5.259  66.937  1.00  0.00    -0.127 A  
HETATM   13  C   UNL     1      -9.357   3.954  67.427  1.00  0.00    -0.191 A  
HETATM   14  C   UNL     1      -8.956   2.866  66.650  1.00  0.00    -0.168 A  
HETATM   15  F   UNL     1      -9.858   3.722  68.647  1.00  0.00    -0.222 F  
HETATM   16  C   UNL     1      -8.467   3.075  65.362  1.00  0.00    -0.100 A  
HETATM   17  C   UNL     1      -8.345   4.376  64.878  1.00  0.00    -0.118 A  
HETATM   18  C   UNL     1      -8.752   5.451  65.669  1.00  0.00    -0.152 A  
HETATM   19  F   UNL     1      -8.658   6.691  65.169  1.00  0.00    -0.144 F  
ENDBRANCH  11  12
ENDBRANCH   8  11
ENDBRANCH   2   6
TORSDOF 3
ENDMDL
MODEL      273
REMARK 921   NORMALIZED FREE ENERGY PREDICTED BY IDOCK:   -1.71 KCAL/MOL
REMARK 922        TOTAL FREE ENERGY PREDICTED BY IDOCK:   -2.42 KCAL/MOL
REMARK 923 INTER-LIGAND FREE ENERGY PREDICTED BY IDOCK:   -2.13 KCAL/MOL
REMARK 924 INTRA-LIGAND FREE ENERGY PREDICTED BY IDOCK:   -0.29 KCAL/MOL
REMARK 927      BINDING AFFINITY PREDICTED BY RF-SCORE:    0.00 PKD
ROOT
HETATM    1  N   UNL     1      -5.128  20.122  71.740  1.00  0.00    -0.369 N  
HETATM    2  C   UNL     1      -6.318  19.651  71.263  1.00  0.00     0.216 C  
HETATM    3  H1  UNL     1      -4.263  20.008  71.210  1.00  0.00     0.000 HD 
HETATM    4  H2  UNL     1      -5.104  20.598  72.642  1.00  0.00     0.000 HD 
HETATM    5  O   UNL     1      -7.358  19.788  71.899  1.00  0.00     1.305 OA 
ENDROOT
BRANCH   2   6
HETATM    6  C   UNL     1      -6.235  18.969  69.981  1.00  0.00    -0.151 A  
HETATM    7  C   UNL     1      -7.064  19.131  68.890  1.00  0.00    -0.337 A  
HETATM    8  N   UNL     1      -6.622  18.202  67.991  1.00  0.00    -0.191 NA 
HETATM    9  N   UNL     1      -5.304  17.998  69.690  1.00  0.00    -0.192 NA 
HETATM   10  N   UNL     1      -5.553  17.536  68.471  1.00  0.00    -0.154 NA 
BRANCH   8  11
HETATM   11  C   UNL     1      -7.331  17.704  66.827  1.00  0.00    -0.210 C  
BRANCH  11  12
HETATM   12  C   UNL     1      -8.583  16.946  67.144  1.00  0.00    -0.217 A  
HETATM   13  C   UNL     1      -8.572  15.557  67.263  1.00  0.00    -0.193 A  
HETATM   14  C   UNL     1      -9.685  14.856  67.731  1.00  0.00    -0.212 A  
HETATM   15  F   UNL     1      -7.457  14.872  66.977  1.00  0.00    -0.223 F  
HETATM   16  C   UNL     1     -10.846  15.547  68.073  1.00  0.00    -0.300 A  
HETATM   17  C   UNL     1     -10.896  16.930  67.905  1.00  0.00    -0.310 A  
HETATM   18  C   UNL     1      -9.773  17.612  67.437  1.00  0.00    -0.283 A  
HETATM   19  F   UNL     1      -9.833  18.946  67.316  1.00  0.00    -0.303 F  
ENDBRANCH  11  12
ENDBRANCH   8  11
ENDBRANCH   2   6
TORSDOF 3
ENDMDL
MODEL      274
REMARK 921   NORMALIZED FREE ENERGY PREDICTED BY IDOCK:   -1.22 KCAL/MOL
REMARK 922        TOTAL FREE ENERGY PREDICTED BY IDOCK:   -1.85 KCAL/MOL
REMARK 923 INTER-LIGAND FREE ENERGY PREDICTED BY IDOCK:   -1.72 KCAL/MOL
REMARK 924 INTRA-LIGAND FREE ENERGY PREDICTED BY IDOCK:   -0.13 KCAL/MOL
REMARK 927      BINDING AFFINITY PREDICTED BY RF-SCORE:    0.00 PKD
ROOT
HETATM    1  N   UNL     1     -11.895  14.787  69.522  1.00  0.00    -0.309 N  
HETATM    2  C   UNL     1     -10.627  15.158  69.176  1.00  0.00    -0.256 C  
HETATM    3  H1  UNL     1     -12.625  15.482  69.681  1.00  0.00     0.000 HD 
HETATM    4  H2  UNL     1     -12.117  13.796  69.622  1.00  0.00     0.000 HD 
HETATM    5  O   UNL     1      -9.749  14.322  68.985  1.00  0.00    -0.154 OA 
ENDROOT
BRANCH   2   6
HETATM    6  C   UNL     1     -10.414  16.593  69.083  1.00  0.00    -0.333 A  
HETATM    7  C   UNL     1      -9.256  17.248  68.714  1.00  0.00    -0.238 A  
HETATM    8  N   UNL     1      -9.550  18.571  68.880  1.00  0.00    -0.311 NA 
HETATM    9  N   UNL     1     -11.368  17.531  69.408  1.00  0.00     1.087 NA 
HETATM   10  N   UNL     1     -10.827  18.736  69.282  1.00  0.00     0.999 NA 
BRANCH   8  11
HETATM   11  C   UNL     1      -8.609  19.672  68.968  1.00  0.00    -0.117 C  
BRANCH  11  12
HETATM   12  C   UNL     1      -7.571  19.685  67.888  1.00  0.00    -0.332 A  
HETATM   13  C   UNL     1      -6.212  19.734  68.199  1.00  0.00    -0.234 A  
HETATM   14  C   UNL     1      -5.234  19.567  67.218  1.00  0.00    -0.165 A  
HETATM   15  F   UNL     1      -5.824  19.891  69.471  1.00  0.00    -0.249 F  
HETATM   16  C   UNL     1      -5.609  19.363  65.891  1.00  0.00    -0.174 A  
HETATM   17  C   UNL     1      -6.961  19.369  65.553  1.00  0.00    -0.283 A  
HETATM   18  C   UNL     1      -7.924  19.537  66.548  1.00  0.00    -0.301 A  
HETATM   19  F   UNL     1      -9.219  19.505  66.204  1.00  0.00    -0.349 F  
ENDBRANCH  11  12
ENDBRANCH   8  11
ENDBRANCH   2   6
TORSDOF 3
ENDMDL
MODEL      275
REMARK 921   NORMALIZED FREE ENERGY PREDICTED BY IDOCK:    0.54 KCAL/MOL
REMARK 922        TOTAL FREE ENERGY PREDICTED BY IDOCK:    0.22 KCAL/MOL
REMARK 923 INTER-LIGAND FREE ENERGY PREDICTED BY IDOCK:   -0.85 KCAL/MOL
REMARK 924 INTRA-LIGAND FREE ENERGY PREDICTED BY IDOCK:    1.07 KCAL/MOL
REMARK 927      BINDING AFFINITY PREDICTED BY RF-SCORE:    0.00 PKD
ROOT
HETATM    1  N   UNL     1      -9.699  18.914  66.138  1.00  0.00    -0.328 N  
HETATM    2  C   UNL     1      -8.403  18.737  66.533  1.00  0.00    -0.297 C  
HETATM    3  H1  UNL     1     -10.470  18.478  66.644  1.00  0.00     0.000 HD 
HETATM    4  H2  UNL     1      -9.899  19.495  65.323  1.00  0.00     0.000 HD 
HETATM    5  O   UNL     1      -7.475  19.263  65.925  1.00  0.00    -0.283 OA 
ENDROOT
BRANCH   2   6
HETATM    6  C   UNL     1      -8.229  17.874  67.689  1.00  0.00    -0.232 A  
HETATM    7  C   UNL     1      -7.044  17.383  68.200  1.00  0.00    -0.196 A  
HETATM    8  N   UNL     1      -7.432  16.559  69.217  1.00  0.00    -0.226 NA 
HETATM    9  N   UNL     1      -9.273  17.375  68.436  1.00  0.00    -0.270 NA 
HETATM   10  N   UNL     1      -8.772  16.570  69.365  1.00  0.00    -0.055 NA 
BRANCH   8  11
HETATM   11  C   UNL     1      -6.635  15.533  69.865  1.00  0.00    -0.131 C  
BRANCH  11  12
HETATM   12  C   UNL     1      -6.512  14.261  69.084  1.00  0.00    -0.109 A  
HETATM   13  C   UNL     1      -6.631  13.020  69.709  1.00  0.00     0.069 A  
HETATM   14  C   UNL     1      -6.697  11.837  68.971  1.00  0.00    -0.102 A  
HETATM   15  F   UNL     1      -6.740  12.952  71.041  1.00  0.00     0.722 F  
HETATM   16  C   UNL     1      -6.625  11.881  67.580  1.00  0.00    -0.099 A  
HETATM   17  C   UNL     1      -6.447  13.107  66.941  1.00  0.00     0.888 A  
HETATM   18  C   UNL     1      -6.385  14.279  67.695  1.00  0.00    -0.107 A  
HETATM   19  F   UNL     1      -6.248  15.449  67.057  1.00  0.00    -0.092 F  
ENDBRANCH  11  12
ENDBRANCH   8  11
ENDBRANCH   2   6
TORSDOF 3
ENDMDL
