MODEL        1
REMARK 921   NORMALIZED FREE ENERGY PREDICTED BY IDOCK:   -8.44 KCAL/MOL
REMARK 922        TOTAL FREE ENERGY PREDICTED BY IDOCK:   -9.82 KCAL/MOL
REMARK 923 INTER-LIGAND FREE ENERGY PREDICTED BY IDOCK:   -9.42 KCAL/MOL
REMARK 924 INTRA-LIGAND FREE ENERGY PREDICTED BY IDOCK:   -0.40 KCAL/MOL
REMARK 927      BINDING AFFINITY PREDICTED BY RF-SCORE:    0.00 PKD
ROOT
HETATM    1  C   UNL     1      -5.713  19.713  63.991  1.00  0.00    -0.319 C  
HETATM    2  C   UNL     1      -6.271  19.829  65.372  1.00  0.00    -0.265 A  
HETATM    3  C   UNL     1      -6.720  18.715  66.091  1.00  0.00    -0.268 A  
HETATM    4  C   UNL     1      -7.211  18.864  67.391  1.00  0.00    -0.225 A  
HETATM    5  C   UNL     1      -7.250  20.163  67.901  1.00  0.00    -0.294 A  
HETATM    6  N   UNL     1      -6.850  21.267  67.234  1.00  0.00    -0.557 NA 
HETATM    7  C   UNL     1      -6.374  21.075  65.985  1.00  0.00    -0.219 A  
ENDROOT
BRANCH   4   8
HETATM    8  C   UNL     1      -7.796  17.739  68.217  1.00  0.00    -0.279 C  
BRANCH   8   9
HETATM    9  N   UNL     1      -9.269  17.617  68.253  1.00  0.00    -0.275 NA 
HETATM   10  C   UNL     1      -9.858  17.148  66.980  1.00  0.00    -0.276 C  
HETATM   11  C   UNL     1      -9.472  15.709  66.612  1.00  0.00    -0.282 C  
HETATM   12  C   UNL     1      -9.990  14.756  67.681  1.00  0.00    -0.226 C  
HETATM   13  C   UNL     1     -10.815  13.694  67.445  1.00  0.00    -0.282 C  
HETATM   14  C   UNL     1      -9.438  15.180  69.042  1.00  0.00    -0.221 C  
HETATM   15  C   UNL     1     -11.210  12.812  68.572  1.00  0.00    -0.314 A  
HETATM   16  C   UNL     1      -9.684  16.683  69.329  1.00  0.00    -0.173 C  
HETATM   17  C   UNL     1     -12.112  13.256  69.548  1.00  0.00    -0.315 A  
HETATM   18  C   UNL     1     -12.486  12.413  70.598  1.00  0.00    -0.320 A  
HETATM   19  C   UNL     1     -11.974  11.120  70.662  1.00  0.00    -0.360 A  
HETATM   20  C   UNL     1     -11.095  10.657  69.681  1.00  0.00    -0.342 A  
HETATM   21 CL   UNL     1     -12.441  10.076  71.947  1.00  0.00    -0.454 Cl 
HETATM   22  C   UNL     1     -10.711  11.498  68.626  1.00  0.00    -0.242 A  
HETATM   23  C   UNL     1      -9.808  10.999  67.526  1.00  0.00    -0.190 C  
HETATM   24  C   UNL     1     -10.567  10.838  66.205  1.00  0.00    -0.257 C  
HETATM   25  C   UNL     1     -11.095  12.070  65.501  1.00  0.00    -0.361 A  
HETATM   26  C   UNL     1     -11.248  13.348  66.057  1.00  0.00    -0.296 A  
HETATM   27  N   UNL     1     -11.821  14.376  65.371  1.00  0.00    -0.360 NA 
HETATM   28  C   UNL     1     -12.182  14.169  64.088  1.00  0.00    -0.390 A  
HETATM   29  C   UNL     1     -12.044  12.959  63.445  1.00  0.00    -0.610 A  
HETATM   30  C   UNL     1     -11.515  11.897  64.168  1.00  0.00    -0.449 A  
ENDBRANCH   8   9
ENDBRANCH   4   8
TORSDOF 2
ENDMDL
MODEL        2
REMARK 921   NORMALIZED FREE ENERGY PREDICTED BY IDOCK:   -8.13 KCAL/MOL
REMARK 922        TOTAL FREE ENERGY PREDICTED BY IDOCK:   -9.47 KCAL/MOL
REMARK 923 INTER-LIGAND FREE ENERGY PREDICTED BY IDOCK:   -9.02 KCAL/MOL
REMARK 924 INTRA-LIGAND FREE ENERGY PREDICTED BY IDOCK:   -0.45 KCAL/MOL
REMARK 927      BINDING AFFINITY PREDICTED BY RF-SCORE:    0.00 PKD
ROOT
HETATM    1  C   UNL     1      -6.825  18.871  65.713  1.00  0.00    -0.307 C  
HETATM    2  C   UNL     1      -8.167  18.908  66.368  1.00  0.00    -0.306 A  
HETATM    3  C   UNL     1      -8.534  17.998  67.367  1.00  0.00    -0.240 A  
HETATM    4  C   UNL     1      -9.791  18.084  67.974  1.00  0.00    -0.324 A  
HETATM    5  C   UNL     1     -10.642  19.088  67.512  1.00  0.00    -0.461 A  
HETATM    6  N   UNL     1     -10.337  19.971  66.535  1.00  0.00    -0.461 NA 
HETATM    7  C   UNL     1      -9.110  19.857  65.984  1.00  0.00    -0.256 A  
ENDROOT
BRANCH   4   8
HETATM    8  C   UNL     1     -10.313  17.100  68.998  1.00  0.00    -0.331 C  
BRANCH   8   9
HETATM    9  N   UNL     1     -11.513  16.316  68.639  1.00  0.00    -0.346 NA 
HETATM   10  C   UNL     1     -11.381  15.576  67.366  1.00  0.00    -0.203 C  
HETATM   11  C   UNL     1     -10.329  14.460  67.404  1.00  0.00    -0.252 C  
HETATM   12  C   UNL     1     -10.727  13.422  68.445  1.00  0.00    -0.271 C  
HETATM   13  C   UNL     1     -10.895  12.091  68.194  1.00  0.00    -0.257 C  
HETATM   14  C   UNL     1     -10.901  14.110  69.799  1.00  0.00     0.010 C  
HETATM   15  C   UNL     1     -11.240  11.175  69.310  1.00  0.00    -0.331 A  
HETATM   16  C   UNL     1     -11.836  15.343  69.712  1.00  0.00    -0.347 C  
HETATM   17  C   UNL     1     -12.517  11.196  69.887  1.00  0.00    -0.257 A  
HETATM   18  C   UNL     1     -12.834  10.321  70.930  1.00  0.00    -0.463 A  
HETATM   19  C   UNL     1     -11.881   9.412  71.382  1.00  0.00    -0.374 A  
HETATM   20  C   UNL     1     -10.615   9.363  70.797  1.00  0.00    -0.371 A  
HETATM   21 CL   UNL     1     -12.272   8.326  72.658  1.00  0.00    -0.375 Cl 
HETATM   22  C   UNL     1     -10.287  10.240  69.753  1.00  0.00    -0.287 A  
HETATM   23  C   UNL     1      -8.944  10.165  69.070  1.00  0.00    -0.168 C  
HETATM   24  C   UNL     1      -9.068   9.618  67.645  1.00  0.00    -0.141 C  
HETATM   25  C   UNL     1      -9.791  10.439  66.598  1.00  0.00    -0.251 A  
HETATM   26  C   UNL     1     -10.645  11.526  66.832  1.00  0.00    -0.247 A  
HETATM   27  N   UNL     1     -11.326  12.146  65.829  1.00  0.00    -0.344 NA 
HETATM   28  C   UNL     1     -11.109  11.742  64.561  1.00  0.00    -0.315 A  
HETATM   29  C   UNL     1     -10.267  10.704  64.227  1.00  0.00    -0.391 A  
HETATM   30  C   UNL     1      -9.621  10.036  65.260  1.00  0.00    -0.355 A  
ENDBRANCH   8   9
ENDBRANCH   4   8
TORSDOF 2
ENDMDL
MODEL        3
REMARK 921   NORMALIZED FREE ENERGY PREDICTED BY IDOCK:   -7.40 KCAL/MOL
REMARK 922        TOTAL FREE ENERGY PREDICTED BY IDOCK:   -8.67 KCAL/MOL
REMARK 923 INTER-LIGAND FREE ENERGY PREDICTED BY IDOCK:   -8.36 KCAL/MOL
REMARK 924 INTRA-LIGAND FREE ENERGY PREDICTED BY IDOCK:   -0.30 KCAL/MOL
REMARK 927      BINDING AFFINITY PREDICTED BY RF-SCORE:    0.00 PKD
ROOT
HETATM    1  C   UNL     1      -9.150   2.849  70.964  1.00  0.00    -0.185 C  
HETATM    2  C   UNL     1      -9.917   4.064  71.371  1.00  0.00    -0.210 A  
HETATM    3  C   UNL     1     -10.089   5.159  70.515  1.00  0.00    -0.326 A  
HETATM    4  C   UNL     1     -10.837   6.266  70.925  1.00  0.00    -0.329 A  
HETATM    5  C   UNL     1     -11.362   6.223  72.217  1.00  0.00    -0.294 A  
HETATM    6  N   UNL     1     -11.201   5.199  73.083  1.00  0.00    -0.321 NA 
HETATM    7  C   UNL     1     -10.480   4.147  72.642  1.00  0.00    -0.155 A  
ENDROOT
BRANCH   4   8
HETATM    8  C   UNL     1     -11.009   7.530  70.110  1.00  0.00    -0.254 C  
BRANCH   8   9
HETATM    9  N   UNL     1      -9.787   8.276  69.746  1.00  0.00    -0.184 NA 
HETATM   10  C   UNL     1      -9.431   8.171  68.315  1.00  0.00    -0.141 C  
HETATM   11  C   UNL     1     -10.446   8.832  67.373  1.00  0.00    -0.349 C  
HETATM   12  C   UNL     1     -10.517  10.324  67.671  1.00  0.00    -0.285 C  
HETATM   13  C   UNL     1     -10.301  11.313  66.756  1.00  0.00    -0.278 C  
HETATM   14  C   UNL     1     -10.868  10.525  69.146  1.00  0.00    -0.277 C  
HETATM   15  C   UNL     1     -10.448  12.733  67.166  1.00  0.00    -0.240 A  
HETATM   16  C   UNL     1      -9.939   9.714  70.083  1.00  0.00    -0.261 C  
HETATM   17  C   UNL     1      -9.500  13.340  67.999  1.00  0.00    -0.219 A  
HETATM   18  C   UNL     1      -9.642  14.681  68.369  1.00  0.00    -0.217 A  
HETATM   19  C   UNL     1     -10.721  15.419  67.890  1.00  0.00    -0.286 A  
HETATM   20  C   UNL     1     -11.658  14.832  67.038  1.00  0.00    -0.352 A  
HETATM   21 CL   UNL     1     -10.893  17.072  68.335  1.00  0.00    -0.361 Cl 
HETATM   22  C   UNL     1     -11.525  13.487  66.665  1.00  0.00    -0.366 A  
HETATM   23  C   UNL     1     -12.494  12.850  65.700  1.00  0.00    -0.400 C  
HETATM   24  C   UNL     1     -11.838  12.572  64.345  1.00  0.00    -0.455 C  
HETATM   25  C   UNL     1     -10.738  11.534  64.254  1.00  0.00    -0.416 A  
HETATM   26  C   UNL     1     -10.014  10.989  65.325  1.00  0.00    -0.266 A  
HETATM   27  N   UNL     1      -8.977  10.127  65.137  1.00  0.00    -0.177 NA 
HETATM   28  C   UNL     1      -8.692   9.730  63.880  1.00  0.00    -0.218 A  
HETATM   29  C   UNL     1      -9.364  10.186  62.768  1.00  0.00    -0.323 A  
HETATM   30  C   UNL     1     -10.382  11.111  62.960  1.00  0.00    -0.217 A  
ENDBRANCH   8   9
ENDBRANCH   4   8
TORSDOF 2
ENDMDL
MODEL        4
REMARK 921   NORMALIZED FREE ENERGY PREDICTED BY IDOCK:   -7.23 KCAL/MOL
REMARK 922        TOTAL FREE ENERGY PREDICTED BY IDOCK:   -8.47 KCAL/MOL
REMARK 923 INTER-LIGAND FREE ENERGY PREDICTED BY IDOCK:   -8.41 KCAL/MOL
REMARK 924 INTRA-LIGAND FREE ENERGY PREDICTED BY IDOCK:   -0.06 KCAL/MOL
REMARK 927      BINDING AFFINITY PREDICTED BY RF-SCORE:    0.00 PKD
ROOT
HETATM    1  C   UNL     1     -12.077  16.590  73.516  1.00  0.00    -0.465 C  
HETATM    2  C   UNL     1     -12.428  15.378  72.717  1.00  0.00    -0.502 A  
HETATM    3  C   UNL     1     -11.695  14.990  71.589  1.00  0.00    -0.439 A  
HETATM    4  C   UNL     1     -12.041  13.833  70.885  1.00  0.00    -0.366 A  
HETATM    5  C   UNL     1     -13.152  13.126  71.348  1.00  0.00    -0.266 A  
HETATM    6  N   UNL     1     -13.901  13.478  72.416  1.00  0.00    -0.672 NA 
HETATM    7  C   UNL     1     -13.524  14.596  73.072  1.00  0.00    -0.346 A  
ENDROOT
BRANCH   4   8
HETATM    8  C   UNL     1     -11.367  13.377  69.609  1.00  0.00    -0.137 C  
BRANCH   8   9
HETATM    9  N   UNL     1     -12.150  12.519  68.695  1.00  0.00    -0.197 NA 
HETATM   10  C   UNL     1     -11.786  12.679  67.271  1.00  0.00    -0.370 C  
HETATM   11  C   UNL     1     -10.364  12.208  66.938  1.00  0.00    -0.235 C  
HETATM   12  C   UNL     1     -10.243  10.718  67.229  1.00  0.00    -0.245 C  
HETATM   13  C   UNL     1      -9.856   9.775  66.321  1.00  0.00    -0.315 C  
HETATM   14  C   UNL     1     -10.619  10.458  68.688  1.00  0.00    -0.234 C  
HETATM   15  C   UNL     1      -9.732   8.358  66.746  1.00  0.00    -0.309 A  
HETATM   16  C   UNL     1     -11.985  11.089  69.060  1.00  0.00    -0.293 C  
HETATM   17  C   UNL     1     -10.872   7.588  67.013  1.00  0.00    -0.264 A  
HETATM   18  C   UNL     1     -10.744   6.251  67.402  1.00  0.00    -0.409 A  
HETATM   19  C   UNL     1      -9.478   5.679  67.504  1.00  0.00    -0.114 A  
HETATM   20  C   UNL     1      -8.337   6.429  67.214  1.00  0.00    -0.112 A  
HETATM   21 CL   UNL     1      -9.319   4.031  67.971  1.00  0.00    -0.204 Cl 
HETATM   22  C   UNL     1      -8.456   7.772  66.828  1.00  0.00    -0.126 A  
HETATM   23  C   UNL     1      -7.240   8.582  66.456  1.00  0.00    -0.080 C  
HETATM   24  C   UNL     1      -7.196   8.874  64.954  1.00  0.00    -0.091 C  
HETATM   25  C   UNL     1      -8.246   9.779  64.344  1.00  0.00    -0.162 A  
HETATM   26  C   UNL     1      -9.461  10.161  64.931  1.00  0.00    -0.289 A  
HETATM   27  N   UNL     1     -10.387  10.906  64.267  1.00  0.00    -0.363 NA 
HETATM   28  C   UNL     1     -10.085  11.352  63.030  1.00  0.00    -0.293 A  
HETATM   29  C   UNL     1      -8.906  11.056  62.382  1.00  0.00    -0.358 A  
HETATM   30  C   UNL     1      -7.990  10.245  63.041  1.00  0.00    -0.150 A  
ENDBRANCH   8   9
ENDBRANCH   4   8
TORSDOF 2
ENDMDL
MODEL        5
REMARK 921   NORMALIZED FREE ENERGY PREDICTED BY IDOCK:   -7.20 KCAL/MOL
REMARK 922        TOTAL FREE ENERGY PREDICTED BY IDOCK:   -8.44 KCAL/MOL
REMARK 923 INTER-LIGAND FREE ENERGY PREDICTED BY IDOCK:   -7.99 KCAL/MOL
REMARK 924 INTRA-LIGAND FREE ENERGY PREDICTED BY IDOCK:   -0.45 KCAL/MOL
REMARK 927      BINDING AFFINITY PREDICTED BY RF-SCORE:    0.00 PKD
ROOT
HETATM    1  C   UNL     1      -7.916   8.020  74.383  1.00  0.00    -0.299 C  
HETATM    2  C   UNL     1      -8.514   7.390  73.168  1.00  0.00    -0.164 A  
HETATM    3  C   UNL     1      -8.567   8.051  71.934  1.00  0.00    -0.180 A  
HETATM    4  C   UNL     1      -9.111   7.415  70.815  1.00  0.00    -0.151 A  
HETATM    5  C   UNL     1      -9.611   6.126  71.008  1.00  0.00    -0.175 A  
HETATM    6  N   UNL     1      -9.602   5.462  72.184  1.00  0.00    -0.153 NA 
HETATM    7  C   UNL     1      -9.058   6.110  73.236  1.00  0.00    -0.129 A  
ENDROOT
BRANCH   4   8
HETATM    8  C   UNL     1      -9.292   8.071  69.464  1.00  0.00    -0.156 C  
BRANCH   8   9
HETATM    9  N   UNL     1     -10.662   8.462  69.074  1.00  0.00    -0.141 NA 
HETATM   10  C   UNL     1     -11.394   9.197  70.128  1.00  0.00    -0.142 C  
HETATM   11  C   UNL     1     -10.799  10.574  70.450  1.00  0.00    -0.172 C  
HETATM   12  C   UNL     1     -10.865  11.457  69.211  1.00  0.00    -0.242 C  
HETATM   13  C   UNL     1     -11.476  12.676  69.154  1.00  0.00    -0.359 C  
HETATM   14  C   UNL     1     -10.140  10.761  68.059  1.00  0.00    -0.198 C  
HETATM   15  C   UNL     1     -11.427  13.460  67.894  1.00  0.00    -0.350 A  
HETATM   16  C   UNL     1     -10.632   9.306  67.853  1.00  0.00    -0.231 C  
HETATM   17  C   UNL     1     -12.176  13.067  66.777  1.00  0.00    -0.261 A  
HETATM   18  C   UNL     1     -12.132  13.819  65.599  1.00  0.00    -0.444 A  
HETATM   19  C   UNL     1     -11.355  14.974  65.545  1.00  0.00    -0.312 A  
HETATM   20  C   UNL     1     -10.626  15.389  66.660  1.00  0.00    -0.306 A  
HETATM   21 CL   UNL     1     -11.307  15.907  64.101  1.00  0.00    -0.216 Cl 
HETATM   22  C   UNL     1     -10.661  14.639  67.845  1.00  0.00    -0.250 A  
HETATM   23  C   UNL     1      -9.927  15.101  69.078  1.00  0.00    -0.239 C  
HETATM   24  C   UNL     1     -10.895  15.574  70.166  1.00  0.00    -0.346 C  
HETATM   25  C   UNL     1     -11.810  14.567  70.831  1.00  0.00    -0.362 A  
HETATM   26  C   UNL     1     -12.110  13.278  70.368  1.00  0.00    -0.327 A  
HETATM   27  N   UNL     1     -13.019  12.475  70.987  1.00  0.00    -0.146 NA 
HETATM   28  C   UNL     1     -13.591  12.914  72.127  1.00  0.00    -0.495 A  
HETATM   29  C   UNL     1     -13.339  14.151  72.676  1.00  0.00    -0.638 A  
HETATM   30  C   UNL     1     -12.456  14.990  72.008  1.00  0.00    -0.409 A  
ENDBRANCH   8   9
ENDBRANCH   4   8
TORSDOF 2
ENDMDL
MODEL        6
REMARK 921   NORMALIZED FREE ENERGY PREDICTED BY IDOCK:   -7.20 KCAL/MOL
REMARK 922        TOTAL FREE ENERGY PREDICTED BY IDOCK:   -8.44 KCAL/MOL
REMARK 923 INTER-LIGAND FREE ENERGY PREDICTED BY IDOCK:   -8.02 KCAL/MOL
REMARK 924 INTRA-LIGAND FREE ENERGY PREDICTED BY IDOCK:   -0.42 KCAL/MOL
REMARK 927      BINDING AFFINITY PREDICTED BY RF-SCORE:    0.00 PKD
ROOT
HETATM    1  C   UNL     1     -10.983  16.773  64.752  1.00  0.00    -0.038 C  
HETATM    2  C   UNL     1     -11.180  15.305  64.945  1.00  0.00    -0.422 A  
HETATM    3  C   UNL     1     -10.277  14.521  65.674  1.00  0.00    -0.379 A  
HETATM    4  C   UNL     1     -10.512  13.155  65.853  1.00  0.00    -0.288 A  
HETATM    5  C   UNL     1     -11.658  12.632  65.252  1.00  0.00    -0.351 A  
HETATM    6  N   UNL     1     -12.542  13.346  64.522  1.00  0.00    -0.643 NA 
HETATM    7  C   UNL     1     -12.280  14.664  64.382  1.00  0.00    -0.452 A  
ENDROOT
BRANCH   4   8
HETATM    8  C   UNL     1      -9.558  12.209  66.549  1.00  0.00    -0.228 C  
BRANCH   8   9
HETATM    9  N   UNL     1      -9.359  12.388  68.002  1.00  0.00    -0.198 NA 
HETATM   10  C   UNL     1     -10.582  12.159  68.802  1.00  0.00    -0.201 C  
HETATM   11  C   UNL     1     -11.080  10.709  68.771  1.00  0.00    -0.316 C  
HETATM   12  C   UNL     1     -10.018   9.795  69.371  1.00  0.00    -0.217 C  
HETATM   13  C   UNL     1     -10.222   8.948  70.422  1.00  0.00    -0.236 C  
HETATM   14  C   UNL     1      -8.707   9.980  68.607  1.00  0.00    -0.127 C  
HETATM   15  C   UNL     1      -9.113   8.075  70.881  1.00  0.00    -0.161 A  
HETATM   16  C   UNL     1      -8.301  11.472  68.497  1.00  0.00    -0.146 C  
HETATM   17  C   UNL     1      -8.014   8.611  71.566  1.00  0.00    -0.178 A  
HETATM   18  C   UNL     1      -6.981   7.776  72.004  1.00  0.00    -0.067 A  
HETATM   19  C   UNL     1      -7.057   6.405  71.775  1.00  0.00    -0.085 A  
HETATM   20  C   UNL     1      -8.160   5.856  71.118  1.00  0.00    -0.121 A  
HETATM   21 CL   UNL     1      -5.793   5.375  72.323  1.00  0.00    -0.025 Cl 
HETATM   22  C   UNL     1      -9.198   6.686  70.672  1.00  0.00    -0.159 A  
HETATM   23  C   UNL     1     -10.424   6.107  70.011  1.00  0.00    -0.294 C  
HETATM   24  C   UNL     1     -11.655   6.217  70.914  1.00  0.00    -0.338 C  
HETATM   25  C   UNL     1     -12.217   7.587  71.236  1.00  0.00    -0.357 A  
HETATM   26  C   UNL     1     -11.570   8.818  71.056  1.00  0.00    -0.288 A  
HETATM   27  N   UNL     1     -12.120   9.995  71.462  1.00  0.00    -0.395 NA 
HETATM   28  C   UNL     1     -13.363   9.975  71.986  1.00  0.00    -0.409 A  
HETATM   29  C   UNL     1     -14.090   8.821  72.175  1.00  0.00    -0.519 A  
HETATM   30  C   UNL     1     -13.500   7.617  71.814  1.00  0.00    -0.379 A  
ENDBRANCH   8   9
ENDBRANCH   4   8
TORSDOF 2
ENDMDL
MODEL        7
REMARK 921   NORMALIZED FREE ENERGY PREDICTED BY IDOCK:   -7.06 KCAL/MOL
REMARK 922        TOTAL FREE ENERGY PREDICTED BY IDOCK:   -8.28 KCAL/MOL
REMARK 923 INTER-LIGAND FREE ENERGY PREDICTED BY IDOCK:   -7.89 KCAL/MOL
REMARK 924 INTRA-LIGAND FREE ENERGY PREDICTED BY IDOCK:   -0.39 KCAL/MOL
REMARK 927      BINDING AFFINITY PREDICTED BY RF-SCORE:    0.00 PKD
ROOT
HETATM    1  C   UNL     1      -9.617   3.253  70.836  1.00  0.00    -0.234 C  
HETATM    2  C   UNL     1      -9.173   4.670  70.997  1.00  0.00    -0.195 A  
HETATM    3  C   UNL     1      -9.453   5.653  70.039  1.00  0.00    -0.199 A  
HETATM    4  C   UNL     1      -9.042   6.973  70.241  1.00  0.00    -0.156 A  
HETATM    5  C   UNL     1      -8.328   7.236  71.411  1.00  0.00    -0.110 A  
HETATM    6  N   UNL     1      -8.016   6.314  72.349  1.00  0.00    -0.104 NA 
HETATM    7  C   UNL     1      -8.441   5.054  72.118  1.00  0.00    -0.125 A  
ENDROOT
BRANCH   4   8
HETATM    8  C   UNL     1      -9.220   8.086  69.231  1.00  0.00    -0.152 C  
BRANCH   8   9
HETATM    9  N   UNL     1     -10.603   8.484  68.895  1.00  0.00    -0.187 NA 
HETATM   10  C   UNL     1     -11.301   9.194  69.988  1.00  0.00    -0.090 C  
HETATM   11  C   UNL     1     -10.696  10.564  70.323  1.00  0.00    -0.165 C  
HETATM   12  C   UNL     1     -10.801  11.475  69.107  1.00  0.00    -0.241 C  
HETATM   13  C   UNL     1     -11.413  12.695  69.098  1.00  0.00    -0.359 C  
HETATM   14  C   UNL     1     -10.113  10.806  67.917  1.00  0.00    -0.197 C  
HETATM   15  C   UNL     1     -11.405  13.507  67.855  1.00  0.00    -0.320 A  
HETATM   16  C   UNL     1     -10.612   9.357  67.694  1.00  0.00    -0.271 C  
HETATM   17  C   UNL     1     -12.189  13.140  66.754  1.00  0.00    -0.306 A  
HETATM   18  C   UNL     1     -12.183  13.919  65.593  1.00  0.00    -0.477 A  
HETATM   19  C   UNL     1     -11.408  15.075  65.541  1.00  0.00    -0.312 A  
HETATM   20  C   UNL     1     -10.644  15.466  66.642  1.00  0.00    -0.306 A  
HETATM   21 CL   UNL     1     -11.406  16.041  64.118  1.00  0.00    -0.209 Cl 
HETATM   22  C   UNL     1     -10.641  14.688  67.809  1.00  0.00    -0.251 A  
HETATM   23  C   UNL     1      -9.867  15.122  69.028  1.00  0.00    -0.238 C  
HETATM   24  C   UNL     1     -10.801  15.569  70.157  1.00  0.00    -0.346 C  
HETATM   25  C   UNL     1     -11.694  14.547  70.828  1.00  0.00    -0.325 A  
HETATM   26  C   UNL     1     -12.008  13.268  70.345  1.00  0.00    -0.275 A  
HETATM   27  N   UNL     1     -12.897  12.451  70.974  1.00  0.00    -0.223 NA 
HETATM   28  C   UNL     1     -13.432  12.863  72.141  1.00  0.00    -0.522 A  
HETATM   29  C   UNL     1     -13.163  14.088  72.711  1.00  0.00    -0.580 A  
HETATM   30  C   UNL     1     -12.302  14.942  72.034  1.00  0.00    -0.419 A  
ENDBRANCH   8   9
ENDBRANCH   4   8
TORSDOF 2
ENDMDL
MODEL        8
REMARK 921   NORMALIZED FREE ENERGY PREDICTED BY IDOCK:   -6.91 KCAL/MOL
REMARK 922        TOTAL FREE ENERGY PREDICTED BY IDOCK:   -8.12 KCAL/MOL
REMARK 923 INTER-LIGAND FREE ENERGY PREDICTED BY IDOCK:   -7.82 KCAL/MOL
REMARK 924 INTRA-LIGAND FREE ENERGY PREDICTED BY IDOCK:   -0.30 KCAL/MOL
REMARK 927      BINDING AFFINITY PREDICTED BY RF-SCORE:    0.00 PKD
ROOT
HETATM    1  C   UNL     1      -9.712   3.398  71.271  1.00  0.00    -0.227 C  
HETATM    2  C   UNL     1      -9.180   4.335  70.237  1.00  0.00    -0.203 A  
HETATM    3  C   UNL     1      -9.455   5.708  70.263  1.00  0.00    -0.202 A  
HETATM    4  C   UNL     1      -8.915   6.556  69.292  1.00  0.00    -0.131 A  
HETATM    5  C   UNL     1      -8.131   5.958  68.305  1.00  0.00    -0.109 A  
HETATM    6  N   UNL     1      -7.860   4.637  68.228  1.00  0.00    -0.080 NA 
HETATM    7  C   UNL     1      -8.394   3.857  69.192  1.00  0.00    -0.072 A  
ENDROOT
BRANCH   4   8
HETATM    8  C   UNL     1      -9.221   8.034  69.184  1.00  0.00    -0.151 C  
BRANCH   8   9
HETATM    9  N   UNL     1     -10.611   8.420  68.865  1.00  0.00    -0.185 NA 
HETATM   10  C   UNL     1     -11.300   9.126  69.966  1.00  0.00    -0.090 C  
HETATM   11  C   UNL     1     -10.703  10.501  70.291  1.00  0.00    -0.165 C  
HETATM   12  C   UNL     1     -10.832  11.410  69.075  1.00  0.00    -0.265 C  
HETATM   13  C   UNL     1     -11.454  12.624  69.072  1.00  0.00    -0.354 C  
HETATM   14  C   UNL     1     -10.154  10.745  67.877  1.00  0.00    -0.197 C  
HETATM   15  C   UNL     1     -11.469  13.435  67.828  1.00  0.00    -0.351 A  
HETATM   16  C   UNL     1     -10.644   9.290  67.662  1.00  0.00    -0.261 C  
HETATM   17  C   UNL     1     -12.265  13.059  66.738  1.00  0.00    -0.261 A  
HETATM   18  C   UNL     1     -12.280  13.836  65.576  1.00  0.00    -0.470 A  
HETATM   19  C   UNL     1     -11.516  14.999  65.512  1.00  0.00    -0.265 A  
HETATM   20  C   UNL     1     -10.741  15.397  66.602  1.00  0.00    -0.309 A  
HETATM   21 CL   UNL     1     -11.541  15.962  64.087  1.00  0.00    -0.248 Cl 
HETATM   22  C   UNL     1     -10.716  14.621  67.770  1.00  0.00    -0.265 A  
HETATM   23  C   UNL     1      -9.930  15.064  68.978  1.00  0.00    -0.246 C  
HETATM   24  C   UNL     1     -10.852  15.505  70.119  1.00  0.00    -0.346 C  
HETATM   25  C   UNL     1     -11.727  14.476  70.803  1.00  0.00    -0.325 A  
HETATM   26  C   UNL     1     -12.037  13.194  70.326  1.00  0.00    -0.328 A  
HETATM   27  N   UNL     1     -12.911  12.371  70.968  1.00  0.00    -0.223 NA 
HETATM   28  C   UNL     1     -13.434  12.780  72.142  1.00  0.00    -0.492 A  
HETATM   29  C   UNL     1     -13.168  14.008  72.706  1.00  0.00    -0.580 A  
HETATM   30  C   UNL     1     -12.322  14.868  72.017  1.00  0.00    -0.419 A  
ENDBRANCH   8   9
ENDBRANCH   4   8
TORSDOF 2
ENDMDL
MODEL        9
REMARK 921   NORMALIZED FREE ENERGY PREDICTED BY IDOCK:   -6.86 KCAL/MOL
REMARK 922        TOTAL FREE ENERGY PREDICTED BY IDOCK:   -8.06 KCAL/MOL
REMARK 923 INTER-LIGAND FREE ENERGY PREDICTED BY IDOCK:   -7.77 KCAL/MOL
REMARK 924 INTRA-LIGAND FREE ENERGY PREDICTED BY IDOCK:   -0.30 KCAL/MOL
REMARK 927      BINDING AFFINITY PREDICTED BY RF-SCORE:    0.00 PKD
ROOT
HETATM    1  C   UNL     1     -10.342  18.780  67.678  1.00  0.00    -0.476 C  
HETATM    2  C   UNL     1     -10.552  17.528  66.892  1.00  0.00    -0.219 A  
HETATM    3  C   UNL     1     -10.730  16.282  67.507  1.00  0.00    -0.300 A  
HETATM    4  C   UNL     1     -10.951  15.138  66.735  1.00  0.00    -0.321 A  
HETATM    5  C   UNL     1     -10.953  15.308  65.350  1.00  0.00    -0.372 A  
HETATM    6  N   UNL     1     -10.762  16.485  64.715  1.00  0.00    -0.715 NA 
HETATM    7  C   UNL     1     -10.562  17.565  65.500  1.00  0.00    -0.092 A  
ENDROOT
BRANCH   4   8
HETATM    8  C   UNL     1     -11.069  13.738  67.298  1.00  0.00    -0.304 C  
BRANCH   8   9
HETATM    9  N   UNL     1     -10.613  13.523  68.687  1.00  0.00    -0.248 NA 
HETATM   10  C   UNL     1     -11.616  12.856  69.545  1.00  0.00    -0.282 C  
HETATM   11  C   UNL     1     -11.925  11.412  69.131  1.00  0.00    -0.395 C  
HETATM   12  C   UNL     1     -10.660  10.570  69.246  1.00  0.00    -0.265 C  
HETATM   13  C   UNL     1     -10.546   9.434  69.993  1.00  0.00    -0.267 C  
HETATM   14  C   UNL     1      -9.558  11.201  68.395  1.00  0.00    -0.192 C  
HETATM   15  C   UNL     1      -9.268   8.678  69.983  1.00  0.00    -0.160 A  
HETATM   16  C   UNL     1      -9.372  12.708  68.703  1.00  0.00     0.023 C  
HETATM   17  C   UNL     1      -8.132   9.182  70.630  1.00  0.00    -0.198 A  
HETATM   18  C   UNL     1      -6.937   8.456  70.623  1.00  0.00    -0.040 A  
HETATM   19  C   UNL     1      -6.884   7.219  69.987  1.00  0.00    -0.055 A  
HETATM   20  C   UNL     1      -8.016   6.695  69.361  1.00  0.00    -0.115 A  
HETATM   21 CL   UNL     1      -5.417   6.319  69.986  1.00  0.00    -0.013 Cl 
HETATM   22  C   UNL     1      -9.218   7.418  69.359  1.00  0.00    -0.145 A  
HETATM   23  C   UNL     1     -10.467   6.845  68.739  1.00  0.00    -0.223 C  
HETATM   24  C   UNL     1     -11.501   6.466  69.803  1.00  0.00    -0.468 C  
HETATM   25  C   UNL     1     -12.156   7.559  70.621  1.00  0.00    -0.116 A  
HETATM   26  C   UNL     1     -11.716   8.885  70.746  1.00  0.00    -0.230 A  
HETATM   27  N   UNL     1     -12.319   9.776  71.581  1.00  0.00    -0.388 NA 
HETATM   28  C   UNL     1     -13.422   9.383  72.250  1.00  0.00    -0.465 A  
HETATM   29  C   UNL     1     -13.948   8.113  72.169  1.00  0.00    -0.345 A  
HETATM   30  C   UNL     1     -13.293   7.190  71.363  1.00  0.00    -0.380 A  
ENDBRANCH   8   9
ENDBRANCH   4   8
TORSDOF 2
ENDMDL
MODEL       10
REMARK 921   NORMALIZED FREE ENERGY PREDICTED BY IDOCK:   -6.85 KCAL/MOL
REMARK 922        TOTAL FREE ENERGY PREDICTED BY IDOCK:   -8.05 KCAL/MOL
REMARK 923 INTER-LIGAND FREE ENERGY PREDICTED BY IDOCK:   -7.64 KCAL/MOL
REMARK 924 INTRA-LIGAND FREE ENERGY PREDICTED BY IDOCK:   -0.41 KCAL/MOL
REMARK 927      BINDING AFFINITY PREDICTED BY RF-SCORE:    0.00 PKD
ROOT
HETATM    1  C   UNL     1     -14.380   7.464  72.011  1.00  0.00    -0.429 C  
HETATM    2  C   UNL     1     -13.060   6.844  71.691  1.00  0.00    -0.338 A  
HETATM    3  C   UNL     1     -12.411   7.060  70.469  1.00  0.00    -0.153 A  
HETATM    4  C   UNL     1     -11.162   6.482  70.219  1.00  0.00    -0.433 A  
HETATM    5  C   UNL     1     -10.633   5.675  71.228  1.00  0.00    -0.255 A  
HETATM    6  N   UNL     1     -11.235   5.421  72.410  1.00  0.00    -0.238 NA 
HETATM    7  C   UNL     1     -12.435   6.007  72.612  1.00  0.00     0.275 A  
ENDROOT
BRANCH   4   8
HETATM    8  C   UNL     1     -10.422   6.584  68.904  1.00  0.00    -0.215 C  
BRANCH   8   9
HETATM    9  N   UNL     1      -9.292   7.534  68.831  1.00  0.00    -0.143 NA 
HETATM   10  C   UNL     1      -8.756   7.715  67.465  1.00  0.00    -0.125 C  
HETATM   11  C   UNL     1      -9.739   8.385  66.496  1.00  0.00    -0.330 C  
HETATM   12  C   UNL     1     -10.070   9.785  66.998  1.00  0.00    -0.277 C  
HETATM   13  C   UNL     1      -9.899  10.932  66.278  1.00  0.00    -0.261 C  
HETATM   14  C   UNL     1     -10.622   9.691  68.421  1.00  0.00    -0.264 C  
HETATM   15  C   UNL     1     -10.307  12.232  66.868  1.00  0.00    -0.236 A  
HETATM   16  C   UNL     1      -9.700   8.863  69.351  1.00  0.00    -0.169 C  
HETATM   17  C   UNL     1      -9.568  12.811  67.908  1.00  0.00    -0.211 A  
HETATM   18  C   UNL     1      -9.955  14.041  68.447  1.00  0.00    -0.236 A  
HETATM   19  C   UNL     1     -11.068  14.701  67.933  1.00  0.00    -0.291 A  
HETATM   20  C   UNL     1     -11.797  14.147  66.880  1.00  0.00    -0.458 A  
HETATM   21 CL   UNL     1     -11.540  16.221  68.588  1.00  0.00    -0.304 Cl 
HETATM   22  C   UNL     1     -11.418  12.911  66.335  1.00  0.00    -0.389 A  
HETATM   23  C   UNL     1     -12.157  12.323  65.160  1.00  0.00    -0.379 C  
HETATM   24  C   UNL     1     -11.308  12.361  63.885  1.00  0.00    -0.502 C  
HETATM   25  C   UNL     1     -10.062  11.506  63.800  1.00  0.00    -0.407 A  
HETATM   26  C   UNL     1      -9.397  10.890  64.870  1.00  0.00    -0.224 A  
HETATM   27  N   UNL     1      -8.227  10.214  64.707  1.00  0.00    -0.156 NA 
HETATM   28  C   UNL     1      -7.736  10.072  63.459  1.00  0.00    -0.146 A  
HETATM   29  C   UNL     1      -8.331  10.614  62.342  1.00  0.00    -0.263 A  
HETATM   30  C   UNL     1      -9.493  11.354  62.521  1.00  0.00    -0.085 A  
ENDBRANCH   8   9
ENDBRANCH   4   8
TORSDOF 2
ENDMDL
MODEL       11
REMARK 921   NORMALIZED FREE ENERGY PREDICTED BY IDOCK:   -6.74 KCAL/MOL
REMARK 922        TOTAL FREE ENERGY PREDICTED BY IDOCK:   -7.92 KCAL/MOL
REMARK 923 INTER-LIGAND FREE ENERGY PREDICTED BY IDOCK:   -7.62 KCAL/MOL
REMARK 924 INTRA-LIGAND FREE ENERGY PREDICTED BY IDOCK:   -0.30 KCAL/MOL
REMARK 927      BINDING AFFINITY PREDICTED BY RF-SCORE:    0.00 PKD
ROOT
HETATM    1  C   UNL     1     -10.154  18.449  67.995  1.00  0.00    -0.392 C  
HETATM    2  C   UNL     1     -10.424  17.420  66.947  1.00  0.00    -0.279 A  
HETATM    3  C   UNL     1     -10.392  16.047  67.224  1.00  0.00    -0.295 A  
HETATM    4  C   UNL     1     -10.676  15.117  66.220  1.00  0.00    -0.320 A  
HETATM    5  C   UNL     1     -10.958  15.630  64.953  1.00  0.00    -0.431 A  
HETATM    6  N   UNL     1     -10.976  16.943  64.637  1.00  0.00    -0.963 NA 
HETATM    7  C   UNL     1     -10.705  17.806  65.639  1.00  0.00    -0.064 A  
ENDROOT
BRANCH   4   8
HETATM    8  C   UNL     1     -10.585  13.617  66.396  1.00  0.00    -0.284 C  
BRANCH   8   9
HETATM    9  N   UNL     1      -9.432  13.090  67.155  1.00  0.00    -0.223 NA 
HETATM   10  C   UNL     1      -9.800  12.489  68.454  1.00  0.00    -0.202 C  
HETATM   11  C   UNL     1     -10.650  11.218  68.332  1.00  0.00    -0.226 C  
HETATM   12  C   UNL     1      -9.858  10.147  67.593  1.00  0.00    -0.201 C  
HETATM   13  C   UNL     1      -9.591   8.901  68.079  1.00  0.00    -0.167 C  
HETATM   14  C   UNL     1      -9.421  10.694  66.233  1.00  0.00    -0.213 C  
HETATM   15  C   UNL     1      -8.845   7.932  67.236  1.00  0.00    -0.131 A  
HETATM   16  C   UNL     1      -8.712  12.066  66.356  1.00  0.00    -0.088 C  
HETATM   17  C   UNL     1      -7.475   8.097  66.994  1.00  0.00    -0.088 A  
HETATM   18  C   UNL     1      -6.782   7.172  66.209  1.00  0.00    -0.053 A  
HETATM   19  C   UNL     1      -7.453   6.072  65.683  1.00  0.00    -0.082 A  
HETATM   20  C   UNL     1      -8.812   5.882  65.939  1.00  0.00    -0.154 A  
HETATM   21 CL   UNL     1      -6.599   4.926  64.724  1.00  0.00    -0.042 Cl 
HETATM   22  C   UNL     1      -9.516   6.807  66.723  1.00  0.00    -0.199 A  
HETATM   23  C   UNL     1     -10.971   6.590  67.059  1.00  0.00    -0.466 C  
HETATM   24  C   UNL     1     -11.160   6.239  68.537  1.00  0.00    -0.397 C  
HETATM   25  C   UNL     1     -10.854   7.283  69.591  1.00  0.00    -0.238 A  
HETATM   26  C   UNL     1     -10.118   8.463  69.408  1.00  0.00    -0.198 A  
HETATM   27  N   UNL     1      -9.815   9.298  70.440  1.00  0.00    -0.222 NA 
HETATM   28  C   UNL     1     -10.307   9.012  71.663  1.00  0.00    -0.350 A  
HETATM   29  C   UNL     1     -11.064   7.894  71.935  1.00  0.00    -0.317 A  
HETATM   30  C   UNL     1     -11.320   7.014  70.892  1.00  0.00    -0.334 A  
ENDBRANCH   8   9
ENDBRANCH   4   8
TORSDOF 2
ENDMDL
MODEL       12
REMARK 921   NORMALIZED FREE ENERGY PREDICTED BY IDOCK:   -6.71 KCAL/MOL
REMARK 922        TOTAL FREE ENERGY PREDICTED BY IDOCK:   -7.89 KCAL/MOL
REMARK 923 INTER-LIGAND FREE ENERGY PREDICTED BY IDOCK:   -7.50 KCAL/MOL
REMARK 924 INTRA-LIGAND FREE ENERGY PREDICTED BY IDOCK:   -0.39 KCAL/MOL
REMARK 927      BINDING AFFINITY PREDICTED BY RF-SCORE:    0.00 PKD
ROOT
HETATM    1  C   UNL     1      -8.624   3.992  66.395  1.00  0.00    -0.110 C  
HETATM    2  C   UNL     1      -8.127   5.276  66.973  1.00  0.00    -0.104 A  
HETATM    3  C   UNL     1      -8.876   6.019  67.894  1.00  0.00    -0.110 A  
HETATM    4  C   UNL     1      -8.363   7.204  68.430  1.00  0.00    -0.125 A  
HETATM    5  C   UNL     1      -7.104   7.602  67.979  1.00  0.00    -0.085 A  
HETATM    6  N   UNL     1      -6.358   6.929  67.075  1.00  0.00    -0.043 NA 
HETATM    7  C   UNL     1      -6.889   5.786  66.591  1.00  0.00    -0.059 A  
ENDROOT
BRANCH   4   8
HETATM    8  C   UNL     1      -9.126   8.119  69.363  1.00  0.00    -0.148 C  
BRANCH   8   9
HETATM    9  N   UNL     1     -10.507   8.480  68.983  1.00  0.00    -0.218 NA 
HETATM   10  C   UNL     1     -11.262   9.159  70.058  1.00  0.00    -0.150 C  
HETATM   11  C   UNL     1     -10.709  10.543  70.424  1.00  0.00    -0.074 C  
HETATM   12  C   UNL     1     -10.800  11.462  69.212  1.00  0.00    -0.242 C  
HETATM   13  C   UNL     1     -11.447  12.663  69.193  1.00  0.00    -0.359 C  
HETATM   14  C   UNL     1     -10.053  10.824  68.041  1.00  0.00    -0.198 C  
HETATM   15  C   UNL     1     -11.421  13.487  67.957  1.00  0.00    -0.342 A  
HETATM   16  C   UNL     1     -10.502   9.362  67.789  1.00  0.00    -0.254 C  
HETATM   17  C   UNL     1     -12.157  13.107  66.827  1.00  0.00    -0.389 A  
HETATM   18  C   UNL     1     -12.134  13.896  65.673  1.00  0.00    -0.442 A  
HETATM   19  C   UNL     1     -11.392  15.074  65.657  1.00  0.00    -0.297 A  
HETATM   20  C   UNL     1     -10.677  15.477  66.786  1.00  0.00    -0.305 A  
HETATM   21 CL   UNL     1     -11.371  16.053  64.242  1.00  0.00    -0.319 Cl 
HETATM   22  C   UNL     1     -10.691  14.689  67.946  1.00  0.00    -0.250 A  
HETATM   23  C   UNL     1      -9.972  15.135  69.194  1.00  0.00    -0.238 C  
HETATM   24  C   UNL     1     -10.955  15.544  70.294  1.00  0.00    -0.352 C  
HETATM   25  C   UNL     1     -11.840  14.490  70.927  1.00  0.00    -0.362 A  
HETATM   26  C   UNL     1     -12.100  13.207  70.423  1.00  0.00    -0.317 A  
HETATM   27  N   UNL     1     -12.985  12.359  71.015  1.00  0.00    -0.143 NA 
HETATM   28  C   UNL     1     -13.571  12.745  72.167  1.00  0.00    -0.451 A  
HETATM   29  C   UNL     1     -13.357  13.972  72.755  1.00  0.00    -0.603 A  
HETATM   30  C   UNL     1     -12.499  14.857  72.115  1.00  0.00    -0.416 A  
ENDBRANCH   8   9
ENDBRANCH   4   8
TORSDOF 2
ENDMDL
MODEL       13
REMARK 921   NORMALIZED FREE ENERGY PREDICTED BY IDOCK:   -6.65 KCAL/MOL
REMARK 922        TOTAL FREE ENERGY PREDICTED BY IDOCK:   -7.83 KCAL/MOL
REMARK 923 INTER-LIGAND FREE ENERGY PREDICTED BY IDOCK:   -7.52 KCAL/MOL
REMARK 924 INTRA-LIGAND FREE ENERGY PREDICTED BY IDOCK:   -0.31 KCAL/MOL
REMARK 927      BINDING AFFINITY PREDICTED BY RF-SCORE:    0.00 PKD
ROOT
HETATM    1  C   UNL     1     -10.594   5.056  73.867  1.00  0.00    -0.340 C  
HETATM    2  C   UNL     1     -10.361   5.173  72.397  1.00  0.00    -0.257 A  
HETATM    3  C   UNL     1     -10.611   6.359  71.694  1.00  0.00    -0.261 A  
HETATM    4  C   UNL     1     -10.353   6.435  70.322  1.00  0.00    -0.252 A  
HETATM    5  C   UNL     1      -9.872   5.276  69.710  1.00  0.00    -0.211 A  
HETATM    6  N   UNL     1      -9.640   4.106  70.344  1.00  0.00    -0.181 NA 
HETATM    7  C   UNL     1      -9.893   4.081  71.670  1.00  0.00    -0.183 A  
ENDROOT
BRANCH   4   8
HETATM    8  C   UNL     1     -10.669   7.637  69.460  1.00  0.00    -0.209 C  
BRANCH   8   9
HETATM    9  N   UNL     1      -9.630   8.085  68.510  1.00  0.00    -0.153 NA 
HETATM   10  C   UNL     1     -10.166   8.520  67.203  1.00  0.00    -0.284 C  
HETATM   11  C   UNL     1     -11.031   9.785  67.278  1.00  0.00    -0.142 C  
HETATM   12  C   UNL     1     -10.187  10.948  67.784  1.00  0.00    -0.209 C  
HETATM   13  C   UNL     1     -10.014  12.130  67.125  1.00  0.00    -0.210 C  
HETATM   14  C   UNL     1      -9.577  10.574  69.135  1.00  0.00    -0.214 C  
HETATM   15  C   UNL     1      -9.202  13.204  67.751  1.00  0.00    -0.203 A  
HETATM   16  C   UNL     1      -8.849   9.207  69.089  1.00  0.00    -0.146 C  
HETATM   17  C   UNL     1      -7.808  13.087  67.842  1.00  0.00    -0.149 A  
HETATM   18  C   UNL     1      -7.052  14.109  68.424  1.00  0.00    -0.104 A  
HETATM   19  C   UNL     1      -7.687  15.256  68.894  1.00  0.00    -0.167 A  
HETATM   20  C   UNL     1      -9.071  15.395  68.784  1.00  0.00    -0.207 A  
HETATM   21 CL   UNL     1      -6.757  16.520  69.600  1.00  0.00    -0.191 Cl 
HETATM   22  C   UNL     1      -9.838  14.372  68.206  1.00  0.00    -0.229 A  
HETATM   23  C   UNL     1     -11.327  14.528  68.027  1.00  0.00    -0.326 C  
HETATM   24  C   UNL     1     -11.701  14.696  66.551  1.00  0.00    -0.335 C  
HETATM   25  C   UNL     1     -11.494  13.537  65.598  1.00  0.00    -0.330 A  
HETATM   26  C   UNL     1     -10.709  12.398  65.828  1.00  0.00    -0.267 A  
HETATM   27  N   UNL     1     -10.507  11.449  64.872  1.00  0.00    -0.290 NA 
HETATM   28  C   UNL     1     -11.149  11.579  63.693  1.00  0.00    -0.385 A  
HETATM   29  C   UNL     1     -11.964  12.646  63.385  1.00  0.00    -0.613 A  
HETATM   30  C   UNL     1     -12.119  13.641  64.341  1.00  0.00    -0.470 A  
ENDBRANCH   8   9
ENDBRANCH   4   8
TORSDOF 2
ENDMDL
MODEL       14
REMARK 921   NORMALIZED FREE ENERGY PREDICTED BY IDOCK:   -6.65 KCAL/MOL
REMARK 922        TOTAL FREE ENERGY PREDICTED BY IDOCK:   -7.83 KCAL/MOL
REMARK 923 INTER-LIGAND FREE ENERGY PREDICTED BY IDOCK:   -7.50 KCAL/MOL
REMARK 924 INTRA-LIGAND FREE ENERGY PREDICTED BY IDOCK:   -0.33 KCAL/MOL
REMARK 927      BINDING AFFINITY PREDICTED BY RF-SCORE:    0.00 PKD
ROOT
HETATM    1  C   UNL     1     -10.334  20.411  69.303  1.00  0.00     0.140 C  
HETATM    2  C   UNL     1     -10.338  19.525  68.101  1.00  0.00    -0.550 A  
HETATM    3  C   UNL     1     -10.053  18.156  68.183  1.00  0.00    -0.388 A  
HETATM    4  C   UNL     1     -10.094  17.356  67.037  1.00  0.00    -0.313 A  
HETATM    5  C   UNL     1     -10.400  17.997  65.836  1.00  0.00    -0.271 A  
HETATM    6  N   UNL     1     -10.657  19.318  65.709  1.00  0.00    -0.491 NA 
HETATM    7  C   UNL     1     -10.616  20.050  66.842  1.00  0.00    -0.327 A  
ENDROOT
BRANCH   4   8
HETATM    8  C   UNL     1      -9.721  15.890  67.006  1.00  0.00    -0.228 C  
BRANCH   8   9
HETATM    9  N   UNL     1     -10.770  14.929  66.609  1.00  0.00    -0.306 NA 
HETATM   10  C   UNL     1     -10.257  13.769  65.849  1.00  0.00    -0.313 C  
HETATM   11  C   UNL     1      -9.339  12.850  66.665  1.00  0.00    -0.240 C  
HETATM   12  C   UNL     1     -10.118  12.263  67.835  1.00  0.00    -0.200 C  
HETATM   13  C   UNL     1     -10.263  10.929  68.085  1.00  0.00    -0.197 C  
HETATM   14  C   UNL     1     -10.701  13.402  68.672  1.00  0.00    -0.275 C  
HETATM   15  C   UNL     1     -11.010  10.488  69.289  1.00  0.00    -0.291 A  
HETATM   16  C   UNL     1     -11.485  14.420  67.807  1.00  0.00    -0.336 C  
HETATM   17  C   UNL     1     -12.404  10.620  69.356  1.00  0.00    -0.071 A  
HETATM   18  C   UNL     1     -13.098  10.191  70.491  1.00  0.00    -0.170 A  
HETATM   19  C   UNL     1     -12.402   9.612  71.549  1.00  0.00    -0.390 A  
HETATM   20  C   UNL     1     -11.018   9.450  71.482  1.00  0.00    -0.429 A  
HETATM   21 CL   UNL     1     -13.256   9.073  72.942  1.00  0.00    -0.231 Cl 
HETATM   22  C   UNL     1     -10.312   9.882  70.350  1.00  0.00    -0.322 A  
HETATM   23  C   UNL     1      -8.824   9.666  70.234  1.00  0.00    -0.253 C  
HETATM   24  C   UNL     1      -8.490   8.603  69.183  1.00  0.00    -0.124 C  
HETATM   25  C   UNL     1      -8.775   8.891  67.723  1.00  0.00    -0.125 A  
HETATM   26  C   UNL     1      -9.599   9.907  67.218  1.00  0.00    -0.160 A  
HETATM   27  N   UNL     1      -9.870  10.030  65.889  1.00  0.00    -0.246 NA 
HETATM   28  C   UNL     1      -9.261   9.189  65.029  1.00  0.00    -0.114 A  
HETATM   29  C   UNL     1      -8.413   8.179  65.426  1.00  0.00    -0.164 A  
HETATM   30  C   UNL     1      -8.187   8.019  66.787  1.00  0.00    -0.111 A  
ENDBRANCH   8   9
ENDBRANCH   4   8
TORSDOF 2
ENDMDL
MODEL       15
REMARK 921   NORMALIZED FREE ENERGY PREDICTED BY IDOCK:   -6.56 KCAL/MOL
REMARK 922        TOTAL FREE ENERGY PREDICTED BY IDOCK:   -7.73 KCAL/MOL
REMARK 923 INTER-LIGAND FREE ENERGY PREDICTED BY IDOCK:   -7.27 KCAL/MOL
REMARK 924 INTRA-LIGAND FREE ENERGY PREDICTED BY IDOCK:   -0.46 KCAL/MOL
REMARK 927      BINDING AFFINITY PREDICTED BY RF-SCORE:    0.00 PKD
ROOT
HETATM    1  C   UNL     1      -9.847   4.182  70.506  1.00  0.00    -0.252 C  
HETATM    2  C   UNL     1     -10.274   5.384  71.284  1.00  0.00    -0.287 A  
HETATM    3  C   UNL     1     -10.862   6.498  70.672  1.00  0.00    -0.317 A  
HETATM    4  C   UNL     1     -11.272   7.591  71.440  1.00  0.00    -0.267 A  
HETATM    5  C   UNL     1     -11.037   7.516  72.814  1.00  0.00    -0.366 A  
HETATM    6  N   UNL     1     -10.452   6.472  73.441  1.00  0.00    -0.251 NA 
HETATM    7  C   UNL     1     -10.081   5.434  72.662  1.00  0.00    -0.176 A  
ENDROOT
BRANCH   4   8
HETATM    8  C   UNL     1     -11.837   8.873  70.867  1.00  0.00    -0.240 C  
BRANCH   8   9
HETATM    9  N   UNL     1     -10.944  10.049  70.818  1.00  0.00    -0.324 NA 
HETATM   10  C   UNL     1      -9.624   9.768  70.213  1.00  0.00    -0.208 C  
HETATM   11  C   UNL     1      -9.689   9.412  68.722  1.00  0.00    -0.161 C  
HETATM   12  C   UNL     1     -10.257  10.591  67.943  1.00  0.00    -0.213 C  
HETATM   13  C   UNL     1      -9.632  11.209  66.898  1.00  0.00    -0.208 C  
HETATM   14  C   UNL     1     -11.625  10.960  68.517  1.00  0.00    -0.360 C  
HETATM   15  C   UNL     1     -10.317  12.321  66.192  1.00  0.00    -0.269 A  
HETATM   16  C   UNL     1     -11.581  11.151  70.054  1.00  0.00    -0.338 C  
HETATM   17  C   UNL     1     -10.467  13.573  66.802  1.00  0.00    -0.273 A  
HETATM   18  C   UNL     1     -11.103  14.616  66.122  1.00  0.00    -0.334 A  
HETATM   19  C   UNL     1     -11.570  14.413  64.827  1.00  0.00    -0.408 A  
HETATM   20  C   UNL     1     -11.403  13.178  64.199  1.00  0.00    -0.440 A  
HETATM   21 CL   UNL     1     -12.344  15.698  63.984  1.00  0.00    -0.049 Cl 
HETATM   22  C   UNL     1     -10.769  12.125  64.875  1.00  0.00    -0.336 A  
HETATM   23  C   UNL     1     -10.528  10.801  64.194  1.00  0.00    -0.309 C  
HETATM   24  C   UNL     1      -9.042  10.584  63.895  1.00  0.00    -0.257 C  
HETATM   25  C   UNL     1      -8.073  10.409  65.047  1.00  0.00    -0.136 A  
HETATM   26  C   UNL     1      -8.312  10.721  66.393  1.00  0.00    -0.153 A  
HETATM   27  N   UNL     1      -7.345  10.615  67.346  1.00  0.00    -0.091 NA 
HETATM   28  C   UNL     1      -6.143  10.121  66.989  1.00  0.00    -0.055 A  
HETATM   29  C   UNL     1      -5.823   9.758  65.699  1.00  0.00    -0.063 A  
HETATM   30  C   UNL     1      -6.793   9.925  64.719  1.00  0.00    -0.129 A  
ENDBRANCH   8   9
ENDBRANCH   4   8
TORSDOF 2
ENDMDL
MODEL       16
REMARK 921   NORMALIZED FREE ENERGY PREDICTED BY IDOCK:   -6.56 KCAL/MOL
REMARK 922        TOTAL FREE ENERGY PREDICTED BY IDOCK:   -7.72 KCAL/MOL
REMARK 923 INTER-LIGAND FREE ENERGY PREDICTED BY IDOCK:   -7.37 KCAL/MOL
REMARK 924 INTRA-LIGAND FREE ENERGY PREDICTED BY IDOCK:   -0.36 KCAL/MOL
REMARK 927      BINDING AFFINITY PREDICTED BY RF-SCORE:    0.00 PKD
ROOT
HETATM    1  C   UNL     1     -10.238  17.589  65.608  1.00  0.00    -0.093 C  
HETATM    2  C   UNL     1     -11.011  16.314  65.514  1.00  0.00    -0.154 A  
HETATM    3  C   UNL     1     -11.144  15.441  66.601  1.00  0.00    -0.236 A  
HETATM    4  C   UNL     1     -11.899  14.271  66.478  1.00  0.00    -0.433 A  
HETATM    5  C   UNL     1     -12.470  14.021  65.230  1.00  0.00    -0.475 A  
HETATM    6  N   UNL     1     -12.347  14.823  64.150  1.00  0.00    -0.752 NA 
HETATM    7  C   UNL     1     -11.618  15.947  64.316  1.00  0.00    -0.178 A  
ENDROOT
BRANCH   4   8
HETATM    8  C   UNL     1     -12.032  13.224  67.563  1.00  0.00    -0.324 C  
BRANCH   8   9
HETATM    9  N   UNL     1     -10.829  12.916  68.363  1.00  0.00    -0.245 NA 
HETATM   10  C   UNL     1     -11.110  12.121  69.578  1.00  0.00    -0.050 C  
HETATM   11  C   UNL     1     -11.616  10.702  69.287  1.00  0.00    -0.346 C  
HETATM   12  C   UNL     1     -10.546   9.928  68.527  1.00  0.00    -0.248 C  
HETATM   13  C   UNL     1     -10.010   8.740  68.930  1.00  0.00    -0.200 C  
HETATM   14  C   UNL     1     -10.183  10.693  67.254  1.00  0.00    -0.250 C  
HETATM   15  C   UNL     1      -9.005   8.064  68.071  1.00  0.00    -0.130 A  
HETATM   16  C   UNL     1      -9.838  12.176  67.542  1.00  0.00    -0.191 C  
HETATM   17  C   UNL     1      -7.706   8.574  67.949  1.00  0.00    -0.103 A  
HETATM   18  C   UNL     1      -6.765   7.922  67.146  1.00  0.00    -0.068 A  
HETATM   19  C   UNL     1      -7.117   6.750  66.483  1.00  0.00    -0.071 A  
HETATM   20  C   UNL     1      -8.400   6.217  66.617  1.00  0.00    -0.112 A  
HETATM   21 CL   UNL     1      -5.958   5.940  65.503  1.00  0.00    -0.024 Cl 
HETATM   22  C   UNL     1      -9.352   6.867  67.417  1.00  0.00    -0.144 A  
HETATM   23  C   UNL     1     -10.725   6.278  67.621  1.00  0.00    -0.391 C  
HETATM   24  C   UNL     1     -10.904   5.750  69.047  1.00  0.00    -0.330 C  
HETATM   25  C   UNL     1     -10.921   6.728  70.203  1.00  0.00    -0.340 A  
HETATM   26  C   UNL     1     -10.486   8.061  70.174  1.00  0.00    -0.225 A  
HETATM   27  N   UNL     1     -10.454   8.840  71.291  1.00  0.00    -0.233 NA 
HETATM   28  C   UNL     1     -10.927   8.327  72.445  1.00  0.00    -0.368 A  
HETATM   29  C   UNL     1     -11.402   7.041  72.566  1.00  0.00    -0.301 A  
HETATM   30  C   UNL     1     -11.378   6.231  71.438  1.00  0.00    -0.353 A  
ENDBRANCH   8   9
ENDBRANCH   4   8
TORSDOF 2
ENDMDL
MODEL       17
REMARK 921   NORMALIZED FREE ENERGY PREDICTED BY IDOCK:   -6.55 KCAL/MOL
REMARK 922        TOTAL FREE ENERGY PREDICTED BY IDOCK:   -7.72 KCAL/MOL
REMARK 923 INTER-LIGAND FREE ENERGY PREDICTED BY IDOCK:   -7.48 KCAL/MOL
REMARK 924 INTRA-LIGAND FREE ENERGY PREDICTED BY IDOCK:   -0.24 KCAL/MOL
REMARK 927      BINDING AFFINITY PREDICTED BY RF-SCORE:    0.00 PKD
ROOT
HETATM    1  C   UNL     1      -9.767  20.755  67.281  1.00  0.00    -0.487 C  
HETATM    2  C   UNL     1      -8.780  19.670  66.999  1.00  0.00    -0.369 A  
HETATM    3  C   UNL     1      -8.639  18.553  67.832  1.00  0.00    -0.304 A  
HETATM    4  C   UNL     1      -7.721  17.548  67.516  1.00  0.00    -0.210 A  
HETATM    5  C   UNL     1      -6.955  17.738  66.366  1.00  0.00    -0.253 A  
HETATM    6  N   UNL     1      -7.041  18.810  65.548  1.00  0.00    -0.510 NA 
HETATM    7  C   UNL     1      -7.947  19.752  65.886  1.00  0.00    -0.280 A  
ENDROOT
BRANCH   4   8
HETATM    8  C   UNL     1      -7.435  16.348  68.393  1.00  0.00    -0.171 C  
BRANCH   8   9
HETATM    9  N   UNL     1      -8.593  15.572  68.883  1.00  0.00    -0.191 NA 
HETATM   10  C   UNL     1      -9.666  15.407  67.880  1.00  0.00    -0.207 C  
HETATM   11  C   UNL     1      -9.259  14.556  66.670  1.00  0.00    -0.290 C  
HETATM   12  C   UNL     1      -8.911  13.148  67.135  1.00  0.00    -0.222 C  
HETATM   13  C   UNL     1      -9.496  12.006  66.669  1.00  0.00    -0.222 C  
HETATM   14  C   UNL     1      -7.810  13.226  68.193  1.00  0.00    -0.145 C  
HETATM   15  C   UNL     1      -9.030  10.689  67.172  1.00  0.00    -0.143 A  
HETATM   16  C   UNL     1      -8.160  14.223  69.327  1.00  0.00     0.164 C  
HETATM   17  C   UNL     1      -9.330  10.273  68.476  1.00  0.00    -0.155 A  
HETATM   18  C   UNL     1      -8.896   9.026  68.935  1.00  0.00    -0.139 A  
HETATM   19  C   UNL     1      -8.182   8.187  68.084  1.00  0.00    -0.129 A  
HETATM   20  C   UNL     1      -7.901   8.579  66.775  1.00  0.00    -0.091 A  
HETATM   21 CL   UNL     1      -7.656   6.647  68.644  1.00  0.00    -0.099 Cl 
HETATM   22  C   UNL     1      -8.328   9.831  66.307  1.00  0.00    -0.117 A  
HETATM   23  C   UNL     1      -8.084  10.249  64.879  1.00  0.00    -0.154 C  
HETATM   24  C   UNL     1      -9.384  10.276  64.071  1.00  0.00    -0.337 C  
HETATM   25  C   UNL     1     -10.447  11.300  64.411  1.00  0.00    -0.407 A  
HETATM   26  C   UNL     1     -10.530  12.055  65.590  1.00  0.00    -0.256 A  
HETATM   27  N   UNL     1     -11.577  12.887  65.848  1.00  0.00    -0.356 NA 
HETATM   28  C   UNL     1     -12.523  13.041  64.899  1.00  0.00    -0.455 A  
HETATM   29  C   UNL     1     -12.513  12.367  63.699  1.00  0.00    -0.610 A  
HETATM   30  C   UNL     1     -11.475  11.474  63.466  1.00  0.00    -0.334 A  
ENDBRANCH   8   9
ENDBRANCH   4   8
TORSDOF 2
ENDMDL
MODEL       18
REMARK 921   NORMALIZED FREE ENERGY PREDICTED BY IDOCK:   -6.50 KCAL/MOL
REMARK 922        TOTAL FREE ENERGY PREDICTED BY IDOCK:   -7.66 KCAL/MOL
REMARK 923 INTER-LIGAND FREE ENERGY PREDICTED BY IDOCK:   -7.37 KCAL/MOL
REMARK 924 INTRA-LIGAND FREE ENERGY PREDICTED BY IDOCK:   -0.30 KCAL/MOL
REMARK 927      BINDING AFFINITY PREDICTED BY RF-SCORE:    0.00 PKD
ROOT
HETATM    1  C   UNL     1      -9.317   2.881  69.037  1.00  0.00    -0.215 C  
HETATM    2  C   UNL     1      -9.736   4.093  69.804  1.00  0.00    -0.278 A  
HETATM    3  C   UNL     1      -9.955   5.329  69.184  1.00  0.00    -0.275 A  
HETATM    4  C   UNL     1     -10.373   6.432  69.934  1.00  0.00    -0.242 A  
HETATM    5  C   UNL     1     -10.523   6.234  71.307  1.00  0.00    -0.218 A  
HETATM    6  N   UNL     1     -10.299   5.067  71.949  1.00  0.00    -0.207 NA 
HETATM    7  C   UNL     1      -9.907   4.026  71.184  1.00  0.00    -0.166 A  
ENDROOT
BRANCH   4   8
HETATM    8  C   UNL     1     -10.554   7.826  69.374  1.00  0.00    -0.208 C  
BRANCH   8   9
HETATM    9  N   UNL     1      -9.556   8.300  68.393  1.00  0.00    -0.143 NA 
HETATM   10  C   UNL     1     -10.147   8.766  67.121  1.00  0.00    -0.252 C  
HETATM   11  C   UNL     1     -11.011  10.026  67.263  1.00  0.00    -0.225 C  
HETATM   12  C   UNL     1     -10.148  11.178  67.762  1.00  0.00    -0.200 C  
HETATM   13  C   UNL     1     -10.006  12.377  67.126  1.00  0.00    -0.211 C  
HETATM   14  C   UNL     1      -9.481  10.773  69.077  1.00  0.00    -0.179 C  
HETATM   15  C   UNL     1      -9.169  13.437  67.744  1.00  0.00    -0.211 A  
HETATM   16  C   UNL     1      -8.753   9.410  68.967  1.00  0.00    -0.136 C  
HETATM   17  C   UNL     1      -7.773  13.322  67.774  1.00  0.00    -0.159 A  
HETATM   18  C   UNL     1      -6.995  14.332  68.348  1.00  0.00    -0.100 A  
HETATM   19  C   UNL     1      -7.612  15.464  68.873  1.00  0.00    -0.164 A  
HETATM   20  C   UNL     1      -8.999  15.602  68.825  1.00  0.00    -0.205 A  
HETATM   21 CL   UNL     1      -6.656  16.713  69.571  1.00  0.00    -0.225 Cl 
HETATM   22  C   UNL     1      -9.788  14.592  68.254  1.00  0.00    -0.222 A  
HETATM   23  C   UNL     1     -11.284  14.747  68.141  1.00  0.00    -0.307 C  
HETATM   24  C   UNL     1     -11.720  14.951  66.687  1.00  0.00    -0.225 C  
HETATM   25  C   UNL     1     -11.550  13.817  65.698  1.00  0.00    -0.339 A  
HETATM   26  C   UNL     1     -10.754  12.675  65.866  1.00  0.00    -0.266 A  
HETATM   27  N   UNL     1     -10.591  11.750  64.879  1.00  0.00    -0.282 NA 
HETATM   28  C   UNL     1     -11.282  11.908  63.732  1.00  0.00    -0.440 A  
HETATM   29  C   UNL     1     -12.111  12.979  63.484  1.00  0.00    -0.617 A  
HETATM   30  C   UNL     1     -12.227  13.950  64.471  1.00  0.00    -0.451 A  
ENDBRANCH   8   9
ENDBRANCH   4   8
TORSDOF 2
ENDMDL
MODEL       19
REMARK 921   NORMALIZED FREE ENERGY PREDICTED BY IDOCK:   -6.33 KCAL/MOL
REMARK 922        TOTAL FREE ENERGY PREDICTED BY IDOCK:   -7.47 KCAL/MOL
REMARK 923 INTER-LIGAND FREE ENERGY PREDICTED BY IDOCK:   -7.01 KCAL/MOL
REMARK 924 INTRA-LIGAND FREE ENERGY PREDICTED BY IDOCK:   -0.46 KCAL/MOL
REMARK 927      BINDING AFFINITY PREDICTED BY RF-SCORE:    0.00 PKD
ROOT
HETATM    1  C   UNL     1     -13.050  14.304  72.605  1.00  0.00    -0.567 C  
HETATM    2  C   UNL     1     -12.452  14.567  71.262  1.00  0.00    -0.416 A  
HETATM    3  C   UNL     1     -12.392  13.585  70.266  1.00  0.00    -0.370 A  
HETATM    4  C   UNL     1     -11.847  13.881  69.013  1.00  0.00    -0.397 A  
HETATM    5  C   UNL     1     -11.354  15.174  68.834  1.00  0.00    -0.301 A  
HETATM    6  N   UNL     1     -11.369  16.144  69.775  1.00  0.00    -0.335 NA 
HETATM    7  C   UNL     1     -11.913  15.817  70.967  1.00  0.00    -0.419 A  
ENDROOT
BRANCH   4   8
HETATM    8  C   UNL     1     -11.661  12.870  67.903  1.00  0.00    -0.345 C  
BRANCH   8   9
HETATM    9  N   UNL     1     -10.291  12.375  67.657  1.00  0.00    -0.214 NA 
HETATM   10  C   UNL     1      -9.591  11.926  68.880  1.00  0.00     0.084 C  
HETATM   11  C   UNL     1     -10.217  10.686  69.532  1.00  0.00    -0.190 C  
HETATM   12  C   UNL     1     -10.145   9.513  68.563  1.00  0.00    -0.198 C  
HETATM   13  C   UNL     1      -9.556   8.312  68.835  1.00  0.00    -0.153 C  
HETATM   14  C   UNL     1     -10.837   9.899  67.255  1.00  0.00    -0.268 C  
HETATM   15  C   UNL     1      -9.596   7.232  67.817  1.00  0.00    -0.158 A  
HETATM   16  C   UNL     1     -10.314  11.245  66.694  1.00  0.00    -0.237 C  
HETATM   17  C   UNL     1      -8.821   7.314  66.653  1.00  0.00    -0.151 A  
HETATM   18  C   UNL     1      -8.858   6.285  65.707  1.00  0.00    -0.122 A  
HETATM   19  C   UNL     1      -9.654   5.166  65.935  1.00  0.00    -0.148 A  
HETATM   20  C   UNL     1     -10.410   5.060  67.104  1.00  0.00    -0.217 A  
HETATM   21 CL   UNL     1      -9.693   3.893  64.778  1.00  0.00    -0.177 Cl 
HETATM   22  C   UNL     1     -10.382   6.090  68.056  1.00  0.00    -0.250 A  
HETATM   23  C   UNL     1     -11.147   5.970  69.350  1.00  0.00    -0.445 C  
HETATM   24  C   UNL     1     -10.207   5.780  70.544  1.00  0.00    -0.284 C  
HETATM   25  C   UNL     1      -9.286   6.912  70.948  1.00  0.00    -0.157 A  
HETATM   26  C   UNL     1      -8.954   8.035  70.175  1.00  0.00    -0.150 A  
HETATM   27  N   UNL     1      -8.042   8.958  70.588  1.00  0.00    -0.127 NA 
HETATM   28  C   UNL     1      -7.498   8.819  71.814  1.00  0.00    -0.042 A  
HETATM   29  C   UNL     1      -7.782   7.768  72.657  1.00  0.00    -0.129 A  
HETATM   30  C   UNL     1      -8.669   6.798  72.208  1.00  0.00    -0.130 A  
ENDBRANCH   8   9
ENDBRANCH   4   8
TORSDOF 2
ENDMDL
MODEL       20
REMARK 921   NORMALIZED FREE ENERGY PREDICTED BY IDOCK:   -6.32 KCAL/MOL
REMARK 922        TOTAL FREE ENERGY PREDICTED BY IDOCK:   -7.46 KCAL/MOL
REMARK 923 INTER-LIGAND FREE ENERGY PREDICTED BY IDOCK:   -7.16 KCAL/MOL
REMARK 924 INTRA-LIGAND FREE ENERGY PREDICTED BY IDOCK:   -0.30 KCAL/MOL
REMARK 927      BINDING AFFINITY PREDICTED BY RF-SCORE:    0.00 PKD
ROOT
HETATM    1  C   UNL     1      -9.936  20.440  67.016  1.00  0.00    -0.568 C  
HETATM    2  C   UNL     1      -8.580  19.988  67.446  1.00  0.00    -0.403 A  
HETATM    3  C   UNL     1      -8.349  18.706  67.961  1.00  0.00    -0.299 A  
HETATM    4  C   UNL     1      -7.058  18.313  68.327  1.00  0.00    -0.254 A  
HETATM    5  C   UNL     1      -6.048  19.265  68.178  1.00  0.00    -0.217 A  
HETATM    6  N   UNL     1      -6.231  20.518  67.709  1.00  0.00    -0.246 NA 
HETATM    7  C   UNL     1      -7.491  20.852  67.359  1.00  0.00    -0.285 A  
ENDROOT
BRANCH   4   8
HETATM    8  C   UNL     1      -6.721  16.986  68.970  1.00  0.00    -0.221 C  
BRANCH   8   9
HETATM    9  N   UNL     1      -6.313  15.882  68.077  1.00  0.00    -0.121 NA 
HETATM   10  C   UNL     1      -6.193  14.576  68.762  1.00  0.00    -0.087 C  
HETATM   11  C   UNL     1      -7.527  14.027  69.285  1.00  0.00     0.059 C  
HETATM   12  C   UNL     1      -8.473  13.793  68.115  1.00  0.00    -0.173 C  
HETATM   13  C   UNL     1      -9.070  12.601  67.821  1.00  0.00    -0.192 C  
HETATM   14  C   UNL     1      -8.642  15.098  67.337  1.00  0.00    -0.201 C  
HETATM   15  C   UNL     1     -10.011  12.518  66.676  1.00  0.00    -0.243 A  
HETATM   16  C   UNL     1      -7.281  15.735  66.961  1.00  0.00    -0.173 C  
HETATM   17  C   UNL     1      -9.542  12.572  65.357  1.00  0.00    -0.015 A  
HETATM   18  C   UNL     1     -10.436  12.481  64.286  1.00  0.00    -0.404 A  
HETATM   19  C   UNL     1     -11.796  12.315  64.535  1.00  0.00    -0.369 A  
HETATM   20  C   UNL     1     -12.272  12.232  65.844  1.00  0.00    -0.097 A  
HETATM   21 CL   UNL     1     -12.898  12.192  63.219  1.00  0.00    -0.489 Cl 
HETATM   22  C   UNL     1     -11.382  12.327  66.924  1.00  0.00    -0.392 A  
HETATM   23  C   UNL     1     -11.869  12.183  68.344  1.00  0.00    -0.360 C  
HETATM   24  C   UNL     1     -11.400  10.866  68.969  1.00  0.00    -0.348 C  
HETATM   25  C   UNL     1      -9.923  10.655  69.230  1.00  0.00    -0.215 A  
HETATM   26  C   UNL     1      -8.865  11.402  68.691  1.00  0.00    -0.125 A  
HETATM   27  N   UNL     1      -7.561  11.079  68.911  1.00  0.00    -0.126 NA 
HETATM   28  C   UNL     1      -7.286  10.049  69.738  1.00  0.00    -0.127 A  
HETATM   29  C   UNL     1      -8.254   9.276  70.338  1.00  0.00    -0.199 A  
HETATM   30  C   UNL     1      -9.583   9.572  70.062  1.00  0.00    -0.272 A  
ENDBRANCH   8   9
ENDBRANCH   4   8
TORSDOF 2
ENDMDL
MODEL       21
REMARK 921   NORMALIZED FREE ENERGY PREDICTED BY IDOCK:   -6.29 KCAL/MOL
REMARK 922        TOTAL FREE ENERGY PREDICTED BY IDOCK:   -7.42 KCAL/MOL
REMARK 923 INTER-LIGAND FREE ENERGY PREDICTED BY IDOCK:   -7.15 KCAL/MOL
REMARK 924 INTRA-LIGAND FREE ENERGY PREDICTED BY IDOCK:   -0.27 KCAL/MOL
REMARK 927      BINDING AFFINITY PREDICTED BY RF-SCORE:    0.00 PKD
ROOT
HETATM    1  C   UNL     1      -7.269  20.569  66.882  1.00  0.00    -0.344 C  
HETATM    2  C   UNL     1      -8.486  19.752  67.165  1.00  0.00    -0.364 A  
HETATM    3  C   UNL     1      -8.413  18.489  67.766  1.00  0.00    -0.285 A  
HETATM    4  C   UNL     1      -9.579  17.767  68.037  1.00  0.00    -0.291 A  
HETATM    5  C   UNL     1     -10.785  18.358  67.655  1.00  0.00    -0.357 A  
HETATM    6  N   UNL     1     -10.899  19.561  67.052  1.00  0.00    -0.477 NA 
HETATM    7  C   UNL     1      -9.748  20.227  66.817  1.00  0.00    -0.431 A  
ENDROOT
BRANCH   4   8
HETATM    8  C   UNL     1      -9.602  16.364  68.603  1.00  0.00    -0.240 C  
BRANCH   8   9
HETATM    9  N   UNL     1     -10.709  15.479  68.185  1.00  0.00    -0.273 NA 
HETATM   10  C   UNL     1     -10.614  15.033  66.778  1.00  0.00    -0.301 C  
HETATM   11  C   UNL     1      -9.413  14.121  66.496  1.00  0.00    -0.303 C  
HETATM   12  C   UNL     1      -9.538  12.849  67.324  1.00  0.00    -0.220 C  
HETATM   13  C   UNL     1      -9.539  11.583  66.813  1.00  0.00    -0.203 C  
HETATM   14  C   UNL     1      -9.657  13.221  68.803  1.00  0.00     0.058 C  
HETATM   15  C   UNL     1      -9.620  10.423  67.736  1.00  0.00    -0.169 A  
HETATM   16  C   UNL     1     -10.765  14.275  69.052  1.00  0.00    -0.245 C  
HETATM   17  C   UNL     1     -10.814  10.120  68.404  1.00  0.00    -0.284 A  
HETATM   18  C   UNL     1     -10.882   9.018  69.261  1.00  0.00    -0.131 A  
HETATM   19  C   UNL     1      -9.763   8.208  69.434  1.00  0.00    -0.170 A  
HETATM   20  C   UNL     1      -8.576   8.483  68.753  1.00  0.00    -0.131 A  
HETATM   21 CL   UNL     1      -9.847   6.844  70.480  1.00  0.00    -0.184 Cl 
HETATM   22  C   UNL     1      -8.498   9.589  67.894  1.00  0.00    -0.119 A  
HETATM   23  C   UNL     1      -7.244   9.872  67.106  1.00  0.00    -0.086 C  
HETATM   24  C   UNL     1      -7.445   9.601  65.612  1.00  0.00    -0.101 C  
HETATM   25  C   UNL     1      -8.392  10.479  64.822  1.00  0.00    -0.125 A  
HETATM   26  C   UNL     1      -9.363  11.344  65.347  1.00  0.00    -0.186 A  
HETATM   27  N   UNL     1     -10.234  12.027  64.555  1.00  0.00    -0.277 NA 
HETATM   28  C   UNL     1     -10.104  11.920  63.217  1.00  0.00    -0.396 A  
HETATM   29  C   UNL     1      -9.164  11.120  62.606  1.00  0.00    -0.357 A  
HETATM   30  C   UNL     1      -8.316  10.379  63.420  1.00  0.00    -0.158 A  
ENDBRANCH   8   9
ENDBRANCH   4   8
TORSDOF 2
ENDMDL
MODEL       22
REMARK 921   NORMALIZED FREE ENERGY PREDICTED BY IDOCK:   -6.24 KCAL/MOL
REMARK 922        TOTAL FREE ENERGY PREDICTED BY IDOCK:   -7.37 KCAL/MOL
REMARK 923 INTER-LIGAND FREE ENERGY PREDICTED BY IDOCK:   -7.08 KCAL/MOL
REMARK 924 INTRA-LIGAND FREE ENERGY PREDICTED BY IDOCK:   -0.30 KCAL/MOL
REMARK 927      BINDING AFFINITY PREDICTED BY RF-SCORE:    0.00 PKD
ROOT
HETATM    1  C   UNL     1     -10.974  16.614  65.299  1.00  0.00    -0.127 C  
HETATM    2  C   UNL     1     -11.220  15.223  64.814  1.00  0.00    -0.405 A  
HETATM    3  C   UNL     1     -10.420  14.143  65.208  1.00  0.00    -0.402 A  
HETATM    4  C   UNL     1     -10.701  12.852  64.751  1.00  0.00    -0.354 A  
HETATM    5  C   UNL     1     -11.782  12.717  63.879  1.00  0.00    -0.459 A  
HETATM    6  N   UNL     1     -12.564  13.734  63.455  1.00  0.00    -0.808 NA 
HETATM    7  C   UNL     1     -12.263  14.962  63.929  1.00  0.00     0.048 A  
ENDROOT
BRANCH   4   8
HETATM    8  C   UNL     1      -9.849  11.638  65.049  1.00  0.00    -0.248 C  
BRANCH   8   9
HETATM    9  N   UNL     1      -9.033  11.664  66.281  1.00  0.00    -0.204 NA 
HETATM   10  C   UNL     1      -9.828  11.569  67.523  1.00  0.00    -0.190 C  
HETATM   11  C   UNL     1     -10.544  10.224  67.699  1.00  0.00    -0.312 C  
HETATM   12  C   UNL     1      -9.512   9.107  67.785  1.00  0.00    -0.160 C  
HETATM   13  C   UNL     1      -9.406   8.221  68.817  1.00  0.00    -0.143 C  
HETATM   14  C   UNL     1      -8.630   9.142  66.536  1.00  0.00    -0.136 C  
HETATM   15  C   UNL     1      -8.383   7.147  68.756  1.00  0.00    -0.126 A  
HETATM   16  C   UNL     1      -8.048  10.554  66.272  1.00  0.00    -0.142 C  
HETATM   17  C   UNL     1      -7.022   7.443  68.911  1.00  0.00    -0.078 A  
HETATM   18  C   UNL     1      -6.069   6.422  68.862  1.00  0.00    -0.029 A  
HETATM   19  C   UNL     1      -6.478   5.103  68.680  1.00  0.00    -0.040 A  
HETATM   20  C   UNL     1      -7.832   4.793  68.552  1.00  0.00    -0.081 A  
HETATM   21 CL   UNL     1      -5.307   3.843  68.631  1.00  0.00    -0.012 Cl 
HETATM   22  C   UNL     1      -8.795   5.812  68.595  1.00  0.00    -0.110 A  
HETATM   23  C   UNL     1     -10.267   5.492  68.515  1.00  0.00    -0.250 C  
HETATM   24  C   UNL     1     -10.966   5.723  69.857  1.00  0.00    -0.389 C  
HETATM   25  C   UNL     1     -11.087   7.134  70.395  1.00  0.00    -0.309 A  
HETATM   26  C   UNL     1     -10.365   8.256  69.964  1.00  0.00    -0.212 A  
HETATM   27  N   UNL     1     -10.475   9.469  70.573  1.00  0.00    -0.274 NA 
HETATM   28  C   UNL     1     -11.366   9.606  71.576  1.00  0.00    -0.350 A  
HETATM   29  C   UNL     1     -12.142   8.571  72.049  1.00  0.00    -0.428 A  
HETATM   30  C   UNL     1     -11.982   7.321  71.465  1.00  0.00    -0.349 A  
ENDBRANCH   8   9
ENDBRANCH   4   8
TORSDOF 2
ENDMDL
MODEL       23
REMARK 921   NORMALIZED FREE ENERGY PREDICTED BY IDOCK:   -6.24 KCAL/MOL
REMARK 922        TOTAL FREE ENERGY PREDICTED BY IDOCK:   -7.36 KCAL/MOL
REMARK 923 INTER-LIGAND FREE ENERGY PREDICTED BY IDOCK:   -7.20 KCAL/MOL
REMARK 924 INTRA-LIGAND FREE ENERGY PREDICTED BY IDOCK:   -0.17 KCAL/MOL
REMARK 927      BINDING AFFINITY PREDICTED BY RF-SCORE:    0.00 PKD
ROOT
HETATM    1  C   UNL     1     -11.670  16.768  74.101  1.00  0.00     0.201 C  
HETATM    2  C   UNL     1     -12.333  15.955  73.038  1.00  0.00    -0.605 A  
HETATM    3  C   UNL     1     -11.602  15.227  72.091  1.00  0.00    -0.535 A  
HETATM    4  C   UNL     1     -12.261  14.458  71.128  1.00  0.00    -0.420 A  
HETATM    5  C   UNL     1     -13.656  14.484  71.153  1.00  0.00    -0.307 A  
HETATM    6  N   UNL     1     -14.400  15.191  72.032  1.00  0.00    -0.548 NA 
HETATM    7  C   UNL     1     -13.722  15.912  72.950  1.00  0.00    -0.511 A  
ENDROOT
BRANCH   4   8
HETATM    8  C   UNL     1     -11.566  13.706  70.014  1.00  0.00    -0.180 C  
BRANCH   8   9
HETATM    9  N   UNL     1     -12.281  12.559  69.418  1.00  0.00    -0.143 NA 
HETATM   10  C   UNL     1     -11.596  11.977  68.243  1.00  0.00    -0.334 C  
HETATM   11  C   UNL     1     -10.251  11.319  68.573  1.00  0.00    -0.214 C  
HETATM   12  C   UNL     1     -10.475  10.159  69.535  1.00  0.00    -0.263 C  
HETATM   13  C   UNL     1     -10.086   8.871  69.308  1.00  0.00    -0.205 C  
HETATM   14  C   UNL     1     -11.197  10.673  70.781  1.00  0.00    -0.062 C  
HETATM   15  C   UNL     1     -10.324   7.841  70.351  1.00  0.00    -0.212 A  
HETATM   16  C   UNL     1     -12.468  11.486  70.426  1.00  0.00    -0.240 C  
HETATM   17  C   UNL     1     -11.618   7.371  70.612  1.00  0.00    -0.295 A  
HETATM   18  C   UNL     1     -11.828   6.393  71.588  1.00  0.00    -0.361 A  
HETATM   19  C   UNL     1     -10.744   5.870  72.288  1.00  0.00    -0.234 A  
HETATM   20  C   UNL     1      -9.448   6.311  72.018  1.00  0.00    -0.158 A  
HETATM   21 CL   UNL     1     -11.000   4.659  73.482  1.00  0.00    -0.363 Cl 
HETATM   22  C   UNL     1      -9.228   7.296  71.044  1.00  0.00    -0.154 A  
HETATM   23  C   UNL     1      -7.830   7.745  70.697  1.00  0.00    -0.096 C  
HETATM   24  C   UNL     1      -7.411   7.258  69.307  1.00  0.00    -0.096 C  
HETATM   25  C   UNL     1      -8.118   7.808  68.086  1.00  0.00    -0.123 A  
HETATM   26  C   UNL     1      -9.337   8.500  68.068  1.00  0.00    -0.136 A  
HETATM   27  N   UNL     1      -9.943   8.877  66.908  1.00  0.00    -0.222 NA 
HETATM   28  C   UNL     1      -9.305   8.638  65.744  1.00  0.00    -0.158 A  
HETATM   29  C   UNL     1      -8.091   7.993  65.661  1.00  0.00    -0.121 A  
HETATM   30  C   UNL     1      -7.506   7.557  66.843  1.00  0.00    -0.098 A  
ENDBRANCH   8   9
ENDBRANCH   4   8
TORSDOF 2
ENDMDL
MODEL       24
REMARK 921   NORMALIZED FREE ENERGY PREDICTED BY IDOCK:   -6.22 KCAL/MOL
REMARK 922        TOTAL FREE ENERGY PREDICTED BY IDOCK:   -7.35 KCAL/MOL
REMARK 923 INTER-LIGAND FREE ENERGY PREDICTED BY IDOCK:   -6.99 KCAL/MOL
REMARK 924 INTRA-LIGAND FREE ENERGY PREDICTED BY IDOCK:   -0.36 KCAL/MOL
REMARK 927      BINDING AFFINITY PREDICTED BY RF-SCORE:    0.00 PKD
ROOT
HETATM    1  C   UNL     1     -12.094  15.066  64.409  1.00  0.00    -0.373 C  
HETATM    2  C   UNL     1     -11.227  14.685  65.563  1.00  0.00    -0.343 A  
HETATM    3  C   UNL     1     -11.672  13.833  66.582  1.00  0.00    -0.421 A  
HETATM    4  C   UNL     1     -10.819  13.480  67.632  1.00  0.00    -0.273 A  
HETATM    5  C   UNL     1      -9.541  14.040  67.615  1.00  0.00    -0.221 A  
HETATM    6  N   UNL     1      -9.079  14.884  66.667  1.00  0.00    -0.268 NA 
HETATM    7  C   UNL     1      -9.933  15.190  65.667  1.00  0.00    -0.354 A  
ENDROOT
BRANCH   4   8
HETATM    8  C   UNL     1     -11.231  12.638  68.819  1.00  0.00    -0.280 C  
BRANCH   8   9
HETATM    9  N   UNL     1     -11.957  11.381  68.543  1.00  0.00    -0.555 NA 
HETATM   10  C   UNL     1     -11.282  10.508  67.558  1.00  0.00    -0.224 C  
HETATM   11  C   UNL     1      -9.939   9.948  68.043  1.00  0.00    -0.179 C  
HETATM   12  C   UNL     1     -10.167   9.079  69.274  1.00  0.00    -0.210 C  
HETATM   13  C   UNL     1      -9.787   7.773  69.387  1.00  0.00    -0.176 C  
HETATM   14  C   UNL     1     -10.879   9.905  70.346  1.00  0.00    -0.380 C  
HETATM   15  C   UNL     1     -10.027   7.051  70.662  1.00  0.00    -0.194 A  
HETATM   16  C   UNL     1     -12.146  10.607  69.796  1.00  0.00    -0.272 C  
HETATM   17  C   UNL     1     -11.323   6.675  71.040  1.00  0.00    -0.366 A  
HETATM   18  C   UNL     1     -11.536   5.985  72.237  1.00  0.00    -0.364 A  
HETATM   19  C   UNL     1     -10.451   5.653  73.045  1.00  0.00    -0.216 A  
HETATM   20  C   UNL     1      -9.154   5.999  72.666  1.00  0.00    -0.137 A  
HETATM   21 CL   UNL     1     -10.709   4.794  74.513  1.00  0.00    -0.218 Cl 
HETATM   22  C   UNL     1      -8.931   6.695  71.469  1.00  0.00    -0.139 A  
HETATM   23  C   UNL     1      -7.533   7.028  71.013  1.00  0.00    -0.081 C  
HETATM   24  C   UNL     1      -7.124   6.194  69.796  1.00  0.00    -0.072 C  
HETATM   25  C   UNL     1      -7.833   6.414  68.476  1.00  0.00    -0.105 A  
HETATM   26  C   UNL     1      -9.048   7.087  68.283  1.00  0.00    -0.126 A  
HETATM   27  N   UNL     1      -9.657   7.155  67.067  1.00  0.00    -0.151 NA 
HETATM   28  C   UNL     1      -9.026   6.618  66.003  1.00  0.00    -0.112 A  
HETATM   29  C   UNL     1      -7.818   5.964  66.086  1.00  0.00    -0.104 A  
HETATM   30  C   UNL     1      -7.229   5.845  67.339  1.00  0.00    -0.076 A  
ENDBRANCH   8   9
ENDBRANCH   4   8
TORSDOF 2
ENDMDL
MODEL       25
REMARK 921   NORMALIZED FREE ENERGY PREDICTED BY IDOCK:   -6.20 KCAL/MOL
REMARK 922        TOTAL FREE ENERGY PREDICTED BY IDOCK:   -7.33 KCAL/MOL
REMARK 923 INTER-LIGAND FREE ENERGY PREDICTED BY IDOCK:   -6.94 KCAL/MOL
REMARK 924 INTRA-LIGAND FREE ENERGY PREDICTED BY IDOCK:   -0.39 KCAL/MOL
REMARK 927      BINDING AFFINITY PREDICTED BY RF-SCORE:    0.00 PKD
ROOT
HETATM    1  C   UNL     1      -5.259   9.417  73.886  1.00  0.00    -0.110 C  
HETATM    2  C   UNL     1      -5.422   8.635  72.625  1.00  0.00    -0.057 A  
HETATM    3  C   UNL     1      -5.738   9.245  71.404  1.00  0.00    -0.067 A  
HETATM    4  C   UNL     1      -5.856   8.479  70.241  1.00  0.00    -0.027 A  
HETATM    5  C   UNL     1      -5.673   7.102  70.376  1.00  0.00    -0.024 A  
HETATM    6  N   UNL     1      -5.391   6.470  71.537  1.00  0.00    -0.026 NA 
HETATM    7  C   UNL     1      -5.277   7.250  72.633  1.00  0.00    -0.037 A  
ENDROOT
BRANCH   4   8
HETATM    8  C   UNL     1      -6.277   9.030  68.896  1.00  0.00    -0.044 C  
BRANCH   8   9
HETATM    9  N   UNL     1      -7.579   8.588  68.356  1.00  0.00    -0.095 NA 
HETATM   10  C   UNL     1      -8.655   8.535  69.369  1.00  0.00    -0.128 C  
HETATM   11  C   UNL     1      -9.044   9.907  69.933  1.00  0.00    -0.241 C  
HETATM   12  C   UNL     1      -9.580  10.784  68.808  1.00  0.00    -0.194 C  
HETATM   13  C   UNL     1     -10.807  11.383  68.804  1.00  0.00    -0.251 C  
HETATM   14  C   UNL     1      -8.529  10.881  67.702  1.00  0.00    -0.123 C  
HETATM   15  C   UNL     1     -11.190  12.254  67.663  1.00  0.00    -0.346 A  
HETATM   16  C   UNL     1      -8.017   9.488  67.259  1.00  0.00    -0.106 C  
HETATM   17  C   UNL     1     -11.489  11.703  66.410  1.00  0.00    -0.238 A  
HETATM   18  C   UNL     1     -11.861  12.532  65.347  1.00  0.00    -0.479 A  
HETATM   19  C   UNL     1     -11.953  13.907  65.543  1.00  0.00    -0.383 A  
HETATM   20  C   UNL     1     -11.684  14.464  66.793  1.00  0.00    -0.415 A  
HETATM   21 CL   UNL     1     -12.420  14.927  64.239  1.00  0.00    -0.374 Cl 
HETATM   22  C   UNL     1     -11.306  13.641  67.865  1.00  0.00    -0.325 A  
HETATM   23  C   UNL     1     -11.066  14.217  69.238  1.00  0.00    -0.286 C  
HETATM   24  C   UNL     1     -12.170  13.811  70.218  1.00  0.00    -0.429 C  
HETATM   25  C   UNL     1     -12.306  12.358  70.621  1.00  0.00    -0.367 A  
HETATM   26  C   UNL     1     -11.731  11.255  69.972  1.00  0.00    -0.346 A  
HETATM   27  N   UNL     1     -11.985   9.973  70.353  1.00  0.00    -0.258 NA 
HETATM   28  C   UNL     1     -12.758   9.768  71.440  1.00  0.00    -0.387 A  
HETATM   29  C   UNL     1     -13.343  10.786  72.160  1.00  0.00    -0.314 A  
HETATM   30  C   UNL     1     -13.129  12.089  71.731  1.00  0.00    -0.460 A  
ENDBRANCH   8   9
ENDBRANCH   4   8
TORSDOF 2
ENDMDL
MODEL       26
REMARK 921   NORMALIZED FREE ENERGY PREDICTED BY IDOCK:   -6.17 KCAL/MOL
REMARK 922        TOTAL FREE ENERGY PREDICTED BY IDOCK:   -7.29 KCAL/MOL
REMARK 923 INTER-LIGAND FREE ENERGY PREDICTED BY IDOCK:   -6.87 KCAL/MOL
REMARK 924 INTRA-LIGAND FREE ENERGY PREDICTED BY IDOCK:   -0.42 KCAL/MOL
REMARK 927      BINDING AFFINITY PREDICTED BY RF-SCORE:    0.00 PKD
ROOT
HETATM    1  C   UNL     1      -9.270   6.191  68.638  1.00  0.00    -0.123 C  
HETATM    2  C   UNL     1      -7.981   6.894  68.369  1.00  0.00    -0.122 A  
HETATM    3  C   UNL     1      -7.807   8.259  68.628  1.00  0.00    -0.120 A  
HETATM    4  C   UNL     1      -6.575   8.873  68.386  1.00  0.00    -0.060 A  
HETATM    5  C   UNL     1      -5.566   8.067  67.857  1.00  0.00    -0.034 A  
HETATM    6  N   UNL     1      -5.698   6.754  67.570  1.00  0.00    -0.016 NA 
HETATM    7  C   UNL     1      -6.901   6.200  67.828  1.00  0.00    -0.063 A  
ENDROOT
BRANCH   4   8
HETATM    8  C   UNL     1      -6.312  10.354  68.552  1.00  0.00    -0.051 C  
BRANCH   8   9
HETATM    9  N   UNL     1      -6.169  11.162  67.324  1.00  0.00    -0.066 NA 
HETATM   10  C   UNL     1      -7.179  10.855  66.288  1.00  0.00    -0.126 C  
HETATM   11  C   UNL     1      -8.612  11.224  66.692  1.00  0.00    -0.167 C  
HETATM   12  C   UNL     1      -8.703  12.727  66.923  1.00  0.00    -0.169 C  
HETATM   13  C   UNL     1      -9.573  13.562  66.284  1.00  0.00    -0.245 C  
HETATM   14  C   UNL     1      -7.674  13.136  67.977  1.00  0.00    -0.146 C  
HETATM   15  C   UNL     1      -9.592  15.005  66.635  1.00  0.00    -0.281 A  
HETATM   16  C   UNL     1      -6.256  12.609  67.643  1.00  0.00    -0.148 C  
HETATM   17  C   UNL     1      -8.544  15.851  66.249  1.00  0.00    -0.348 A  
HETATM   18  C   UNL     1      -8.579  17.210  66.576  1.00  0.00    -0.306 A  
HETATM   19  C   UNL     1      -9.669  17.726  67.270  1.00  0.00    -0.285 A  
HETATM   20  C   UNL     1     -10.732  16.898  67.637  1.00  0.00    -0.290 A  
HETATM   21 CL   UNL     1      -9.719  19.400  67.664  1.00  0.00    -0.400 Cl 
HETATM   22  C   UNL     1     -10.703  15.533  67.317  1.00  0.00    -0.308 A  
HETATM   23  C   UNL     1     -11.866  14.633  67.654  1.00  0.00    -0.366 C  
HETATM   24  C   UNL     1     -12.628  14.204  66.397  1.00  0.00    -0.235 C  
HETATM   25  C   UNL     1     -11.947  13.299  65.392  1.00  0.00    -0.432 A  
HETATM   26  C   UNL     1     -10.572  13.032  65.306  1.00  0.00    -0.304 A  
HETATM   27  N   UNL     1     -10.040  12.275  64.307  1.00  0.00    -0.303 NA 
HETATM   28  C   UNL     1     -10.878  11.704  63.418  1.00  0.00    -0.379 A  
HETATM   29  C   UNL     1     -12.243  11.882  63.437  1.00  0.00    -0.561 A  
HETATM   30  C   UNL     1     -12.776  12.704  64.422  1.00  0.00    -0.417 A  
ENDBRANCH   8   9
ENDBRANCH   4   8
TORSDOF 2
ENDMDL
MODEL       27
REMARK 921   NORMALIZED FREE ENERGY PREDICTED BY IDOCK:   -6.14 KCAL/MOL
REMARK 922        TOTAL FREE ENERGY PREDICTED BY IDOCK:   -7.26 KCAL/MOL
REMARK 923 INTER-LIGAND FREE ENERGY PREDICTED BY IDOCK:   -6.91 KCAL/MOL
REMARK 924 INTRA-LIGAND FREE ENERGY PREDICTED BY IDOCK:   -0.35 KCAL/MOL
REMARK 927      BINDING AFFINITY PREDICTED BY RF-SCORE:    0.00 PKD
ROOT
HETATM    1  C   UNL     1     -10.279  17.206  65.726  1.00  0.00    -0.234 C  
HETATM    2  C   UNL     1     -11.021  15.927  65.520  1.00  0.00    -0.248 A  
HETATM    3  C   UNL     1     -10.970  14.877  66.446  1.00  0.00    -0.336 A  
HETATM    4  C   UNL     1     -11.702  13.706  66.227  1.00  0.00    -0.396 A  
HETATM    5  C   UNL     1     -12.442  13.641  65.046  1.00  0.00    -0.414 A  
HETATM    6  N   UNL     1     -12.500  14.619  64.116  1.00  0.00    -0.796 NA 
HETATM    7  C   UNL     1     -11.786  15.736  64.372  1.00  0.00    -0.201 A  
ENDROOT
BRANCH   4   8
HETATM    8  C   UNL     1     -11.647  12.487  67.121  1.00  0.00    -0.368 C  
BRANCH   8   9
HETATM    9  N   UNL     1     -10.338  12.129  67.705  1.00  0.00    -0.201 NA 
HETATM   10  C   UNL     1     -10.435  11.265  68.901  1.00  0.00    -0.206 C  
HETATM   11  C   UNL     1     -10.997   9.867  68.612  1.00  0.00    -0.222 C  
HETATM   12  C   UNL     1     -10.068   9.136  67.651  1.00  0.00    -0.273 C  
HETATM   13  C   UNL     1      -9.489   7.925  67.897  1.00  0.00    -0.160 C  
HETATM   14  C   UNL     1      -9.898   9.973  66.383  1.00  0.00    -0.283 C  
HETATM   15  C   UNL     1      -8.639   7.297  66.855  1.00  0.00    -0.124 A  
HETATM   16  C   UNL     1      -9.495  11.435  66.698  1.00  0.00    -0.189 C  
HETATM   17  C   UNL     1      -7.368   7.810  66.561  1.00  0.00    -0.087 A  
HETATM   18  C   UNL     1      -6.572   7.203  65.586  1.00  0.00    -0.051 A  
HETATM   19  C   UNL     1      -7.037   6.072  64.919  1.00  0.00    -0.060 A  
HETATM   20  C   UNL     1      -8.289   5.536  65.222  1.00  0.00    -0.144 A  
HETATM   21 CL   UNL     1      -6.054   5.318  63.726  1.00  0.00    -0.021 Cl 
HETATM   22  C   UNL     1      -9.097   6.141  66.196  1.00  0.00    -0.158 A  
HETATM   23  C   UNL     1     -10.429   5.545  66.578  1.00  0.00    -0.331 C  
HETATM   24  C   UNL     1     -10.390   4.935  67.982  1.00  0.00    -0.044 C  
HETATM   25  C   UNL     1     -10.215   5.845  69.180  1.00  0.00    -0.275 A  
HETATM   26  C   UNL     1      -9.775   7.176  69.160  1.00  0.00    -0.158 A  
HETATM   27  N   UNL     1      -9.560   7.889  70.300  1.00  0.00    -0.171 NA 
HETATM   28  C   UNL     1      -9.854   7.311  71.483  1.00  0.00    -0.174 A  
HETATM   29  C   UNL     1     -10.319   6.021  71.604  1.00  0.00    -0.260 A  
HETATM   30  C   UNL     1     -10.480   5.278  70.441  1.00  0.00    -0.322 A  
ENDBRANCH   8   9
ENDBRANCH   4   8
TORSDOF 2
ENDMDL
MODEL       28
REMARK 921   NORMALIZED FREE ENERGY PREDICTED BY IDOCK:   -6.14 KCAL/MOL
REMARK 922        TOTAL FREE ENERGY PREDICTED BY IDOCK:   -7.26 KCAL/MOL
REMARK 923 INTER-LIGAND FREE ENERGY PREDICTED BY IDOCK:   -7.58 KCAL/MOL
REMARK 924 INTRA-LIGAND FREE ENERGY PREDICTED BY IDOCK:    0.32 KCAL/MOL
REMARK 927      BINDING AFFINITY PREDICTED BY RF-SCORE:    0.00 PKD
ROOT
HETATM    1  C   UNL     1     -11.535  15.796  64.470  1.00  0.00    -0.292 C  
HETATM    2  C   UNL     1     -11.565  14.308  64.349  1.00  0.00    -0.358 A  
HETATM    3  C   UNL     1     -10.683  13.484  65.059  1.00  0.00    -0.366 A  
HETATM    4  C   UNL     1     -10.762  12.094  64.937  1.00  0.00    -0.336 A  
HETATM    5  C   UNL     1     -11.730  11.595  64.065  1.00  0.00    -0.246 A  
HETATM    6  N   UNL     1     -12.585  12.354  63.344  1.00  0.00    -0.728 NA 
HETATM    7  C   UNL     1     -12.479  13.691  63.499  1.00  0.00    -0.084 A  
ENDROOT
BRANCH   4   8
HETATM    8  C   UNL     1      -9.803  11.124  65.593  1.00  0.00    -0.235 C  
BRANCH   8   9
HETATM    9  N   UNL     1      -9.153  11.554  66.848  1.00  0.00    -0.174 NA 
HETATM   10  C   UNL     1      -9.976  12.477  67.659  1.00  0.00    -0.201 C  
HETATM   11  C   UNL     1     -11.254  11.840  68.217  1.00  0.00    -0.313 C  
HETATM   12  C   UNL     1     -10.884  10.693  69.149  1.00  0.00    -0.279 C  
HETATM   13  C   UNL     1     -11.278  10.589  70.452  1.00  0.00    -0.378 C  
HETATM   14  C   UNL     1     -10.013   9.691  68.391  1.00  0.00    -0.178 C  
HETATM   15  C   UNL     1     -10.886   9.393  71.240  1.00  0.00    -0.431 A  
HETATM   16  C   UNL     1      -8.815  10.375  67.685  1.00  0.00    -0.124 C  
HETATM   17  C   UNL     1      -9.561   9.213  71.658  1.00  0.00    -0.226 A  
HETATM   18  C   UNL     1      -9.206   8.089  72.410  1.00  0.00    -0.264 A  
HETATM   19  C   UNL     1     -10.179   7.157  72.760  1.00  0.00    -0.209 A  
HETATM   20  C   UNL     1     -11.507   7.340  72.373  1.00  0.00    -0.327 A  
HETATM   21 CL   UNL     1      -9.747   5.778  73.694  1.00  0.00    -0.153 Cl 
HETATM   22  C   UNL     1     -11.871   8.462  71.615  1.00  0.00    -0.357 A  
HETATM   23  C   UNL     1     -13.310   8.707  71.234  1.00  0.00    -0.176 C  
HETATM   24  C   UNL     1     -13.900   9.895  72.000  1.00  0.00    -0.188 C  
HETATM   25  C   UNL     1     -13.370  11.288  71.729  1.00  0.00    -0.371 A  
HETATM   26  C   UNL     1     -12.176  11.613  71.069  1.00  0.00    -0.231 A  
HETATM   27  N   UNL     1     -11.735  12.896  70.953  1.00  0.00     0.353 NA 
HETATM   28  C   UNL     1     -12.517  13.888  71.426  1.00  0.00    -0.340 A  
HETATM   29  C   UNL     1     -13.719  13.672  72.061  1.00  0.00    -0.583 A  
HETATM   30  C   UNL     1     -14.136  12.357  72.231  1.00  0.00     0.215 A  
ENDBRANCH   8   9
ENDBRANCH   4   8
TORSDOF 2
ENDMDL
MODEL       29
REMARK 921   NORMALIZED FREE ENERGY PREDICTED BY IDOCK:   -6.12 KCAL/MOL
REMARK 922        TOTAL FREE ENERGY PREDICTED BY IDOCK:   -7.23 KCAL/MOL
REMARK 923 INTER-LIGAND FREE ENERGY PREDICTED BY IDOCK:   -6.94 KCAL/MOL
REMARK 924 INTRA-LIGAND FREE ENERGY PREDICTED BY IDOCK:   -0.29 KCAL/MOL
REMARK 927      BINDING AFFINITY PREDICTED BY RF-SCORE:    0.00 PKD
ROOT
HETATM    1  C   UNL     1     -12.464  15.708  70.465  1.00  0.00    -0.440 C  
HETATM    2  C   UNL     1     -12.719  14.317  70.943  1.00  0.00    -0.427 A  
HETATM    3  C   UNL     1     -12.152  13.198  70.321  1.00  0.00    -0.399 A  
HETATM    4  C   UNL     1     -12.395  11.914  70.817  1.00  0.00    -0.416 A  
HETATM    5  C   UNL     1     -13.241  11.820  71.923  1.00  0.00    -0.362 A  
HETATM    6  N   UNL     1     -13.828  12.869  72.538  1.00  0.00    -0.557 NA 
HETATM    7  C   UNL     1     -13.557  14.091  72.032  1.00  0.00    -0.463 A  
ENDROOT
BRANCH   4   8
HETATM    8  C   UNL     1     -11.900  10.640  70.168  1.00  0.00    -0.337 C  
BRANCH   8   9
HETATM    9  N   UNL     1     -10.464  10.320  70.305  1.00  0.00    -0.224 NA 
HETATM   10  C   UNL     1     -10.203   9.037  70.991  1.00  0.00    -0.277 C  
HETATM   11  C   UNL     1     -10.683   7.807  70.209  1.00  0.00    -0.237 C  
HETATM   12  C   UNL     1      -9.936   7.725  68.884  1.00  0.00    -0.185 C  
HETATM   13  C   UNL     1      -9.206   6.651  68.466  1.00  0.00    -0.127 C  
HETATM   14  C   UNL     1     -10.141   9.028  68.111  1.00  0.00    -0.229 C  
HETATM   15  C   UNL     1      -8.563   6.680  67.128  1.00  0.00    -0.112 A  
HETATM   16  C   UNL     1      -9.815  10.275  68.971  1.00  0.00    -0.207 C  
HETATM   17  C   UNL     1      -7.448   7.493  66.887  1.00  0.00    -0.098 A  
HETATM   18  C   UNL     1      -6.843   7.503  65.626  1.00  0.00    -0.056 A  
HETATM   19  C   UNL     1      -7.342   6.687  64.614  1.00  0.00    -0.085 A  
HETATM   20  C   UNL     1      -8.435   5.853  64.851  1.00  0.00    -0.085 A  
HETATM   21 CL   UNL     1      -6.593   6.690  63.065  1.00  0.00    -0.038 Cl 
HETATM   22  C   UNL     1      -9.050   5.839  66.111  1.00  0.00    -0.161 A  
HETATM   23  C   UNL     1     -10.197   4.904  66.404  1.00  0.00    -0.313 C  
HETATM   24  C   UNL     1      -9.780   3.785  67.363  1.00  0.00    -0.143 C  
HETATM   25  C   UNL     1      -9.420   4.132  68.793  1.00  0.00    -0.231 A  
HETATM   26  C   UNL     1      -9.122   5.407  69.293  1.00  0.00    -0.108 A  
HETATM   27  N   UNL     1      -8.718   5.609  70.578  1.00  0.00    -0.135 NA 
HETATM   28  C   UNL     1      -8.678   4.549  71.411  1.00  0.00    -0.117 A  
HETATM   29  C   UNL     1      -8.980   3.264  71.022  1.00  0.00    -0.163 A  
HETATM   30  C   UNL     1      -9.334   3.054  69.695  1.00  0.00    -0.214 A  
ENDBRANCH   8   9
ENDBRANCH   4   8
TORSDOF 2
ENDMDL
MODEL       30
REMARK 921   NORMALIZED FREE ENERGY PREDICTED BY IDOCK:   -6.10 KCAL/MOL
REMARK 922        TOTAL FREE ENERGY PREDICTED BY IDOCK:   -7.21 KCAL/MOL
REMARK 923 INTER-LIGAND FREE ENERGY PREDICTED BY IDOCK:   -6.93 KCAL/MOL
REMARK 924 INTRA-LIGAND FREE ENERGY PREDICTED BY IDOCK:   -0.28 KCAL/MOL
REMARK 927      BINDING AFFINITY PREDICTED BY RF-SCORE:    0.00 PKD
ROOT
HETATM    1  C   UNL     1     -10.951   3.716  73.234  1.00  0.00    -0.276 C  
HETATM    2  C   UNL     1     -10.676   5.162  72.980  1.00  0.00    -0.308 A  
HETATM    3  C   UNL     1     -10.667   5.704  71.689  1.00  0.00    -0.313 A  
HETATM    4  C   UNL     1     -10.430   7.068  71.497  1.00  0.00    -0.222 A  
HETATM    5  C   UNL     1     -10.181   7.828  72.641  1.00  0.00    -0.279 A  
HETATM    6  N   UNL     1     -10.157   7.342  73.901  1.00  0.00    -0.315 NA 
HETATM    7  C   UNL     1     -10.400   6.021  74.041  1.00  0.00    -0.291 A  
ENDROOT
BRANCH   4   8
HETATM    8  C   UNL     1     -10.316   7.732  70.142  1.00  0.00    -0.218 C  
BRANCH   8   9
HETATM    9  N   UNL     1      -9.148   8.606  69.908  1.00  0.00    -0.148 NA 
HETATM   10  C   UNL     1      -8.319   8.196  68.755  1.00  0.00    -0.126 C  
HETATM   11  C   UNL     1      -9.031   8.324  67.403  1.00  0.00    -0.142 C  
HETATM   12  C   UNL     1      -9.388   9.783  67.154  1.00  0.00    -0.169 C  
HETATM   13  C   UNL     1      -9.003  10.505  66.061  1.00  0.00    -0.185 C  
HETATM   14  C   UNL     1     -10.240  10.297  68.315  1.00  0.00    -0.184 C  
HETATM   15  C   UNL     1      -9.459  11.910  65.915  1.00  0.00    -0.227 A  
HETATM   16  C   UNL     1      -9.587  10.008  69.690  1.00  0.00    -0.226 C  
HETATM   17  C   UNL     1      -8.933  12.922  66.729  1.00  0.00    -0.182 A  
HETATM   18  C   UNL     1      -9.362  14.244  66.576  1.00  0.00    -0.292 A  
HETATM   19  C   UNL     1     -10.300  14.556  65.595  1.00  0.00    -0.349 A  
HETATM   20  C   UNL     1     -10.810  13.562  64.760  1.00  0.00    -0.392 A  
HETATM   21 CL   UNL     1     -10.821  16.184  65.397  1.00  0.00    -0.349 Cl 
HETATM   22  C   UNL     1     -10.389  12.232  64.910  1.00  0.00    -0.319 A  
HETATM   23  C   UNL     1     -10.886  11.152  63.982  1.00  0.00    -0.351 C  
HETATM   24  C   UNL     1      -9.780  10.668  63.040  1.00  0.00    -0.362 C  
HETATM   25  C   UNL     1      -8.593   9.923  63.613  1.00  0.00    -0.203 A  
HETATM   26  C   UNL     1      -8.210   9.873  64.961  1.00  0.00    -0.143 A  
HETATM   27  N   UNL     1      -7.070   9.252  65.371  1.00  0.00    -0.084 NA 
HETATM   28  C   UNL     1      -6.328   8.600  64.452  1.00  0.00    -0.067 A  
HETATM   29  C   UNL     1      -6.637   8.567  63.111  1.00  0.00    -0.090 A  
HETATM   30  C   UNL     1      -7.769   9.253  62.689  1.00  0.00    -0.117 A  
ENDBRANCH   8   9
ENDBRANCH   4   8
TORSDOF 2
ENDMDL
MODEL       31
REMARK 921   NORMALIZED FREE ENERGY PREDICTED BY IDOCK:   -6.08 KCAL/MOL
REMARK 922        TOTAL FREE ENERGY PREDICTED BY IDOCK:   -7.19 KCAL/MOL
REMARK 923 INTER-LIGAND FREE ENERGY PREDICTED BY IDOCK:   -6.89 KCAL/MOL
REMARK 924 INTRA-LIGAND FREE ENERGY PREDICTED BY IDOCK:   -0.31 KCAL/MOL
REMARK 927      BINDING AFFINITY PREDICTED BY RF-SCORE:    0.00 PKD
ROOT
HETATM    1  C   UNL     1      -9.591  17.935  68.648  1.00  0.00    -0.331 C  
HETATM    2  C   UNL     1      -9.980  17.017  67.536  1.00  0.00    -0.274 A  
HETATM    3  C   UNL     1     -10.044  15.628  67.704  1.00  0.00    -0.248 A  
HETATM    4  C   UNL     1     -10.439  14.806  66.644  1.00  0.00    -0.286 A  
HETATM    5  C   UNL     1     -10.728  15.438  65.435  1.00  0.00    -0.400 A  
HETATM    6  N   UNL     1     -10.656  16.771  65.223  1.00  0.00    -0.648 NA 
HETATM    7  C   UNL     1     -10.280  17.527  66.276  1.00  0.00    -0.355 A  
ENDROOT
BRANCH   4   8
HETATM    8  C   UNL     1     -10.458  13.294  66.699  1.00  0.00    -0.279 C  
BRANCH   8   9
HETATM    9  N   UNL     1      -9.163  12.603  66.871  1.00  0.00    -0.212 NA 
HETATM   10  C   UNL     1      -8.936  12.097  68.241  1.00  0.00    -0.186 C  
HETATM   11  C   UNL     1      -9.900  10.979  68.658  1.00  0.00    -0.197 C  
HETATM   12  C   UNL     1      -9.710   9.778  67.739  1.00  0.00    -0.167 C  
HETATM   13  C   UNL     1      -9.409   8.515  68.160  1.00  0.00    -0.145 C  
HETATM   14  C   UNL     1      -9.914  10.218  66.289  1.00  0.00    -0.295 C  
HETATM   15  C   UNL     1      -9.297   7.421  67.163  1.00  0.00    -0.172 A  
HETATM   16  C   UNL     1      -9.059  11.459  65.930  1.00  0.00    -0.198 C  
HETATM   17  C   UNL     1      -8.204   7.357  66.288  1.00  0.00    -0.126 A  
HETATM   18  C   UNL     1      -8.103   6.315  65.361  1.00  0.00    -0.131 A  
HETATM   19  C   UNL     1      -9.084   5.327  65.323  1.00  0.00    -0.089 A  
HETATM   20  C   UNL     1     -10.163   5.365  66.208  1.00  0.00    -0.234 A  
HETATM   21 CL   UNL     1      -8.957   4.038  64.191  1.00  0.00    -0.129 Cl 
HETATM   22  C   UNL     1     -10.274   6.409  67.138  1.00  0.00    -0.254 A  
HETATM   23  C   UNL     1     -11.401   6.438  68.139  1.00  0.00    -0.097 C  
HETATM   24  C   UNL     1     -10.901   6.154  69.558  1.00  0.00    -0.428 C  
HETATM   25  C   UNL     1      -9.990   7.156  70.237  1.00  0.00    -0.191 A  
HETATM   26  C   UNL     1      -9.284   8.197  69.616  1.00  0.00    -0.155 A  
HETATM   27  N   UNL     1      -8.415   8.993  70.296  1.00  0.00    -0.149 NA 
HETATM   28  C   UNL     1      -8.290   8.817  71.628  1.00  0.00    -0.125 A  
HETATM   29  C   UNL     1      -8.963   7.843  72.332  1.00  0.00    -0.219 A  
HETATM   30  C   UNL     1      -9.803   6.994  71.623  1.00  0.00    -0.169 A  
ENDBRANCH   8   9
ENDBRANCH   4   8
TORSDOF 2
ENDMDL
MODEL       32
REMARK 921   NORMALIZED FREE ENERGY PREDICTED BY IDOCK:   -6.07 KCAL/MOL
REMARK 922        TOTAL FREE ENERGY PREDICTED BY IDOCK:   -7.18 KCAL/MOL
REMARK 923 INTER-LIGAND FREE ENERGY PREDICTED BY IDOCK:   -7.87 KCAL/MOL
REMARK 924 INTRA-LIGAND FREE ENERGY PREDICTED BY IDOCK:    0.69 KCAL/MOL
REMARK 927      BINDING AFFINITY PREDICTED BY RF-SCORE:    0.00 PKD
ROOT
HETATM    1  C   UNL     1     -13.401  12.114  72.158  1.00  0.00    -0.438 C  
HETATM    2  C   UNL     1     -13.125  10.667  71.911  1.00  0.00    -0.563 A  
HETATM    3  C   UNL     1     -12.127  10.239  71.027  1.00  0.00    -0.487 A  
HETATM    4  C   UNL     1     -11.883   8.875  70.844  1.00  0.00    -0.283 A  
HETATM    5  C   UNL     1     -12.696   7.992  71.556  1.00  0.00    -0.307 A  
HETATM    6  N   UNL     1     -13.685   8.361  72.399  1.00  0.00    -0.258 NA 
HETATM    7  C   UNL     1     -13.879   9.689  72.553  1.00  0.00    -0.139 A  
ENDROOT
BRANCH   4   8
HETATM    8  C   UNL     1     -10.888   8.311  69.853  1.00  0.00    -0.213 C  
BRANCH   8   9
HETATM    9  N   UNL     1      -9.658   9.091  69.605  1.00  0.00    -0.167 NA 
HETATM   10  C   UNL     1      -8.909   8.656  68.406  1.00  0.00    -0.142 C  
HETATM   11  C   UNL     1      -9.656   8.898  67.088  1.00  0.00    -0.225 C  
HETATM   12  C   UNL     1      -9.893  10.391  66.906  1.00  0.00    -0.236 C  
HETATM   13  C   UNL     1      -9.487  11.119  65.825  1.00  0.00    -0.248 C  
HETATM   14  C   UNL     1     -10.654  10.930  68.117  1.00  0.00    -0.233 C  
HETATM   15  C   UNL     1      -9.824  12.563  65.748  1.00  0.00    -0.244 A  
HETATM   16  C   UNL     1      -9.981  10.532  69.455  1.00  0.00    -0.196 C  
HETATM   17  C   UNL     1      -9.183  13.494  66.577  1.00  0.00    -0.187 A  
HETATM   18  C   UNL     1      -9.500  14.853  66.488  1.00  0.00    -0.307 A  
HETATM   19  C   UNL     1     -10.442  15.282  65.557  1.00  0.00    -0.374 A  
HETATM   20  C   UNL     1     -11.067  14.368  64.708  1.00  0.00    -0.402 A  
HETATM   21 CL   UNL     1     -10.825  16.955  65.438  1.00  0.00    -0.217 Cl 
HETATM   22  C   UNL     1     -10.758  13.003  64.793  1.00  0.00    -0.370 A  
HETATM   23  C   UNL     1     -11.380  12.006  63.847  1.00  0.00    -0.503 C  
HETATM   24  C   UNL     1     -10.355  11.467  62.845  1.00  0.00    -0.159 C  
HETATM   25  C   UNL     1      -9.217  10.601  63.344  1.00  0.00    -0.289 A  
HETATM   26  C   UNL     1      -8.792  10.466  64.673  1.00  0.00    -0.198 A  
HETATM   27  N   UNL     1      -7.697   9.733  65.016  1.00  0.00    -0.120 NA 
HETATM   28  C   UNL     1      -7.048   9.057  64.045  1.00  0.00    -0.095 A  
HETATM   29  C   UNL     1      -7.407   9.103  62.717  1.00  0.00    -0.097 A  
HETATM   30  C   UNL     1      -8.489   9.900  62.365  1.00  0.00    -0.175 A  
ENDBRANCH   8   9
ENDBRANCH   4   8
TORSDOF 2
ENDMDL
MODEL       33
REMARK 921   NORMALIZED FREE ENERGY PREDICTED BY IDOCK:   -6.07 KCAL/MOL
REMARK 922        TOTAL FREE ENERGY PREDICTED BY IDOCK:   -7.17 KCAL/MOL
REMARK 923 INTER-LIGAND FREE ENERGY PREDICTED BY IDOCK:   -6.89 KCAL/MOL
REMARK 924 INTRA-LIGAND FREE ENERGY PREDICTED BY IDOCK:   -0.28 KCAL/MOL
REMARK 927      BINDING AFFINITY PREDICTED BY RF-SCORE:    0.00 PKD
ROOT
HETATM    1  C   UNL     1      -9.090   2.894  71.487  1.00  0.00    -0.170 C  
HETATM    2  C   UNL     1      -9.568   4.014  72.351  1.00  0.00    -0.196 A  
HETATM    3  C   UNL     1     -10.468   4.982  71.888  1.00  0.00    -0.255 A  
HETATM    4  C   UNL     1     -10.912   5.999  72.737  1.00  0.00    -0.299 A  
HETATM    5  C   UNL     1     -10.392   6.005  74.032  1.00  0.00    -0.291 A  
HETATM    6  N   UNL     1      -9.505   5.106  74.513  1.00  0.00    -0.130 NA 
HETATM    7  C   UNL     1      -9.111   4.136  73.661  1.00  0.00    -0.094 A  
ENDROOT
BRANCH   4   8
HETATM    8  C   UNL     1     -11.813   7.137  72.309  1.00  0.00    -0.239 C  
BRANCH   8   9
HETATM    9  N   UNL     1     -11.304   8.512  72.485  1.00  0.00    -0.346 NA 
HETATM   10  C   UNL     1      -9.865   8.658  72.177  1.00  0.00    -0.317 C  
HETATM   11  C   UNL     1      -9.521   8.427  70.700  1.00  0.00    -0.191 C  
HETATM   12  C   UNL     1     -10.233   9.467  69.845  1.00  0.00    -0.261 C  
HETATM   13  C   UNL     1      -9.613  10.320  68.977  1.00  0.00    -0.210 C  
HETATM   14  C   UNL     1     -11.736   9.396  70.114  1.00  0.00    -0.057 C  
HETATM   15  C   UNL     1     -10.430  11.257  68.165  1.00  0.00    -0.215 A  
HETATM   16  C   UNL     1     -12.062   9.458  71.628  1.00  0.00    -0.388 C  
HETATM   17  C   UNL     1     -11.054  12.363  68.758  1.00  0.00    -0.307 A  
HETATM   18  C   UNL     1     -11.810  13.245  67.982  1.00  0.00    -0.392 A  
HETATM   19  C   UNL     1     -11.927  13.033  66.611  1.00  0.00    -0.387 A  
HETATM   20  C   UNL     1     -11.289  11.950  66.004  1.00  0.00    -0.375 A  
HETATM   21 CL   UNL     1     -12.849  14.124  65.651  1.00  0.00    -0.501 Cl 
HETATM   22  C   UNL     1     -10.531  11.058  66.776  1.00  0.00    -0.300 A  
HETATM   23  C   UNL     1      -9.787   9.914  66.133  1.00  0.00    -0.324 C  
HETATM   24  C   UNL     1      -8.273  10.141  66.162  1.00  0.00    -0.125 C  
HETATM   25  C   UNL     1      -7.549  10.140  67.492  1.00  0.00    -0.091 A  
HETATM   26  C   UNL     1      -8.135  10.259  68.761  1.00  0.00    -0.120 A  
HETATM   27  N   UNL     1      -7.393  10.341  69.900  1.00  0.00    -0.157 NA 
HETATM   28  C   UNL     1      -6.053  10.229  69.802  1.00  0.00    -0.054 A  
HETATM   29  C   UNL     1      -5.388  10.080  68.605  1.00  0.00    -0.039 A  
HETATM   30  C   UNL     1      -6.145  10.057  67.441  1.00  0.00    -0.058 A  
ENDBRANCH   8   9
ENDBRANCH   4   8
TORSDOF 2
ENDMDL
MODEL       34
REMARK 921   NORMALIZED FREE ENERGY PREDICTED BY IDOCK:   -6.06 KCAL/MOL
REMARK 922        TOTAL FREE ENERGY PREDICTED BY IDOCK:   -7.16 KCAL/MOL
REMARK 923 INTER-LIGAND FREE ENERGY PREDICTED BY IDOCK:   -6.87 KCAL/MOL
REMARK 924 INTRA-LIGAND FREE ENERGY PREDICTED BY IDOCK:   -0.29 KCAL/MOL
REMARK 927      BINDING AFFINITY PREDICTED BY RF-SCORE:    0.00 PKD
ROOT
HETATM    1  C   UNL     1     -10.407  16.318  65.628  1.00  0.00    -0.385 C  
HETATM    2  C   UNL     1     -11.086  15.000  65.450  1.00  0.00    -0.377 A  
HETATM    3  C   UNL     1     -10.773  13.887  66.241  1.00  0.00    -0.285 A  
HETATM    4  C   UNL     1     -11.451  12.678  66.060  1.00  0.00    -0.414 A  
HETATM    5  C   UNL     1     -12.413  12.645  65.049  1.00  0.00    -0.487 A  
HETATM    6  N   UNL     1     -12.729  13.686  64.249  1.00  0.00    -0.650 NA 
HETATM    7  C   UNL     1     -12.056  14.836  64.465  1.00  0.00    -0.446 A  
ENDROOT
BRANCH   4   8
HETATM    8  C   UNL     1     -11.128  11.399  66.802  1.00  0.00    -0.281 C  
BRANCH   8   9
HETATM    9  N   UNL     1      -9.737  10.906  66.734  1.00  0.00    -0.186 NA 
HETATM   10  C   UNL     1      -9.075  10.812  68.053  1.00  0.00    -0.150 C  
HETATM   11  C   UNL     1      -9.693   9.760  68.983  1.00  0.00    -0.177 C  
HETATM   12  C   UNL     1      -9.554   8.381  68.353  1.00  0.00    -0.157 C  
HETATM   13  C   UNL     1      -8.945   7.311  68.944  1.00  0.00    -0.133 C  
HETATM   14  C   UNL     1     -10.204   8.392  66.969  1.00  0.00    -0.377 C  
HETATM   15  C   UNL     1      -8.918   6.005  68.240  1.00  0.00    -0.113 A  
HETATM   16  C   UNL     1      -9.695   9.566  66.095  1.00  0.00    -0.258 C  
HETATM   17  C   UNL     1      -8.100   5.812  67.118  1.00  0.00    -0.102 A  
HETATM   18  C   UNL     1      -8.073   4.573  66.470  1.00  0.00    -0.103 A  
HETATM   19  C   UNL     1      -8.849   3.523  66.955  1.00  0.00    -0.134 A  
HETATM   20  C   UNL     1      -9.647   3.696  68.087  1.00  0.00    -0.166 A  
HETATM   21 CL   UNL     1      -8.810   1.995  66.165  1.00  0.00    -0.120 Cl 
HETATM   22  C   UNL     1      -9.683   4.936  68.741  1.00  0.00    -0.232 A  
HETATM   23  C   UNL     1     -10.494   5.127  69.998  1.00  0.00    -0.305 C  
HETATM   24  C   UNL     1      -9.597   5.283  71.228  1.00  0.00    -0.212 C  
HETATM   25  C   UNL     1      -8.721   6.513  71.355  1.00  0.00    -0.130 A  
HETATM   26  C   UNL     1      -8.389   7.410  70.329  1.00  0.00    -0.134 A  
HETATM   27  N   UNL     1      -7.518   8.439  70.517  1.00  0.00    -0.062 NA 
HETATM   28  C   UNL     1      -7.019   8.640  71.754  1.00  0.00    -0.084 A  
HETATM   29  C   UNL     1      -7.308   7.832  72.831  1.00  0.00    -0.106 A  
HETATM   30  C   UNL     1      -8.151   6.748  72.620  1.00  0.00    -0.104 A  
ENDBRANCH   8   9
ENDBRANCH   4   8
TORSDOF 2
ENDMDL
MODEL       35
REMARK 921   NORMALIZED FREE ENERGY PREDICTED BY IDOCK:   -6.03 KCAL/MOL
REMARK 922        TOTAL FREE ENERGY PREDICTED BY IDOCK:   -7.13 KCAL/MOL
REMARK 923 INTER-LIGAND FREE ENERGY PREDICTED BY IDOCK:   -7.15 KCAL/MOL
REMARK 924 INTRA-LIGAND FREE ENERGY PREDICTED BY IDOCK:    0.02 KCAL/MOL
REMARK 927      BINDING AFFINITY PREDICTED BY RF-SCORE:    0.00 PKD
ROOT
HETATM    1  C   UNL     1     -11.759  15.752  69.331  1.00  0.00    -0.379 C  
HETATM    2  C   UNL     1     -12.557  15.021  70.360  1.00  0.00    -0.399 A  
HETATM    3  C   UNL     1     -12.301  13.685  70.693  1.00  0.00    -0.440 A  
HETATM    4  C   UNL     1     -13.055  13.046  71.681  1.00  0.00    -0.440 A  
HETATM    5  C   UNL     1     -14.070  13.794  72.277  1.00  0.00    -0.531 A  
HETATM    6  N   UNL     1     -14.367  15.076  71.969  1.00  0.00    -0.534 NA 
HETATM    7  C   UNL     1     -13.608  15.657  71.016  1.00  0.00    -0.125 A  
ENDROOT
BRANCH   4   8
HETATM    8  C   UNL     1     -12.912  11.586  72.052  1.00  0.00    -0.268 C  
BRANCH   8   9
HETATM    9  N   UNL     1     -13.202  10.586  71.003  1.00  0.00    -0.318 NA 
HETATM   10  C   UNL     1     -12.407  10.769  69.770  1.00  0.00    -0.236 C  
HETATM   11  C   UNL     1     -10.903  10.536  69.962  1.00  0.00    -0.320 C  
HETATM   12  C   UNL     1     -10.665   9.095  70.395  1.00  0.00    -0.282 C  
HETATM   13  C   UNL     1      -9.856   8.208  69.743  1.00  0.00    -0.187 C  
HETATM   14  C   UNL     1     -11.468   8.812  71.665  1.00  0.00    -0.386 C  
HETATM   15  C   UNL     1      -9.673   6.843  70.298  1.00  0.00    -0.176 A  
HETATM   16  C   UNL     1     -12.957   9.214  71.515  1.00  0.00    -0.346 C  
HETATM   17  C   UNL     1     -10.707   5.899  70.235  1.00  0.00    -0.383 A  
HETATM   18  C   UNL     1     -10.518   4.613  70.750  1.00  0.00    -0.008 A  
HETATM   19  C   UNL     1      -9.291   4.265  71.308  1.00  0.00    -0.149 A  
HETATM   20  C   UNL     1      -8.246   5.188  71.351  1.00  0.00    -0.115 A  
HETATM   21 CL   UNL     1      -9.054   2.680  71.932  1.00  0.00    -0.132 Cl 
HETATM   22  C   UNL     1      -8.427   6.482  70.841  1.00  0.00    -0.134 A  
HETATM   23  C   UNL     1      -7.293   7.476  70.827  1.00  0.00    -0.068 C  
HETATM   24  C   UNL     1      -6.788   7.734  69.405  1.00  0.00    -0.044 C  
HETATM   25  C   UNL     1      -7.694   8.434  68.413  1.00  0.00    -0.105 A  
HETATM   26  C   UNL     1      -9.078   8.620  68.535  1.00  0.00    -0.138 A  
HETATM   27  N   UNL     1      -9.826   9.182  67.545  1.00  0.00    -0.167 NA 
HETATM   28  C   UNL     1      -9.195   9.641  66.446  1.00  0.00    -0.163 A  
HETATM   29  C   UNL     1      -7.836   9.532  66.248  1.00  0.00    -0.100 A  
HETATM   30  C   UNL     1      -7.086   8.904  67.233  1.00  0.00    -0.083 A  
ENDBRANCH   8   9
ENDBRANCH   4   8
TORSDOF 2
ENDMDL
MODEL       36
REMARK 921   NORMALIZED FREE ENERGY PREDICTED BY IDOCK:   -6.01 KCAL/MOL
REMARK 922        TOTAL FREE ENERGY PREDICTED BY IDOCK:   -7.11 KCAL/MOL
REMARK 923 INTER-LIGAND FREE ENERGY PREDICTED BY IDOCK:   -6.71 KCAL/MOL
REMARK 924 INTRA-LIGAND FREE ENERGY PREDICTED BY IDOCK:   -0.40 KCAL/MOL
REMARK 927      BINDING AFFINITY PREDICTED BY RF-SCORE:    0.00 PKD
ROOT
HETATM    1  C   UNL     1      -7.884   2.740  68.880  1.00  0.00    -0.055 C  
HETATM    2  C   UNL     1      -7.495   4.171  69.051  1.00  0.00    -0.055 A  
HETATM    3  C   UNL     1      -7.990   5.184  68.220  1.00  0.00    -0.087 A  
HETATM    4  C   UNL     1      -7.621   6.515  68.431  1.00  0.00    -0.104 A  
HETATM    5  C   UNL     1      -6.729   6.760  69.476  1.00  0.00    -0.050 A  
HETATM    6  N   UNL     1      -6.209   5.812  70.285  1.00  0.00    -0.026 NA 
HETATM    7  C   UNL     1      -6.600   4.541  70.052  1.00  0.00    -0.032 A  
ENDROOT
BRANCH   4   8
HETATM    8  C   UNL     1      -8.032   7.666  67.539  1.00  0.00    -0.120 C  
BRANCH   8   9
HETATM    9  N   UNL     1      -9.467   7.793  67.210  1.00  0.00    -0.142 NA 
HETATM   10  C   UNL     1     -10.322   8.087  68.380  1.00  0.00    -0.199 C  
HETATM   11  C   UNL     1     -10.063   9.462  69.008  1.00  0.00    -0.202 C  
HETATM   12  C   UNL     1     -10.373  10.551  67.988  1.00  0.00    -0.212 C  
HETATM   13  C   UNL     1     -11.257  11.572  68.182  1.00  0.00    -0.335 C  
HETATM   14  C   UNL     1      -9.536  10.314  66.730  1.00  0.00    -0.198 C  
HETATM   15  C   UNL     1     -11.433  12.598  67.123  1.00  0.00    -0.406 A  
HETATM   16  C   UNL     1      -9.674   8.864  66.202  1.00  0.00    -0.268 C  
HETATM   17  C   UNL     1     -12.098  12.290  65.930  1.00  0.00    -0.261 A  
HETATM   18  C   UNL     1     -12.268  13.267  64.944  1.00  0.00    -0.466 A  
HETATM   19  C   UNL     1     -11.790  14.557  65.162  1.00  0.00    -0.374 A  
HETATM   20  C   UNL     1     -11.150  14.883  66.358  1.00  0.00    -0.342 A  
HETATM   21 CL   UNL     1     -12.007  15.764  63.955  1.00  0.00    -0.098 Cl 
HETATM   22  C   UNL     1     -10.971  13.907  67.350  1.00  0.00    -0.299 A  
HETATM   23  C   UNL     1     -10.332  14.253  68.671  1.00  0.00    -0.246 C  
HETATM   24  C   UNL     1     -11.354  14.235  69.812  1.00  0.00    -0.279 C  
HETATM   25  C   UNL     1     -11.984  12.920  70.221  1.00  0.00    -0.359 A  
HETATM   26  C   UNL     1     -11.981  11.728  69.482  1.00  0.00    -0.300 A  
HETATM   27  N   UNL     1     -12.655  10.617  69.890  1.00  0.00    -0.205 NA 
HETATM   28  C   UNL     1     -13.282  10.650  71.083  1.00  0.00    -0.223 A  
HETATM   29  C   UNL     1     -13.316  11.762  71.894  1.00  0.00    -0.401 A  
HETATM   30  C   UNL     1     -12.678  12.911  71.445  1.00  0.00    -0.366 A  
ENDBRANCH   8   9
ENDBRANCH   4   8
TORSDOF 2
ENDMDL
MODEL       37
REMARK 921   NORMALIZED FREE ENERGY PREDICTED BY IDOCK:   -6.01 KCAL/MOL
REMARK 922        TOTAL FREE ENERGY PREDICTED BY IDOCK:   -7.11 KCAL/MOL
REMARK 923 INTER-LIGAND FREE ENERGY PREDICTED BY IDOCK:   -6.68 KCAL/MOL
REMARK 924 INTRA-LIGAND FREE ENERGY PREDICTED BY IDOCK:   -0.43 KCAL/MOL
REMARK 927      BINDING AFFINITY PREDICTED BY RF-SCORE:    0.00 PKD
ROOT
HETATM    1  C   UNL     1      -7.944   3.617  68.646  1.00  0.00    -0.069 C  
HETATM    2  C   UNL     1      -8.663   4.874  69.011  1.00  0.00    -0.105 A  
HETATM    3  C   UNL     1      -8.002   6.104  69.131  1.00  0.00    -0.108 A  
HETATM    4  C   UNL     1      -8.717   7.262  69.449  1.00  0.00    -0.137 A  
HETATM    5  C   UNL     1     -10.088   7.114  69.663  1.00  0.00    -0.192 A  
HETATM    6  N   UNL     1     -10.760   5.945  69.581  1.00  0.00    -0.313 NA 
HETATM    7  C   UNL     1     -10.032   4.853  69.262  1.00  0.00    -0.199 A  
ENDROOT
BRANCH   4   8
HETATM    8  C   UNL     1      -8.085   8.617  69.685  1.00  0.00    -0.112 C  
BRANCH   8   9
HETATM    9  N   UNL     1      -7.453   9.283  68.527  1.00  0.00    -0.080 NA 
HETATM   10  C   UNL     1      -8.296   9.294  67.313  1.00  0.00    -0.125 C  
HETATM   11  C   UNL     1      -9.570  10.138  67.452  1.00  0.00    -0.180 C  
HETATM   12  C   UNL     1      -9.191  11.592  67.703  1.00  0.00    -0.171 C  
HETATM   13  C   UNL     1      -9.594  12.646  66.936  1.00  0.00    -0.232 C  
HETATM   14  C   UNL     1      -8.298  11.671  68.942  1.00  0.00     0.034 C  
HETATM   15  C   UNL     1      -9.191  14.023  67.318  1.00  0.00    -0.231 A  
HETATM   16  C   UNL     1      -7.105  10.686  68.865  1.00  0.00    -0.078 C  
HETATM   17  C   UNL     1      -7.867  14.453  67.158  1.00  0.00    -0.111 A  
HETATM   18  C   UNL     1      -7.502  15.756  67.510  1.00  0.00    -0.198 A  
HETATM   19  C   UNL     1      -8.464  16.634  68.003  1.00  0.00    -0.192 A  
HETATM   20  C   UNL     1      -9.792  16.226  68.141  1.00  0.00    -0.229 A  
HETATM   21 CL   UNL     1      -8.020  18.241  68.427  1.00  0.00    -0.309 Cl 
HETATM   22  C   UNL     1     -10.166  14.919  67.794  1.00  0.00    -0.236 A  
HETATM   23  C   UNL     1     -11.605  14.476  67.882  1.00  0.00    -0.371 C  
HETATM   24  C   UNL     1     -12.219  14.280  66.494  1.00  0.00    -0.419 C  
HETATM   25  C   UNL     1     -11.709  13.162  65.609  1.00  0.00    -0.402 A  
HETATM   26  C   UNL     1     -10.514  12.447  65.774  1.00  0.00    -0.259 A  
HETATM   27  N   UNL     1     -10.091  11.518  64.872  1.00  0.00    -0.255 NA 
HETATM   28  C   UNL     1     -10.892  11.229  63.826  1.00  0.00    -0.350 A  
HETATM   29  C   UNL     1     -12.097  11.855  63.595  1.00  0.00    -0.580 A  
HETATM   30  C   UNL     1     -12.495  12.844  64.485  1.00  0.00    -0.468 A  
ENDBRANCH   8   9
ENDBRANCH   4   8
TORSDOF 2
ENDMDL
MODEL       38
REMARK 921   NORMALIZED FREE ENERGY PREDICTED BY IDOCK:   -6.00 KCAL/MOL
REMARK 922        TOTAL FREE ENERGY PREDICTED BY IDOCK:   -7.10 KCAL/MOL
REMARK 923 INTER-LIGAND FREE ENERGY PREDICTED BY IDOCK:   -7.02 KCAL/MOL
REMARK 924 INTRA-LIGAND FREE ENERGY PREDICTED BY IDOCK:   -0.08 KCAL/MOL
REMARK 927      BINDING AFFINITY PREDICTED BY RF-SCORE:    0.00 PKD
ROOT
HETATM    1  C   UNL     1      -9.500  17.509  66.435  1.00  0.00    -0.276 C  
HETATM    2  C   UNL     1     -10.267  16.232  66.329  1.00  0.00    -0.339 A  
HETATM    3  C   UNL     1     -10.306  15.297  67.371  1.00  0.00    -0.256 A  
HETATM    4  C   UNL     1     -11.058  14.126  67.242  1.00  0.00    -0.315 A  
HETATM    5  C   UNL     1     -11.724  13.939  66.030  1.00  0.00    -0.366 A  
HETATM    6  N   UNL     1     -11.694  14.803  64.991  1.00  0.00    -0.372 NA 
HETATM    7  C   UNL     1     -10.963  15.925  65.163  1.00  0.00    -0.377 A  
ENDROOT
BRANCH   4   8
HETATM    8  C   UNL     1     -11.096  13.018  68.272  1.00  0.00    -0.263 C  
BRANCH   8   9
HETATM    9  N   UNL     1     -11.799  11.772  67.906  1.00  0.00    -0.574 NA 
HETATM   10  C   UNL     1     -11.045  10.919  66.962  1.00  0.00    -0.202 C  
HETATM   11  C   UNL     1      -9.751  10.340  67.548  1.00  0.00    -0.196 C  
HETATM   12  C   UNL     1     -10.087   9.445  68.734  1.00  0.00    -0.208 C  
HETATM   13  C   UNL     1      -9.722   8.135  68.850  1.00  0.00    -0.156 C  
HETATM   14  C   UNL     1     -10.886  10.249  69.760  1.00  0.00    -0.332 C  
HETATM   15  C   UNL     1     -10.074   7.385  70.082  1.00  0.00    -0.197 A  
HETATM   16  C   UNL     1     -12.098  10.971  69.119  1.00  0.00    -0.263 C  
HETATM   17  C   UNL     1     -11.399   7.007  70.338  1.00  0.00    -0.354 A  
HETATM   18  C   UNL     1     -11.716   6.290  71.496  1.00  0.00    -0.329 A  
HETATM   19  C   UNL     1     -10.706   5.935  72.386  1.00  0.00    -0.232 A  
HETATM   20  C   UNL     1      -9.379   6.282  72.129  1.00  0.00    -0.152 A  
HETATM   21 CL   UNL     1     -11.093   5.044  73.807  1.00  0.00    -0.341 Cl 
HETATM   22  C   UNL     1      -9.053   7.005  70.972  1.00  0.00    -0.151 A  
HETATM   23  C   UNL     1      -7.619   7.340  70.646  1.00  0.00    -0.091 C  
HETATM   24  C   UNL     1      -7.109   6.532  69.450  1.00  0.00    -0.077 C  
HETATM   25  C   UNL     1      -7.701   6.786  68.079  1.00  0.00    -0.112 A  
HETATM   26  C   UNL     1      -8.893   7.470  67.798  1.00  0.00    -0.132 A  
HETATM   27  N   UNL     1      -9.394   7.569  66.536  1.00  0.00    -0.179 NA 
HETATM   28  C   UNL     1      -8.676   7.053  65.518  1.00  0.00    -0.025 A  
HETATM   29  C   UNL     1      -7.481   6.390  65.689  1.00  0.00    -0.082 A  
HETATM   30  C   UNL     1      -7.004   6.240  66.985  1.00  0.00    -0.071 A  
ENDBRANCH   8   9
ENDBRANCH   4   8
TORSDOF 2
ENDMDL
MODEL       39
REMARK 921   NORMALIZED FREE ENERGY PREDICTED BY IDOCK:   -5.97 KCAL/MOL
REMARK 922        TOTAL FREE ENERGY PREDICTED BY IDOCK:   -7.07 KCAL/MOL
REMARK 923 INTER-LIGAND FREE ENERGY PREDICTED BY IDOCK:   -6.88 KCAL/MOL
REMARK 924 INTRA-LIGAND FREE ENERGY PREDICTED BY IDOCK:   -0.19 KCAL/MOL
REMARK 927      BINDING AFFINITY PREDICTED BY RF-SCORE:    0.00 PKD
ROOT
HETATM    1  C   UNL     1     -11.387   6.234  69.712  1.00  0.00    -0.506 C  
HETATM    2  C   UNL     1     -10.048   6.486  69.102  1.00  0.00    -0.190 A  
HETATM    3  C   UNL     1      -9.272   7.603  69.438  1.00  0.00    -0.149 A  
HETATM    4  C   UNL     1      -8.012   7.787  68.863  1.00  0.00    -0.124 A  
HETATM    5  C   UNL     1      -7.600   6.829  67.936  1.00  0.00    -0.107 A  
HETATM    6  N   UNL     1      -8.325   5.751  67.565  1.00  0.00    -0.105 NA 
HETATM    7  C   UNL     1      -9.532   5.607  68.152  1.00  0.00    -0.110 A  
ENDROOT
BRANCH   4   8
HETATM    8  C   UNL     1      -7.137   8.999  69.095  1.00  0.00    -0.063 C  
BRANCH   8   9
HETATM    9  N   UNL     1      -6.756   9.800  67.913  1.00  0.00    -0.065 NA 
HETATM   10  C   UNL     1      -7.793   9.836  66.859  1.00  0.00    -0.102 C  
HETATM   11  C   UNL     1      -9.078  10.561  67.278  1.00  0.00    -0.152 C  
HETATM   12  C   UNL     1      -8.760  12.017  67.592  1.00  0.00    -0.166 C  
HETATM   13  C   UNL     1      -9.358  13.091  66.997  1.00  0.00    -0.236 C  
HETATM   14  C   UNL     1      -7.677  12.074  68.670  1.00  0.00    -0.099 C  
HETATM   15  C   UNL     1      -8.989  14.463  67.428  1.00  0.00    -0.204 A  
HETATM   16  C   UNL     1      -6.451  11.198  68.312  1.00  0.00    -0.057 C  
HETATM   17  C   UNL     1      -7.743  15.009  67.092  1.00  0.00    -0.202 A  
HETATM   18  C   UNL     1      -7.411  16.307  67.493  1.00  0.00    -0.172 A  
HETATM   19  C   UNL     1      -8.333  17.064  68.212  1.00  0.00    -0.228 A  
HETATM   20  C   UNL     1      -9.587  16.541  68.529  1.00  0.00    -0.233 A  
HETATM   21 CL   UNL     1      -7.931  18.665  68.697  1.00  0.00    -0.358 Cl 
HETATM   22  C   UNL     1      -9.926  15.238  68.134  1.00  0.00    -0.221 A  
HETATM   23  C   UNL     1     -11.296  14.674  68.417  1.00  0.00    -0.312 C  
HETATM   24  C   UNL     1     -12.123  14.536  67.136  1.00  0.00    -0.301 C  
HETATM   25  C   UNL     1     -11.696  13.533  66.085  1.00  0.00    -0.397 A  
HETATM   26  C   UNL     1     -10.445  12.906  65.988  1.00  0.00    -0.276 A  
HETATM   27  N   UNL     1     -10.121  12.086  64.951  1.00  0.00    -0.264 NA 
HETATM   28  C   UNL     1     -11.067  11.813  64.029  1.00  0.00    -0.390 A  
HETATM   29  C   UNL     1     -12.332  12.355  64.054  1.00  0.00    -0.579 A  
HETATM   30  C   UNL     1     -12.639  13.239  65.081  1.00  0.00    -0.512 A  
ENDBRANCH   8   9
ENDBRANCH   4   8
TORSDOF 2
ENDMDL
MODEL       40
REMARK 921   NORMALIZED FREE ENERGY PREDICTED BY IDOCK:   -5.90 KCAL/MOL
REMARK 922        TOTAL FREE ENERGY PREDICTED BY IDOCK:   -6.98 KCAL/MOL
REMARK 923 INTER-LIGAND FREE ENERGY PREDICTED BY IDOCK:   -6.61 KCAL/MOL
REMARK 924 INTRA-LIGAND FREE ENERGY PREDICTED BY IDOCK:   -0.37 KCAL/MOL
REMARK 927      BINDING AFFINITY PREDICTED BY RF-SCORE:    0.00 PKD
ROOT
HETATM    1  C   UNL     1     -10.379  20.208  65.660  1.00  0.00    -0.316 C  
HETATM    2  C   UNL     1     -10.340  19.099  66.659  1.00  0.00    -0.515 A  
HETATM    3  C   UNL     1     -10.572  17.765  66.303  1.00  0.00    -0.220 A  
HETATM    4  C   UNL     1     -10.500  16.753  67.265  1.00  0.00    -0.310 A  
HETATM    5  C   UNL     1     -10.218  17.151  68.572  1.00  0.00    -0.346 A  
HETATM    6  N   UNL     1     -10.011  18.427  68.964  1.00  0.00    -0.336 NA 
HETATM    7  C   UNL     1     -10.081  19.371  68.000  1.00  0.00    -0.412 A  
ENDROOT
BRANCH   4   8
HETATM    8  C   UNL     1     -10.817  15.298  66.998  1.00  0.00    -0.321 C  
BRANCH   8   9
HETATM    9  N   UNL     1      -9.791  14.494  66.302  1.00  0.00    -0.290 NA 
HETATM   10  C   UNL     1      -8.567  14.273  67.100  1.00  0.00    -0.216 C  
HETATM   11  C   UNL     1      -8.788  13.411  68.350  1.00  0.00    -0.133 C  
HETATM   12  C   UNL     1      -9.263  12.025  67.931  1.00  0.00    -0.190 C  
HETATM   13  C   UNL     1      -8.648  10.855  68.271  1.00  0.00    -0.139 C  
HETATM   14  C   UNL     1     -10.527  12.162  67.083  1.00  0.00    -0.241 C  
HETATM   15  C   UNL     1      -9.241   9.565  67.837  1.00  0.00    -0.134 A  
HETATM   16  C   UNL     1     -10.343  13.170  65.920  1.00  0.00    -0.290 C  
HETATM   17  C   UNL     1      -9.188   9.167  66.495  1.00  0.00    -0.221 A  
HETATM   18  C   UNL     1      -9.740   7.945  66.100  1.00  0.00    -0.079 A  
HETATM   19  C   UNL     1     -10.326   7.113  67.049  1.00  0.00    -0.298 A  
HETATM   20  C   UNL     1     -10.361   7.486  68.393  1.00  0.00    -0.226 A  
HETATM   21 CL   UNL     1     -10.996   5.603  66.567  1.00  0.00    -0.257 Cl 
HETATM   22  C   UNL     1      -9.814   8.712  68.798  1.00  0.00    -0.180 A  
HETATM   23  C   UNL     1      -9.791   9.109  70.253  1.00  0.00    -0.245 C  
HETATM   24  C   UNL     1      -8.370   9.075  70.823  1.00  0.00    -0.228 C  
HETATM   25  C   UNL     1      -7.347  10.070  70.318  1.00  0.00    -0.152 A  
HETATM   26  C   UNL     1      -7.441  10.847  69.154  1.00  0.00    -0.130 A  
HETATM   27  N   UNL     1      -6.426  11.649  68.730  1.00  0.00    -0.059 NA 
HETATM   28  C   UNL     1      -5.324  11.751  69.502  1.00  0.00    -0.063 A  
HETATM   29  C   UNL     1      -5.150  11.052  70.675  1.00  0.00    -0.093 A  
HETATM   30  C   UNL     1      -6.164  10.190  71.073  1.00  0.00     0.030 A  
ENDBRANCH   8   9
ENDBRANCH   4   8
TORSDOF 2
ENDMDL
MODEL       41
REMARK 921   NORMALIZED FREE ENERGY PREDICTED BY IDOCK:   -5.89 KCAL/MOL
REMARK 922        TOTAL FREE ENERGY PREDICTED BY IDOCK:   -6.98 KCAL/MOL
REMARK 923 INTER-LIGAND FREE ENERGY PREDICTED BY IDOCK:   -6.76 KCAL/MOL
REMARK 924 INTRA-LIGAND FREE ENERGY PREDICTED BY IDOCK:   -0.22 KCAL/MOL
REMARK 927      BINDING AFFINITY PREDICTED BY RF-SCORE:    0.00 PKD
ROOT
HETATM    1  C   UNL     1      -9.534   3.314  65.098  1.00  0.00    -0.139 C  
HETATM    2  C   UNL     1      -9.497   3.951  66.449  1.00  0.00    -0.204 A  
HETATM    3  C   UNL     1      -9.419   5.339  66.618  1.00  0.00    -0.148 A  
HETATM    4  C   UNL     1      -9.414   5.895  67.900  1.00  0.00    -0.112 A  
HETATM    5  C   UNL     1      -9.461   5.002  68.971  1.00  0.00    -0.137 A  
HETATM    6  N   UNL     1      -9.513   3.657  68.854  1.00  0.00    -0.164 NA 
HETATM    7  C   UNL     1      -9.525   3.163  67.597  1.00  0.00    -0.152 A  
ENDROOT
BRANCH   4   8
HETATM    8  C   UNL     1      -9.247   7.371  68.189  1.00  0.00    -0.133 C  
BRANCH   8   9
HETATM    9  N   UNL     1      -8.427   8.160  67.247  1.00  0.00    -0.124 NA 
HETATM   10  C   UNL     1      -9.200   8.743  66.129  1.00  0.00    -0.215 C  
HETATM   11  C   UNL     1     -10.214   9.808  66.566  1.00  0.00    -0.289 C  
HETATM   12  C   UNL     1      -9.479  10.975  67.211  1.00  0.00    -0.179 C  
HETATM   13  C   UNL     1      -9.570  12.275  66.803  1.00  0.00    -0.220 C  
HETATM   14  C   UNL     1      -8.636  10.456  68.376  1.00  0.00    -0.128 C  
HETATM   15  C   UNL     1      -8.835  13.328  67.549  1.00  0.00    -0.206 A  
HETATM   16  C   UNL     1      -7.737   9.264  67.961  1.00  0.00    -0.088 C  
HETATM   17  C   UNL     1      -7.440  13.429  67.460  1.00  0.00    -0.170 A  
HETATM   18  C   UNL     1      -6.760  14.432  68.157  1.00  0.00    -0.129 A  
HETATM   19  C   UNL     1      -7.477  15.344  68.928  1.00  0.00    -0.152 A  
HETATM   20  C   UNL     1      -8.868  15.270  69.004  1.00  0.00    -0.226 A  
HETATM   21 CL   UNL     1      -6.643  16.586  69.779  1.00  0.00    -0.169 Cl 
HETATM   22  C   UNL     1      -9.558  14.264  68.310  1.00  0.00    -0.221 A  
HETATM   23  C   UNL     1     -11.064  14.200  68.333  1.00  0.00    -0.273 C  
HETATM   24  C   UNL     1     -11.665  14.585  66.978  1.00  0.00    -0.412 C  
HETATM   25  C   UNL     1     -11.434  13.683  65.784  1.00  0.00    -0.326 A  
HETATM   26  C   UNL     1     -10.472  12.668  65.678  1.00  0.00    -0.275 A  
HETATM   27  N   UNL     1     -10.277  11.968  64.526  1.00  0.00    -0.277 NA 
HETATM   28  C   UNL     1     -11.092  12.214  63.480  1.00  0.00    -0.452 A  
HETATM   29  C   UNL     1     -12.084  13.168  63.497  1.00  0.00    -0.585 A  
HETATM   30  C   UNL     1     -12.240  13.921  64.654  1.00  0.00    -0.449 A  
ENDBRANCH   8   9
ENDBRANCH   4   8
TORSDOF 2
ENDMDL
MODEL       42
REMARK 921   NORMALIZED FREE ENERGY PREDICTED BY IDOCK:   -5.85 KCAL/MOL
REMARK 922        TOTAL FREE ENERGY PREDICTED BY IDOCK:   -6.93 KCAL/MOL
REMARK 923 INTER-LIGAND FREE ENERGY PREDICTED BY IDOCK:   -6.62 KCAL/MOL
REMARK 924 INTRA-LIGAND FREE ENERGY PREDICTED BY IDOCK:   -0.31 KCAL/MOL
REMARK 927      BINDING AFFINITY PREDICTED BY RF-SCORE:    0.00 PKD
ROOT
HETATM    1  C   UNL     1     -12.397  14.228  64.930  1.00  0.00    -0.435 C  
HETATM    2  C   UNL     1     -11.654  12.936  65.034  1.00  0.00    -0.367 A  
HETATM    3  C   UNL     1     -11.586  12.209  66.229  1.00  0.00    -0.424 A  
HETATM    4  C   UNL     1     -10.902  10.990  66.276  1.00  0.00    -0.234 A  
HETATM    5  C   UNL     1     -10.285  10.572  65.097  1.00  0.00    -0.288 A  
HETATM    6  N   UNL     1     -10.305  11.254  63.930  1.00  0.00    -0.348 NA 
HETATM    7  C   UNL     1     -10.985  12.420  63.928  1.00  0.00    -0.414 A  
ENDROOT
BRANCH   4   8
HETATM    8  C   UNL     1     -10.700  10.174  67.534  1.00  0.00    -0.290 C  
BRANCH   8   9
HETATM    9  N   UNL     1      -9.634   9.151  67.517  1.00  0.00    -0.145 NA 
HETATM   10  C   UNL     1      -8.466   9.495  68.355  1.00  0.00    -0.119 C  
HETATM   11  C   UNL     1      -8.773   9.545  69.857  1.00  0.00    -0.224 C  
HETATM   12  C   UNL     1      -9.226   8.169  70.328  1.00  0.00    -0.151 C  
HETATM   13  C   UNL     1      -8.640   7.458  71.335  1.00  0.00    -0.118 C  
HETATM   14  C   UNL     1     -10.431   7.725  69.498  1.00  0.00    -0.225 C  
HETATM   15  C   UNL     1      -9.209   6.144  71.729  1.00  0.00    -0.149 A  
HETATM   16  C   UNL     1     -10.166   7.843  67.976  1.00  0.00    -0.208 C  
HETATM   17  C   UNL     1      -9.070   5.024  70.898  1.00  0.00    -0.181 A  
HETATM   18  C   UNL     1      -9.600   3.790  71.285  1.00  0.00    -0.243 A  
HETATM   19  C   UNL     1     -10.251   3.671  72.510  1.00  0.00    -0.159 A  
HETATM   20  C   UNL     1     -10.373   4.773  73.358  1.00  0.00    -0.239 A  
HETATM   21 CL   UNL     1     -10.895   2.150  72.993  1.00  0.00    -0.250 Cl 
HETATM   22  C   UNL     1      -9.847   6.016  72.976  1.00  0.00    -0.176 A  
HETATM   23  C   UNL     1      -9.918   7.205  73.901  1.00  0.00    -0.360 C  
HETATM   24  C   UNL     1      -8.538   7.570  74.455  1.00  0.00    -0.242 C  
HETATM   25  C   UNL     1      -7.479   8.101  73.511  1.00  0.00    -0.197 A  
HETATM   26  C   UNL     1      -7.493   8.023  72.111  1.00  0.00    -0.095 A  
HETATM   27  N   UNL     1      -6.448   8.447  71.348  1.00  0.00    -0.046 NA 
HETATM   28  C   UNL     1      -5.399   9.030  71.964  1.00  0.00    -0.058 A  
HETATM   29  C   UNL     1      -5.306   9.179  73.330  1.00  0.00    -0.103 A  
HETATM   30  C   UNL     1      -6.348   8.690  74.108  1.00  0.00    -0.130 A  
ENDBRANCH   8   9
ENDBRANCH   4   8
TORSDOF 2
ENDMDL
MODEL       43
REMARK 921   NORMALIZED FREE ENERGY PREDICTED BY IDOCK:   -5.81 KCAL/MOL
REMARK 922        TOTAL FREE ENERGY PREDICTED BY IDOCK:   -6.89 KCAL/MOL
REMARK 923 INTER-LIGAND FREE ENERGY PREDICTED BY IDOCK:   -6.58 KCAL/MOL
REMARK 924 INTRA-LIGAND FREE ENERGY PREDICTED BY IDOCK:   -0.31 KCAL/MOL
REMARK 927      BINDING AFFINITY PREDICTED BY RF-SCORE:    0.00 PKD
ROOT
HETATM    1  C   UNL     1      -8.174  16.172  66.335  1.00  0.00    -0.336 C  
HETATM    2  C   UNL     1      -9.215  15.128  66.576  1.00  0.00    -0.318 A  
HETATM    3  C   UNL     1      -8.890  13.841  67.023  1.00  0.00    -0.230 A  
HETATM    4  C   UNL     1      -9.897  12.901  67.262  1.00  0.00    -0.218 A  
HETATM    5  C   UNL     1     -11.207  13.308  67.006  1.00  0.00    -0.292 A  
HETATM    6  N   UNL     1     -11.562  14.530  66.553  1.00  0.00    -0.370 NA 
HETATM    7  C   UNL     1     -10.559  15.409  66.345  1.00  0.00    -0.307 A  
ENDROOT
BRANCH   4   8
HETATM    8  C   UNL     1      -9.645  11.463  67.661  1.00  0.00    -0.169 C  
BRANCH   8   9
HETATM    9  N   UNL     1     -10.817  10.568  67.756  1.00  0.00    -0.272 NA 
HETATM   10  C   UNL     1     -10.757   9.411  66.837  1.00  0.00    -0.104 C  
HETATM   11  C   UNL     1      -9.630   8.422  67.158  1.00  0.00    -0.233 C  
HETATM   12  C   UNL     1      -9.852   7.834  68.546  1.00  0.00    -0.181 C  
HETATM   13  C   UNL     1      -9.950   6.500  68.821  1.00  0.00    -0.155 C  
HETATM   14  C   UNL     1      -9.941   8.970  69.564  1.00  0.00    -0.193 C  
HETATM   15  C   UNL     1     -10.119   6.055  70.227  1.00  0.00    -0.249 A  
HETATM   16  C   UNL     1     -10.964  10.054  69.141  1.00  0.00    -0.220 C  
HETATM   17  C   UNL     1     -11.332   6.252  70.900  1.00  0.00    -0.389 A  
HETATM   18  C   UNL     1     -11.484   5.818  72.220  1.00  0.00    -0.320 A  
HETATM   19  C   UNL     1     -10.430   5.170  72.860  1.00  0.00    -0.211 A  
HETATM   20  C   UNL     1      -9.226   4.944  72.191  1.00  0.00    -0.159 A  
HETATM   21 CL   UNL     1     -10.618   4.625  74.481  1.00  0.00    -0.304 Cl 
HETATM   22  C   UNL     1      -9.064   5.380  70.867  1.00  0.00    -0.164 A  
HETATM   23  C   UNL     1      -7.792   5.096  70.108  1.00  0.00    -0.078 C  
HETATM   24  C   UNL     1      -8.015   4.055  69.007  1.00  0.00    -0.057 C  
HETATM   25  C   UNL     1      -8.893   4.406  67.823  1.00  0.00    -0.122 A  
HETATM   26  C   UNL     1      -9.794   5.477  67.741  1.00  0.00    -0.138 A  
HETATM   27  N   UNL     1     -10.611   5.660  66.667  1.00  0.00    -0.297 NA 
HETATM   28  C   UNL     1     -10.490   4.819  65.619  1.00  0.00    -0.191 A  
HETATM   29  C   UNL     1      -9.614   3.757  65.593  1.00  0.00    -0.166 A  
HETATM   30  C   UNL     1      -8.825   3.540  66.716  1.00  0.00    -0.142 A  
ENDBRANCH   8   9
ENDBRANCH   4   8
TORSDOF 2
ENDMDL
MODEL       44
REMARK 921   NORMALIZED FREE ENERGY PREDICTED BY IDOCK:   -5.81 KCAL/MOL
REMARK 922        TOTAL FREE ENERGY PREDICTED BY IDOCK:   -6.88 KCAL/MOL
REMARK 923 INTER-LIGAND FREE ENERGY PREDICTED BY IDOCK:   -6.73 KCAL/MOL
REMARK 924 INTRA-LIGAND FREE ENERGY PREDICTED BY IDOCK:   -0.15 KCAL/MOL
REMARK 927      BINDING AFFINITY PREDICTED BY RF-SCORE:    0.00 PKD
ROOT
HETATM    1  C   UNL     1     -10.179  19.762  68.267  1.00  0.00    -0.569 C  
HETATM    2  C   UNL     1     -10.259  18.497  67.477  1.00  0.00    -0.414 A  
HETATM    3  C   UNL     1     -10.080  17.238  68.063  1.00  0.00    -0.324 A  
HETATM    4  C   UNL     1     -10.190  16.077  67.293  1.00  0.00    -0.277 A  
HETATM    5  C   UNL     1     -10.454  16.250  65.933  1.00  0.00    -0.345 A  
HETATM    6  N   UNL     1     -10.610  17.445  65.323  1.00  0.00    -0.640 NA 
HETATM    7  C   UNL     1     -10.504  18.539  66.107  1.00  0.00    -0.413 A  
ENDROOT
BRANCH   4   8
HETATM    8  C   UNL     1      -9.931  14.680  67.813  1.00  0.00    -0.224 C  
BRANCH   8   9
HETATM    9  N   UNL     1     -10.833  13.604  67.351  1.00  0.00    -0.270 NA 
HETATM   10  C   UNL     1     -10.329  12.871  66.170  1.00  0.00    -0.276 C  
HETATM   11  C   UNL     1      -9.053  12.063  66.440  1.00  0.00    -0.193 C  
HETATM   12  C   UNL     1      -9.341  10.999  67.492  1.00  0.00    -0.167 C  
HETATM   13  C   UNL     1      -9.137   9.660  67.323  1.00  0.00    -0.150 C  
HETATM   14  C   UNL     1      -9.884  11.673  68.752  1.00  0.00    -0.129 C  
HETATM   15  C   UNL     1      -9.414   8.731  68.448  1.00  0.00    -0.148 A  
HETATM   16  C   UNL     1     -11.068  12.624  68.441  1.00  0.00    -0.265 C  
HETATM   17  C   UNL     1     -10.730   8.450  68.838  1.00  0.00    -0.095 A  
HETATM   18  C   UNL     1     -10.980   7.565  69.891  1.00  0.00    -0.223 A  
HETATM   19  C   UNL     1      -9.914   6.946  70.539  1.00  0.00    -0.183 A  
HETATM   20  C   UNL     1      -8.600   7.197  70.142  1.00  0.00    -0.140 A  
HETATM   21 CL   UNL     1     -10.219   5.848  71.828  1.00  0.00    -0.237 Cl 
HETATM   22  C   UNL     1      -8.341   8.087  69.090  1.00  0.00    -0.132 A  
HETATM   23  C   UNL     1      -6.932   8.329  68.608  1.00  0.00    -0.068 C  
HETATM   24  C   UNL     1      -6.697   7.713  67.226  1.00  0.00    -0.068 C  
HETATM   25  C   UNL     1      -7.429   8.281  66.028  1.00  0.00    -0.077 A  
HETATM   26  C   UNL     1      -8.549   9.124  66.057  1.00  0.00    -0.146 A  
HETATM   27  N   UNL     1      -9.198   9.511  64.924  1.00  0.00    -0.238 NA 
HETATM   28  C   UNL     1      -8.695   9.125  63.734  1.00  0.00    -0.125 A  
HETATM   29  C   UNL     1      -7.584   8.322  63.601  1.00  0.00    -0.134 A  
HETATM   30  C   UNL     1      -6.961   7.882  64.762  1.00  0.00    -0.062 A  
ENDBRANCH   8   9
ENDBRANCH   4   8
TORSDOF 2
ENDMDL
MODEL       45
REMARK 921   NORMALIZED FREE ENERGY PREDICTED BY IDOCK:   -5.78 KCAL/MOL
REMARK 922        TOTAL FREE ENERGY PREDICTED BY IDOCK:   -6.85 KCAL/MOL
REMARK 923 INTER-LIGAND FREE ENERGY PREDICTED BY IDOCK:   -6.55 KCAL/MOL
REMARK 924 INTRA-LIGAND FREE ENERGY PREDICTED BY IDOCK:   -0.30 KCAL/MOL
REMARK 927      BINDING AFFINITY PREDICTED BY RF-SCORE:    0.00 PKD
ROOT
HETATM    1  C   UNL     1     -13.273  14.329  73.074  1.00  0.00    -0.500 C  
HETATM    2  C   UNL     1     -12.798  14.550  71.676  1.00  0.00    -0.409 A  
HETATM    3  C   UNL     1     -12.098  13.570  70.961  1.00  0.00    -0.233 A  
HETATM    4  C   UNL     1     -11.694  13.808  69.644  1.00  0.00    -0.379 A  
HETATM    5  C   UNL     1     -11.999  15.062  69.112  1.00  0.00    -0.275 A  
HETATM    6  N   UNL     1     -12.651  16.044  69.773  1.00  0.00    -0.014 NA 
HETATM    7  C   UNL     1     -13.030  15.767  71.039  1.00  0.00    -0.320 A  
ENDROOT
BRANCH   4   8
HETATM    8  C   UNL     1     -10.863  12.850  68.820  1.00  0.00    -0.242 C  
BRANCH   8   9
HETATM    9  N   UNL     1     -11.577  11.970  67.872  1.00  0.00    -0.365 NA 
HETATM   10  C   UNL     1     -10.978  11.940  66.521  1.00  0.00    -0.292 C  
HETATM   11  C   UNL     1      -9.579  11.310  66.477  1.00  0.00    -0.215 C  
HETATM   12  C   UNL     1      -9.664   9.856  66.922  1.00  0.00    -0.236 C  
HETATM   13  C   UNL     1      -9.240   8.789  66.184  1.00  0.00    -0.273 C  
HETATM   14  C   UNL     1     -10.292   9.793  68.315  1.00  0.00    -0.231 C  
HETATM   15  C   UNL     1      -9.336   7.422  66.755  1.00  0.00    -0.202 A  
HETATM   16  C   UNL     1     -11.624  10.580  68.391  1.00  0.00    -0.128 C  
HETATM   17  C   UNL     1     -10.579   6.790  66.897  1.00  0.00    -0.374 A  
HETATM   18  C   UNL     1     -10.656   5.498  67.425  1.00  0.00    -0.274 A  
HETATM   19  C   UNL     1      -9.491   4.830  67.791  1.00  0.00    -0.146 A  
HETATM   20  C   UNL     1      -8.245   5.439  67.629  1.00  0.00    -0.100 A  
HETATM   21 CL   UNL     1      -9.582   3.236  68.431  1.00  0.00    -0.199 Cl 
HETATM   22  C   UNL     1      -8.159   6.737  67.104  1.00  0.00    -0.117 A  
HETATM   23  C   UNL     1      -6.820   7.390  66.869  1.00  0.00    -0.070 C  
HETATM   24  C   UNL     1      -6.508   7.510  65.374  1.00  0.00    -0.041 C  
HETATM   25  C   UNL     1      -7.347   8.433  64.515  1.00  0.00    -0.094 A  
HETATM   26  C   UNL     1      -8.592   8.983  64.851  1.00  0.00    -0.180 A  
HETATM   27  N   UNL     1      -9.317   9.731  63.973  1.00  0.00    -0.228 NA 
HETATM   28  C   UNL     1      -8.778  10.010  62.769  1.00  0.00    -0.210 A  
HETATM   29  C   UNL     1      -7.550   9.541  62.359  1.00  0.00    -0.111 A  
HETATM   30  C   UNL     1      -6.841   8.729  63.235  1.00  0.00    -0.089 A  
ENDBRANCH   8   9
ENDBRANCH   4   8
TORSDOF 2
ENDMDL
MODEL       46
REMARK 921   NORMALIZED FREE ENERGY PREDICTED BY IDOCK:   -5.75 KCAL/MOL
REMARK 922        TOTAL FREE ENERGY PREDICTED BY IDOCK:   -6.82 KCAL/MOL
REMARK 923 INTER-LIGAND FREE ENERGY PREDICTED BY IDOCK:   -6.53 KCAL/MOL
REMARK 924 INTRA-LIGAND FREE ENERGY PREDICTED BY IDOCK:   -0.29 KCAL/MOL
REMARK 927      BINDING AFFINITY PREDICTED BY RF-SCORE:    0.00 PKD
ROOT
HETATM    1  C   UNL     1      -6.054   5.215  63.182  1.00  0.00    -0.021 C  
HETATM    2  C   UNL     1      -6.359   5.333  64.639  1.00  0.00    -0.034 A  
HETATM    3  C   UNL     1      -7.091   6.405  65.164  1.00  0.00    -0.060 A  
HETATM    4  C   UNL     1      -7.378   6.463  66.531  1.00  0.00    -0.078 A  
HETATM    5  C   UNL     1      -6.875   5.429  67.321  1.00  0.00    -0.060 A  
HETATM    6  N   UNL     1      -6.144   4.390  66.860  1.00  0.00    -0.030 NA 
HETATM    7  C   UNL     1      -5.900   4.369  65.533  1.00  0.00    -0.022 A  
ENDROOT
BRANCH   4   8
HETATM    8  C   UNL     1      -8.085   7.618  67.206  1.00  0.00    -0.119 C  
BRANCH   8   9
HETATM    9  N   UNL     1      -9.517   7.813  66.896  1.00  0.00    -0.175 NA 
HETATM   10  C   UNL     1     -10.357   8.052  68.089  1.00  0.00    -0.200 C  
HETATM   11  C   UNL     1     -10.050   9.372  68.808  1.00  0.00    -0.208 C  
HETATM   12  C   UNL     1     -10.329  10.538  67.868  1.00  0.00    -0.226 C  
HETATM   13  C   UNL     1     -11.179  11.571  68.139  1.00  0.00    -0.335 C  
HETATM   14  C   UNL     1      -9.506  10.362  66.592  1.00  0.00    -0.199 C  
HETATM   15  C   UNL     1     -11.326  12.673  67.154  1.00  0.00    -0.373 A  
HETATM   16  C   UNL     1      -9.693   8.957  65.966  1.00  0.00    -0.238 C  
HETATM   17  C   UNL     1     -12.007  12.469  65.946  1.00  0.00    -0.472 A  
HETATM   18  C   UNL     1     -12.149  13.517  65.032  1.00  0.00    -0.428 A  
HETATM   19  C   UNL     1     -11.629  14.773  65.334  1.00  0.00    -0.316 A  
HETATM   20  C   UNL     1     -10.972  14.995  66.546  1.00  0.00    -0.327 A  
HETATM   21 CL   UNL     1     -11.812  16.067  64.216  1.00  0.00    -0.218 Cl 
HETATM   22  C   UNL     1     -10.821  13.948  67.467  1.00  0.00    -0.274 A  
HETATM   23  C   UNL     1     -10.165  14.181  68.805  1.00  0.00    -0.216 C  
HETATM   24  C   UNL     1     -11.182  14.117  69.948  1.00  0.00    -0.163 C  
HETATM   25  C   UNL     1     -11.852  12.797  70.270  1.00  0.00    -0.292 A  
HETATM   26  C   UNL     1     -11.891  11.660  69.450  1.00  0.00    -0.342 A  
HETATM   27  N   UNL     1     -12.599  10.546  69.786  1.00  0.00    -0.122 NA 
HETATM   28  C   UNL     1     -13.219  10.516  70.983  1.00  0.00    -0.239 A  
HETATM   29  C   UNL     1     -13.213  11.571  71.869  1.00  0.00    -0.479 A  
HETATM   30  C   UNL     1     -12.540  12.727  71.496  1.00  0.00    -0.259 A  
ENDBRANCH   8   9
ENDBRANCH   4   8
TORSDOF 2
ENDMDL
MODEL       47
REMARK 921   NORMALIZED FREE ENERGY PREDICTED BY IDOCK:   -5.71 KCAL/MOL
REMARK 922        TOTAL FREE ENERGY PREDICTED BY IDOCK:   -6.77 KCAL/MOL
REMARK 923 INTER-LIGAND FREE ENERGY PREDICTED BY IDOCK:   -6.64 KCAL/MOL
REMARK 924 INTRA-LIGAND FREE ENERGY PREDICTED BY IDOCK:   -0.14 KCAL/MOL
REMARK 927      BINDING AFFINITY PREDICTED BY RF-SCORE:    0.00 PKD
ROOT
HETATM    1  C   UNL     1      -6.740   7.983  73.878  1.00  0.00    -0.135 C  
HETATM    2  C   UNL     1      -8.093   7.866  73.257  1.00  0.00    -0.218 A  
HETATM    3  C   UNL     1      -8.326   8.175  71.911  1.00  0.00    -0.187 A  
HETATM    4  C   UNL     1      -9.603   8.026  71.362  1.00  0.00    -0.195 A  
HETATM    5  C   UNL     1     -10.609   7.591  72.226  1.00  0.00    -0.236 A  
HETATM    6  N   UNL     1     -10.434   7.306  73.535  1.00  0.00    -0.374 NA 
HETATM    7  C   UNL     1      -9.183   7.454  74.020  1.00  0.00    -0.245 A  
ENDROOT
BRANCH   4   8
HETATM    8  C   UNL     1      -9.974   8.412  69.947  1.00  0.00    -0.190 C  
BRANCH   8   9
HETATM    9  N   UNL     1      -8.918   9.014  69.107  1.00  0.00    -0.138 NA 
HETATM   10  C   UNL     1      -9.230   9.004  67.662  1.00  0.00    -0.136 C  
HETATM   11  C   UNL     1     -10.422   9.891  67.279  1.00  0.00    -0.319 C  
HETATM   12  C   UNL     1     -10.107  11.341  67.622  1.00  0.00    -0.201 C  
HETATM   13  C   UNL     1     -10.140  12.377  66.735  1.00  0.00    -0.226 C  
HETATM   14  C   UNL     1      -9.755  11.440  69.107  1.00  0.00     0.065 C  
HETATM   15  C   UNL     1      -9.855  13.755  67.209  1.00  0.00    -0.241 A  
HETATM   16  C   UNL     1      -8.667  10.418  69.519  1.00  0.00    -0.084 C  
HETATM   17  C   UNL     1      -8.555  14.138  67.561  1.00  0.00    -0.196 A  
HETATM   18  C   UNL     1      -8.297  15.442  67.996  1.00  0.00    -0.142 A  
HETATM   19  C   UNL     1      -9.336  16.367  68.059  1.00  0.00    -0.216 A  
HETATM   20  C   UNL     1     -10.631  16.004  67.685  1.00  0.00    -0.309 A  
HETATM   21 CL   UNL     1      -9.020  17.974  68.583  1.00  0.00    -0.302 Cl 
HETATM   22  C   UNL     1     -10.899  14.697  67.252  1.00  0.00    -0.305 A  
HETATM   23  C   UNL     1     -12.279  14.301  66.791  1.00  0.00    -0.384 C  
HETATM   24  C   UNL     1     -12.321  14.071  65.277  1.00  0.00    -0.480 C  
HETATM   25  C   UNL     1     -11.559  12.905  64.684  1.00  0.00    -0.392 A  
HETATM   26  C   UNL     1     -10.550  12.161  65.313  1.00  0.00    -0.281 A  
HETATM   27  N   UNL     1      -9.854  11.186  64.665  1.00  0.00    -0.261 NA 
HETATM   28  C   UNL     1     -10.204  10.881  63.399  1.00  0.00    -0.295 A  
HETATM   29  C   UNL     1     -11.200  11.534  62.707  1.00  0.00     0.570 A  
HETATM   30  C   UNL     1     -11.866  12.569  63.352  1.00  0.00    -0.587 A  
ENDBRANCH   8   9
ENDBRANCH   4   8
TORSDOF 2
ENDMDL
MODEL       48
REMARK 921   NORMALIZED FREE ENERGY PREDICTED BY IDOCK:   -5.71 KCAL/MOL
REMARK 922        TOTAL FREE ENERGY PREDICTED BY IDOCK:   -6.77 KCAL/MOL
REMARK 923 INTER-LIGAND FREE ENERGY PREDICTED BY IDOCK:   -6.48 KCAL/MOL
REMARK 924 INTRA-LIGAND FREE ENERGY PREDICTED BY IDOCK:   -0.29 KCAL/MOL
REMARK 927      BINDING AFFINITY PREDICTED BY RF-SCORE:    0.00 PKD
ROOT
HETATM    1  C   UNL     1     -12.138  13.287  63.598  1.00  0.00    -0.551 C  
HETATM    2  C   UNL     1     -12.005  13.172  65.081  1.00  0.00    -0.431 A  
HETATM    3  C   UNL     1     -11.654  11.969  65.708  1.00  0.00    -0.353 A  
HETATM    4  C   UNL     1     -11.514  11.911  67.097  1.00  0.00    -0.386 A  
HETATM    5  C   UNL     1     -11.768  13.088  67.803  1.00  0.00    -0.359 A  
HETATM    6  N   UNL     1     -12.132  14.262  67.241  1.00  0.00    -0.401 NA 
HETATM    7  C   UNL     1     -12.246  14.275  65.896  1.00  0.00    -0.407 A  
ENDROOT
BRANCH   4   8
HETATM    8  C   UNL     1     -11.223  10.645  67.873  1.00  0.00    -0.308 C  
BRANCH   8   9
HETATM    9  N   UNL     1      -9.930  10.565  68.585  1.00  0.00    -0.173 NA 
HETATM   10  C   UNL     1     -10.057  10.179  70.006  1.00  0.00    -0.190 C  
HETATM   11  C   UNL     1     -10.574   8.750  70.217  1.00  0.00    -0.239 C  
HETATM   12  C   UNL     1      -9.590   7.760  69.608  1.00  0.00    -0.163 C  
HETATM   13  C   UNL     1      -8.994   6.736  70.287  1.00  0.00    -0.152 C  
HETATM   14  C   UNL     1      -9.387   8.097  68.131  1.00  0.00    -0.139 C  
HETATM   15  C   UNL     1      -8.087   5.810  69.562  1.00  0.00    -0.108 A  
HETATM   16  C   UNL     1      -9.031   9.590  67.917  1.00  0.00    -0.123 C  
HETATM   17  C   UNL     1      -6.818   6.231  69.144  1.00  0.00    -0.062 A  
HETATM   18  C   UNL     1      -5.968   5.347  68.473  1.00  0.00    -0.021 A  
HETATM   19  C   UNL     1      -6.379   4.037  68.238  1.00  0.00    -0.037 A  
HETATM   20  C   UNL     1      -7.630   3.599  68.674  1.00  0.00    -0.053 A  
HETATM   21 CL   UNL     1      -5.331   2.944  67.422  1.00  0.00    -0.016 Cl 
HETATM   22  C   UNL     1      -8.491   4.481  69.344  1.00  0.00    -0.093 A  
HETATM   23  C   UNL     1      -9.823   4.011  69.873  1.00  0.00    -0.185 C  
HETATM   24  C   UNL     1      -9.828   3.941  71.403  1.00  0.00    -0.243 C  
HETATM   25  C   UNL     1      -9.724   5.222  72.203  1.00  0.00    -0.202 A  
HETATM   26  C   UNL     1      -9.314   6.475  71.724  1.00  0.00    -0.149 A  
HETATM   27  N   UNL     1      -9.162   7.553  72.542  1.00  0.00    -0.140 NA 
HETATM   28  C   UNL     1      -9.491   7.422  73.843  1.00  0.00    -0.263 A  
HETATM   29  C   UNL     1      -9.931   6.243  74.401  1.00  0.00    -0.346 A  
HETATM   30  C   UNL     1     -10.027   5.130  73.575  1.00  0.00    -0.186 A  
ENDBRANCH   8   9
ENDBRANCH   4   8
TORSDOF 2
ENDMDL
MODEL       49
REMARK 921   NORMALIZED FREE ENERGY PREDICTED BY IDOCK:   -5.59 KCAL/MOL
REMARK 922        TOTAL FREE ENERGY PREDICTED BY IDOCK:   -6.64 KCAL/MOL
REMARK 923 INTER-LIGAND FREE ENERGY PREDICTED BY IDOCK:   -7.03 KCAL/MOL
REMARK 924 INTRA-LIGAND FREE ENERGY PREDICTED BY IDOCK:    0.39 KCAL/MOL
REMARK 927      BINDING AFFINITY PREDICTED BY RF-SCORE:    0.00 PKD
ROOT
HETATM    1  C   UNL     1     -13.882  15.541  72.600  1.00  0.00    -0.654 C  
HETATM    2  C   UNL     1     -13.328  14.352  71.885  1.00  0.00    -0.456 A  
HETATM    3  C   UNL     1     -13.437  13.054  72.400  1.00  0.00    -0.615 A  
HETATM    4  C   UNL     1     -12.928  11.965  71.687  1.00  0.00    -0.447 A  
HETATM    5  C   UNL     1     -12.295  12.251  70.476  1.00  0.00    -0.264 A  
HETATM    6  N   UNL     1     -12.147  13.488  69.955  1.00  0.00    -0.344 NA 
HETATM    7  C   UNL     1     -12.662  14.509  70.673  1.00  0.00    -0.360 A  
ENDROOT
BRANCH   4   8
HETATM    8  C   UNL     1     -12.920  10.540  72.195  1.00  0.00    -0.263 C  
BRANCH   8   9
HETATM    9  N   UNL     1     -12.740   9.464  71.199  1.00  0.00    -0.299 NA 
HETATM   10  C   UNL     1     -11.464   9.547  70.457  1.00  0.00    -0.276 C  
HETATM   11  C   UNL     1     -10.223   9.323  71.330  1.00  0.00    -0.383 C  
HETATM   12  C   UNL     1     -10.265   7.918  71.919  1.00  0.00    -0.258 C  
HETATM   13  C   UNL     1      -9.285   6.981  71.769  1.00  0.00    -0.145 C  
HETATM   14  C   UNL     1     -11.569   7.739  72.697  1.00  0.00    -0.398 C  
HETATM   15  C   UNL     1      -9.428   5.662  72.436  1.00  0.00    -0.157 A  
HETATM   16  C   UNL     1     -12.809   8.134  71.857  1.00  0.00    -0.335 C  
HETATM   17  C   UNL     1     -10.356   4.720  71.972  1.00  0.00    -0.247 A  
HETATM   18  C   UNL     1     -10.473   3.477  72.600  1.00  0.00    -0.184 A  
HETATM   19  C   UNL     1      -9.649   3.168  73.679  1.00  0.00    -0.098 A  
HETATM   20  C   UNL     1      -8.703   4.087  74.134  1.00  0.00    -0.096 A  
HETATM   21 CL   UNL     1      -9.785   1.635  74.448  1.00  0.00    -0.094 Cl 
HETATM   22  C   UNL     1      -8.581   5.339  73.512  1.00  0.00    -0.112 A  
HETATM   23  C   UNL     1      -7.526   6.323  73.951  1.00  0.00    -0.086 C  
HETATM   24  C   UNL     1      -6.420   6.467  72.902  1.00  0.00    -0.067 C  
HETATM   25  C   UNL     1      -6.747   7.093  71.563  1.00  0.00    -0.051 A  
HETATM   26  C   UNL     1      -8.026   7.294  71.025  1.00  0.00    -0.098 A  
HETATM   27  N   UNL     1      -8.219   7.781  69.768  1.00  0.00    -0.127 NA 
HETATM   28  C   UNL     1      -7.139   8.151  69.051  1.00  0.00    -0.062 A  
HETATM   29  C   UNL     1      -5.845   8.020  69.503  1.00  0.00    -0.027 A  
HETATM   30  C   UNL     1      -5.650   7.467  70.762  1.00  0.00    -0.027 A  
ENDBRANCH   8   9
ENDBRANCH   4   8
TORSDOF 2
ENDMDL
MODEL       50
REMARK 921   NORMALIZED FREE ENERGY PREDICTED BY IDOCK:   -5.58 KCAL/MOL
REMARK 922        TOTAL FREE ENERGY PREDICTED BY IDOCK:   -6.63 KCAL/MOL
REMARK 923 INTER-LIGAND FREE ENERGY PREDICTED BY IDOCK:   -6.29 KCAL/MOL
REMARK 924 INTRA-LIGAND FREE ENERGY PREDICTED BY IDOCK:   -0.34 KCAL/MOL
REMARK 927      BINDING AFFINITY PREDICTED BY RF-SCORE:    0.00 PKD
ROOT
HETATM    1  C   UNL     1     -12.120  15.292  69.736  1.00  0.00    -0.357 C  
HETATM    2  C   UNL     1     -12.462  14.036  70.468  1.00  0.00    -0.429 A  
HETATM    3  C   UNL     1     -12.027  12.778  70.034  1.00  0.00    -0.371 A  
HETATM    4  C   UNL     1     -12.347  11.629  70.764  1.00  0.00    -0.454 A  
HETATM    5  C   UNL     1     -13.131  11.810  71.904  1.00  0.00    -0.376 A  
HETATM    6  N   UNL     1     -13.591  13.001  72.345  1.00  0.00    -0.584 NA 
HETATM    7  C   UNL     1     -13.250  14.084  71.615  1.00  0.00    -0.368 A  
ENDROOT
BRANCH   4   8
HETATM    8  C   UNL     1     -11.999  10.221  70.335  1.00  0.00    -0.303 C  
BRANCH   8   9
HETATM    9  N   UNL     1     -10.648   9.993  69.781  1.00  0.00    -0.248 NA 
HETATM   10  C   UNL     1      -9.610   9.777  70.812  1.00  0.00     0.060 C  
HETATM   11  C   UNL     1      -9.797   8.486  71.619  1.00  0.00    -0.317 C  
HETATM   12  C   UNL     1      -9.703   7.287  70.684  1.00  0.00    -0.175 C  
HETATM   13  C   UNL     1      -8.829   6.249  70.833  1.00  0.00    -0.136 C  
HETATM   14  C   UNL     1     -10.739   7.436  69.570  1.00  0.00    -0.233 C  
HETATM   15  C   UNL     1      -8.872   5.115  69.875  1.00  0.00    -0.127 A  
HETATM   16  C   UNL     1     -10.653   8.817  68.874  1.00  0.00    -0.155 C  
HETATM   17  C   UNL     1      -8.417   5.269  68.559  1.00  0.00    -0.092 A  
HETATM   18  C   UNL     1      -8.452   4.191  67.670  1.00  0.00    -0.103 A  
HETATM   19  C   UNL     1      -8.923   2.954  68.103  1.00  0.00    -0.151 A  
HETATM   20  C   UNL     1      -9.353   2.781  69.419  1.00  0.00    -0.189 A  
HETATM   21 CL   UNL     1      -8.956   1.623  67.014  1.00  0.00    -0.139 Cl 
HETATM   22  C   UNL     1      -9.326   3.858  70.316  1.00  0.00    -0.238 A  
HETATM   23  C   UNL     1      -9.734   3.678  71.757  1.00  0.00    -0.233 C  
HETATM   24  C   UNL     1      -8.528   3.761  72.698  1.00  0.00    -0.094 C  
HETATM   25  C   UNL     1      -7.798   5.079  72.849  1.00  0.00    -0.098 A  
HETATM   26  C   UNL     1      -7.894   6.190  71.998  1.00  0.00    -0.105 A  
HETATM   27  N   UNL     1      -7.126   7.302  72.164  1.00  0.00    -0.066 NA 
HETATM   28  C   UNL     1      -6.301   7.359  73.229  1.00  0.00    -0.064 A  
HETATM   29  C   UNL     1      -6.159   6.333  74.137  1.00  0.00    -0.065 A  
HETATM   30  C   UNL     1      -6.900   5.177  73.929  1.00  0.00    -0.076 A  
ENDBRANCH   8   9
ENDBRANCH   4   8
TORSDOF 2
ENDMDL
MODEL       51
REMARK 921   NORMALIZED FREE ENERGY PREDICTED BY IDOCK:   -5.54 KCAL/MOL
REMARK 922        TOTAL FREE ENERGY PREDICTED BY IDOCK:   -6.59 KCAL/MOL
REMARK 923 INTER-LIGAND FREE ENERGY PREDICTED BY IDOCK:   -6.18 KCAL/MOL
REMARK 924 INTRA-LIGAND FREE ENERGY PREDICTED BY IDOCK:   -0.41 KCAL/MOL
REMARK 927      BINDING AFFINITY PREDICTED BY RF-SCORE:    0.00 PKD
ROOT
HETATM    1  C   UNL     1     -11.949  15.392  71.019  1.00  0.00    -0.409 C  
HETATM    2  C   UNL     1     -11.809  14.597  69.762  1.00  0.00    -0.366 A  
HETATM    3  C   UNL     1     -11.776  13.197  69.765  1.00  0.00    -0.350 A  
HETATM    4  C   UNL     1     -11.671  12.490  68.564  1.00  0.00    -0.369 A  
HETATM    5  C   UNL     1     -11.574  13.249  67.397  1.00  0.00    -0.353 A  
HETATM    6  N   UNL     1     -11.577  14.599  67.351  1.00  0.00    -0.378 NA 
HETATM    7  C   UNL     1     -11.690  15.241  68.533  1.00  0.00    -0.332 A  
ENDROOT
BRANCH   4   8
HETATM    8  C   UNL     1     -11.542  10.986  68.468  1.00  0.00    -0.310 C  
BRANCH   8   9
HETATM    9  N   UNL     1     -10.255  10.442  67.989  1.00  0.00    -0.162 NA 
HETATM   10  C   UNL     1      -9.177  10.486  69.001  1.00  0.00    -0.185 C  
HETATM   11  C   UNL     1      -9.425   9.576  70.211  1.00  0.00    -0.307 C  
HETATM   12  C   UNL     1      -9.497   8.127  69.749  1.00  0.00    -0.159 C  
HETATM   13  C   UNL     1      -8.709   7.117  70.223  1.00  0.00    -0.144 C  
HETATM   14  C   UNL     1     -10.584   7.992  68.682  1.00  0.00    -0.143 C  
HETATM   15  C   UNL     1      -8.913   5.735  69.721  1.00  0.00    -0.137 A  
HETATM   16  C   UNL     1     -10.420   9.034  67.547  1.00  0.00    -0.272 C  
HETATM   17  C   UNL     1      -8.529   5.381  68.421  1.00  0.00    -0.096 A  
HETATM   18  C   UNL     1      -8.715   4.073  67.964  1.00  0.00    -0.119 A  
HETATM   19  C   UNL     1      -9.264   3.115  68.812  1.00  0.00    -0.164 A  
HETATM   20  C   UNL     1      -9.625   3.450  70.118  1.00  0.00    -0.211 A  
HETATM   21 CL   UNL     1      -9.484   1.502  68.255  1.00  0.00    -0.235 Cl 
HETATM   22  C   UNL     1      -9.446   4.761  70.584  1.00  0.00    -0.238 A  
HETATM   23  C   UNL     1      -9.777   5.129  72.009  1.00  0.00    -0.205 C  
HETATM   24  C   UNL     1      -8.511   5.403  72.827  1.00  0.00    -0.116 C  
HETATM   25  C   UNL     1      -7.660   6.610  72.490  1.00  0.00    -0.097 A  
HETATM   26  C   UNL     1      -7.712   7.364  71.309  1.00  0.00    -0.087 A  
HETATM   27  N   UNL     1      -6.840   8.379  71.056  1.00  0.00    -0.046 NA 
HETATM   28  C   UNL     1      -5.947   8.712  72.011  1.00  0.00    -0.065 A  
HETATM   29  C   UNL     1      -5.839   8.051  73.214  1.00  0.00    -0.059 A  
HETATM   30  C   UNL     1      -6.691   6.977  73.443  1.00  0.00    -0.066 A  
ENDBRANCH   8   9
ENDBRANCH   4   8
TORSDOF 2
ENDMDL
MODEL       52
REMARK 921   NORMALIZED FREE ENERGY PREDICTED BY IDOCK:   -5.50 KCAL/MOL
REMARK 922        TOTAL FREE ENERGY PREDICTED BY IDOCK:   -6.54 KCAL/MOL
REMARK 923 INTER-LIGAND FREE ENERGY PREDICTED BY IDOCK:   -6.69 KCAL/MOL
REMARK 924 INTRA-LIGAND FREE ENERGY PREDICTED BY IDOCK:    0.14 KCAL/MOL
REMARK 927      BINDING AFFINITY PREDICTED BY RF-SCORE:    0.00 PKD
ROOT
HETATM    1  C   UNL     1     -12.614  12.124  63.370  1.00  0.00    -0.584 C  
HETATM    2  C   UNL     1     -11.883  13.002  64.332  1.00  0.00    -0.443 A  
HETATM    3  C   UNL     1     -11.197  12.487  65.439  1.00  0.00    -0.343 A  
HETATM    4  C   UNL     1     -10.503  13.341  66.301  1.00  0.00    -0.289 A  
HETATM    5  C   UNL     1     -10.561  14.705  66.011  1.00  0.00    -0.309 A  
HETATM    6  N   UNL     1     -11.229  15.246  64.969  1.00  0.00    -0.401 NA 
HETATM    7  C   UNL     1     -11.877  14.383  64.157  1.00  0.00    -0.291 A  
ENDROOT
BRANCH   4   8
HETATM    8  C   UNL     1      -9.806  12.894  67.567  1.00  0.00    -0.208 C  
BRANCH   8   9
HETATM    9  N   UNL     1      -8.587  12.072  67.418  1.00  0.00    -0.163 NA 
HETATM   10  C   UNL     1      -8.117  11.471  68.685  1.00  0.00    -0.132 C  
HETATM   11  C   UNL     1      -9.078  10.430  69.272  1.00  0.00    -0.188 C  
HETATM   12  C   UNL     1      -9.227   9.270  68.297  1.00  0.00    -0.134 C  
HETATM   13  C   UNL     1      -8.977   7.962  68.597  1.00  0.00    -0.134 C  
HETATM   14  C   UNL     1      -9.699   9.807  66.945  1.00  0.00    -0.243 C  
HETATM   15  C   UNL     1      -9.206   6.919  67.566  1.00  0.00    -0.124 A  
HETATM   16  C   UNL     1      -8.817  10.978  66.442  1.00  0.00    -0.177 C  
HETATM   17  C   UNL     1      -8.348   6.798  66.465  1.00  0.00    -0.121 A  
HETATM   18  C   UNL     1      -8.568   5.805  65.506  1.00  0.00    -0.151 A  
HETATM   19  C   UNL     1      -9.632   4.920  65.659  1.00  0.00    -0.155 A  
HETATM   20  C   UNL     1     -10.478   5.014  66.765  1.00  0.00    -0.273 A  
HETATM   21 CL   UNL     1      -9.898   3.690  64.486  1.00  0.00    -0.175 Cl 
HETATM   22  C   UNL     1     -10.267   6.010  67.730  1.00  0.00    -0.219 A  
HETATM   23  C   UNL     1     -11.134   6.093  68.961  1.00  0.00    -0.437 C  
HETATM   24  C   UNL     1     -10.365   5.683  70.220  1.00  0.00    -0.336 C  
HETATM   25  C   UNL     1      -9.225   6.553  70.707  1.00  0.00    -0.156 A  
HETATM   26  C   UNL     1      -8.567   7.553  69.976  1.00  0.00    -0.139 A  
HETATM   27  N   UNL     1      -7.488   8.223  70.467  1.00  0.00    -0.065 NA 
HETATM   28  C   UNL     1      -7.091   7.961  71.729  1.00  0.00    -0.070 A  
HETATM   29  C   UNL     1      -7.691   7.020  72.535  1.00  0.00    -0.093 A  
HETATM   30  C   UNL     1      -8.753   6.297  72.008  1.00  0.00    -0.134 A  
ENDBRANCH   8   9
ENDBRANCH   4   8
TORSDOF 2
ENDMDL
MODEL       53
REMARK 921   NORMALIZED FREE ENERGY PREDICTED BY IDOCK:   -5.47 KCAL/MOL
REMARK 922        TOTAL FREE ENERGY PREDICTED BY IDOCK:   -6.51 KCAL/MOL
REMARK 923 INTER-LIGAND FREE ENERGY PREDICTED BY IDOCK:   -6.20 KCAL/MOL
REMARK 924 INTRA-LIGAND FREE ENERGY PREDICTED BY IDOCK:   -0.31 KCAL/MOL
REMARK 927      BINDING AFFINITY PREDICTED BY RF-SCORE:    0.00 PKD
ROOT
HETATM    1  C   UNL     1     -11.759   3.834  73.218  1.00  0.00     0.054 C  
HETATM    2  C   UNL     1     -10.658   4.626  72.592  1.00  0.00    -0.259 A  
HETATM    3  C   UNL     1     -10.910   5.711  71.743  1.00  0.00    -0.301 A  
HETATM    4  C   UNL     1      -9.851   6.443  71.199  1.00  0.00    -0.198 A  
HETATM    5  C   UNL     1      -8.562   6.016  71.523  1.00  0.00    -0.132 A  
HETATM    6  N   UNL     1      -8.275   4.961  72.317  1.00  0.00    -0.117 NA 
HETATM    7  C   UNL     1      -9.328   4.289  72.828  1.00  0.00    -0.120 A  
ENDROOT
BRANCH   4   8
HETATM    8  C   UNL     1     -10.016   7.575  70.208  1.00  0.00    -0.192 C  
BRANCH   8   9
HETATM    9  N   UNL     1      -8.792   8.110  69.576  1.00  0.00    -0.142 NA 
HETATM   10  C   UNL     1      -8.834   8.102  68.098  1.00  0.00    -0.132 C  
HETATM   11  C   UNL     1      -9.885   9.047  67.502  1.00  0.00    -0.230 C  
HETATM   12  C   UNL     1      -9.558  10.481  67.897  1.00  0.00    -0.164 C  
HETATM   13  C   UNL     1      -9.371  11.508  67.017  1.00  0.00    -0.185 C  
HETATM   14  C   UNL     1      -9.481  10.578  69.421  1.00  0.00    -0.158 C  
HETATM   15  C   UNL     1      -9.103  12.874  67.535  1.00  0.00    -0.191 A  
HETATM   16  C   UNL     1      -8.544   9.502  70.027  1.00  0.00    -0.215 C  
HETATM   17  C   UNL     1      -7.870  13.190  68.120  1.00  0.00    -0.145 A  
HETATM   18  C   UNL     1      -7.625  14.483  68.594  1.00  0.00    -0.131 A  
HETATM   19  C   UNL     1      -8.606  15.463  68.464  1.00  0.00    -0.172 A  
HETATM   20  C   UNL     1      -9.828  15.167  67.859  1.00  0.00    -0.216 A  
HETATM   21 CL   UNL     1      -8.303  17.057  69.037  1.00  0.00    -0.185 Cl 
HETATM   22  C   UNL     1     -10.084  13.872  67.385  1.00  0.00    -0.244 A  
HETATM   23  C   UNL     1     -11.375  13.546  66.678  1.00  0.00    -0.344 C  
HETATM   24  C   UNL     1     -11.151  13.302  65.183  1.00  0.00    -0.315 C  
HETATM   25  C   UNL     1     -10.358  12.090  64.741  1.00  0.00    -0.318 A  
HETATM   26  C   UNL     1      -9.525  11.300  65.545  1.00  0.00    -0.229 A  
HETATM   27  N   UNL     1      -8.776  10.282  65.037  1.00  0.00    -0.172 NA 
HETATM   28  C   UNL     1      -8.904   9.983  63.728  1.00  0.00    -0.231 A  
HETATM   29  C   UNL     1      -9.718  10.681  62.864  1.00  0.00    -0.329 A  
HETATM   30  C   UNL     1     -10.434  11.757  63.375  1.00  0.00    -0.485 A  
ENDBRANCH   8   9
ENDBRANCH   4   8
TORSDOF 2
ENDMDL
MODEL       54
REMARK 921   NORMALIZED FREE ENERGY PREDICTED BY IDOCK:   -5.43 KCAL/MOL
REMARK 922        TOTAL FREE ENERGY PREDICTED BY IDOCK:   -6.47 KCAL/MOL
REMARK 923 INTER-LIGAND FREE ENERGY PREDICTED BY IDOCK:   -6.07 KCAL/MOL
REMARK 924 INTRA-LIGAND FREE ENERGY PREDICTED BY IDOCK:   -0.40 KCAL/MOL
REMARK 927      BINDING AFFINITY PREDICTED BY RF-SCORE:    0.00 PKD
ROOT
HETATM    1  C   UNL     1      -5.247  10.614  62.345  1.00  0.00    -0.141 C  
HETATM    2  C   UNL     1      -6.326   9.756  62.921  1.00  0.00    -0.110 A  
HETATM    3  C   UNL     1      -7.296  10.264  63.794  1.00  0.00    -0.069 A  
HETATM    4  C   UNL     1      -8.304   9.432  64.290  1.00  0.00    -0.176 A  
HETATM    5  C   UNL     1      -8.265   8.095  63.893  1.00  0.00    -0.064 A  
HETATM    6  N   UNL     1      -7.335   7.559  63.073  1.00  0.00    -0.089 NA 
HETATM    7  C   UNL     1      -6.385   8.400  62.610  1.00  0.00    -0.088 A  
ENDROOT
BRANCH   4   8
HETATM    8  C   UNL     1      -9.345   9.862  65.301  1.00  0.00    -0.251 C  
BRANCH   8   9
HETATM    9  N   UNL     1      -8.861  10.478  66.554  1.00  0.00    -0.142 NA 
HETATM   10  C   UNL     1      -9.945  10.976  67.428  1.00  0.00    -0.182 C  
HETATM   11  C   UNL     1     -10.842   9.869  67.996  1.00  0.00    -0.294 C  
HETATM   12  C   UNL     1     -10.007   8.936  68.865  1.00  0.00    -0.199 C  
HETATM   13  C   UNL     1     -10.269   8.648  70.173  1.00  0.00    -0.204 C  
HETATM   14  C   UNL     1      -8.846   8.384  68.038  1.00  0.00    -0.142 C  
HETATM   15  C   UNL     1      -9.402   7.683  70.896  1.00  0.00    -0.158 A  
HETATM   16  C   UNL     1      -8.049   9.507  67.328  1.00  0.00    -0.110 C  
HETATM   17  C   UNL     1      -8.096   8.031  71.266  1.00  0.00    -0.110 A  
HETATM   18  C   UNL     1      -7.293   7.118  71.957  1.00  0.00    -0.081 A  
HETATM   19  C   UNL     1      -7.802   5.867  72.294  1.00  0.00    -0.103 A  
HETATM   20  C   UNL     1      -9.110   5.520  71.955  1.00  0.00    -0.150 A  
HETATM   21 CL   UNL     1      -6.819   4.747  73.154  1.00  0.00    -0.066 Cl 
HETATM   22  C   UNL     1      -9.921   6.427  71.258  1.00  0.00    -0.204 A  
HETATM   23  C   UNL     1     -11.355   6.093  70.932  1.00  0.00    -0.355 C  
HETATM   24  C   UNL     1     -12.332   6.927  71.767  1.00  0.00    -0.401 C  
HETATM   25  C   UNL     1     -12.408   8.422  71.541  1.00  0.00    -0.343 A  
HETATM   26  C   UNL     1     -11.470   9.213  70.862  1.00  0.00    -0.296 A  
HETATM   27  N   UNL     1     -11.578  10.568  70.789  1.00  0.00    -0.347 NA 
HETATM   28  C   UNL     1     -12.666  11.155  71.328  1.00  0.00    -0.426 A  
HETATM   29  C   UNL     1     -13.655  10.462  71.989  1.00  0.00    -0.257 A  
HETATM   30  C   UNL     1     -13.510   9.086  72.112  1.00  0.00    -0.514 A  
ENDBRANCH   8   9
ENDBRANCH   4   8
TORSDOF 2
ENDMDL
MODEL       55
REMARK 921   NORMALIZED FREE ENERGY PREDICTED BY IDOCK:   -5.36 KCAL/MOL
REMARK 922        TOTAL FREE ENERGY PREDICTED BY IDOCK:   -6.38 KCAL/MOL
REMARK 923 INTER-LIGAND FREE ENERGY PREDICTED BY IDOCK:   -5.92 KCAL/MOL
REMARK 924 INTRA-LIGAND FREE ENERGY PREDICTED BY IDOCK:   -0.46 KCAL/MOL
REMARK 927      BINDING AFFINITY PREDICTED BY RF-SCORE:    0.00 PKD
ROOT
HETATM    1  C   UNL     1     -13.441  12.773  72.233  1.00  0.00    -0.591 C  
HETATM    2  C   UNL     1     -12.663  13.228  71.042  1.00  0.00    -0.374 A  
HETATM    3  C   UNL     1     -12.404  12.385  69.954  1.00  0.00    -0.117 A  
HETATM    4  C   UNL     1     -11.694  12.858  68.846  1.00  0.00    -0.370 A  
HETATM    5  C   UNL     1     -11.247  14.178  68.906  1.00  0.00    -0.267 A  
HETATM    6  N   UNL     1     -11.453  15.018  69.945  1.00  0.00    -0.271 NA 
HETATM    7  C   UNL     1     -12.151  14.522  70.989  1.00  0.00    -0.344 A  
ENDROOT
BRANCH   4   8
HETATM    8  C   UNL     1     -11.291  12.005  67.663  1.00  0.00    -0.307 C  
BRANCH   8   9
HETATM    9  N   UNL     1      -9.858  11.675  67.519  1.00  0.00    -0.186 NA 
HETATM   10  C   UNL     1      -9.299  10.935  68.670  1.00  0.00    -0.187 C  
HETATM   11  C   UNL     1      -9.887   9.529  68.849  1.00  0.00    -0.179 C  
HETATM   12  C   UNL     1      -9.565   8.686  67.622  1.00  0.00    -0.190 C  
HETATM   13  C   UNL     1      -8.906   7.491  67.649  1.00  0.00    -0.128 C  
HETATM   14  C   UNL     1     -10.098   9.390  66.374  1.00  0.00    -0.332 C  
HETATM   15  C   UNL     1      -8.696   6.744  66.383  1.00  0.00    -0.142 A  
HETATM   16  C   UNL     1      -9.635  10.866  66.294  1.00  0.00    -0.200 C  
HETATM   17  C   UNL     1      -7.775   7.195  65.429  1.00  0.00    -0.111 A  
HETATM   18  C   UNL     1      -7.577   6.476  64.246  1.00  0.00    -0.100 A  
HETATM   19  C   UNL     1      -8.285   5.297  64.027  1.00  0.00    -0.131 A  
HETATM   20  C   UNL     1      -9.185   4.824  64.982  1.00  0.00    -0.136 A  
HETATM   21 CL   UNL     1      -8.036   4.406  62.577  1.00  0.00    -0.065 Cl 
HETATM   22  C   UNL     1      -9.393   5.540  66.170  1.00  0.00    -0.169 A  
HETATM   23  C   UNL     1     -10.318   5.017  67.240  1.00  0.00    -0.193 C  
HETATM   24  C   UNL     1      -9.543   4.546  68.474  1.00  0.00    -0.212 C  
HETATM   25  C   UNL     1      -8.803   5.565  69.316  1.00  0.00    -0.112 A  
HETATM   26  C   UNL     1      -8.477   6.877  68.943  1.00  0.00    -0.125 A  
HETATM   27  N   UNL     1      -7.726   7.692  69.735  1.00  0.00    -0.096 NA 
HETATM   28  C   UNL     1      -7.351   7.240  70.949  1.00  0.00    -0.074 A  
HETATM   29  C   UNL     1      -7.648   5.979  71.416  1.00  0.00    -0.099 A  
HETATM   30  C   UNL     1      -8.363   5.130  70.580  1.00  0.00    -0.111 A  
ENDBRANCH   8   9
ENDBRANCH   4   8
TORSDOF 2
ENDMDL
MODEL       56
REMARK 921   NORMALIZED FREE ENERGY PREDICTED BY IDOCK:   -5.35 KCAL/MOL
REMARK 922        TOTAL FREE ENERGY PREDICTED BY IDOCK:   -6.37 KCAL/MOL
REMARK 923 INTER-LIGAND FREE ENERGY PREDICTED BY IDOCK:   -6.03 KCAL/MOL
REMARK 924 INTRA-LIGAND FREE ENERGY PREDICTED BY IDOCK:   -0.35 KCAL/MOL
REMARK 927      BINDING AFFINITY PREDICTED BY RF-SCORE:    0.00 PKD
ROOT
HETATM    1  C   UNL     1     -12.886  15.532  71.418  1.00  0.00    -0.531 C  
HETATM    2  C   UNL     1     -12.855  14.044  71.306  1.00  0.00    -0.430 A  
HETATM    3  C   UNL     1     -12.224  13.389  70.241  1.00  0.00    -0.405 A  
HETATM    4  C   UNL     1     -12.195  11.992  70.188  1.00  0.00    -0.309 A  
HETATM    5  C   UNL     1     -12.844  11.312  71.220  1.00  0.00    -0.389 A  
HETATM    6  N   UNL     1     -13.484  11.904  72.252  1.00  0.00    -0.304 NA 
HETATM    7  C   UNL     1     -13.479  13.254  72.268  1.00  0.00    -0.582 A  
ENDROOT
BRANCH   4   8
HETATM    8  C   UNL     1     -11.615  11.194  69.041  1.00  0.00    -0.324 C  
BRANCH   8   9
HETATM    9  N   UNL     1     -10.156  10.960  69.044  1.00  0.00    -0.205 NA 
HETATM   10  C   UNL     1      -9.689  10.126  70.172  1.00  0.00    -0.016 C  
HETATM   11  C   UNL     1     -10.198   8.679  70.125  1.00  0.00    -0.204 C  
HETATM   12  C   UNL     1      -9.675   7.999  68.866  1.00  0.00    -0.159 C  
HETATM   13  C   UNL     1      -8.945   6.846  68.849  1.00  0.00    -0.131 C  
HETATM   14  C   UNL     1     -10.103   8.810  67.642  1.00  0.00    -0.273 C  
HETATM   15  C   UNL     1      -8.536   6.260  67.548  1.00  0.00    -0.108 A  
HETATM   16  C   UNL     1      -9.734  10.309  67.778  1.00  0.00    -0.156 C  
HETATM   17  C   UNL     1      -7.540   6.865  66.770  1.00  0.00    -0.090 A  
HETATM   18  C   UNL     1      -7.155   6.298  65.551  1.00  0.00    -0.068 A  
HETATM   19  C   UNL     1      -7.751   5.115  65.122  1.00  0.00    -0.084 A  
HETATM   20  C   UNL     1      -8.724   4.488  65.901  1.00  0.00    -0.119 A  
HETATM   21 CL   UNL     1      -7.271   4.408  63.628  1.00  0.00    -0.052 Cl 
HETATM   22  C   UNL     1      -9.120   5.052  67.122  1.00  0.00    -0.115 A  
HETATM   23  C   UNL     1     -10.128   4.361  68.005  1.00  0.00     0.002 C  
HETATM   24  C   UNL     1      -9.475   3.797  69.270  1.00  0.00    -0.252 C  
HETATM   25  C   UNL     1      -8.911   4.751  70.302  1.00  0.00    -0.147 A  
HETATM   26  C   UNL     1      -8.632   6.113  70.114  1.00  0.00    -0.133 A  
HETATM   27  N   UNL     1      -8.038   6.873  71.076  1.00  0.00    -0.106 NA 
HETATM   28  C   UNL     1      -7.780   6.307  72.272  1.00  0.00    -0.103 A  
HETATM   29  C   UNL     1      -8.045   4.987  72.562  1.00  0.00    -0.109 A  
HETATM   30  C   UNL     1      -8.596   4.201  71.558  1.00  0.00    -0.126 A  
ENDBRANCH   8   9
ENDBRANCH   4   8
TORSDOF 2
ENDMDL
MODEL       57
REMARK 921   NORMALIZED FREE ENERGY PREDICTED BY IDOCK:   -5.26 KCAL/MOL
REMARK 922        TOTAL FREE ENERGY PREDICTED BY IDOCK:   -6.27 KCAL/MOL
REMARK 923 INTER-LIGAND FREE ENERGY PREDICTED BY IDOCK:   -5.96 KCAL/MOL
REMARK 924 INTRA-LIGAND FREE ENERGY PREDICTED BY IDOCK:   -0.31 KCAL/MOL
REMARK 927      BINDING AFFINITY PREDICTED BY RF-SCORE:    0.00 PKD
ROOT
HETATM    1  C   UNL     1      -8.103   3.312  66.787  1.00  0.00    -0.080 C  
HETATM    2  C   UNL     1      -7.576   4.319  67.755  1.00  0.00    -0.069 A  
HETATM    3  C   UNL     1      -8.003   5.652  67.752  1.00  0.00    -0.098 A  
HETATM    4  C   UNL     1      -7.504   6.557  68.693  1.00  0.00    -0.088 A  
HETATM    5  C   UNL     1      -6.557   6.066  69.593  1.00  0.00    -0.044 A  
HETATM    6  N   UNL     1      -6.100   4.795  69.617  1.00  0.00    -0.018 NA 
HETATM    7  C   UNL     1      -6.616   3.953  68.696  1.00  0.00    -0.045 A  
ENDROOT
BRANCH   4   8
HETATM    8  C   UNL     1      -7.836   8.033  68.718  1.00  0.00    -0.114 C  
BRANCH   8   9
HETATM    9  N   UNL     1      -7.255   8.880  67.656  1.00  0.00    -0.079 NA 
HETATM   10  C   UNL     1      -8.160   9.097  66.507  1.00  0.00    -0.107 C  
HETATM   11  C   UNL     1      -9.414   9.911  66.850  1.00  0.00    -0.202 C  
HETATM   12  C   UNL     1      -9.003  11.301  67.318  1.00  0.00    -0.149 C  
HETATM   13  C   UNL     1      -9.432  12.470  66.759  1.00  0.00    -0.231 C  
HETATM   14  C   UNL     1      -8.048  11.169  68.505  1.00  0.00    -0.146 C  
HETATM   15  C   UNL     1      -8.992  13.763  67.343  1.00  0.00    -0.224 A  
HETATM   16  C   UNL     1      -6.872  10.206  68.203  1.00  0.00    -0.066 C  
HETATM   17  C   UNL     1      -7.672  14.208  67.187  1.00  0.00    -0.021 A  
HETATM   18  C   UNL     1      -7.273  15.432  67.730  1.00  0.00    -0.182 A  
HETATM   19  C   UNL     1      -8.197  16.220  68.412  1.00  0.00    -0.185 A  
HETATM   20  C   UNL     1      -9.521  15.800  68.550  1.00  0.00    -0.201 A  
HETATM   21 CL   UNL     1      -7.710  17.732  69.072  1.00  0.00    -0.187 Cl 
HETATM   22  C   UNL     1      -9.929  14.571  68.011  1.00  0.00    -0.222 A  
HETATM   23  C   UNL     1     -11.367  14.125  68.100  1.00  0.00    -0.316 C  
HETATM   24  C   UNL     1     -12.054  14.166  66.733  1.00  0.00    -0.474 C  
HETATM   25  C   UNL     1     -11.604  13.208  65.649  1.00  0.00    -0.371 A  
HETATM   26  C   UNL     1     -10.412  12.470  65.630  1.00  0.00    -0.273 A  
HETATM   27  N   UNL     1     -10.048  11.703  64.566  1.00  0.00    -0.266 NA 
HETATM   28  C   UNL     1     -10.905  11.595  63.530  1.00  0.00    -0.425 A  
HETATM   29  C   UNL     1     -12.112  12.256  63.469  1.00  0.00    -0.649 A  
HETATM   30  C   UNL     1     -12.451  13.085  64.531  1.00  0.00    -0.427 A  
ENDBRANCH   8   9
ENDBRANCH   4   8
TORSDOF 2
ENDMDL
MODEL       58
REMARK 921   NORMALIZED FREE ENERGY PREDICTED BY IDOCK:   -5.21 KCAL/MOL
REMARK 922        TOTAL FREE ENERGY PREDICTED BY IDOCK:   -6.22 KCAL/MOL
REMARK 923 INTER-LIGAND FREE ENERGY PREDICTED BY IDOCK:   -5.87 KCAL/MOL
REMARK 924 INTRA-LIGAND FREE ENERGY PREDICTED BY IDOCK:   -0.35 KCAL/MOL
REMARK 927      BINDING AFFINITY PREDICTED BY RF-SCORE:    0.00 PKD
ROOT
HETATM    1  C   UNL     1     -10.775   2.511  63.155  1.00  0.00    -0.221 C  
HETATM    2  C   UNL     1      -9.572   3.164  63.749  1.00  0.00    -0.130 A  
HETATM    3  C   UNL     1      -9.555   4.521  64.097  1.00  0.00     0.001 A  
HETATM    4  C   UNL     1      -8.416   5.088  64.676  1.00  0.00    -0.145 A  
HETATM    5  C   UNL     1      -7.317   4.246  64.852  1.00  0.00    -0.072 A  
HETATM    6  N   UNL     1      -7.282   2.939  64.509  1.00  0.00    -0.057 NA 
HETATM    7  C   UNL     1      -8.407   2.431  63.962  1.00  0.00    -0.082 A  
ENDROOT
BRANCH   4   8
HETATM    8  C   UNL     1      -8.268   6.557  65.007  1.00  0.00    -0.115 C  
BRANCH   8   9
HETATM    9  N   UNL     1      -7.693   6.903  66.323  1.00  0.00    -0.092 NA 
HETATM   10  C   UNL     1      -7.073   8.245  66.367  1.00  0.00    -0.071 C  
HETATM   11  C   UNL     1      -8.073   9.395  66.195  1.00  0.00    -0.111 C  
HETATM   12  C   UNL     1      -9.078   9.368  67.340  1.00  0.00    -0.141 C  
HETATM   13  C   UNL     1      -9.323  10.410  68.187  1.00  0.00    -0.149 C  
HETATM   14  C   UNL     1      -9.760   8.000  67.377  1.00  0.00    -0.216 C  
HETATM   15  C   UNL     1     -10.365  10.270  69.235  1.00  0.00    -0.250 A  
HETATM   16  C   UNL     1      -8.736   6.838  67.378  1.00  0.00    -0.119 C  
HETATM   17  C   UNL     1     -10.154   9.451  70.352  1.00  0.00    -0.310 A  
HETATM   18  C   UNL     1     -11.138   9.336  71.338  1.00  0.00    -0.437 A  
HETATM   19  C   UNL     1     -12.324  10.055  71.217  1.00  0.00    -0.398 A  
HETATM   20  C   UNL     1     -12.536  10.894  70.123  1.00  0.00    -0.356 A  
HETATM   21 CL   UNL     1     -13.532   9.923  72.435  1.00  0.00    -0.413 Cl 
HETATM   22  C   UNL     1     -11.555  11.013  69.127  1.00  0.00    -0.389 A  
HETATM   23  C   UNL     1     -11.740  11.957  67.965  1.00  0.00    -0.382 C  
HETATM   24  C   UNL     1     -10.798  13.160  68.064  1.00  0.00    -0.261 C  
HETATM   25  C   UNL     1      -9.306  12.946  67.925  1.00  0.00    -0.208 A  
HETATM   26  C   UNL     1      -8.626  11.722  68.016  1.00  0.00    -0.158 A  
HETATM   27  N   UNL     1      -7.268  11.639  67.970  1.00  0.00    -0.078 NA 
HETATM   28  C   UNL     1      -6.563  12.768  67.753  1.00  0.00    -0.134 A  
HETATM   29  C   UNL     1      -7.141  14.011  67.620  1.00  0.00    -0.193 A  
HETATM   30  C   UNL     1      -8.523  14.099  67.729  1.00  0.00    -0.178 A  
ENDBRANCH   8   9
ENDBRANCH   4   8
TORSDOF 2
ENDMDL
MODEL       59
REMARK 921   NORMALIZED FREE ENERGY PREDICTED BY IDOCK:   -5.19 KCAL/MOL
REMARK 922        TOTAL FREE ENERGY PREDICTED BY IDOCK:   -6.20 KCAL/MOL
REMARK 923 INTER-LIGAND FREE ENERGY PREDICTED BY IDOCK:   -7.22 KCAL/MOL
REMARK 924 INTRA-LIGAND FREE ENERGY PREDICTED BY IDOCK:    1.02 KCAL/MOL
REMARK 927      BINDING AFFINITY PREDICTED BY RF-SCORE:    0.00 PKD
ROOT
HETATM    1  C   UNL     1      -9.678  11.023  62.789  1.00  0.00    -0.303 C  
HETATM    2  C   UNL     1     -10.726  11.920  63.362  1.00  0.00    -0.476 A  
HETATM    3  C   UNL     1     -10.420  13.177  63.898  1.00  0.00    -0.125 A  
HETATM    4  C   UNL     1     -11.435  13.997  64.400  1.00  0.00    -0.357 A  
HETATM    5  C   UNL     1     -12.732  13.484  64.360  1.00  0.00    -0.062 A  
HETATM    6  N   UNL     1     -13.068  12.269  63.874  1.00  0.00    -0.761 NA 
HETATM    7  C   UNL     1     -12.058  11.515  63.391  1.00  0.00    -0.028 A  
ENDROOT
BRANCH   4   8
HETATM    8  C   UNL     1     -11.198  15.330  65.075  1.00  0.00    -0.403 C  
BRANCH   8   9
HETATM    9  N   UNL     1     -10.255  15.360  66.212  1.00  0.00    -0.275 NA 
HETATM   10  C   UNL     1     -10.885  15.731  67.497  1.00  0.00    -0.315 C  
HETATM   11  C   UNL     1     -11.899  14.700  68.011  1.00  0.00    -0.343 C  
HETATM   12  C   UNL     1     -11.192  13.376  68.265  1.00  0.00    -0.310 C  
HETATM   13  C   UNL     1     -11.191  12.709  69.456  1.00  0.00    -0.152 C  
HETATM   14  C   UNL     1     -10.496  12.923  66.982  1.00  0.00    -0.244 C  
HETATM   15  C   UNL     1     -10.500  11.399  69.560  1.00  0.00     0.046 A  
HETATM   16  C   UNL     1      -9.603  14.036  66.378  1.00  0.00    -0.283 C  
HETATM   17  C   UNL     1      -9.101  11.324  69.552  1.00  0.00     0.609 A  
HETATM   18  C   UNL     1      -8.461  10.086  69.662  1.00  0.00    -0.193 A  
HETATM   19  C   UNL     1      -9.219   8.926  69.799  1.00  0.00    -0.165 A  
HETATM   20  C   UNL     1     -10.612   8.991  69.835  1.00  0.00    -0.240 A  
HETATM   21 CL   UNL     1      -8.433   7.402  69.945  1.00  0.00    -0.137 Cl 
HETATM   22  C   UNL     1     -11.263  10.228  69.721  1.00  0.00    -0.339 A  
HETATM   23  C   UNL     1     -12.765  10.326  69.815  1.00  0.00     0.220 C  
HETATM   24  C   UNL     1     -13.205  10.996  71.120  1.00  0.00    -0.176 C  
HETATM   25  C   UNL     1     -12.885  12.459  71.345  1.00  0.00    -0.360 A  
HETATM   26  C   UNL     1     -11.955  13.230  70.632  1.00  0.00    -0.185 A  
HETATM   27  N   UNL     1     -11.667  14.517  70.968  1.00  0.00    -0.279 NA 
HETATM   28  C   UNL     1     -12.358  15.087  71.976  1.00  0.00    -0.347 A  
HETATM   29  C   UNL     1     -13.311  14.422  72.716  1.00  0.00    -0.606 A  
HETATM   30  C   UNL     1     -13.558  13.091  72.408  1.00  0.00    -0.628 A  
ENDBRANCH   8   9
ENDBRANCH   4   8
TORSDOF 2
ENDMDL
MODEL       60
REMARK 921   NORMALIZED FREE ENERGY PREDICTED BY IDOCK:   -5.19 KCAL/MOL
REMARK 922        TOTAL FREE ENERGY PREDICTED BY IDOCK:   -6.20 KCAL/MOL
REMARK 923 INTER-LIGAND FREE ENERGY PREDICTED BY IDOCK:   -6.12 KCAL/MOL
REMARK 924 INTRA-LIGAND FREE ENERGY PREDICTED BY IDOCK:   -0.07 KCAL/MOL
REMARK 927      BINDING AFFINITY PREDICTED BY RF-SCORE:    0.00 PKD
ROOT
HETATM    1  C   UNL     1     -13.809  14.473  72.080  1.00  0.00    -0.574 C  
HETATM    2  C   UNL     1     -12.757  14.561  71.024  1.00  0.00    -0.413 A  
HETATM    3  C   UNL     1     -12.239  13.424  70.391  1.00  0.00    -0.415 A  
HETATM    4  C   UNL     1     -11.274  13.552  69.388  1.00  0.00    -0.244 A  
HETATM    5  C   UNL     1     -10.850  14.847  69.088  1.00  0.00    -0.250 A  
HETATM    6  N   UNL     1     -11.305  15.968  69.690  1.00  0.00    -0.327 NA 
HETATM    7  C   UNL     1     -12.243  15.798  70.645  1.00  0.00    -0.384 A  
ENDROOT
BRANCH   4   8
HETATM    8  C   UNL     1     -10.593  12.386  68.706  1.00  0.00    -0.183 C  
BRANCH   8   9
HETATM    9  N   UNL     1     -11.390  11.159  68.497  1.00  0.00    -0.256 NA 
HETATM   10  C   UNL     1     -10.888  10.303  67.400  1.00  0.00    -0.277 C  
HETATM   11  C   UNL     1      -9.509   9.689  67.675  1.00  0.00    -0.155 C  
HETATM   12  C   UNL     1      -9.591   8.786  68.899  1.00  0.00    -0.158 C  
HETATM   13  C   UNL     1      -9.241   7.466  68.918  1.00  0.00    -0.142 C  
HETATM   14  C   UNL     1     -10.120   9.593  70.085  1.00  0.00    -0.311 C  
HETATM   15  C   UNL     1      -9.324   6.708  70.192  1.00  0.00    -0.159 A  
HETATM   16  C   UNL     1     -11.427  10.349  69.740  1.00  0.00    -0.280 C  
HETATM   17  C   UNL     1     -10.566   6.355  70.736  1.00  0.00    -0.288 A  
HETATM   18  C   UNL     1     -10.632   5.630  71.930  1.00  0.00    -0.287 A  
HETATM   19  C   UNL     1      -9.456   5.241  72.567  1.00  0.00    -0.145 A  
HETATM   20  C   UNL     1      -8.214   5.563  72.020  1.00  0.00    -0.115 A  
HETATM   21 CL   UNL     1      -9.535   4.340  74.031  1.00  0.00    -0.113 Cl 
HETATM   22  C   UNL     1      -8.138   6.294  70.825  1.00  0.00    -0.120 A  
HETATM   23  C   UNL     1      -6.807   6.603  70.188  1.00  0.00    -0.061 C  
HETATM   24  C   UNL     1      -6.599   5.801  68.901  1.00  0.00    -0.054 C  
HETATM   25  C   UNL     1      -7.478   6.086  67.701  1.00  0.00    -0.078 A  
HETATM   26  C   UNL     1      -8.685   6.799  67.701  1.00  0.00    -0.119 A  
HETATM   27  N   UNL     1      -9.456   6.925  66.585  1.00  0.00    -0.165 NA 
HETATM   28  C   UNL     1      -8.997   6.408  65.427  1.00  0.00     0.126 A  
HETATM   29  C   UNL     1      -7.811   5.718  65.320  1.00  0.00    -0.106 A  
HETATM   30  C   UNL     1      -7.057   5.539  66.474  1.00  0.00    -0.069 A  
ENDBRANCH   8   9
ENDBRANCH   4   8
TORSDOF 2
ENDMDL
MODEL       61
REMARK 921   NORMALIZED FREE ENERGY PREDICTED BY IDOCK:   -5.18 KCAL/MOL
REMARK 922        TOTAL FREE ENERGY PREDICTED BY IDOCK:   -6.18 KCAL/MOL
REMARK 923 INTER-LIGAND FREE ENERGY PREDICTED BY IDOCK:   -6.48 KCAL/MOL
REMARK 924 INTRA-LIGAND FREE ENERGY PREDICTED BY IDOCK:    0.30 KCAL/MOL
REMARK 927      BINDING AFFINITY PREDICTED BY RF-SCORE:    0.00 PKD
ROOT
HETATM    1  C   UNL     1      -9.765  20.040  66.141  1.00  0.00    -0.517 C  
HETATM    2  C   UNL     1      -8.407  19.818  66.722  1.00  0.00    -0.354 A  
HETATM    3  C   UNL     1      -7.726  18.603  66.583  1.00  0.00    -0.265 A  
HETATM    4  C   UNL     1      -6.445  18.445  67.120  1.00  0.00    -0.193 A  
HETATM    5  C   UNL     1      -5.916  19.537  67.810  1.00  0.00    -0.200 A  
HETATM    6  N   UNL     1      -6.548  20.718  67.989  1.00  0.00    -0.309 NA 
HETATM    7  C   UNL     1      -7.779  20.829  67.445  1.00  0.00    -0.273 A  
ENDROOT
BRANCH   4   8
HETATM    8  C   UNL     1      -5.663  17.150  67.097  1.00  0.00    -0.156 C  
BRANCH   8   9
HETATM    9  N   UNL     1      -5.785  16.261  68.271  1.00  0.00    -0.103 NA 
HETATM   10  C   UNL     1      -6.961  16.551  69.118  1.00  0.00    -0.225 C  
HETATM   11  C   UNL     1      -8.304  16.279  68.429  1.00  0.00    -0.190 C  
HETATM   12  C   UNL     1      -8.404  14.800  68.079  1.00  0.00    -0.143 C  
HETATM   13  C   UNL     1      -9.409  13.969  68.483  1.00  0.00    -0.182 C  
HETATM   14  C   UNL     1      -7.209  14.407  67.210  1.00  0.00    -0.030 C  
HETATM   15  C   UNL     1      -9.413  12.554  68.034  1.00  0.00    -0.209 A  
HETATM   16  C   UNL     1      -5.862  14.842  67.840  1.00  0.00    -0.136 C  
HETATM   17  C   UNL     1      -8.489  11.636  68.548  1.00  0.00    -0.135 A  
HETATM   18  C   UNL     1      -8.510  10.303  68.126  1.00  0.00    -0.123 A  
HETATM   19  C   UNL     1      -9.467   9.886  67.205  1.00  0.00    -0.158 A  
HETATM   20  C   UNL     1     -10.410  10.785  66.705  1.00  0.00    -0.294 A  
HETATM   21 CL   UNL     1      -9.502   8.244  66.691  1.00  0.00    -0.247 Cl 
HETATM   22  C   UNL     1     -10.393  12.125  67.120  1.00  0.00    -0.233 A  
HETATM   23  C   UNL     1     -11.438  13.099  66.636  1.00  0.00    -0.389 C  
HETATM   24  C   UNL     1     -12.408  13.486  67.756  1.00  0.00    -0.007 C  
HETATM   25  C   UNL     1     -11.898  14.292  68.932  1.00  0.00    -0.372 A  
HETATM   26  C   UNL     1     -10.556  14.485  69.293  1.00  0.00    -0.212 A  
HETATM   27  N   UNL     1     -10.196  15.151  70.424  1.00  0.00    -0.033 NA 
HETATM   28  C   UNL     1     -11.166  15.706  71.179  1.00  0.00    -0.355 A  
HETATM   29  C   UNL     1     -12.508  15.597  70.892  1.00  0.00    -0.497 A  
HETATM   30  C   UNL     1     -12.874  14.865  69.769  1.00  0.00     0.057 A  
ENDBRANCH   8   9
ENDBRANCH   4   8
TORSDOF 2
ENDMDL
MODEL       62
REMARK 921   NORMALIZED FREE ENERGY PREDICTED BY IDOCK:   -5.16 KCAL/MOL
REMARK 922        TOTAL FREE ENERGY PREDICTED BY IDOCK:   -6.16 KCAL/MOL
REMARK 923 INTER-LIGAND FREE ENERGY PREDICTED BY IDOCK:   -5.92 KCAL/MOL
REMARK 924 INTRA-LIGAND FREE ENERGY PREDICTED BY IDOCK:   -0.24 KCAL/MOL
REMARK 927      BINDING AFFINITY PREDICTED BY RF-SCORE:    0.00 PKD
ROOT
HETATM    1  C   UNL     1     -12.346  12.342  63.546  1.00  0.00    -0.670 C  
HETATM    2  C   UNL     1     -12.049  12.765  64.947  1.00  0.00    -0.490 A  
HETATM    3  C   UNL     1     -11.289  11.976  65.819  1.00  0.00    -0.384 A  
HETATM    4  C   UNL     1     -11.012  12.421  67.115  1.00  0.00    -0.304 A  
HETATM    5  C   UNL     1     -11.550  13.655  67.482  1.00  0.00    -0.350 A  
HETATM    6  N   UNL     1     -12.307  14.436  66.682  1.00  0.00    -0.337 NA 
HETATM    7  C   UNL     1     -12.542  13.972  65.436  1.00  0.00    -0.505 A  
ENDROOT
BRANCH   4   8
HETATM    8  C   UNL     1     -10.275  11.608  68.157  1.00  0.00    -0.197 C  
BRANCH   8   9
HETATM    9  N   UNL     1     -10.999  10.477  68.774  1.00  0.00    -0.235 NA 
HETATM   10  C   UNL     1     -11.161   9.313  67.877  1.00  0.00     0.135 C  
HETATM   11  C   UNL     1      -9.840   8.625  67.510  1.00  0.00    -0.234 C  
HETATM   12  C   UNL     1      -9.183   8.082  68.773  1.00  0.00    -0.143 C  
HETATM   13  C   UNL     1      -8.826   6.779  68.968  1.00  0.00    -0.129 C  
HETATM   14  C   UNL     1      -8.991   9.226  69.770  1.00  0.00    -0.180 C  
HETATM   15  C   UNL     1      -8.149   6.389  70.230  1.00  0.00    -0.120 A  
HETATM   16  C   UNL     1     -10.299  10.023  70.002  1.00  0.00    -0.272 C  
HETATM   17  C   UNL     1      -8.856   6.343  71.439  1.00  0.00    -0.138 A  
HETATM   18  C   UNL     1      -8.210   5.963  72.619  1.00  0.00    -0.112 A  
HETATM   19  C   UNL     1      -6.864   5.608  72.586  1.00  0.00    -0.078 A  
HETATM   20  C   UNL     1      -6.156   5.623  71.384  1.00  0.00    -0.034 A  
HETATM   21 CL   UNL     1      -6.070   5.129  74.036  1.00  0.00    -0.050 Cl 
HETATM   22  C   UNL     1      -6.795   6.008  70.196  1.00  0.00    -0.057 A  
HETATM   23  C   UNL     1      -6.063   5.977  68.877  1.00  0.00    -0.031 C  
HETATM   24  C   UNL     1      -6.578   4.852  67.975  1.00  0.00    -0.049 C  
HETATM   25  C   UNL     1      -7.989   4.926  67.431  1.00  0.00    -0.095 A  
HETATM   26  C   UNL     1      -9.019   5.759  67.892  1.00  0.00    -0.111 A  
HETATM   27  N   UNL     1     -10.287   5.689  67.400  1.00  0.00    -0.209 NA 
HETATM   28  C   UNL     1     -10.534   4.839  66.382  1.00  0.00    -0.239 A  
HETATM   29  C   UNL     1      -9.582   4.004  65.841  1.00  0.00    -0.195 A  
HETATM   30  C   UNL     1      -8.305   4.035  66.387  1.00  0.00    -0.105 A  
ENDBRANCH   8   9
ENDBRANCH   4   8
TORSDOF 2
ENDMDL
MODEL       63
REMARK 921   NORMALIZED FREE ENERGY PREDICTED BY IDOCK:   -5.13 KCAL/MOL
REMARK 922        TOTAL FREE ENERGY PREDICTED BY IDOCK:   -6.13 KCAL/MOL
REMARK 923 INTER-LIGAND FREE ENERGY PREDICTED BY IDOCK:   -5.81 KCAL/MOL
REMARK 924 INTRA-LIGAND FREE ENERGY PREDICTED BY IDOCK:   -0.33 KCAL/MOL
REMARK 927      BINDING AFFINITY PREDICTED BY RF-SCORE:    0.00 PKD
ROOT
HETATM    1  C   UNL     1     -10.364  17.393  65.706  1.00  0.00    -0.226 C  
HETATM    2  C   UNL     1     -10.829  16.049  65.251  1.00  0.00    -0.376 A  
HETATM    3  C   UNL     1     -10.170  14.868  65.616  1.00  0.00    -0.382 A  
HETATM    4  C   UNL     1     -10.654  13.628  65.190  1.00  0.00    -0.371 A  
HETATM    5  C   UNL     1     -11.787  13.644  64.376  1.00  0.00    -0.424 A  
HETATM    6  N   UNL     1     -12.439  14.759  63.981  1.00  0.00    -0.809 NA 
HETATM    7  C   UNL     1     -11.943  15.934  64.423  1.00  0.00    -0.018 A  
ENDROOT
BRANCH   4   8
HETATM    8  C   UNL     1      -9.968  12.306  65.458  1.00  0.00    -0.244 C  
BRANCH   8   9
HETATM    9  N   UNL     1     -10.796  11.206  65.994  1.00  0.00    -0.212 NA 
HETATM   10  C   UNL     1     -10.400   9.869  65.501  1.00  0.00     0.010 C  
HETATM   11  C   UNL     1      -9.011   9.421  65.973  1.00  0.00    -0.205 C  
HETATM   12  C   UNL     1      -9.000   9.319  67.493  1.00  0.00    -0.127 C  
HETATM   13  C   UNL     1      -8.668   8.198  68.197  1.00  0.00    -0.136 C  
HETATM   14  C   UNL     1      -9.416  10.664  68.090  1.00  0.00    -0.158 C  
HETATM   15  C   UNL     1      -8.652   8.245  69.681  1.00  0.00    -0.129 A  
HETATM   16  C   UNL     1     -10.738  11.191  67.478  1.00  0.00    -0.236 C  
HETATM   17  C   UNL     1      -9.847   8.309  70.409  1.00  0.00    -0.194 A  
HETATM   18  C   UNL     1      -9.820   8.341  71.806  1.00  0.00    -0.284 A  
HETATM   19  C   UNL     1      -8.600   8.288  72.475  1.00  0.00    -0.208 A  
HETATM   20  C   UNL     1      -7.405   8.196  71.762  1.00  0.00    -0.094 A  
HETATM   21 CL   UNL     1      -8.565   8.317  74.195  1.00  0.00    -0.223 Cl 
HETATM   22  C   UNL     1      -7.422   8.168  70.359  1.00  0.00    -0.067 A  
HETATM   23  C   UNL     1      -6.146   8.012  69.571  1.00  0.00    -0.033 C  
HETATM   24  C   UNL     1      -6.059   6.635  68.908  1.00  0.00    -0.026 C  
HETATM   25  C   UNL     1      -7.033   6.282  67.803  1.00  0.00    -0.075 A  
HETATM   26  C   UNL     1      -8.226   6.952  67.498  1.00  0.00    -0.116 A  
HETATM   27  N   UNL     1      -9.087   6.505  66.542  1.00  0.00    -0.148 NA 
HETATM   28  C   UNL     1      -8.736   5.423  65.817  1.00  0.00    -0.149 A  
HETATM   29  C   UNL     1      -7.572   4.716  66.022  1.00  0.00    -0.090 A  
HETATM   30  C   UNL     1      -6.725   5.141  67.039  1.00  0.00    -0.055 A  
ENDBRANCH   8   9
ENDBRANCH   4   8
TORSDOF 2
ENDMDL
MODEL       64
REMARK 921   NORMALIZED FREE ENERGY PREDICTED BY IDOCK:   -5.13 KCAL/MOL
REMARK 922        TOTAL FREE ENERGY PREDICTED BY IDOCK:   -6.13 KCAL/MOL
REMARK 923 INTER-LIGAND FREE ENERGY PREDICTED BY IDOCK:   -6.06 KCAL/MOL
REMARK 924 INTRA-LIGAND FREE ENERGY PREDICTED BY IDOCK:   -0.07 KCAL/MOL
REMARK 927      BINDING AFFINITY PREDICTED BY RF-SCORE:    0.00 PKD
ROOT
HETATM    1  C   UNL     1      -7.628   3.318  67.224  1.00  0.00    -0.074 C  
HETATM    2  C   UNL     1      -7.996   3.987  68.507  1.00  0.00    -0.072 A  
HETATM    3  C   UNL     1      -8.358   5.339  68.566  1.00  0.00    -0.089 A  
HETATM    4  C   UNL     1      -8.721   5.921  69.784  1.00  0.00    -0.129 A  
HETATM    5  C   UNL     1      -8.672   5.098  70.911  1.00  0.00    -0.130 A  
HETATM    6  N   UNL     1      -8.306   3.798  70.903  1.00  0.00    -0.066 NA 
HETATM    7  C   UNL     1      -7.972   3.275  69.703  1.00  0.00    -0.049 A  
ENDROOT
BRANCH   4   8
HETATM    8  C   UNL     1      -9.045   7.388  69.967  1.00  0.00    -0.148 C  
BRANCH   8   9
HETATM    9  N   UNL     1      -8.049   8.369  69.487  1.00  0.00    -0.111 NA 
HETATM   10  C   UNL     1      -7.924   8.418  68.015  1.00  0.00    -0.119 C  
HETATM   11  C   UNL     1      -9.181   8.934  67.302  1.00  0.00    -0.164 C  
HETATM   12  C   UNL     1      -9.460  10.366  67.740  1.00  0.00    -0.159 C  
HETATM   13  C   UNL     1      -9.576  11.431  66.894  1.00  0.00    -0.203 C  
HETATM   14  C   UNL     1      -9.590  10.410  69.263  1.00  0.00    -0.226 C  
HETATM   15  C   UNL     1      -9.897  12.771  67.447  1.00  0.00    -0.210 A  
HETATM   16  C   UNL     1      -8.391   9.730  69.971  1.00  0.00    -0.192 C  
HETATM   17  C   UNL     1      -8.944  13.493  68.176  1.00  0.00    -0.187 A  
HETATM   18  C   UNL     1      -9.253  14.759  68.681  1.00  0.00    -0.194 A  
HETATM   19  C   UNL     1     -10.509  15.311  68.441  1.00  0.00    -0.236 A  
HETATM   20  C   UNL     1     -11.458  14.612  67.693  1.00  0.00    -0.364 A  
HETATM   21 CL   UNL     1     -10.889  16.873  69.053  1.00  0.00    -0.295 Cl 
HETATM   22  C   UNL     1     -11.157  13.340  67.186  1.00  0.00    -0.308 A  
HETATM   23  C   UNL     1     -12.148  12.593  66.328  1.00  0.00    -0.358 C  
HETATM   24  C   UNL     1     -11.688  12.523  64.869  1.00  0.00    -0.409 C  
HETATM   25  C   UNL     1     -10.456  11.716  64.519  1.00  0.00    -0.359 A  
HETATM   26  C   UNL     1      -9.480  11.252  65.413  1.00  0.00    -0.225 A  
HETATM   27  N   UNL     1      -8.355  10.611  64.993  1.00  0.00    -0.147 NA 
HETATM   28  C   UNL     1      -8.218  10.350  63.676  1.00  0.00    -0.129 A  
HETATM   29  C   UNL     1      -9.136  10.738  62.725  1.00  0.00    -0.328 A  
HETATM   30  C   UNL     1     -10.253  11.445  63.152  1.00  0.00    -0.380 A  
ENDBRANCH   8   9
ENDBRANCH   4   8
TORSDOF 2
ENDMDL
MODEL       65
REMARK 921   NORMALIZED FREE ENERGY PREDICTED BY IDOCK:   -5.11 KCAL/MOL
REMARK 922        TOTAL FREE ENERGY PREDICTED BY IDOCK:   -6.11 KCAL/MOL
REMARK 923 INTER-LIGAND FREE ENERGY PREDICTED BY IDOCK:   -5.71 KCAL/MOL
REMARK 924 INTRA-LIGAND FREE ENERGY PREDICTED BY IDOCK:   -0.40 KCAL/MOL
REMARK 927      BINDING AFFINITY PREDICTED BY RF-SCORE:    0.00 PKD
ROOT
HETATM    1  C   UNL     1      -8.259   2.891  64.009  1.00  0.00    -0.083 C  
HETATM    2  C   UNL     1      -7.708   4.271  63.860  1.00  0.00    -0.079 A  
HETATM    3  C   UNL     1      -8.341   5.390  64.417  1.00  0.00    -0.129 A  
HETATM    4  C   UNL     1      -7.778   6.662  64.277  1.00  0.00    -0.109 A  
HETATM    5  C   UNL     1      -6.594   6.746  63.543  1.00  0.00    -0.042 A  
HETATM    6  N   UNL     1      -5.964   5.697  62.970  1.00  0.00    -0.018 NA 
HETATM    7  C   UNL     1      -6.538   4.486  63.138  1.00  0.00    -0.030 A  
ENDROOT
BRANCH   4   8
HETATM    8  C   UNL     1      -8.424   7.939  64.766  1.00  0.00     0.007 C  
BRANCH   8   9
HETATM    9  N   UNL     1      -7.648   8.781  65.701  1.00  0.00    -0.085 NA 
HETATM   10  C   UNL     1      -8.230  10.123  65.916  1.00  0.00    -0.138 C  
HETATM   11  C   UNL     1      -9.587  10.102  66.631  1.00  0.00    -0.230 C  
HETATM   12  C   UNL     1      -9.421   9.498  68.019  1.00  0.00    -0.147 C  
HETATM   13  C   UNL     1      -9.772  10.114  69.185  1.00  0.00    -0.225 C  
HETATM   14  C   UNL     1      -8.806   8.104  67.889  1.00  0.00    -0.131 C  
HETATM   15  C   UNL     1      -9.601   9.395  70.472  1.00  0.00    -0.330 A  
HETATM   16  C   UNL     1      -7.524   8.110  67.019  1.00  0.00    -0.088 C  
HETATM   17  C   UNL     1      -8.324   9.178  71.008  1.00  0.00    -0.205 A  
HETATM   18  C   UNL     1      -8.176   8.509  72.227  1.00  0.00    -0.168 A  
HETATM   19  C   UNL     1      -9.303   8.076  72.919  1.00  0.00    -0.271 A  
HETATM   20  C   UNL     1     -10.581   8.310  72.409  1.00  0.00    -0.408 A  
HETATM   21 CL   UNL     1      -9.123   7.262  74.424  1.00  0.00    -0.242 Cl 
HETATM   22  C   UNL     1     -10.739   8.976  71.184  1.00  0.00    -0.358 A  
HETATM   23  C   UNL     1     -12.112   9.289  70.644  1.00  0.00    -0.154 C  
HETATM   24  C   UNL     1     -12.414  10.789  70.709  1.00  0.00    -0.481 C  
HETATM   25  C   UNL     1     -11.623  11.741  69.837  1.00  0.00    -0.351 A  
HETATM   26  C   UNL     1     -10.416  11.464  69.179  1.00  0.00    -0.127 A  
HETATM   27  N   UNL     1      -9.727  12.416  68.491  1.00  0.00    -0.180 NA 
HETATM   28  C   UNL     1     -10.269  13.646  68.380  1.00  0.00    -0.245 A  
HETATM   29  C   UNL     1     -11.463  14.006  68.965  1.00  0.00    -0.337 A  
HETATM   30  C   UNL     1     -12.132  13.048  69.717  1.00  0.00    -0.325 A  
ENDBRANCH   8   9
ENDBRANCH   4   8
TORSDOF 2
ENDMDL
MODEL       66
REMARK 921   NORMALIZED FREE ENERGY PREDICTED BY IDOCK:   -5.08 KCAL/MOL
REMARK 922        TOTAL FREE ENERGY PREDICTED BY IDOCK:   -6.08 KCAL/MOL
REMARK 923 INTER-LIGAND FREE ENERGY PREDICTED BY IDOCK:   -6.30 KCAL/MOL
REMARK 924 INTRA-LIGAND FREE ENERGY PREDICTED BY IDOCK:    0.23 KCAL/MOL
REMARK 927      BINDING AFFINITY PREDICTED BY RF-SCORE:    0.00 PKD
ROOT
HETATM    1  C   UNL     1      -6.722   7.657  62.330  1.00  0.00    -0.076 C  
HETATM    2  C   UNL     1      -7.615   7.666  63.527  1.00  0.00    -0.119 A  
HETATM    3  C   UNL     1      -8.264   8.828  63.965  1.00  0.00    -0.161 A  
HETATM    4  C   UNL     1      -9.112   8.788  65.075  1.00  0.00    -0.047 A  
HETATM    5  C   UNL     1      -9.244   7.556  65.719  1.00  0.00     0.100 A  
HETATM    6  N   UNL     1      -8.618   6.419  65.345  1.00  0.00    -0.122 NA 
HETATM    7  C   UNL     1      -7.816   6.501  64.263  1.00  0.00    -0.113 A  
ENDROOT
BRANCH   4   8
HETATM    8  C   UNL     1      -9.790  10.000  65.675  1.00  0.00    -0.295 C  
BRANCH   8   9
HETATM    9  N   UNL     1      -9.128  10.649  66.826  1.00  0.00    -0.151 NA 
HETATM   10  C   UNL     1      -9.960  11.678  67.487  1.00  0.00    -0.187 C  
HETATM   11  C   UNL     1     -11.212  11.116  68.173  1.00  0.00    -0.356 C  
HETATM   12  C   UNL     1     -10.796  10.151  69.276  1.00  0.00    -0.269 C  
HETATM   13  C   UNL     1     -11.164  10.260  70.586  1.00  0.00    -0.406 C  
HETATM   14  C   UNL     1      -9.914   9.055  68.678  1.00  0.00    -0.187 C  
HETATM   15  C   UNL     1     -10.728   9.223  71.555  1.00  0.00    -0.425 A  
HETATM   16  C   UNL     1      -8.746   9.636  67.842  1.00  0.00    -0.119 C  
HETATM   17  C   UNL     1      -9.391   9.145  71.969  1.00  0.00     0.190 A  
HETATM   18  C   UNL     1      -8.995   8.172  72.891  1.00  0.00    -0.328 A  
HETATM   19  C   UNL     1      -9.938   7.291  73.414  1.00  0.00    -0.296 A  
HETATM   20  C   UNL     1     -11.277   7.376  73.031  1.00  0.00    -0.345 A  
HETATM   21 CL   UNL     1      -9.454   6.099  74.557  1.00  0.00    -0.191 Cl 
HETATM   22  C   UNL     1     -11.683   8.347  72.103  1.00  0.00    -0.442 A  
HETATM   23  C   UNL     1     -13.134   8.493  71.718  1.00  0.00    -0.383 C  
HETATM   24  C   UNL     1     -13.739   9.779  72.286  1.00  0.00    -0.324 C  
HETATM   25  C   UNL     1     -13.250  11.118  71.773  1.00  0.00    -0.486 A  
HETATM   26  C   UNL     1     -12.077  11.353  71.042  1.00  0.00    -0.198 A  
HETATM   27  N   UNL     1     -11.670  12.607  70.702  1.00  0.00     0.084 NA 
HETATM   28  C   UNL     1     -12.468  13.648  71.018  1.00  0.00    -0.377 A  
HETATM   29  C   UNL     1     -13.653  13.515  71.707  1.00  0.00    -0.431 A  
HETATM   30  C   UNL     1     -14.033  12.239  72.104  1.00  0.00     0.156 A  
ENDBRANCH   8   9
ENDBRANCH   4   8
TORSDOF 2
ENDMDL
MODEL       67
REMARK 921   NORMALIZED FREE ENERGY PREDICTED BY IDOCK:   -5.06 KCAL/MOL
REMARK 922        TOTAL FREE ENERGY PREDICTED BY IDOCK:   -6.05 KCAL/MOL
REMARK 923 INTER-LIGAND FREE ENERGY PREDICTED BY IDOCK:   -5.92 KCAL/MOL
REMARK 924 INTRA-LIGAND FREE ENERGY PREDICTED BY IDOCK:   -0.13 KCAL/MOL
REMARK 927      BINDING AFFINITY PREDICTED BY RF-SCORE:    0.00 PKD
ROOT
HETATM    1  C   UNL     1      -7.119  15.712  67.160  1.00  0.00    -0.203 C  
HETATM    2  C   UNL     1      -8.535  15.307  66.908  1.00  0.00    -0.286 A  
HETATM    3  C   UNL     1      -9.200  14.377  67.717  1.00  0.00    -0.192 A  
HETATM    4  C   UNL     1     -10.534  14.045  67.462  1.00  0.00    -0.252 A  
HETATM    5  C   UNL     1     -11.134  14.662  66.364  1.00  0.00    -0.334 A  
HETATM    6  N   UNL     1     -10.523  15.546  65.544  1.00  0.00    -0.357 NA 
HETATM    7  C   UNL     1      -9.238  15.844  65.833  1.00  0.00    -0.297 A  
ENDROOT
BRANCH   4   8
HETATM    8  C   UNL     1     -11.311  12.993  68.222  1.00  0.00    -0.288 C  
BRANCH   8   9
HETATM    9  N   UNL     1     -11.803  11.827  67.460  1.00  0.00    -0.617 NA 
HETATM   10  C   UNL     1     -10.952  11.471  66.304  1.00  0.00    -0.275 C  
HETATM   11  C   UNL     1      -9.554  10.973  66.693  1.00  0.00    -0.216 C  
HETATM   12  C   UNL     1      -9.681   9.699  67.519  1.00  0.00    -0.195 C  
HETATM   13  C   UNL     1      -9.091   8.508  67.210  1.00  0.00    -0.152 C  
HETATM   14  C   UNL     1     -10.564   9.976  68.736  1.00  0.00    -0.241 C  
HETATM   15  C   UNL     1      -9.257   7.351  68.127  1.00  0.00    -0.133 A  
HETATM   16  C   UNL     1     -11.909  10.639  68.343  1.00  0.00     0.035 C  
HETATM   17  C   UNL     1     -10.484   6.683  68.224  1.00  0.00    -0.249 A  
HETATM   18  C   UNL     1     -10.625   5.588  69.082  1.00  0.00    -0.300 A  
HETATM   19  C   UNL     1      -9.533   5.150  69.826  1.00  0.00    -0.150 A  
HETATM   20  C   UNL     1      -8.298   5.790  69.718  1.00  0.00    -0.112 A  
HETATM   21 CL   UNL     1      -9.700   3.796  70.875  1.00  0.00    -0.258 Cl 
HETATM   22  C   UNL     1      -8.149   6.893  68.863  1.00  0.00    -0.120 A  
HETATM   23  C   UNL     1      -6.810   7.563  68.688  1.00  0.00    -0.066 C  
HETATM   24  C   UNL     1      -6.218   7.286  67.303  1.00  0.00    -0.053 C  
HETATM   25  C   UNL     1      -6.901   7.859  66.079  1.00  0.00    -0.057 A  
HETATM   26  C   UNL     1      -8.204   8.375  66.014  1.00  0.00    -0.112 A  
HETATM   27  N   UNL     1      -8.767   8.784  64.844  1.00  0.00    -0.163 NA 
HETATM   28  C   UNL     1      -8.013   8.759  63.726  1.00  0.00    -0.157 A  
HETATM   29  C   UNL     1      -6.715   8.299  63.694  1.00  0.00    -0.076 A  
HETATM   30  C   UNL     1      -6.166   7.826  64.879  1.00  0.00    -0.041 A  
ENDBRANCH   8   9
ENDBRANCH   4   8
TORSDOF 2
ENDMDL
MODEL       68
REMARK 921   NORMALIZED FREE ENERGY PREDICTED BY IDOCK:   -5.03 KCAL/MOL
REMARK 922        TOTAL FREE ENERGY PREDICTED BY IDOCK:   -6.02 KCAL/MOL
REMARK 923 INTER-LIGAND FREE ENERGY PREDICTED BY IDOCK:   -5.62 KCAL/MOL
REMARK 924 INTRA-LIGAND FREE ENERGY PREDICTED BY IDOCK:   -0.40 KCAL/MOL
REMARK 927      BINDING AFFINITY PREDICTED BY RF-SCORE:    0.00 PKD
ROOT
HETATM    1  C   UNL     1     -12.496  15.483  70.480  1.00  0.00    -0.472 C  
HETATM    2  C   UNL     1     -11.954  15.320  69.098  1.00  0.00    -0.308 A  
HETATM    3  C   UNL     1     -11.994  14.095  68.421  1.00  0.00    -0.366 A  
HETATM    4  C   UNL     1     -11.500  13.991  67.117  1.00  0.00    -0.373 A  
HETATM    5  C   UNL     1     -10.952  15.148  66.561  1.00  0.00    -0.318 A  
HETATM    6  N   UNL     1     -10.872  16.343  67.187  1.00  0.00    -0.232 NA 
HETATM    7  C   UNL     1     -11.370  16.399  68.441  1.00  0.00    -0.268 A  
ENDROOT
BRANCH   4   8
HETATM    8  C   UNL     1     -11.420  12.699  66.335  1.00  0.00    -0.356 C  
BRANCH   8   9
HETATM    9  N   UNL     1     -10.086  12.265  65.871  1.00  0.00    -0.246 NA 
HETATM   10  C   UNL     1      -9.050  12.299  66.925  1.00  0.00    -0.208 C  
HETATM   11  C   UNL     1      -9.285  11.293  68.059  1.00  0.00    -0.160 C  
HETATM   12  C   UNL     1      -9.253   9.878  67.497  1.00  0.00    -0.148 C  
HETATM   13  C   UNL     1      -8.425   8.885  67.932  1.00  0.00    -0.125 C  
HETATM   14  C   UNL     1     -10.292   9.758  66.381  1.00  0.00    -0.247 C  
HETATM   15  C   UNL     1      -8.527   7.532  67.329  1.00  0.00    -0.118 A  
HETATM   16  C   UNL     1     -10.151  10.885  65.328  1.00  0.00    -0.280 C  
HETATM   17  C   UNL     1      -8.077   7.293  66.023  1.00  0.00    -0.121 A  
HETATM   18  C   UNL     1      -8.168   6.012  65.470  1.00  0.00    -0.142 A  
HETATM   19  C   UNL     1      -8.688   4.967  66.229  1.00  0.00    -0.117 A  
HETATM   20  C   UNL     1      -9.114   5.187  67.540  1.00  0.00    -0.118 A  
HETATM   21 CL   UNL     1      -8.791   3.388  65.555  1.00  0.00    -0.128 Cl 
HETATM   22  C   UNL     1      -9.031   6.470  68.101  1.00  0.00    -0.116 A  
HETATM   23  C   UNL     1      -9.433   6.717  69.534  1.00  0.00    -0.148 C  
HETATM   24  C   UNL     1      -8.216   7.005  70.418  1.00  0.00    -0.124 C  
HETATM   25  C   UNL     1      -7.427   8.279  70.198  1.00  0.00    -0.060 A  
HETATM   26  C   UNL     1      -7.482   9.111  69.071  1.00  0.00    -0.074 A  
HETATM   27  N   UNL     1      -6.664  10.190  68.922  1.00  0.00    -0.052 NA 
HETATM   28  C   UNL     1      -5.828  10.505  69.932  1.00  0.00    -0.059 A  
HETATM   29  C   UNL     1      -5.723   9.767  71.090  1.00  0.00    -0.077 A  
HETATM   30  C   UNL     1      -6.516   8.634  71.211  1.00  0.00    -0.062 A  
ENDBRANCH   8   9
ENDBRANCH   4   8
TORSDOF 2
ENDMDL
MODEL       69
REMARK 921   NORMALIZED FREE ENERGY PREDICTED BY IDOCK:   -5.02 KCAL/MOL
REMARK 922        TOTAL FREE ENERGY PREDICTED BY IDOCK:   -6.01 KCAL/MOL
REMARK 923 INTER-LIGAND FREE ENERGY PREDICTED BY IDOCK:   -5.64 KCAL/MOL
REMARK 924 INTRA-LIGAND FREE ENERGY PREDICTED BY IDOCK:   -0.37 KCAL/MOL
REMARK 927      BINDING AFFINITY PREDICTED BY RF-SCORE:    0.00 PKD
ROOT
HETATM    1  C   UNL     1      -5.891   5.149  68.740  1.00  0.00    -0.020 C  
HETATM    2  C   UNL     1      -6.657   6.380  69.099  1.00  0.00    -0.048 A  
HETATM    3  C   UNL     1      -6.106   7.662  68.980  1.00  0.00    -0.035 A  
HETATM    4  C   UNL     1      -6.866   8.790  69.301  1.00  0.00    -0.050 A  
HETATM    5  C   UNL     1      -8.163   8.562  69.763  1.00  0.00    -0.121 A  
HETATM    6  N   UNL     1      -8.725   7.342  69.915  1.00  0.00    -0.140 NA 
HETATM    7  C   UNL     1      -7.958   6.282  69.584  1.00  0.00    -0.112 A  
ENDROOT
BRANCH   4   8
HETATM    8  C   UNL     1      -6.336  10.208  69.289  1.00  0.00    -0.046 C  
BRANCH   8   9
HETATM    9  N   UNL     1      -6.223  10.880  67.978  1.00  0.00    -0.053 NA 
HETATM   10  C   UNL     1      -7.477  10.871  67.194  1.00  0.00    -0.109 C  
HETATM   11  C   UNL     1      -8.608  11.693  67.826  1.00  0.00    -0.144 C  
HETATM   12  C   UNL     1      -8.187  13.154  67.911  1.00  0.00    -0.162 C  
HETATM   13  C   UNL     1      -8.878  14.198  67.369  1.00  0.00    -0.211 C  
HETATM   14  C   UNL     1      -6.880  13.255  68.699  1.00  0.00    -0.099 C  
HETATM   15  C   UNL     1      -8.382  15.584  67.565  1.00  0.00    -0.190 A  
HETATM   16  C   UNL     1      -5.795  12.291  68.155  1.00  0.00    -0.059 C  
HETATM   17  C   UNL     1      -7.236  16.036  66.898  1.00  0.00    -0.212 A  
HETATM   18  C   UNL     1      -6.785  17.347  67.081  1.00  0.00    -0.203 A  
HETATM   19  C   UNL     1      -7.491  18.210  67.916  1.00  0.00    -0.227 A  
HETATM   20  C   UNL     1      -8.649  17.779  68.564  1.00  0.00    -0.291 A  
HETATM   21 CL   UNL     1      -6.944  19.826  68.135  1.00  0.00    -0.315 Cl 
HETATM   22  C   UNL     1      -9.106  16.464  68.389  1.00  0.00    -0.214 A  
HETATM   23  C   UNL     1     -10.386  15.996  69.036  1.00  0.00    -0.242 C  
HETATM   24  C   UNL     1     -11.494  15.784  68.001  1.00  0.00    -0.264 C  
HETATM   25  C   UNL     1     -11.353  14.671  66.983  1.00  0.00    -0.362 A  
HETATM   26  C   UNL     1     -10.177  13.978  66.662  1.00  0.00    -0.275 A  
HETATM   27  N   UNL     1     -10.128  13.052  65.664  1.00  0.00    -0.280 NA 
HETATM   28  C   UNL     1     -11.271  12.745  65.017  1.00  0.00    -0.298 A  
HETATM   29  C   UNL     1     -12.480  13.349  65.281  1.00  0.00    -0.532 A  
HETATM   30  C   UNL     1     -12.512  14.335  66.259  1.00  0.00    -0.329 A  
ENDBRANCH   8   9
ENDBRANCH   4   8
TORSDOF 2
ENDMDL
MODEL       70
REMARK 921   NORMALIZED FREE ENERGY PREDICTED BY IDOCK:   -5.02 KCAL/MOL
REMARK 922        TOTAL FREE ENERGY PREDICTED BY IDOCK:   -6.01 KCAL/MOL
REMARK 923 INTER-LIGAND FREE ENERGY PREDICTED BY IDOCK:   -5.72 KCAL/MOL
REMARK 924 INTRA-LIGAND FREE ENERGY PREDICTED BY IDOCK:   -0.29 KCAL/MOL
REMARK 927      BINDING AFFINITY PREDICTED BY RF-SCORE:    0.00 PKD
ROOT
HETATM    1  C   UNL     1     -12.100  14.643  64.813  1.00  0.00    -0.428 C  
HETATM    2  C   UNL     1     -11.888  13.812  66.035  1.00  0.00    -0.415 A  
HETATM    3  C   UNL     1     -11.434  12.489  65.968  1.00  0.00    -0.423 A  
HETATM    4  C   UNL     1     -11.224  11.753  67.138  1.00  0.00    -0.375 A  
HETATM    5  C   UNL     1     -11.515  12.395  68.342  1.00  0.00    -0.310 A  
HETATM    6  N   UNL     1     -11.976  13.660  68.452  1.00  0.00    -0.367 NA 
HETATM    7  C   UNL     1     -12.156  14.336  67.297  1.00  0.00    -0.355 A  
ENDROOT
BRANCH   4   8
HETATM    8  C   UNL     1     -10.818  10.296  67.168  1.00  0.00    -0.212 C  
BRANCH   8   9
HETATM    9  N   UNL     1      -9.483   9.972  67.712  1.00  0.00    -0.140 NA 
HETATM   10  C   UNL     1      -9.524   9.125  68.923  1.00  0.00    -0.151 C  
HETATM   11  C   UNL     1     -10.068   7.712  68.674  1.00  0.00    -0.201 C  
HETATM   12  C   UNL     1      -9.157   6.984  67.693  1.00  0.00    -0.122 C  
HETATM   13  C   UNL     1      -8.547   5.788  67.937  1.00  0.00    -0.101 C  
HETATM   14  C   UNL     1      -9.046   7.804  66.408  1.00  0.00    -0.216 C  
HETATM   15  C   UNL     1      -7.719   5.161  66.876  1.00  0.00    -0.092 A  
HETATM   16  C   UNL     1      -8.662   9.279  66.688  1.00  0.00    -0.127 C  
HETATM   17  C   UNL     1      -6.470   5.693  66.532  1.00  0.00    -0.050 A  
HETATM   18  C   UNL     1      -5.694   5.087  65.539  1.00  0.00    -0.018 A  
HETATM   19  C   UNL     1      -6.160   3.938  64.905  1.00  0.00    -0.023 A  
HETATM   20  C   UNL     1      -7.390   3.382  65.258  1.00  0.00    -0.072 A  
HETATM   21 CL   UNL     1      -5.202   3.184  63.691  1.00  0.00    -0.008 Cl 
HETATM   22  C   UNL     1      -8.177   3.987  66.250  1.00  0.00    -0.104 A  
HETATM   23  C   UNL     1      -9.483   3.371  66.685  1.00  0.00    -0.151 C  
HETATM   24  C   UNL     1      -9.385   2.783  68.096  1.00  0.00    -0.258 C  
HETATM   25  C   UNL     1      -9.188   3.715  69.274  1.00  0.00    -0.231 A  
HETATM   26  C   UNL     1      -8.775   5.054  69.219  1.00  0.00    -0.091 A  
HETATM   27  N   UNL     1      -8.536   5.787  70.341  1.00  0.00    -0.127 NA 
HETATM   28  C   UNL     1      -8.779   5.222  71.542  1.00  0.00    -0.134 A  
HETATM   29  C   UNL     1      -9.215   3.925  71.697  1.00  0.00    -0.188 A  
HETATM   30  C   UNL     1      -9.400   3.162  70.551  1.00  0.00    -0.227 A  
ENDBRANCH   8   9
ENDBRANCH   4   8
TORSDOF 2
ENDMDL
MODEL       71
REMARK 921   NORMALIZED FREE ENERGY PREDICTED BY IDOCK:   -5.01 KCAL/MOL
REMARK 922        TOTAL FREE ENERGY PREDICTED BY IDOCK:   -5.99 KCAL/MOL
REMARK 923 INTER-LIGAND FREE ENERGY PREDICTED BY IDOCK:   -5.64 KCAL/MOL
REMARK 924 INTRA-LIGAND FREE ENERGY PREDICTED BY IDOCK:   -0.35 KCAL/MOL
REMARK 927      BINDING AFFINITY PREDICTED BY RF-SCORE:    0.00 PKD
ROOT
HETATM    1  C   UNL     1     -11.284   2.270  73.794  1.00  0.00    -0.293 C  
HETATM    2  C   UNL     1     -10.738   3.623  73.473  1.00  0.00    -0.307 A  
HETATM    3  C   UNL     1     -10.228   3.940  72.208  1.00  0.00    -0.216 A  
HETATM    4  C   UNL     1      -9.751   5.227  71.941  1.00  0.00    -0.204 A  
HETATM    5  C   UNL     1      -9.788   6.140  72.996  1.00  0.00    -0.168 A  
HETATM    6  N   UNL     1     -10.249   5.869  74.236  1.00  0.00    -0.276 NA 
HETATM    7  C   UNL     1     -10.709   4.617  74.447  1.00  0.00    -0.147 A  
ENDROOT
BRANCH   4   8
HETATM    8  C   UNL     1      -9.105   5.644  70.638  1.00  0.00    -0.150 C  
BRANCH   8   9
HETATM    9  N   UNL     1      -9.999   5.966  69.507  1.00  0.00    -0.173 NA 
HETATM   10  C   UNL     1     -10.720   7.247  69.664  1.00  0.00    -0.236 C  
HETATM   11  C   UNL     1      -9.805   8.479  69.648  1.00  0.00    -0.183 C  
HETATM   12  C   UNL     1      -9.097   8.567  68.302  1.00  0.00    -0.138 C  
HETATM   13  C   UNL     1      -9.144   9.645  67.466  1.00  0.00    -0.142 C  
HETATM   14  C   UNL     1      -8.333   7.267  68.050  1.00  0.00    -0.123 C  
HETATM   15  C   UNL     1      -8.368   9.621  66.200  1.00  0.00    -0.122 A  
HETATM   16  C   UNL     1      -9.230   6.017  68.238  1.00  0.00    -0.117 C  
HETATM   17  C   UNL     1      -8.768   8.812  65.129  1.00  0.00    -0.202 A  
HETATM   18  C   UNL     1      -8.036   8.807  63.938  1.00  0.00    -0.165 A  
HETATM   19  C   UNL     1      -6.918   9.626  63.811  1.00  0.00    -0.112 A  
HETATM   20  C   UNL     1      -6.525  10.457  64.861  1.00  0.00    -0.072 A  
HETATM   21 CL   UNL     1      -6.022   9.630  62.342  1.00  0.00    -0.092 Cl 
HETATM   22  C   UNL     1      -7.251  10.465  66.062  1.00  0.00    -0.134 A  
HETATM   23  C   UNL     1      -6.878  11.397  67.187  1.00  0.00    -0.124 C  
HETATM   24  C   UNL     1      -7.912  12.513  67.360  1.00  0.00    -0.180 C  
HETATM   25  C   UNL     1      -9.308  12.162  67.832  1.00  0.00    -0.192 A  
HETATM   26  C   UNL     1      -9.887  10.885  67.848  1.00  0.00    -0.172 A  
HETATM   27  N   UNL     1     -11.185  10.680  68.205  1.00  0.00    -0.291 NA 
HETATM   28  C   UNL     1     -11.909  11.736  68.626  1.00  0.00    -0.310 A  
HETATM   29  C   UNL     1     -11.421  13.023  68.674  1.00  0.00    -0.344 A  
HETATM   30  C   UNL     1     -10.115  13.236  68.252  1.00  0.00    -0.250 A  
ENDBRANCH   8   9
ENDBRANCH   4   8
TORSDOF 2
ENDMDL
MODEL       72
REMARK 921   NORMALIZED FREE ENERGY PREDICTED BY IDOCK:   -4.96 KCAL/MOL
REMARK 922        TOTAL FREE ENERGY PREDICTED BY IDOCK:   -5.94 KCAL/MOL
REMARK 923 INTER-LIGAND FREE ENERGY PREDICTED BY IDOCK:   -5.63 KCAL/MOL
REMARK 924 INTRA-LIGAND FREE ENERGY PREDICTED BY IDOCK:   -0.31 KCAL/MOL
REMARK 927      BINDING AFFINITY PREDICTED BY RF-SCORE:    0.00 PKD
ROOT
HETATM    1  C   UNL     1     -11.171  16.163  64.538  1.00  0.00    -0.275 C  
HETATM    2  C   UNL     1     -10.447  15.822  65.799  1.00  0.00    -0.384 A  
HETATM    3  C   UNL     1     -10.389  14.513  66.295  1.00  0.00    -0.300 A  
HETATM    4  C   UNL     1      -9.678  14.232  67.465  1.00  0.00    -0.223 A  
HETATM    5  C   UNL     1      -9.072  15.314  68.105  1.00  0.00    -0.174 A  
HETATM    6  N   UNL     1      -9.123  16.594  67.675  1.00  0.00    -0.206 NA 
HETATM    7  C   UNL     1      -9.812  16.818  66.536  1.00  0.00    -0.290 A  
ENDROOT
BRANCH   4   8
HETATM    8  C   UNL     1      -9.626  12.872  68.126  1.00  0.00    -0.223 C  
BRANCH   8   9
HETATM    9  N   UNL     1      -8.446  12.026  67.850  1.00  0.00    -0.151 NA 
HETATM   10  C   UNL     1      -7.933  11.315  69.041  1.00  0.00    -0.061 C  
HETATM   11  C   UNL     1      -8.900  10.262  69.599  1.00  0.00    -0.124 C  
HETATM   12  C   UNL     1      -9.139   9.186  68.547  1.00  0.00    -0.132 C  
HETATM   13  C   UNL     1      -8.921   7.852  68.734  1.00  0.00    -0.141 C  
HETATM   14  C   UNL     1      -9.661   9.841  67.268  1.00  0.00    -0.213 C  
HETATM   15  C   UNL     1      -9.241   6.899  67.641  1.00  0.00    -0.119 A  
HETATM   16  C   UNL     1      -8.765  11.018  66.808  1.00  0.00    -0.152 C  
HETATM   17  C   UNL     1      -8.445   6.837  66.489  1.00  0.00    -0.124 A  
HETATM   18  C   UNL     1      -8.749   5.928  65.471  1.00  0.00    -0.133 A  
HETATM   19  C   UNL     1      -9.835   5.068  65.614  1.00  0.00    -0.085 A  
HETATM   20  C   UNL     1     -10.618   5.103  66.768  1.00  0.00    -0.266 A  
HETATM   21 CL   UNL     1     -10.204   3.942  64.367  1.00  0.00    -0.231 Cl 
HETATM   22  C   UNL     1     -10.323   6.014  67.793  1.00  0.00    -0.254 A  
HETATM   23  C   UNL     1     -11.123   6.029  69.071  1.00  0.00    -0.377 C  
HETATM   24  C   UNL     1     -10.304   5.499  70.252  1.00  0.00    -0.349 C  
HETATM   25  C   UNL     1      -9.111   6.292  70.741  1.00  0.00    -0.150 A  
HETATM   26  C   UNL     1      -8.456   7.324  70.054  1.00  0.00    -0.139 A  
HETATM   27  N   UNL     1      -7.330   7.919  70.535  1.00  0.00    -0.066 NA 
HETATM   28  C   UNL     1      -6.878   7.548  71.751  1.00  0.00    -0.057 A  
HETATM   29  C   UNL     1      -7.469   6.567  72.515  1.00  0.00    -0.090 A  
HETATM   30  C   UNL     1      -8.583   5.921  71.992  1.00  0.00    -0.137 A  
ENDBRANCH   8   9
ENDBRANCH   4   8
TORSDOF 2
ENDMDL
MODEL       73
REMARK 921   NORMALIZED FREE ENERGY PREDICTED BY IDOCK:   -4.87 KCAL/MOL
REMARK 922        TOTAL FREE ENERGY PREDICTED BY IDOCK:   -5.83 KCAL/MOL
REMARK 923 INTER-LIGAND FREE ENERGY PREDICTED BY IDOCK:   -5.54 KCAL/MOL
REMARK 924 INTRA-LIGAND FREE ENERGY PREDICTED BY IDOCK:   -0.29 KCAL/MOL
REMARK 927      BINDING AFFINITY PREDICTED BY RF-SCORE:    0.00 PKD
ROOT
HETATM    1  C   UNL     1     -10.926   2.878  73.463  1.00  0.00    -0.320 C  
HETATM    2  C   UNL     1     -10.329   3.180  72.128  1.00  0.00    -0.062 A  
HETATM    3  C   UNL     1     -10.508   4.415  71.493  1.00  0.00    -0.007 A  
HETATM    4  C   UNL     1      -9.910   4.667  70.255  1.00  0.00    -0.314 A  
HETATM    5  C   UNL     1      -9.168   3.627  69.694  1.00  0.00    -0.151 A  
HETATM    6  N   UNL     1      -8.989   2.413  70.260  1.00  0.00    -0.085 NA 
HETATM    7  C   UNL     1      -9.577   2.217  71.460  1.00  0.00    -0.142 A  
ENDROOT
BRANCH   4   8
HETATM    8  C   UNL     1     -10.112   5.934  69.451  1.00  0.00    -0.202 C  
BRANCH   8   9
HETATM    9  N   UNL     1      -9.057   6.965  69.530  1.00  0.00    -0.142 NA 
HETATM   10  C   UNL     1      -8.189   7.021  68.335  1.00  0.00    -0.124 C  
HETATM   11  C   UNL     1      -8.916   7.470  67.061  1.00  0.00    -0.143 C  
HETATM   12  C   UNL     1      -9.445   8.886  67.252  1.00  0.00    -0.195 C  
HETATM   13  C   UNL     1      -9.153   9.944  66.440  1.00  0.00    -0.179 C  
HETATM   14  C   UNL     1     -10.347   8.923  68.486  1.00  0.00    -0.229 C  
HETATM   15  C   UNL     1      -9.773  11.265  66.710  1.00  0.00    -0.218 A  
HETATM   16  C   UNL     1      -9.660   8.307  69.730  1.00  0.00    -0.171 C  
HETATM   17  C   UNL     1      -9.369  12.036  67.808  1.00  0.00    -0.190 A  
HETATM   18  C   UNL     1      -9.952  13.285  68.045  1.00  0.00    -0.233 A  
HETATM   19  C   UNL     1     -10.924  13.770  67.174  1.00  0.00    -0.290 A  
HETATM   20  C   UNL     1     -11.315  13.023  66.063  1.00  0.00    -0.343 A  
HETATM   21 CL   UNL     1     -11.635  15.310  67.459  1.00  0.00    -0.281 Cl 
HETATM   22  C   UNL     1     -10.739  11.768  65.819  1.00  0.00    -0.328 A  
HETATM   23  C   UNL     1     -11.107  10.970  64.593  1.00  0.00    -0.041 C  
HETATM   24  C   UNL     1      -9.955  10.924  63.585  1.00  0.00    -0.415 C  
HETATM   25  C   UNL     1      -8.685  10.182  63.945  1.00  0.00    -0.220 A  
HETATM   26  C   UNL     1      -8.294   9.770  65.228  1.00  0.00    -0.142 A  
HETATM   27  N   UNL     1      -7.087   9.188  65.468  1.00  0.00    -0.081 NA 
HETATM   28  C   UNL     1      -6.277   8.935  64.420  1.00  0.00    -0.071 A  
HETATM   29  C   UNL     1      -6.584   9.274  63.122  1.00  0.00    -0.091 A  
HETATM   30  C   UNL     1      -7.791   9.922  62.890  1.00  0.00    -0.135 A  
ENDBRANCH   8   9
ENDBRANCH   4   8
TORSDOF 2
ENDMDL
MODEL       74
REMARK 921   NORMALIZED FREE ENERGY PREDICTED BY IDOCK:   -4.86 KCAL/MOL
REMARK 922        TOTAL FREE ENERGY PREDICTED BY IDOCK:   -5.83 KCAL/MOL
REMARK 923 INTER-LIGAND FREE ENERGY PREDICTED BY IDOCK:   -5.48 KCAL/MOL
REMARK 924 INTRA-LIGAND FREE ENERGY PREDICTED BY IDOCK:   -0.35 KCAL/MOL
REMARK 927      BINDING AFFINITY PREDICTED BY RF-SCORE:    0.00 PKD
ROOT
HETATM    1  C   UNL     1     -10.666   6.404  68.996  1.00  0.00    -0.339 C  
HETATM    2  C   UNL     1     -10.200   7.359  67.946  1.00  0.00    -0.242 A  
HETATM    3  C   UNL     1     -10.743   8.643  67.812  1.00  0.00    -0.178 A  
HETATM    4  C   UNL     1     -10.260   9.516  66.832  1.00  0.00    -0.317 A  
HETATM    5  C   UNL     1      -9.250   9.029  66.002  1.00  0.00    -0.226 A  
HETATM    6  N   UNL     1      -8.714   7.791  66.082  1.00  0.00    -0.149 NA 
HETATM    7  C   UNL     1      -9.205   6.985  67.048  1.00  0.00    -0.147 A  
ENDROOT
BRANCH   4   8
HETATM    8  C   UNL     1     -10.836  10.887  66.552  1.00  0.00    -0.171 C  
BRANCH   8   9
HETATM    9  N   UNL     1     -11.114  11.759  67.712  1.00  0.00    -0.227 NA 
HETATM   10  C   UNL     1      -9.954  11.940  68.611  1.00  0.00    -0.154 C  
HETATM   11  C   UNL     1      -8.786  12.700  67.972  1.00  0.00    -0.190 C  
HETATM   12  C   UNL     1      -9.240  14.105  67.598  1.00  0.00    -0.193 C  
HETATM   13  C   UNL     1      -8.645  15.257  68.026  1.00  0.00    -0.152 C  
HETATM   14  C   UNL     1     -10.454  14.012  66.673  1.00  0.00    -0.272 C  
HETATM   15  C   UNL     1      -9.158  16.566  67.549  1.00  0.00    -0.200 A  
HETATM   16  C   UNL     1     -11.562  13.099  67.256  1.00  0.00    -0.355 C  
HETATM   17  C   UNL     1     -10.384  17.065  68.007  1.00  0.00    -0.341 A  
HETATM   18  C   UNL     1     -10.852  18.305  67.560  1.00  0.00    -0.282 A  
HETATM   19  C   UNL     1     -10.085  19.052  66.670  1.00  0.00    -0.392 A  
HETATM   20  C   UNL     1      -8.850  18.577  66.227  1.00  0.00    -0.221 A  
HETATM   21 CL   UNL     1     -10.653  20.582  66.127  1.00  0.00    -0.053 Cl 
HETATM   22  C   UNL     1      -8.374  17.333  66.668  1.00  0.00    -0.291 A  
HETATM   23  C   UNL     1      -7.018  16.827  66.245  1.00  0.00    -0.028 C  
HETATM   24  C   UNL     1      -6.024  16.842  67.411  1.00  0.00    -0.190 C  
HETATM   25  C   UNL     1      -6.243  15.906  68.581  1.00  0.00    -0.104 A  
HETATM   26  C   UNL     1      -7.425  15.218  68.891  1.00  0.00    -0.147 A  
HETATM   27  N   UNL     1      -7.556  14.468  70.020  1.00  0.00     0.228 NA 
HETATM   28  C   UNL     1      -6.483  14.326  70.824  1.00  0.00     0.082 A  
HETATM   29  C   UNL     1      -5.271  14.937  70.589  1.00  0.00    -0.128 A  
HETATM   30  C   UNL     1      -5.161  15.749  69.468  1.00  0.00    -0.103 A  
ENDBRANCH   8   9
ENDBRANCH   4   8
TORSDOF 2
ENDMDL
MODEL       75
REMARK 921   NORMALIZED FREE ENERGY PREDICTED BY IDOCK:   -4.84 KCAL/MOL
REMARK 922        TOTAL FREE ENERGY PREDICTED BY IDOCK:   -5.81 KCAL/MOL
REMARK 923 INTER-LIGAND FREE ENERGY PREDICTED BY IDOCK:   -5.36 KCAL/MOL
REMARK 924 INTRA-LIGAND FREE ENERGY PREDICTED BY IDOCK:   -0.45 KCAL/MOL
REMARK 927      BINDING AFFINITY PREDICTED BY RF-SCORE:    0.00 PKD
ROOT
HETATM    1  C   UNL     1      -8.631   2.620  64.070  1.00  0.00    -0.086 C  
HETATM    2  C   UNL     1      -8.125   4.025  64.083  1.00  0.00    -0.090 A  
HETATM    3  C   UNL     1      -8.812   5.060  64.729  1.00  0.00    -0.128 A  
HETATM    4  C   UNL     1      -8.290   6.357  64.740  1.00  0.00    -0.035 A  
HETATM    5  C   UNL     1      -7.088   6.554  64.058  1.00  0.00    -0.054 A  
HETATM    6  N   UNL     1      -6.405   5.590  63.402  1.00  0.00    -0.021 NA 
HETATM    7  C   UNL     1      -6.941   4.351  63.426  1.00  0.00    -0.044 A  
ENDROOT
BRANCH   4   8
HETATM    8  C   UNL     1      -8.995   7.556  65.335  1.00  0.00     0.182 C  
BRANCH   8   9
HETATM    9  N   UNL     1      -8.324   8.257  66.449  1.00  0.00    -0.113 NA 
HETATM   10  C   UNL     1      -9.108   9.381  67.004  1.00  0.00    -0.134 C  
HETATM   11  C   UNL     1     -10.407   8.948  67.696  1.00  0.00    -0.313 C  
HETATM   12  C   UNL     1     -10.075   8.053  68.883  1.00  0.00    -0.209 C  
HETATM   13  C   UNL     1     -10.466   8.287  70.169  1.00  0.00    -0.225 C  
HETATM   14  C   UNL     1      -9.245   6.863  68.398  1.00  0.00    -0.124 C  
HETATM   15  C   UNL     1     -10.115   7.308  71.229  1.00  0.00    -0.195 A  
HETATM   16  C   UNL     1      -8.026   7.308  67.552  1.00  0.00    -0.113 C  
HETATM   17  C   UNL     1      -8.795   7.187  71.685  1.00  0.00    -0.121 A  
HETATM   18  C   UNL     1      -8.479   6.270  72.691  1.00  0.00    -0.123 A  
HETATM   19  C   UNL     1      -9.484   5.489  73.255  1.00  0.00    -0.145 A  
HETATM   20  C   UNL     1     -10.807   5.620  72.829  1.00  0.00    -0.303 A  
HETATM   21 CL   UNL     1      -9.099   4.367  74.502  1.00  0.00    -0.107 Cl 
HETATM   22  C   UNL     1     -11.132   6.534  71.816  1.00  0.00    -0.299 A  
HETATM   23  C   UNL     1     -12.563   6.732  71.381  1.00  0.00    -0.348 C  
HETATM   24  C   UNL     1     -13.105   8.092  71.829  1.00  0.00    -0.360 C  
HETATM   25  C   UNL     1     -12.525   9.354  71.226  1.00  0.00    -0.416 A  
HETATM   26  C   UNL     1     -11.323   9.463  70.512  1.00  0.00    -0.274 A  
HETATM   27  N   UNL     1     -10.836  10.661  70.086  1.00  0.00    -0.227 NA 
HETATM   28  C   UNL     1     -11.578  11.767  70.297  1.00  0.00    -0.119 A  
HETATM   29  C   UNL     1     -12.785  11.758  70.960  1.00  0.00    -0.372 A  
HETATM   30  C   UNL     1     -13.249  10.542  71.446  1.00  0.00    -0.441 A  
ENDBRANCH   8   9
ENDBRANCH   4   8
TORSDOF 2
ENDMDL
MODEL       76
REMARK 921   NORMALIZED FREE ENERGY PREDICTED BY IDOCK:   -4.84 KCAL/MOL
REMARK 922        TOTAL FREE ENERGY PREDICTED BY IDOCK:   -5.80 KCAL/MOL
REMARK 923 INTER-LIGAND FREE ENERGY PREDICTED BY IDOCK:   -5.51 KCAL/MOL
REMARK 924 INTRA-LIGAND FREE ENERGY PREDICTED BY IDOCK:   -0.29 KCAL/MOL
REMARK 927      BINDING AFFINITY PREDICTED BY RF-SCORE:    0.00 PKD
ROOT
HETATM    1  C   UNL     1      -9.641   9.560  65.118  1.00  0.00    -0.270 C  
HETATM    2  C   UNL     1      -8.384   9.617  65.922  1.00  0.00    -0.124 A  
HETATM    3  C   UNL     1      -7.714  10.821  66.175  1.00  0.00    -0.149 A  
HETATM    4  C   UNL     1      -6.554  10.834  66.955  1.00  0.00    -0.091 A  
HETATM    5  C   UNL     1      -6.103   9.601  67.428  1.00  0.00    -0.059 A  
HETATM    6  N   UNL     1      -6.704   8.415  67.188  1.00  0.00    -0.062 NA 
HETATM    7  C   UNL     1      -7.826   8.450  66.439  1.00  0.00    -0.098 A  
ENDROOT
BRANCH   4   8
HETATM    8  C   UNL     1      -5.714  12.066  67.213  1.00  0.00    -0.139 C  
BRANCH   8   9
HETATM    9  N   UNL     1      -5.805  12.683  68.553  1.00  0.00    -0.058 NA 
HETATM   10  C   UNL     1      -5.441  14.116  68.573  1.00  0.00    -0.097 C  
HETATM   11  C   UNL     1      -6.411  15.013  67.793  1.00  0.00    -0.176 C  
HETATM   12  C   UNL     1      -7.796  14.930  68.422  1.00  0.00    -0.121 C  
HETATM   13  C   UNL     1      -8.510  16.001  68.877  1.00  0.00    -0.232 C  
HETATM   14  C   UNL     1      -8.246  13.470  68.455  1.00  0.00    -0.141 C  
HETATM   15  C   UNL     1      -9.872  15.789  69.428  1.00  0.00    -0.286 A  
HETATM   16  C   UNL     1      -7.180  12.544  69.094  1.00  0.00     0.070 C  
HETATM   17  C   UNL     1     -10.054  15.176  70.675  1.00  0.00     0.418 A  
HETATM   18  C   UNL     1     -11.342  14.992  71.189  1.00  0.00    -0.315 A  
HETATM   19  C   UNL     1     -12.444  15.439  70.465  1.00  0.00    -0.422 A  
HETATM   20  C   UNL     1     -12.274  16.075  69.235  1.00  0.00     0.044 A  
HETATM   21 CL   UNL     1     -14.029  15.224  71.100  1.00  0.00    -0.515 Cl 
HETATM   22  C   UNL     1     -10.986  16.260  68.710  1.00  0.00    -0.343 A  
HETATM   23  C   UNL     1     -10.777  16.994  67.409  1.00  0.00    -0.240 C  
HETATM   24  C   UNL     1     -10.131  18.364  67.635  1.00  0.00    -0.378 C  
HETATM   25  C   UNL     1      -8.708  18.435  68.148  1.00  0.00    -0.318 A  
HETATM   26  C   UNL     1      -7.982  17.393  68.743  1.00  0.00    -0.244 A  
HETATM   27  N   UNL     1      -6.735  17.577  69.259  1.00  0.00    -0.245 NA 
HETATM   28  C   UNL     1      -6.157  18.788  69.122  1.00  0.00    -0.237 A  
HETATM   29  C   UNL     1      -6.776  19.864  68.527  1.00  0.00    -0.338 A  
HETATM   30  C   UNL     1      -8.071  19.687  68.056  1.00  0.00    -0.344 A  
ENDBRANCH   8   9
ENDBRANCH   4   8
TORSDOF 2
ENDMDL
MODEL       77
REMARK 921   NORMALIZED FREE ENERGY PREDICTED BY IDOCK:   -4.78 KCAL/MOL
REMARK 922        TOTAL FREE ENERGY PREDICTED BY IDOCK:   -5.74 KCAL/MOL
REMARK 923 INTER-LIGAND FREE ENERGY PREDICTED BY IDOCK:   -6.54 KCAL/MOL
REMARK 924 INTRA-LIGAND FREE ENERGY PREDICTED BY IDOCK:    0.80 KCAL/MOL
REMARK 927      BINDING AFFINITY PREDICTED BY RF-SCORE:    0.00 PKD
ROOT
HETATM    1  C   UNL     1     -11.976  15.950  70.707  1.00  0.00    -0.413 C  
HETATM    2  C   UNL     1     -11.145  15.637  69.506  1.00  0.00    -0.298 A  
HETATM    3  C   UNL     1     -11.709  15.195  68.303  1.00  0.00    -0.336 A  
HETATM    4  C   UNL     1     -10.897  14.939  67.194  1.00  0.00    -0.311 A  
HETATM    5  C   UNL     1      -9.524  15.119  67.367  1.00  0.00    -0.204 A  
HETATM    6  N   UNL     1      -8.937  15.520  68.516  1.00  0.00    -0.184 NA 
HETATM    7  C   UNL     1      -9.759  15.766  69.558  1.00  0.00    -0.276 A  
ENDROOT
BRANCH   4   8
HETATM    8  C   UNL     1     -11.398  14.378  65.881  1.00  0.00    -0.332 C  
BRANCH   8   9
HETATM    9  N   UNL     1     -11.915  12.994  65.885  1.00  0.00    -0.414 NA 
HETATM   10  C   UNL     1     -11.087  12.048  65.105  1.00  0.00    -0.318 C  
HETATM   11  C   UNL     1      -9.688  11.819  65.692  1.00  0.00    -0.256 C  
HETATM   12  C   UNL     1      -9.815  11.208  67.081  1.00  0.00    -0.212 C  
HETATM   13  C   UNL     1      -9.243  10.031  67.470  1.00  0.00    -0.151 C  
HETATM   14  C   UNL     1     -10.675  12.121  67.956  1.00  0.00    -0.242 C  
HETATM   15  C   UNL     1      -9.405   9.567  68.871  1.00  0.00    -0.149 A  
HETATM   16  C   UNL     1     -12.019  12.484  67.275  1.00  0.00    -0.216 C  
HETATM   17  C   UNL     1     -10.638   9.083  69.328  1.00  0.00    -0.226 A  
HETATM   18  C   UNL     1     -10.776   8.639  70.646  1.00  0.00    -0.259 A  
HETATM   19  C   UNL     1      -9.677   8.659  71.501  1.00  0.00    -0.263 A  
HETATM   20  C   UNL     1      -8.437   9.114  71.049  1.00  0.00    -0.221 A  
HETATM   21 CL   UNL     1      -9.841   8.103  73.120  1.00  0.00    -0.330 Cl 
HETATM   22  C   UNL     1      -8.291   9.566  69.729  1.00  0.00    -0.170 A  
HETATM   23  C   UNL     1      -6.947  10.008  69.206  1.00  0.00    -0.063 C  
HETATM   24  C   UNL     1      -6.382   9.008  68.193  1.00  0.00    -0.055 C  
HETATM   25  C   UNL     1      -7.079   8.830  66.860  1.00  0.00    -0.078 A  
HETATM   26  C   UNL     1      -8.377   9.249  66.534  1.00  0.00    -0.126 A  
HETATM   27  N   UNL     1      -8.954   8.962  65.335  1.00  0.00    -0.198 NA 
HETATM   28  C   UNL     1      -8.219   8.316  64.407  1.00  0.00    -0.127 A  
HETATM   29  C   UNL     1      -6.928   7.890  64.622  1.00  0.00    -0.067 A  
HETATM   30  C   UNL     1      -6.363   8.133  65.868  1.00  0.00    -0.045 A  
ENDBRANCH   8   9
ENDBRANCH   4   8
TORSDOF 2
ENDMDL
MODEL       78
REMARK 921   NORMALIZED FREE ENERGY PREDICTED BY IDOCK:   -4.73 KCAL/MOL
REMARK 922        TOTAL FREE ENERGY PREDICTED BY IDOCK:   -5.68 KCAL/MOL
REMARK 923 INTER-LIGAND FREE ENERGY PREDICTED BY IDOCK:   -5.31 KCAL/MOL
REMARK 924 INTRA-LIGAND FREE ENERGY PREDICTED BY IDOCK:   -0.36 KCAL/MOL
REMARK 927      BINDING AFFINITY PREDICTED BY RF-SCORE:    0.00 PKD
ROOT
HETATM    1  C   UNL     1     -12.036  12.906  63.425  1.00  0.00    -0.612 C  
HETATM    2  C   UNL     1     -10.964  12.045  64.008  1.00  0.00    -0.442 A  
HETATM    3  C   UNL     1     -11.002  11.603  65.336  1.00  0.00    -0.328 A  
HETATM    4  C   UNL     1      -9.992  10.776  65.836  1.00  0.00    -0.304 A  
HETATM    5  C   UNL     1      -8.956  10.453  64.958  1.00  0.00    -0.195 A  
HETATM    6  N   UNL     1      -8.867  10.876  63.678  1.00  0.00    -0.126 NA 
HETATM    7  C   UNL     1      -9.870  11.665  63.235  1.00  0.00    -0.405 A  
ENDROOT
BRANCH   4   8
HETATM    8  C   UNL     1      -9.898  10.317  67.274  1.00  0.00    -0.182 C  
BRANCH   8   9
HETATM    9  N   UNL     1     -10.765   9.195  67.688  1.00  0.00    -0.242 NA 
HETATM   10  C   UNL     1     -10.627   7.992  66.839  1.00  0.00    -0.254 C  
HETATM   11  C   UNL     1      -9.250   7.322  66.932  1.00  0.00    -0.180 C  
HETATM   12  C   UNL     1      -9.012   6.848  68.360  1.00  0.00    -0.121 C  
HETATM   13  C   UNL     1      -8.718   5.563  68.716  1.00  0.00    -0.102 C  
HETATM   14  C   UNL     1      -9.151   8.035  69.314  1.00  0.00    -0.148 C  
HETATM   15  C   UNL     1      -8.462   5.241  70.142  1.00  0.00    -0.109 A  
HETATM   16  C   UNL     1     -10.475   8.809  69.092  1.00  0.00    -0.217 C  
HETATM   17  C   UNL     1      -9.509   5.227  71.073  1.00  0.00    -0.211 A  
HETATM   18  C   UNL     1      -9.258   4.910  72.412  1.00  0.00    -0.151 A  
HETATM   19  C   UNL     1      -7.964   4.588  72.814  1.00  0.00    -0.092 A  
HETATM   20  C   UNL     1      -6.918   4.572  71.891  1.00  0.00    -0.054 A  
HETATM   21 CL   UNL     1      -7.654   4.188  74.458  1.00  0.00    -0.075 Cl 
HETATM   22  C   UNL     1      -7.160   4.893  70.547  1.00  0.00    -0.052 A  
HETATM   23  C   UNL     1      -6.056   4.827  69.522  1.00  0.00    -0.018 C  
HETATM   24  C   UNL     1      -6.252   3.653  68.558  1.00  0.00    -0.032 C  
HETATM   25  C   UNL     1      -7.425   3.670  67.601  1.00  0.00    -0.066 A  
HETATM   26  C   UNL     1      -8.557   4.495  67.682  1.00  0.00    -0.103 A  
HETATM   27  N   UNL     1      -9.608   4.374  66.825  1.00  0.00    -0.184 NA 
HETATM   28  C   UNL     1      -9.517   3.478  65.820  1.00  0.00    -0.138 A  
HETATM   29  C   UNL     1      -8.436   2.645  65.640  1.00  0.00    -0.103 A  
HETATM   30  C   UNL     1      -7.392   2.731  66.553  1.00  0.00    -0.070 A  
ENDBRANCH   8   9
ENDBRANCH   4   8
TORSDOF 2
ENDMDL
MODEL       79
REMARK 921   NORMALIZED FREE ENERGY PREDICTED BY IDOCK:   -4.70 KCAL/MOL
REMARK 922        TOTAL FREE ENERGY PREDICTED BY IDOCK:   -5.65 KCAL/MOL
REMARK 923 INTER-LIGAND FREE ENERGY PREDICTED BY IDOCK:   -5.30 KCAL/MOL
REMARK 924 INTRA-LIGAND FREE ENERGY PREDICTED BY IDOCK:   -0.35 KCAL/MOL
REMARK 927      BINDING AFFINITY PREDICTED BY RF-SCORE:    0.00 PKD
ROOT
HETATM    1  C   UNL     1      -7.948  10.321  64.350  1.00  0.00    -0.135 C  
HETATM    2  C   UNL     1      -7.996   8.853  64.082  1.00  0.00    -0.148 A  
HETATM    3  C   UNL     1      -8.006   7.906  65.114  1.00  0.00    -0.132 A  
HETATM    4  C   UNL     1      -8.077   6.542  64.820  1.00  0.00    -0.112 A  
HETATM    5  C   UNL     1      -8.108   6.192  63.469  1.00  0.00    -0.065 A  
HETATM    6  N   UNL     1      -8.076   7.070  62.443  1.00  0.00    -0.127 NA 
HETATM    7  C   UNL     1      -8.016   8.378  62.773  1.00  0.00    -0.159 A  
ENDROOT
BRANCH   4   8
HETATM    8  C   UNL     1      -8.008   5.441  65.856  1.00  0.00    -0.106 C  
BRANCH   8   9
HETATM    9  N   UNL     1      -9.286   4.860  66.319  1.00  0.00    -0.135 NA 
HETATM   10  C   UNL     1      -9.124   3.805  67.342  1.00  0.00    -0.163 C  
HETATM   11  C   UNL     1      -8.557   4.315  68.673  1.00  0.00    -0.111 C  
HETATM   12  C   UNL     1      -9.518   5.330  69.278  1.00  0.00    -0.185 C  
HETATM   13  C   UNL     1     -10.070   5.236  70.523  1.00  0.00    -0.315 C  
HETATM   14  C   UNL     1      -9.755   6.458  68.272  1.00  0.00    -0.127 C  
HETATM   15  C   UNL     1     -10.958   6.321  71.012  1.00  0.00    -0.340 A  
HETATM   16  C   UNL     1     -10.163   5.920  66.878  1.00  0.00    -0.214 C  
HETATM   17  C   UNL     1     -12.246   6.485  70.487  1.00  0.00    -0.106 A  
HETATM   18  C   UNL     1     -13.078   7.503  70.964  1.00  0.00    -0.145 A  
HETATM   19  C   UNL     1     -12.628   8.343  71.979  1.00  0.00    -0.356 A  
HETATM   20  C   UNL     1     -11.356   8.173  72.528  1.00  0.00    -0.469 A  
HETATM   21 CL   UNL     1     -13.653   9.590  72.574  1.00  0.00    -0.457 Cl 
HETATM   22  C   UNL     1     -10.514   7.157  72.053  1.00  0.00    -0.232 A  
HETATM   23  C   UNL     1      -9.159   6.921  72.671  1.00  0.00    -0.150 C  
HETATM   24  C   UNL     1      -9.128   5.618  73.476  1.00  0.00    -0.131 C  
HETATM   25  C   UNL     1      -9.261   4.296  72.750  1.00  0.00    -0.135 A  
HETATM   26  C   UNL     1      -9.719   4.107  71.438  1.00  0.00    -0.181 A  
HETATM   27  N   UNL     1      -9.892   2.868  70.899  1.00  0.00    -0.067 NA 
HETATM   28  C   UNL     1      -9.538   1.794  71.634  1.00  0.00    -0.127 A  
HETATM   29  C   UNL     1      -9.052   1.879  72.919  1.00  0.00    -0.087 A  
HETATM   30  C   UNL     1      -8.933   3.142  73.486  1.00  0.00    -0.084 A  
ENDBRANCH   8   9
ENDBRANCH   4   8
TORSDOF 2
ENDMDL
MODEL       80
REMARK 921   NORMALIZED FREE ENERGY PREDICTED BY IDOCK:   -4.58 KCAL/MOL
REMARK 922        TOTAL FREE ENERGY PREDICTED BY IDOCK:   -5.51 KCAL/MOL
REMARK 923 INTER-LIGAND FREE ENERGY PREDICTED BY IDOCK:   -5.22 KCAL/MOL
REMARK 924 INTRA-LIGAND FREE ENERGY PREDICTED BY IDOCK:   -0.29 KCAL/MOL
REMARK 927      BINDING AFFINITY PREDICTED BY RF-SCORE:    0.00 PKD
ROOT
HETATM    1  C   UNL     1     -12.159  13.341  63.749  1.00  0.00    -0.546 C  
HETATM    2  C   UNL     1     -11.959  13.244  65.226  1.00  0.00    -0.422 A  
HETATM    3  C   UNL     1     -11.457  12.088  65.836  1.00  0.00    -0.392 A  
HETATM    4  C   UNL     1     -11.259  12.048  67.220  1.00  0.00    -0.371 A  
HETATM    5  C   UNL     1     -11.612  13.192  67.936  1.00  0.00    -0.336 A  
HETATM    6  N   UNL     1     -12.121  14.319  67.391  1.00  0.00    -0.386 NA 
HETATM    7  C   UNL     1     -12.287  14.317  66.051  1.00  0.00    -0.395 A  
ENDROOT
BRANCH   4   8
HETATM    8  C   UNL     1     -10.804  10.822  67.981  1.00  0.00    -0.255 C  
BRANCH   8   9
HETATM    9  N   UNL     1      -9.437  10.327  67.719  1.00  0.00    -0.147 NA 
HETATM   10  C   UNL     1      -8.476  10.635  68.799  1.00  0.00    -0.149 C  
HETATM   11  C   UNL     1      -8.778   9.918  70.122  1.00  0.00    -0.142 C  
HETATM   12  C   UNL     1      -8.693   8.411  69.912  1.00  0.00    -0.136 C  
HETATM   13  C   UNL     1      -7.885   7.570  70.621  1.00  0.00    -0.095 C  
HETATM   14  C   UNL     1      -9.652   8.005  68.793  1.00  0.00    -0.149 C  
HETATM   15  C   UNL     1      -7.932   6.111  70.350  1.00  0.00    -0.108 A  
HETATM   16  C   UNL     1      -9.451   8.856  67.514  1.00  0.00    -0.141 C  
HETATM   17  C   UNL     1      -7.392   5.584  69.169  1.00  0.00    -0.077 A  
HETATM   18  C   UNL     1      -7.431   4.207  68.929  1.00  0.00    -0.055 A  
HETATM   19  C   UNL     1      -7.991   3.357  69.879  1.00  0.00    -0.046 A  
HETATM   20  C   UNL     1      -8.508   3.867  71.070  1.00  0.00    -0.097 A  
HETATM   21 CL   UNL     1      -8.031   1.661  69.591  1.00  0.00    -0.049 Cl 
HETATM   22  C   UNL     1      -8.477   5.247  71.317  1.00  0.00    -0.124 A  
HETATM   23  C   UNL     1      -8.978   5.813  72.622  1.00  0.00    -0.131 C  
HETATM   24  C   UNL     1      -7.827   6.333  73.489  1.00  0.00    -0.097 C  
HETATM   25  C   UNL     1      -7.038   7.540  73.026  1.00  0.00    -0.080 A  
HETATM   26  C   UNL     1      -7.025   8.082  71.732  1.00  0.00    -0.069 A  
HETATM   27  N   UNL     1      -6.210   9.117  71.386  1.00  0.00    -0.077 NA 
HETATM   28  C   UNL     1      -5.448   9.682  72.344  1.00  0.00     0.038 A  
HETATM   29  C   UNL     1      -5.414   9.240  73.648  1.00  0.00    -0.067 A  
HETATM   30  C   UNL     1      -6.202   8.146  73.982  1.00  0.00    -0.116 A  
ENDBRANCH   8   9
ENDBRANCH   4   8
TORSDOF 2
ENDMDL
MODEL       81
REMARK 921   NORMALIZED FREE ENERGY PREDICTED BY IDOCK:   -4.52 KCAL/MOL
REMARK 922        TOTAL FREE ENERGY PREDICTED BY IDOCK:   -5.44 KCAL/MOL
REMARK 923 INTER-LIGAND FREE ENERGY PREDICTED BY IDOCK:   -5.95 KCAL/MOL
REMARK 924 INTRA-LIGAND FREE ENERGY PREDICTED BY IDOCK:    0.51 KCAL/MOL
REMARK 927      BINDING AFFINITY PREDICTED BY RF-SCORE:    0.00 PKD
ROOT
HETATM    1  C   UNL     1     -11.411  15.311  71.468  1.00  0.00    -0.457 C  
HETATM    2  C   UNL     1     -10.987  15.260  70.037  1.00  0.00    -0.306 A  
HETATM    3  C   UNL     1     -11.768  14.648  69.048  1.00  0.00    -0.339 A  
HETATM    4  C   UNL     1     -11.347  14.645  67.716  1.00  0.00    -0.338 A  
HETATM    5  C   UNL     1     -10.118  15.249  67.446  1.00  0.00    -0.232 A  
HETATM    6  N   UNL     1      -9.323  15.829  68.371  1.00  0.00    -0.192 NA 
HETATM    7  C   UNL     1      -9.773  15.817  69.643  1.00  0.00    -0.248 A  
ENDROOT
BRANCH   4   8
HETATM    8  C   UNL     1     -12.075  13.939  66.592  1.00  0.00    -0.448 C  
BRANCH   8   9
HETATM    9  N   UNL     1     -12.127  12.463  66.637  1.00  0.00    -0.584 NA 
HETATM   10  C   UNL     1     -11.578  11.812  65.429  1.00  0.00    -0.125 C  
HETATM   11  C   UNL     1     -10.071  12.026  65.239  1.00  0.00    -0.289 C  
HETATM   12  C   UNL     1      -9.320  11.413  66.415  1.00  0.00    -0.219 C  
HETATM   13  C   UNL     1      -8.339  10.470  66.307  1.00  0.00    -0.152 C  
HETATM   14  C   UNL     1      -9.840  12.024  67.716  1.00  0.00    -0.190 C  
HETATM   15  C   UNL     1      -7.652   9.988  67.531  1.00  0.00    -0.091 A  
HETATM   16  C   UNL     1     -11.384  11.955  67.818  1.00  0.00    -0.292 C  
HETATM   17  C   UNL     1      -8.311   9.152  68.442  1.00  0.00    -0.120 A  
HETATM   18  C   UNL     1      -7.650   8.695  69.585  1.00  0.00    -0.080 A  
HETATM   19  C   UNL     1      -6.324   9.056  69.807  1.00  0.00    -0.038 A  
HETATM   20  C   UNL     1      -5.648   9.866  68.894  1.00  0.00    -0.035 A  
HETATM   21 CL   UNL     1      -5.505   8.486  71.209  1.00  0.00    -0.033 Cl 
HETATM   22  C   UNL     1      -6.305  10.333  67.746  1.00  0.00    -0.057 A  
HETATM   23  C   UNL     1      -5.576  11.162  66.719  1.00  0.00    -0.100 C  
HETATM   24  C   UNL     1      -5.344  10.377  65.424  1.00  0.00    -0.101 C  
HETATM   25  C   UNL     1      -6.534   9.986  64.573  1.00  0.00    -0.130 A  
HETATM   26  C   UNL     1      -7.880   9.986  64.968  1.00  0.00    -0.137 A  
HETATM   27  N   UNL     1      -8.875   9.528  64.160  1.00  0.00    -0.219 NA 
HETATM   28  C   UNL     1      -8.557   9.133  62.911  1.00  0.00    -0.201 A  
HETATM   29  C   UNL     1      -7.270   9.124  62.421  1.00  0.00    -0.096 A  
HETATM   30  C   UNL     1      -6.250   9.536  63.270  1.00  0.00    -0.099 A  
ENDBRANCH   8   9
ENDBRANCH   4   8
TORSDOF 2
ENDMDL
MODEL       82
REMARK 921   NORMALIZED FREE ENERGY PREDICTED BY IDOCK:   -4.49 KCAL/MOL
REMARK 922        TOTAL FREE ENERGY PREDICTED BY IDOCK:   -5.41 KCAL/MOL
REMARK 923 INTER-LIGAND FREE ENERGY PREDICTED BY IDOCK:   -7.30 KCAL/MOL
REMARK 924 INTRA-LIGAND FREE ENERGY PREDICTED BY IDOCK:    1.88 KCAL/MOL
REMARK 927      BINDING AFFINITY PREDICTED BY RF-SCORE:    0.00 PKD
ROOT
HETATM    1  C   UNL     1     -13.398  11.961  71.761  1.00  0.00    -0.334 C  
HETATM    2  C   UNL     1     -13.038  10.517  71.884  1.00  0.00    -0.567 A  
HETATM    3  C   UNL     1     -12.179   9.882  70.978  1.00  0.00    -0.446 A  
HETATM    4  C   UNL     1     -11.847   8.535  71.145  1.00  0.00    -0.322 A  
HETATM    5  C   UNL     1     -12.432   7.874  72.226  1.00  0.00    -0.225 A  
HETATM    6  N   UNL     1     -13.283   8.441  73.109  1.00  0.00     0.173 NA 
HETATM    7  C   UNL     1     -13.569   9.746  72.915  1.00  0.00     0.483 A  
ENDROOT
BRANCH   4   8
HETATM    8  C   UNL     1     -10.999   7.739  70.177  1.00  0.00    -0.241 C  
BRANCH   8   9
HETATM    9  N   UNL     1      -9.729   8.345  69.726  1.00  0.00    -0.178 NA 
HETATM   10  C   UNL     1      -9.481   8.198  68.276  1.00  0.00    -0.141 C  
HETATM   11  C   UNL     1     -10.477   8.964  67.396  1.00  0.00    -0.347 C  
HETATM   12  C   UNL     1     -10.364  10.455  67.683  1.00  0.00    -0.260 C  
HETATM   13  C   UNL     1     -10.102  11.412  66.745  1.00  0.00    -0.250 C  
HETATM   14  C   UNL     1     -10.594  10.698  69.175  1.00  0.00    -0.256 C  
HETATM   15  C   UNL     1     -10.066  12.840  67.150  1.00  0.00    -0.234 A  
HETATM   16  C   UNL     1      -9.700   9.792  70.058  1.00  0.00    -0.250 C  
HETATM   17  C   UNL     1      -9.004  13.342  67.914  1.00  0.00    -0.201 A  
HETATM   18  C   UNL     1      -8.974  14.691  68.279  1.00  0.00    -0.184 A  
HETATM   19  C   UNL     1      -9.995  15.542  67.863  1.00  0.00    -0.218 A  
HETATM   20  C   UNL     1     -11.044  15.060  67.079  1.00  0.00    -0.334 A  
HETATM   21 CL   UNL     1      -9.954  17.205  68.302  1.00  0.00    -0.283 Cl 
HETATM   22  C   UNL     1     -11.084  13.707  66.712  1.00  0.00    -0.315 A  
HETATM   23  C   UNL     1     -12.178  13.178  65.819  1.00  0.00    -0.514 C  
HETATM   24  C   UNL     1     -11.646  12.825  64.426  1.00  0.00    -0.415 C  
HETATM   25  C   UNL     1     -10.676  11.672  64.275  1.00  0.00    -0.398 A  
HETATM   26  C   UNL     1      -9.947  11.054  65.302  1.00  0.00    -0.266 A  
HETATM   27  N   UNL     1      -9.025  10.083  65.056  1.00  0.00    -0.182 NA 
HETATM   28  C   UNL     1      -8.868   9.653  63.788  1.00  0.00    -0.231 A  
HETATM   29  C   UNL     1      -9.558  10.176  62.717  1.00  0.00    -0.217 A  
HETATM   30  C   UNL     1     -10.453  11.209  62.965  1.00  0.00    -0.140 A  
ENDBRANCH   8   9
ENDBRANCH   4   8
TORSDOF 2
ENDMDL
MODEL       83
REMARK 921   NORMALIZED FREE ENERGY PREDICTED BY IDOCK:   -4.49 KCAL/MOL
REMARK 922        TOTAL FREE ENERGY PREDICTED BY IDOCK:   -5.41 KCAL/MOL
REMARK 923 INTER-LIGAND FREE ENERGY PREDICTED BY IDOCK:   -4.99 KCAL/MOL
REMARK 924 INTRA-LIGAND FREE ENERGY PREDICTED BY IDOCK:   -0.42 KCAL/MOL
REMARK 927      BINDING AFFINITY PREDICTED BY RF-SCORE:    0.00 PKD
ROOT
HETATM    1  C   UNL     1     -12.750  15.165  71.328  1.00  0.00    -0.439 C  
HETATM    2  C   UNL     1     -12.723  13.691  71.095  1.00  0.00    -0.432 A  
HETATM    3  C   UNL     1     -12.182  13.128  69.932  1.00  0.00    -0.293 A  
HETATM    4  C   UNL     1     -12.152  11.741  69.766  1.00  0.00    -0.338 A  
HETATM    5  C   UNL     1     -12.708  10.975  70.791  1.00  0.00    -0.323 A  
HETATM    6  N   UNL     1     -13.262  11.476  71.917  1.00  0.00    -0.456 NA 
HETATM    7  C   UNL     1     -13.260  12.820  72.040  1.00  0.00    -0.436 A  
ENDROOT
BRANCH   4   8
HETATM    8  C   UNL     1     -11.668  11.042  68.514  1.00  0.00    -0.278 C  
BRANCH   8   9
HETATM    9  N   UNL     1     -10.238  11.177  68.169  1.00  0.00    -0.175 NA 
HETATM   10  C   UNL     1      -9.326  10.940  69.308  1.00  0.00    -0.006 C  
HETATM   11  C   UNL     1      -9.345   9.497  69.828  1.00  0.00    -0.227 C  
HETATM   12  C   UNL     1      -8.881   8.555  68.725  1.00  0.00    -0.139 C  
HETATM   13  C   UNL     1      -7.838   7.681  68.835  1.00  0.00    -0.123 C  
HETATM   14  C   UNL     1      -9.767   8.746  67.494  1.00  0.00    -0.214 C  
HETATM   15  C   UNL     1      -7.516   6.781  67.698  1.00  0.00    -0.098 A  
HETATM   16  C   UNL     1      -9.877  10.235  67.080  1.00  0.00    -0.193 C  
HETATM   17  C   UNL     1      -6.931   7.284  66.529  1.00  0.00    -0.073 A  
HETATM   18  C   UNL     1      -6.622   6.426  65.470  1.00  0.00    -0.043 A  
HETATM   19  C   UNL     1      -6.879   5.062  65.588  1.00  0.00    -0.061 A  
HETATM   20  C   UNL     1      -7.436   4.546  66.759  1.00  0.00    -0.082 A  
HETATM   21 CL   UNL     1      -6.489   4.002  64.291  1.00  0.00    -0.040 Cl 
HETATM   22  C   UNL     1      -7.753   5.400  67.825  1.00  0.00    -0.092 A  
HETATM   23  C   UNL     1      -8.303   4.855  69.119  1.00  0.00    -0.082 C  
HETATM   24  C   UNL     1      -7.278   4.954  70.252  1.00  0.00    -0.050 C  
HETATM   25  C   UNL     1      -6.865   6.320  70.758  1.00  0.00    -0.063 A  
HETATM   26  C   UNL     1      -7.075   7.548  70.114  1.00  0.00    -0.060 A  
HETATM   27  N   UNL     1      -6.584   8.720  70.604  1.00  0.00    -0.041 NA 
HETATM   28  C   UNL     1      -5.939   8.700  71.788  1.00  0.00    -0.057 A  
HETATM   29  C   UNL     1      -5.709   7.550  72.510  1.00  0.00    -0.036 A  
HETATM   30  C   UNL     1      -6.159   6.349  71.976  1.00  0.00    -0.038 A  
ENDBRANCH   8   9
ENDBRANCH   4   8
TORSDOF 2
ENDMDL
MODEL       84
REMARK 921   NORMALIZED FREE ENERGY PREDICTED BY IDOCK:   -4.48 KCAL/MOL
REMARK 922        TOTAL FREE ENERGY PREDICTED BY IDOCK:   -5.40 KCAL/MOL
REMARK 923 INTER-LIGAND FREE ENERGY PREDICTED BY IDOCK:   -4.96 KCAL/MOL
REMARK 924 INTRA-LIGAND FREE ENERGY PREDICTED BY IDOCK:   -0.45 KCAL/MOL
REMARK 927      BINDING AFFINITY PREDICTED BY RF-SCORE:    0.00 PKD
ROOT
HETATM    1  C   UNL     1      -6.547   6.563  71.110  1.00  0.00    -0.054 C  
HETATM    2  C   UNL     1      -6.748   6.848  69.657  1.00  0.00    -0.050 A  
HETATM    3  C   UNL     1      -6.893   8.152  69.166  1.00  0.00    -0.055 A  
HETATM    4  C   UNL     1      -7.053   8.377  67.796  1.00  0.00    -0.083 A  
HETATM    5  C   UNL     1      -7.087   7.248  66.975  1.00  0.00    -0.087 A  
HETATM    6  N   UNL     1      -6.975   5.974  67.409  1.00  0.00    -0.067 NA 
HETATM    7  C   UNL     1      -6.813   5.804  68.739  1.00  0.00    -0.066 A  
ENDROOT
BRANCH   4   8
HETATM    8  C   UNL     1      -7.301   9.735  67.177  1.00  0.00    -0.087 C  
BRANCH   8   9
HETATM    9  N   UNL     1      -8.671  10.029  66.708  1.00  0.00    -0.129 NA 
HETATM   10  C   UNL     1      -9.680  10.042  67.788  1.00  0.00    -0.150 C  
HETATM   11  C   UNL     1      -9.489  11.178  68.801  1.00  0.00    -0.173 C  
HETATM   12  C   UNL     1      -9.628  12.519  68.092  1.00  0.00    -0.215 C  
HETATM   13  C   UNL     1     -10.513  13.498  68.441  1.00  0.00    -0.252 C  
HETATM   14  C   UNL     1      -8.624  12.585  66.941  1.00  0.00    -0.158 C  
HETATM   15  C   UNL     1     -10.515  14.781  67.695  1.00  0.00    -0.254 A  
HETATM   16  C   UNL     1      -8.711  11.343  66.018  1.00  0.00    -0.131 C  
HETATM   17  C   UNL     1     -11.007  14.847  66.385  1.00  0.00    -0.336 A  
HETATM   18  C   UNL     1     -11.015  16.064  65.695  1.00  0.00    -0.175 A  
HETATM   19  C   UNL     1     -10.550  17.216  66.323  1.00  0.00    -0.185 A  
HETATM   20  C   UNL     1     -10.082  17.168  67.637  1.00  0.00    -0.305 A  
HETATM   21 CL   UNL     1     -10.568  18.716  65.481  1.00  0.00    -0.220 Cl 
HETATM   22  C   UNL     1     -10.067  15.951  68.335  1.00  0.00    -0.223 A  
HETATM   23  C   UNL     1      -9.619  15.888  69.773  1.00  0.00    -0.084 C  
HETATM   24  C   UNL     1     -10.794  15.619  70.717  1.00  0.00    -0.275 C  
HETATM   25  C   UNL     1     -11.500  14.280  70.657  1.00  0.00    -0.125 A  
HETATM   26  C   UNL     1     -11.413  13.336  69.624  1.00  0.00    -0.198 A  
HETATM   27  N   UNL     1     -12.159  12.197  69.615  1.00  0.00    -0.256 NA 
HETATM   28  C   UNL     1     -12.951  11.940  70.676  1.00  0.00     0.158 A  
HETATM   29  C   UNL     1     -13.081  12.790  71.751  1.00  0.00    -0.455 A  
HETATM   30  C   UNL     1     -12.364  13.980  71.728  1.00  0.00    -0.268 A  
ENDBRANCH   8   9
ENDBRANCH   4   8
TORSDOF 2
ENDMDL
MODEL       85
REMARK 921   NORMALIZED FREE ENERGY PREDICTED BY IDOCK:   -4.46 KCAL/MOL
REMARK 922        TOTAL FREE ENERGY PREDICTED BY IDOCK:   -5.38 KCAL/MOL
REMARK 923 INTER-LIGAND FREE ENERGY PREDICTED BY IDOCK:   -6.23 KCAL/MOL
REMARK 924 INTRA-LIGAND FREE ENERGY PREDICTED BY IDOCK:    0.85 KCAL/MOL
REMARK 927      BINDING AFFINITY PREDICTED BY RF-SCORE:    0.00 PKD
ROOT
HETATM    1  C   UNL     1      -5.381  21.089  71.652  1.00  0.00     0.080 C  
HETATM    2  C   UNL     1      -5.623  19.736  71.068  1.00  0.00    -0.312 A  
HETATM    3  C   UNL     1      -6.359  19.553  69.891  1.00  0.00    -0.327 A  
HETATM    4  C   UNL     1      -6.540  18.271  69.363  1.00  0.00    -0.213 A  
HETATM    5  C   UNL     1      -5.980  17.213  70.080  1.00  0.00    -0.183 A  
HETATM    6  N   UNL     1      -5.284  17.342  71.231  1.00  0.00    -0.349 NA 
HETATM    7  C   UNL     1      -5.126  18.599  71.699  1.00  0.00    -0.167 A  
ENDROOT
BRANCH   4   8
HETATM    8  C   UNL     1      -7.387  17.960  68.148  1.00  0.00    -0.241 C  
BRANCH   8   9
HETATM    9  N   UNL     1      -6.897  16.915  67.226  1.00  0.00    -0.150 NA 
HETATM   10  C   UNL     1      -6.488  15.667  67.905  1.00  0.00    -0.149 C  
HETATM   11  C   UNL     1      -7.647  14.918  68.576  1.00  0.00    -0.121 C  
HETATM   12  C   UNL     1      -8.660  14.498  67.519  1.00  0.00    -0.198 C  
HETATM   13  C   UNL     1      -9.076  13.216  67.304  1.00  0.00    -0.217 C  
HETATM   14  C   UNL     1      -9.128  15.736  66.753  1.00  0.00    -0.276 C  
HETATM   15  C   UNL     1     -10.106  12.947  66.269  1.00  0.00    -0.281 A  
HETATM   16  C   UNL     1      -7.940  16.579  66.224  1.00  0.00    -0.272 C  
HETATM   17  C   UNL     1      -9.797  13.043  64.906  1.00  0.00    -0.048 A  
HETATM   18  C   UNL     1     -10.772  12.775  63.941  1.00  0.00    -0.443 A  
HETATM   19  C   UNL     1     -12.051  12.393  64.339  1.00  0.00    -0.426 A  
HETATM   20  C   UNL     1     -12.364  12.268  65.693  1.00  0.00    -0.032 A  
HETATM   21 CL   UNL     1     -13.250  12.053  63.153  1.00  0.00     0.012 Cl 
HETATM   22  C   UNL     1     -11.392  12.539  66.668  1.00  0.00    -0.389 A  
HETATM   23  C   UNL     1     -11.693  12.355  68.135  1.00  0.00    -0.408 C  
HETATM   24  C   UNL     1     -10.946  11.152  68.716  1.00  0.00    -0.268 C  
HETATM   25  C   UNL     1      -9.435  11.196  68.816  1.00  0.00    -0.173 A  
HETATM   26  C   UNL     1      -8.581  12.092  68.157  1.00  0.00    -0.177 A  
HETATM   27  N   UNL     1      -7.225  11.996  68.236  1.00  0.00    -0.083 NA 
HETATM   28  C   UNL     1      -6.695  11.050  69.036  1.00  0.00    -0.074 A  
HETATM   29  C   UNL     1      -7.450  10.143  69.746  1.00  0.00    -0.166 A  
HETATM   30  C   UNL     1      -8.832  10.207  69.615  1.00  0.00    -0.184 A  
ENDBRANCH   8   9
ENDBRANCH   4   8
TORSDOF 2
ENDMDL
MODEL       86
REMARK 921   NORMALIZED FREE ENERGY PREDICTED BY IDOCK:   -4.44 KCAL/MOL
REMARK 922        TOTAL FREE ENERGY PREDICTED BY IDOCK:   -5.36 KCAL/MOL
REMARK 923 INTER-LIGAND FREE ENERGY PREDICTED BY IDOCK:   -4.91 KCAL/MOL
REMARK 924 INTRA-LIGAND FREE ENERGY PREDICTED BY IDOCK:   -0.45 KCAL/MOL
REMARK 927      BINDING AFFINITY PREDICTED BY RF-SCORE:    0.00 PKD
ROOT
HETATM    1  C   UNL     1      -5.351   2.369  66.535  1.00  0.00    -0.012 C  
HETATM    2  C   UNL     1      -6.766   2.476  67.002  1.00  0.00    -0.040 A  
HETATM    3  C   UNL     1      -7.586   3.558  66.657  1.00  0.00    -0.080 A  
HETATM    4  C   UNL     1      -8.913   3.606  67.094  1.00  0.00    -0.162 A  
HETATM    5  C   UNL     1      -9.346   2.552  67.899  1.00  0.00    -0.191 A  
HETATM    6  N   UNL     1      -8.582   1.503  68.276  1.00  0.00    -0.060 NA 
HETATM    7  C   UNL     1      -7.311   1.492  67.823  1.00  0.00    -0.046 A  
ENDROOT
BRANCH   4   8
HETATM    8  C   UNL     1      -9.851   4.767  66.847  1.00  0.00    -0.205 C  
BRANCH   8   9
HETATM    9  N   UNL     1     -10.356   5.497  68.028  1.00  0.00    -0.188 NA 
HETATM   10  C   UNL     1      -9.291   5.957  68.944  1.00  0.00    -0.126 C  
HETATM   11  C   UNL     1      -8.370   7.024  68.338  1.00  0.00    -0.124 C  
HETATM   12  C   UNL     1      -9.186   8.265  67.999  1.00  0.00    -0.142 C  
HETATM   13  C   UNL     1      -8.925   9.521  68.465  1.00  0.00    -0.128 C  
HETATM   14  C   UNL     1     -10.327   7.874  67.060  1.00  0.00    -0.411 C  
HETATM   15  C   UNL     1      -9.772  10.656  68.020  1.00  0.00    -0.170 A  
HETATM   16  C   UNL     1     -11.149   6.679  67.605  1.00  0.00    -0.271 C  
HETATM   17  C   UNL     1     -11.088  10.792  68.480  1.00  0.00    -0.317 A  
HETATM   18  C   UNL     1     -11.872  11.872  68.062  1.00  0.00    -0.323 A  
HETATM   19  C   UNL     1     -11.333  12.825  67.202  1.00  0.00    -0.314 A  
HETATM   20  C   UNL     1     -10.015  12.715  66.758  1.00  0.00    -0.237 A  
HETATM   21 CL   UNL     1     -12.293  14.160  66.696  1.00  0.00    -0.456 Cl 
HETATM   22  C   UNL     1      -9.222  11.632  67.168  1.00  0.00    -0.176 A  
HETATM   23  C   UNL     1      -7.779  11.525  66.746  1.00  0.00    -0.136 C  
HETATM   24  C   UNL     1      -6.829  11.772  67.922  1.00  0.00    -0.077 C  
HETATM   25  C   UNL     1      -6.789  10.777  69.063  1.00  0.00    -0.075 A  
HETATM   26  C   UNL     1      -7.742   9.787  69.341  1.00  0.00    -0.109 A  
HETATM   27  N   UNL     1      -7.668   8.996  70.447  1.00  0.00    -0.093 NA 
HETATM   28  C   UNL     1      -6.599   9.126  71.258  1.00  0.00    -0.080 A  
HETATM   29  C   UNL     1      -5.596  10.047  71.053  1.00  0.00    -0.085 A  
HETATM   30  C   UNL     1      -5.707  10.892  69.956  1.00  0.00    -0.077 A  
ENDBRANCH   8   9
ENDBRANCH   4   8
TORSDOF 2
ENDMDL
MODEL       87
REMARK 921   NORMALIZED FREE ENERGY PREDICTED BY IDOCK:   -4.42 KCAL/MOL
REMARK 922        TOTAL FREE ENERGY PREDICTED BY IDOCK:   -5.34 KCAL/MOL
REMARK 923 INTER-LIGAND FREE ENERGY PREDICTED BY IDOCK:   -5.05 KCAL/MOL
REMARK 924 INTRA-LIGAND FREE ENERGY PREDICTED BY IDOCK:   -0.29 KCAL/MOL
REMARK 927      BINDING AFFINITY PREDICTED BY RF-SCORE:    0.00 PKD
ROOT
HETATM    1  C   UNL     1     -11.135   2.305  62.829  1.00  0.00    -0.220 C  
HETATM    2  C   UNL     1     -10.218   2.739  63.925  1.00  0.00    -0.140 A  
HETATM    3  C   UNL     1     -10.181   4.061  64.387  1.00  0.00    -0.210 A  
HETATM    4  C   UNL     1      -9.327   4.420  65.434  1.00  0.00    -0.164 A  
HETATM    5  C   UNL     1      -8.514   3.412  65.953  1.00  0.00    -0.110 A  
HETATM    6  N   UNL     1      -8.500   2.132  65.522  1.00  0.00    -0.093 NA 
HETATM    7  C   UNL     1      -9.348   1.827  64.516  1.00  0.00    -0.129 A  
ENDROOT
BRANCH   4   8
HETATM    8  C   UNL     1      -9.152   5.833  65.946  1.00  0.00    -0.137 C  
BRANCH   8   9
HETATM    9  N   UNL     1      -9.718   6.151  67.273  1.00  0.00    -0.123 NA 
HETATM   10  C   UNL     1      -8.695   6.392  68.313  1.00  0.00    -0.116 C  
HETATM   11  C   UNL     1      -7.848   7.648  68.070  1.00  0.00    -0.121 C  
HETATM   12  C   UNL     1      -8.747   8.877  68.084  1.00  0.00    -0.134 C  
HETATM   13  C   UNL     1      -8.580   9.956  68.903  1.00  0.00    -0.135 C  
HETATM   14  C   UNL     1      -9.851   8.704  67.040  1.00  0.00    -0.284 C  
HETATM   15  C   UNL     1      -9.502  11.114  68.783  1.00  0.00    -0.173 A  
HETATM   16  C   UNL     1     -10.589   7.350  67.191  1.00  0.00    -0.342 C  
HETATM   17  C   UNL     1     -10.828  11.023  69.226  1.00  0.00    -0.285 A  
HETATM   18  C   UNL     1     -11.684  12.123  69.119  1.00  0.00    -0.384 A  
HETATM   19  C   UNL     1     -11.208  13.319  68.588  1.00  0.00    -0.274 A  
HETATM   20  C   UNL     1      -9.882  13.430  68.169  1.00  0.00    -0.234 A  
HETATM   21 CL   UNL     1     -12.256  14.678  68.466  1.00  0.00    -0.210 Cl 
HETATM   22  C   UNL     1      -9.017  12.330  68.269  1.00  0.00    -0.182 A  
HETATM   23  C   UNL     1      -7.566  12.446  67.875  1.00  0.00    -0.130 C  
HETATM   24  C   UNL     1      -6.646  12.401  69.098  1.00  0.00    -0.099 C  
HETATM   25  C   UNL     1      -6.544  11.121  69.901  1.00  0.00    -0.129 A  
HETATM   26  C   UNL     1      -7.427  10.032  69.851  1.00  0.00    -0.167 A  
HETATM   27  N   UNL     1      -7.305   8.959  70.681  1.00  0.00    -0.068 NA 
HETATM   28  C   UNL     1      -6.254   8.916  71.525  1.00  0.00    -0.069 A  
HETATM   29  C   UNL     1      -5.318   9.921  71.625  1.00  0.00    -0.064 A  
HETATM   30  C   UNL     1      -5.480  11.041  70.819  1.00  0.00    -0.124 A  
ENDBRANCH   8   9
ENDBRANCH   4   8
TORSDOF 2
ENDMDL
MODEL       88
REMARK 921   NORMALIZED FREE ENERGY PREDICTED BY IDOCK:   -4.33 KCAL/MOL
REMARK 922        TOTAL FREE ENERGY PREDICTED BY IDOCK:   -5.23 KCAL/MOL
REMARK 923 INTER-LIGAND FREE ENERGY PREDICTED BY IDOCK:   -4.84 KCAL/MOL
REMARK 924 INTRA-LIGAND FREE ENERGY PREDICTED BY IDOCK:   -0.40 KCAL/MOL
REMARK 927      BINDING AFFINITY PREDICTED BY RF-SCORE:    0.00 PKD
ROOT
HETATM    1  C   UNL     1      -6.560   1.854  69.798  1.00  0.00    -0.029 C  
HETATM    2  C   UNL     1      -7.677   2.524  70.529  1.00  0.00    -0.043 A  
HETATM    3  C   UNL     1      -8.529   3.445  69.908  1.00  0.00    -0.091 A  
HETATM    4  C   UNL     1      -9.579   4.030  70.622  1.00  0.00    -0.260 A  
HETATM    5  C   UNL     1      -9.702   3.668  71.964  1.00  0.00    -0.168 A  
HETATM    6  N   UNL     1      -8.889   2.803  72.608  1.00  0.00    -0.074 NA 
HETATM    7  C   UNL     1      -7.894   2.255  71.878  1.00  0.00    -0.045 A  
ENDROOT
BRANCH   4   8
HETATM    8  C   UNL     1     -10.498   5.096  70.067  1.00  0.00    -0.235 C  
BRANCH   8   9
HETATM    9  N   UNL     1     -10.610   6.360  70.825  1.00  0.00    -0.228 NA 
HETATM   10  C   UNL     1      -9.311   7.021  71.074  1.00  0.00    -0.159 C  
HETATM   11  C   UNL     1      -8.618   7.526  69.802  1.00  0.00    -0.140 C  
HETATM   12  C   UNL     1      -9.493   8.577  69.132  1.00  0.00    -0.154 C  
HETATM   13  C   UNL     1      -9.095   9.848  68.834  1.00  0.00    -0.156 C  
HETATM   14  C   UNL     1     -10.871   7.978  68.850  1.00  0.00    -0.001 C  
HETATM   15  C   UNL     1     -10.033  10.763  68.135  1.00  0.00    -0.176 A  
HETATM   16  C   UNL     1     -11.489   7.317  70.107  1.00  0.00    -0.165 C  
HETATM   17  C   UNL     1     -11.141  11.300  68.802  1.00  0.00    -0.288 A  
HETATM   18  C   UNL     1     -12.011  12.169  68.137  1.00  0.00    -0.242 A  
HETATM   19  C   UNL     1     -11.761  12.517  66.812  1.00  0.00    -0.384 A  
HETATM   20  C   UNL     1     -10.645  12.010  66.145  1.00  0.00    -0.298 A  
HETATM   21 CL   UNL     1     -12.824  13.595  65.995  1.00  0.00    -0.353 Cl 
HETATM   22  C   UNL     1      -9.770  11.133  66.803  1.00  0.00    -0.220 A  
HETATM   23  C   UNL     1      -8.528  10.619  66.119  1.00  0.00    -0.159 C  
HETATM   24  C   UNL     1      -7.260  11.233  66.719  1.00  0.00    -0.142 C  
HETATM   25  C   UNL     1      -6.873  10.890  68.142  1.00  0.00    -0.067 A  
HETATM   26  C   UNL     1      -7.698  10.304  69.113  1.00  0.00    -0.119 A  
HETATM   27  N   UNL     1      -7.289  10.117  70.399  1.00  0.00    -0.273 NA 
HETATM   28  C   UNL     1      -6.020  10.440  70.722  1.00  0.00    -0.080 A  
HETATM   29  C   UNL     1      -5.126  10.992  69.832  1.00  0.00    -0.043 A  
HETATM   30  C   UNL     1      -5.567  11.237  68.537  1.00  0.00    -0.042 A  
ENDBRANCH   8   9
ENDBRANCH   4   8
TORSDOF 2
ENDMDL
MODEL       89
REMARK 921   NORMALIZED FREE ENERGY PREDICTED BY IDOCK:   -4.30 KCAL/MOL
REMARK 922        TOTAL FREE ENERGY PREDICTED BY IDOCK:   -5.20 KCAL/MOL
REMARK 923 INTER-LIGAND FREE ENERGY PREDICTED BY IDOCK:   -4.97 KCAL/MOL
REMARK 924 INTRA-LIGAND FREE ENERGY PREDICTED BY IDOCK:   -0.22 KCAL/MOL
REMARK 927      BINDING AFFINITY PREDICTED BY RF-SCORE:    0.00 PKD
ROOT
HETATM    1  C   UNL     1      -7.894   6.378  62.656  1.00  0.00    -0.099 C  
HETATM    2  C   UNL     1      -7.735   5.028  63.273  1.00  0.00    -0.070 A  
HETATM    3  C   UNL     1      -7.960   4.800  64.637  1.00  0.00    -0.099 A  
HETATM    4  C   UNL     1      -7.826   3.514  65.169  1.00  0.00    -0.086 A  
HETATM    5  C   UNL     1      -7.436   2.507  64.285  1.00  0.00    -0.063 A  
HETATM    6  N   UNL     1      -7.186   2.688  62.970  1.00  0.00    -0.046 NA 
HETATM    7  C   UNL     1      -7.337   3.943  62.496  1.00  0.00    -0.044 A  
ENDROOT
BRANCH   4   8
HETATM    8  C   UNL     1      -7.963   3.181  66.639  1.00  0.00    -0.080 C  
BRANCH   8   9
HETATM    9  N   UNL     1      -9.331   3.074  67.188  1.00  0.00    -0.176 NA 
HETATM   10  C   UNL     1      -9.400   2.350  68.475  1.00  0.00    -0.192 C  
HETATM   11  C   UNL     1      -8.698   3.073  69.632  1.00  0.00    -0.130 C  
HETATM   12  C   UNL     1      -9.375   4.415  69.877  1.00  0.00    -0.225 C  
HETATM   13  C   UNL     1      -9.904   4.815  71.070  1.00  0.00    -0.267 C  
HETATM   14  C   UNL     1      -9.362   5.229  68.582  1.00  0.00    -0.155 C  
HETATM   15  C   UNL     1     -10.497   6.171  71.189  1.00  0.00    -0.281 A  
HETATM   16  C   UNL     1      -9.918   4.424  67.381  1.00  0.00    -0.094 C  
HETATM   17  C   UNL     1     -11.722   6.473  70.580  1.00  0.00    -0.438 A  
HETATM   18  C   UNL     1     -12.277   7.750  70.708  1.00  0.00    -0.076 A  
HETATM   19  C   UNL     1     -11.616   8.717  71.461  1.00  0.00    -0.303 A  
HETATM   20  C   UNL     1     -10.409   8.420  72.095  1.00  0.00    -0.397 A  
HETATM   21 CL   UNL     1     -12.302  10.286  71.630  1.00  0.00    -0.477 Cl 
HETATM   22  C   UNL     1      -9.843   7.142  71.968  1.00  0.00    -0.174 A  
HETATM   23  C   UNL     1      -8.569   6.783  72.690  1.00  0.00    -0.128 C  
HETATM   24  C   UNL     1      -8.829   5.798  73.833  1.00  0.00    -0.126 C  
HETATM   25  C   UNL     1      -9.289   4.392  73.508  1.00  0.00    -0.122 A  
HETATM   26  C   UNL     1      -9.810   3.946  72.284  1.00  0.00    -0.162 A  
HETATM   27  N   UNL     1     -10.285   2.682  72.113  1.00  0.00    -0.138 NA 
HETATM   28  C   UNL     1     -10.179   1.812  73.138  1.00  0.00    -0.105 A  
HETATM   29  C   UNL     1      -9.656   2.147  74.368  1.00  0.00    -0.111 A  
HETATM   30  C   UNL     1      -9.228   3.455  74.556  1.00  0.00    -0.108 A  
ENDBRANCH   8   9
ENDBRANCH   4   8
TORSDOF 2
ENDMDL
MODEL       90
REMARK 921   NORMALIZED FREE ENERGY PREDICTED BY IDOCK:   -4.22 KCAL/MOL
REMARK 922        TOTAL FREE ENERGY PREDICTED BY IDOCK:   -5.11 KCAL/MOL
REMARK 923 INTER-LIGAND FREE ENERGY PREDICTED BY IDOCK:   -5.04 KCAL/MOL
REMARK 924 INTRA-LIGAND FREE ENERGY PREDICTED BY IDOCK:   -0.08 KCAL/MOL
REMARK 927      BINDING AFFINITY PREDICTED BY RF-SCORE:    0.00 PKD
ROOT
HETATM    1  C   UNL     1     -11.403  16.387  70.195  1.00  0.00    -0.202 C  
HETATM    2  C   UNL     1     -12.287  15.413  70.902  1.00  0.00    -0.452 A  
HETATM    3  C   UNL     1     -11.902  14.086  71.130  1.00  0.00    -0.134 A  
HETATM    4  C   UNL     1     -12.749  13.213  71.819  1.00  0.00    -0.270 A  
HETATM    5  C   UNL     1     -13.980  13.727  72.229  1.00  0.00    -0.573 A  
HETATM    6  N   UNL     1     -14.400  14.992  72.009  1.00  0.00    -0.534 NA 
HETATM    7  C   UNL     1     -13.547  15.803  71.348  1.00  0.00    -0.125 A  
ENDROOT
BRANCH   4   8
HETATM    8  C   UNL     1     -12.462  11.744  72.041  1.00  0.00     0.461 C  
BRANCH   8   9
HETATM    9  N   UNL     1     -12.919  10.797  71.002  1.00  0.00    -0.360 NA 
HETATM   10  C   UNL     1     -12.783  11.316  69.624  1.00  0.00     0.174 C  
HETATM   11  C   UNL     1     -11.330  11.528  69.182  1.00  0.00    -0.351 C  
HETATM   12  C   UNL     1     -10.597  10.192  69.193  1.00  0.00    -0.247 C  
HETATM   13  C   UNL     1      -9.951   9.648  68.120  1.00  0.00    -0.185 C  
HETATM   14  C   UNL     1     -10.700   9.574  70.588  1.00  0.00    -0.375 C  
HETATM   15  C   UNL     1      -9.234   8.358  68.277  1.00  0.00    -0.136 A  
HETATM   16  C   UNL     1     -12.163   9.523  71.096  1.00  0.00    -0.338 C  
HETATM   17  C   UNL     1      -9.940   7.157  68.422  1.00  0.00    -0.166 A  
HETATM   18  C   UNL     1      -9.254   5.947  68.558  1.00  0.00    -0.119 A  
HETATM   19  C   UNL     1      -7.862   5.936  68.528  1.00  0.00    -0.102 A  
HETATM   20  C   UNL     1      -7.147   7.122  68.357  1.00  0.00    -0.085 A  
HETATM   21 CL   UNL     1      -7.014   4.446  68.683  1.00  0.00    -0.051 Cl 
HETATM   22  C   UNL     1      -7.828   8.341  68.225  1.00  0.00    -0.118 A  
HETATM   23  C   UNL     1      -7.077   9.626  67.982  1.00  0.00    -0.080 C  
HETATM   24  C   UNL     1      -7.293  10.144  66.558  1.00  0.00    -0.108 C  
HETATM   25  C   UNL     1      -8.669  10.624  66.146  1.00  0.00    -0.178 A  
HETATM   26  C   UNL     1      -9.875  10.376  66.816  1.00  0.00    -0.195 A  
HETATM   27  N   UNL     1     -11.079  10.772  66.319  1.00  0.00    -0.002 NA 
HETATM   28  C   UNL     1     -11.097  11.491  65.178  1.00  0.00    -0.194 A  
HETATM   29  C   UNL     1      -9.964  11.811  64.464  1.00  0.00    -0.273 A  
HETATM   30  C   UNL     1      -8.744  11.354  64.944  1.00  0.00     0.280 A  
ENDBRANCH   8   9
ENDBRANCH   4   8
TORSDOF 2
ENDMDL
MODEL       91
REMARK 921   NORMALIZED FREE ENERGY PREDICTED BY IDOCK:   -4.22 KCAL/MOL
REMARK 922        TOTAL FREE ENERGY PREDICTED BY IDOCK:   -5.11 KCAL/MOL
REMARK 923 INTER-LIGAND FREE ENERGY PREDICTED BY IDOCK:   -5.38 KCAL/MOL
REMARK 924 INTRA-LIGAND FREE ENERGY PREDICTED BY IDOCK:    0.27 KCAL/MOL
REMARK 927      BINDING AFFINITY PREDICTED BY RF-SCORE:    0.00 PKD
ROOT
HETATM    1  C   UNL     1      -8.648  11.211  62.369  1.00  0.00    -0.307 C  
HETATM    2  C   UNL     1      -8.459  10.106  63.356  1.00  0.00    -0.185 A  
HETATM    3  C   UNL     1      -9.344   9.898  64.421  1.00  0.00    -0.326 A  
HETATM    4  C   UNL     1      -9.146   8.835  65.307  1.00  0.00    -0.156 A  
HETATM    5  C   UNL     1      -8.024   8.036  65.086  1.00  0.00    -0.127 A  
HETATM    6  N   UNL     1      -7.132   8.215  64.087  1.00  0.00    -0.080 NA 
HETATM    7  C   UNL     1      -7.368   9.248  63.250  1.00  0.00    -0.095 A  
ENDROOT
BRANCH   4   8
HETATM    8  C   UNL     1      -9.994   8.577  66.534  1.00  0.00    -0.280 C  
BRANCH   8   9
HETATM    9  N   UNL     1      -9.485   9.071  67.830  1.00  0.00    -0.140 NA 
HETATM   10  C   UNL     1      -8.395  10.063  67.702  1.00  0.00    -0.114 C  
HETATM   11  C   UNL     1      -8.833  11.385  67.058  1.00  0.00    -0.168 C  
HETATM   12  C   UNL     1      -9.892  12.047  67.930  1.00  0.00    -0.196 C  
HETATM   13  C   UNL     1      -9.802  13.309  68.444  1.00  0.00    -0.218 C  
HETATM   14  C   UNL     1     -11.058  11.078  68.128  1.00  0.00    -0.329 C  
HETATM   15  C   UNL     1     -10.928  13.854  69.243  1.00  0.00    -0.222 A  
HETATM   16  C   UNL     1     -10.583   9.686  68.617  1.00  0.00    -0.217 C  
HETATM   17  C   UNL     1     -11.187  13.380  70.535  1.00  0.00     0.742 A  
HETATM   18  C   UNL     1     -12.243  13.910  71.282  1.00  0.00    -0.353 A  
HETATM   19  C   UNL     1     -13.027  14.927  70.745  1.00  0.00    -0.365 A  
HETATM   20  C   UNL     1     -12.762  15.427  69.469  1.00  0.00     0.133 A  
HETATM   21 CL   UNL     1     -14.321  15.588  71.667  1.00  0.00    -0.565 Cl 
HETATM   22  C   UNL     1     -11.707  14.898  68.711  1.00  0.00    -0.353 A  
HETATM   23  C   UNL     1     -11.369  15.462  67.354  1.00  0.00    -0.243 C  
HETATM   24  C   UNL     1     -10.047  16.235  67.379  1.00  0.00    -0.260 C  
HETATM   25  C   UNL     1      -8.755  15.483  67.622  1.00  0.00    -0.183 A  
HETATM   26  C   UNL     1      -8.629  14.184  68.136  1.00  0.00    -0.175 A  
HETATM   27  N   UNL     1      -7.418  13.623  68.408  1.00  0.00    -0.115 NA 
HETATM   28  C   UNL     1      -6.305  14.319  68.099  1.00  0.00    -0.132 A  
HETATM   29  C   UNL     1      -6.326  15.588  67.564  1.00  0.00    -0.165 A  
HETATM   30  C   UNL     1      -7.563  16.179  67.345  1.00  0.00    -0.191 A  
ENDBRANCH   8   9
ENDBRANCH   4   8
TORSDOF 2
ENDMDL
MODEL       92
REMARK 921   NORMALIZED FREE ENERGY PREDICTED BY IDOCK:   -4.16 KCAL/MOL
REMARK 922        TOTAL FREE ENERGY PREDICTED BY IDOCK:   -5.05 KCAL/MOL
REMARK 923 INTER-LIGAND FREE ENERGY PREDICTED BY IDOCK:   -5.11 KCAL/MOL
REMARK 924 INTRA-LIGAND FREE ENERGY PREDICTED BY IDOCK:    0.06 KCAL/MOL
REMARK 927      BINDING AFFINITY PREDICTED BY RF-SCORE:    0.00 PKD
ROOT
HETATM    1  C   UNL     1     -12.046  16.401  73.174  1.00  0.00    -0.567 C  
HETATM    2  C   UNL     1     -12.302  15.327  72.169  1.00  0.00    -0.441 A  
HETATM    3  C   UNL     1     -12.069  15.514  70.801  1.00  0.00    -0.435 A  
HETATM    4  C   UNL     1     -12.297  14.473  69.896  1.00  0.00    -0.347 A  
HETATM    5  C   UNL     1     -12.787  13.278  70.426  1.00  0.00     0.085 A  
HETATM    6  N   UNL     1     -13.049  13.063  71.734  1.00  0.00    -0.400 NA 
HETATM    7  C   UNL     1     -12.805  14.092  72.573  1.00  0.00    -0.343 A  
ENDROOT
BRANCH   4   8
HETATM    8  C   UNL     1     -12.157  14.601  68.395  1.00  0.00    -0.188 C  
BRANCH   8   9
HETATM    9  N   UNL     1     -10.789  14.704  67.846  1.00  0.00    -0.254 NA 
HETATM   10  C   UNL     1      -9.739  14.226  68.770  1.00  0.00    -0.173 C  
HETATM   11  C   UNL     1      -9.805  12.721  69.059  1.00  0.00     0.285 C  
HETATM   12  C   UNL     1      -9.596  11.947  67.764  1.00  0.00    -0.190 C  
HETATM   13  C   UNL     1      -8.628  11.005  67.567  1.00  0.00    -0.128 C  
HETATM   14  C   UNL     1     -10.639  12.392  66.739  1.00  0.00    -0.250 C  
HETATM   15  C   UNL     1      -8.562  10.287  66.269  1.00  0.00    -0.144 A  
HETATM   16  C   UNL     1     -10.681  13.933  66.581  1.00  0.00    -0.281 C  
HETATM   17  C   UNL     1      -8.120  10.939  65.110  1.00  0.00     0.094 A  
HETATM   18  C   UNL     1      -8.050  10.250  63.896  1.00  0.00    -0.138 A  
HETATM   19  C   UNL     1      -8.403   8.904  63.845  1.00  0.00    -0.159 A  
HETATM   20  C   UNL     1      -8.819   8.236  64.998  1.00  0.00     0.026 A  
HETATM   21 CL   UNL     1      -8.308   8.050  62.354  1.00  0.00    -0.156 Cl 
HETATM   22  C   UNL     1      -8.896   8.921  66.219  1.00  0.00    -0.187 A  
HETATM   23  C   UNL     1      -9.289   8.204  67.487  1.00  0.00    -0.165 C  
HETATM   24  C   UNL     1      -8.099   8.052  68.439  1.00  0.00    -0.122 C  
HETATM   25  C   UNL     1      -7.497   9.288  69.074  1.00  0.00    -0.073 A  
HETATM   26  C   UNL     1      -7.695  10.616  68.669  1.00  0.00    -0.110 A  
HETATM   27  N   UNL     1      -7.036  11.659  69.245  1.00  0.00    -0.105 NA 
HETATM   28  C   UNL     1      -6.222  11.404  70.291  1.00  0.00    -0.106 A  
HETATM   29  C   UNL     1      -5.987  10.139  70.780  1.00  0.00    -0.093 A  
HETATM   30  C   UNL     1      -6.615   9.072  70.150  1.00  0.00    -0.045 A  
ENDBRANCH   8   9
ENDBRANCH   4   8
TORSDOF 2
ENDMDL
MODEL       93
REMARK 921   NORMALIZED FREE ENERGY PREDICTED BY IDOCK:   -4.15 KCAL/MOL
REMARK 922        TOTAL FREE ENERGY PREDICTED BY IDOCK:   -5.03 KCAL/MOL
REMARK 923 INTER-LIGAND FREE ENERGY PREDICTED BY IDOCK:   -4.97 KCAL/MOL
REMARK 924 INTRA-LIGAND FREE ENERGY PREDICTED BY IDOCK:   -0.07 KCAL/MOL
REMARK 927      BINDING AFFINITY PREDICTED BY RF-SCORE:    0.00 PKD
ROOT
HETATM    1  C   UNL     1     -12.605  13.915  63.260  1.00  0.00     0.543 C  
HETATM    2  C   UNL     1     -11.935  14.136  64.576  1.00  0.00    -0.476 A  
HETATM    3  C   UNL     1     -12.149  13.293  65.673  1.00  0.00    -0.488 A  
HETATM    4  C   UNL     1     -11.481  13.520  66.880  1.00  0.00    -0.374 A  
HETATM    5  C   UNL     1     -10.634  14.628  66.928  1.00  0.00    -0.281 A  
HETATM    6  N   UNL     1     -10.417  15.480  65.902  1.00  0.00    -0.322 NA 
HETATM    7  C   UNL     1     -11.076  15.217  64.753  1.00  0.00    -0.394 A  
ENDROOT
BRANCH   4   8
HETATM    8  C   UNL     1     -11.707  12.720  68.144  1.00  0.00    -0.345 C  
BRANCH   8   9
HETATM    9  N   UNL     1     -11.882  11.260  68.004  1.00  0.00    -0.624 NA 
HETATM   10  C   UNL     1     -11.030  10.657  66.957  1.00  0.00    -0.208 C  
HETATM   11  C   UNL     1      -9.528  10.723  67.266  1.00  0.00    -0.177 C  
HETATM   12  C   UNL     1      -9.237   9.938  68.538  1.00  0.00    -0.136 C  
HETATM   13  C   UNL     1      -8.346   8.908  68.631  1.00  0.00    -0.124 C  
HETATM   14  C   UNL     1     -10.095  10.490  69.677  1.00  0.00    -0.177 C  
HETATM   15  C   UNL     1      -8.121   8.254  69.945  1.00  0.00    -0.117 A  
HETATM   16  C   UNL     1     -11.593  10.578  69.290  1.00  0.00    -0.236 C  
HETATM   17  C   UNL     1      -9.096   7.420  70.508  1.00  0.00    -0.157 A  
HETATM   18  C   UNL     1      -8.868   6.801  71.741  1.00  0.00    -0.128 A  
HETATM   19  C   UNL     1      -7.657   6.999  72.399  1.00  0.00    -0.090 A  
HETATM   20  C   UNL     1      -6.667   7.805  71.835  1.00  0.00    -0.056 A  
HETATM   21 CL   UNL     1      -7.369   6.229  73.911  1.00  0.00    -0.087 Cl 
HETATM   22  C   UNL     1      -6.890   8.434  70.602  1.00  0.00    -0.039 A  
HETATM   23  C   UNL     1      -5.812   9.263  69.949  1.00  0.00    -0.035 C  
HETATM   24  C   UNL     1      -5.242   8.569  68.708  1.00  0.00    -0.033 C  
HETATM   25  C   UNL     1      -6.127   8.380  67.494  1.00  0.00    -0.052 A  
HETATM   26  C   UNL     1      -7.525   8.491  67.454  1.00  0.00    -0.093 A  
HETATM   27  N   UNL     1      -8.245   8.211  66.332  1.00  0.00    -0.105 NA 
HETATM   28  C   UNL     1      -7.578   7.889  65.205  1.00  0.00    -0.090 A  
HETATM   29  C   UNL     1      -6.207   7.784  65.137  1.00  0.00    -0.038 A  
HETATM   30  C   UNL     1      -5.480   8.012  66.299  1.00  0.00    -0.028 A  
ENDBRANCH   8   9
ENDBRANCH   4   8
TORSDOF 2
ENDMDL
MODEL       94
REMARK 921   NORMALIZED FREE ENERGY PREDICTED BY IDOCK:   -4.15 KCAL/MOL
REMARK 922        TOTAL FREE ENERGY PREDICTED BY IDOCK:   -5.03 KCAL/MOL
REMARK 923 INTER-LIGAND FREE ENERGY PREDICTED BY IDOCK:   -4.68 KCAL/MOL
REMARK 924 INTRA-LIGAND FREE ENERGY PREDICTED BY IDOCK:   -0.35 KCAL/MOL
REMARK 927      BINDING AFFINITY PREDICTED BY RF-SCORE:    0.00 PKD
ROOT
HETATM    1  C   UNL     1     -11.448  12.269  63.761  1.00  0.00    -0.545 C  
HETATM    2  C   UNL     1     -11.412  11.932  65.215  1.00  0.00    -0.313 A  
HETATM    3  C   UNL     1     -10.691  10.838  65.709  1.00  0.00    -0.141 A  
HETATM    4  C   UNL     1     -10.661  10.572  67.081  1.00  0.00    -0.323 A  
HETATM    5  C   UNL     1     -11.400  11.427  67.901  1.00  0.00    -0.303 A  
HETATM    6  N   UNL     1     -12.128  12.478  67.464  1.00  0.00    -0.444 NA 
HETATM    7  C   UNL     1     -12.120  12.703  66.133  1.00  0.00    -0.333 A  
ENDROOT
BRANCH   4   8
HETATM    8  C   UNL     1      -9.984   9.371  67.704  1.00  0.00    -0.190 C  
BRANCH   8   9
HETATM    9  N   UNL     1     -10.802   8.156  67.902  1.00  0.00    -0.050 NA 
HETATM   10  C   UNL     1     -10.813   7.250  66.733  1.00  0.00    -0.056 C  
HETATM   11  C   UNL     1      -9.450   6.615  66.428  1.00  0.00    -0.166 C  
HETATM   12  C   UNL     1      -9.013   5.758  67.609  1.00  0.00    -0.107 C  
HETATM   13  C   UNL     1      -8.695   4.433  67.536  1.00  0.00    -0.112 C  
HETATM   14  C   UNL     1      -8.988   6.620  68.872  1.00  0.00    -0.130 C  
HETATM   15  C   UNL     1      -8.237   3.723  68.757  1.00  0.00    -0.084 A  
HETATM   16  C   UNL     1     -10.316   7.392  69.078  1.00  0.00    -0.210 C  
HETATM   17  C   UNL     1      -9.136   3.418  69.788  1.00  0.00    -0.198 A  
HETATM   18  C   UNL     1      -8.696   2.739  70.928  1.00  0.00    -0.124 A  
HETATM   19  C   UNL     1      -7.363   2.347  71.027  1.00  0.00    -0.033 A  
HETATM   20  C   UNL     1      -6.465   2.621  69.995  1.00  0.00    -0.029 A  
HETATM   21 CL   UNL     1      -6.822   1.501  72.424  1.00  0.00    -0.018 Cl 
HETATM   22  C   UNL     1      -6.897   3.306  68.849  1.00  0.00    -0.045 A  
HETATM   23  C   UNL     1      -5.957   3.562  67.698  1.00  0.00    -0.027 C  
HETATM   24  C   UNL     1      -6.315   2.708  66.478  1.00  0.00    -0.025 C  
HETATM   25  C   UNL     1      -7.616   2.970  65.749  1.00  0.00    -0.073 A  
HETATM   26  C   UNL     1      -8.708   3.709  66.227  1.00  0.00    -0.120 A  
HETATM   27  N   UNL     1      -9.876   3.813  65.535  1.00  0.00    -0.151 NA 
HETATM   28  C   UNL     1      -9.951   3.243  64.315  1.00  0.00    -0.166 A  
HETATM   29  C   UNL     1      -8.924   2.523  63.747  1.00  0.00    -0.094 A  
HETATM   30  C   UNL     1      -7.756   2.370  64.483  1.00  0.00    -0.073 A  
ENDBRANCH   8   9
ENDBRANCH   4   8
TORSDOF 2
ENDMDL
MODEL       95
REMARK 921   NORMALIZED FREE ENERGY PREDICTED BY IDOCK:   -4.12 KCAL/MOL
REMARK 922        TOTAL FREE ENERGY PREDICTED BY IDOCK:   -5.00 KCAL/MOL
REMARK 923 INTER-LIGAND FREE ENERGY PREDICTED BY IDOCK:   -5.85 KCAL/MOL
REMARK 924 INTRA-LIGAND FREE ENERGY PREDICTED BY IDOCK:    0.84 KCAL/MOL
REMARK 927      BINDING AFFINITY PREDICTED BY RF-SCORE:    0.00 PKD
ROOT
HETATM    1  C   UNL     1     -11.752  16.372  72.085  1.00  0.00    -0.453 C  
HETATM    2  C   UNL     1     -12.501  15.081  72.049  1.00  0.00    -0.409 A  
HETATM    3  C   UNL     1     -12.067  13.987  71.289  1.00  0.00    -0.307 A  
HETATM    4  C   UNL     1     -12.783  12.787  71.305  1.00  0.00    -0.364 A  
HETATM    5  C   UNL     1     -13.942  12.759  72.082  1.00  0.00    -0.096 A  
HETATM    6  N   UNL     1     -14.409  13.796  72.810  1.00  0.00    -0.437 NA 
HETATM    7  C   UNL     1     -13.681  14.933  72.773  1.00  0.00    -0.401 A  
ENDROOT
BRANCH   4   8
HETATM    8  C   UNL     1     -12.446  11.581  70.455  1.00  0.00    -0.280 C  
BRANCH   8   9
HETATM    9  N   UNL     1     -12.442  11.761  68.989  1.00  0.00    -0.085 NA 
HETATM   10  C   UNL     1     -12.021  13.111  68.556  1.00  0.00    -0.289 C  
HETATM   11  C   UNL     1     -10.556  13.436  68.875  1.00  0.00    -0.181 C  
HETATM   12  C   UNL     1      -9.648  12.464  68.133  1.00  0.00    -0.218 C  
HETATM   13  C   UNL     1      -8.655  12.829  67.270  1.00  0.00    -0.197 C  
HETATM   14  C   UNL     1     -10.027  11.032  68.513  1.00  0.00    -0.198 C  
HETATM   15  C   UNL     1      -7.808  11.782  66.646  1.00  0.00    -0.043 A  
HETATM   16  C   UNL     1     -11.544  10.767  68.348  1.00  0.00    -0.239 C  
HETATM   17  C   UNL     1      -8.324  10.943  65.649  1.00  0.00    -0.105 A  
HETATM   18  C   UNL     1      -7.513   9.968  65.060  1.00  0.00    -0.139 A  
HETATM   19  C   UNL     1      -6.183   9.845  65.453  1.00  0.00    -0.087 A  
HETATM   20  C   UNL     1      -5.651  10.693  66.426  1.00  0.00    -0.080 A  
HETATM   21 CL   UNL     1      -5.181   8.653  64.722  1.00  0.00    -0.039 Cl 
HETATM   22  C   UNL     1      -6.458  11.671  67.025  1.00  0.00    -0.148 A  
HETATM   23  C   UNL     1      -5.888  12.634  68.036  1.00  0.00    -0.091 C  
HETATM   24  C   UNL     1      -5.788  14.053  67.469  1.00  0.00     0.098 C  
HETATM   25  C   UNL     1      -7.058  14.812  67.148  1.00  0.00     0.113 A  
HETATM   26  C   UNL     1      -8.345  14.270  67.018  1.00  0.00    -0.131 A  
HETATM   27  N   UNL     1      -9.415  15.020  66.635  1.00  0.00    -0.250 NA 
HETATM   28  C   UNL     1      -9.237  16.344  66.449  1.00  0.00    -0.302 A  
HETATM   29  C   UNL     1      -8.020  16.974  66.583  1.00  0.00    -0.302 A  
HETATM   30  C   UNL     1      -6.919  16.194  66.915  1.00  0.00    -0.187 A  
ENDBRANCH   8   9
ENDBRANCH   4   8
TORSDOF 2
ENDMDL
MODEL       96
REMARK 921   NORMALIZED FREE ENERGY PREDICTED BY IDOCK:   -4.04 KCAL/MOL
REMARK 922        TOTAL FREE ENERGY PREDICTED BY IDOCK:   -4.91 KCAL/MOL
REMARK 923 INTER-LIGAND FREE ENERGY PREDICTED BY IDOCK:   -4.51 KCAL/MOL
REMARK 924 INTRA-LIGAND FREE ENERGY PREDICTED BY IDOCK:   -0.39 KCAL/MOL
REMARK 927      BINDING AFFINITY PREDICTED BY RF-SCORE:    0.00 PKD
ROOT
HETATM    1  C   UNL     1      -9.314   5.083  62.396  1.00  0.00     0.054 C  
HETATM    2  C   UNL     1      -8.961   4.025  63.389  1.00  0.00    -0.115 A  
HETATM    3  C   UNL     1      -8.479   4.333  64.667  1.00  0.00    -0.117 A  
HETATM    4  C   UNL     1      -8.185   3.313  65.577  1.00  0.00    -0.097 A  
HETATM    5  C   UNL     1      -8.371   2.004  65.131  1.00  0.00    -0.085 A  
HETATM    6  N   UNL     1      -8.811   1.662  63.900  1.00  0.00    -0.088 NA 
HETATM    7  C   UNL     1      -9.091   2.679  63.058  1.00  0.00    -0.091 A  
ENDROOT
BRANCH   4   8
HETATM    8  C   UNL     1      -7.581   3.538  66.946  1.00  0.00    -0.079 C  
BRANCH   8   9
HETATM    9  N   UNL     1      -8.339   3.043  68.114  1.00  0.00    -0.076 NA 
HETATM   10  C   UNL     1      -7.558   3.033  69.369  1.00  0.00    -0.044 C  
HETATM   11  C   UNL     1      -7.169   4.431  69.868  1.00  0.00    -0.049 C  
HETATM   12  C   UNL     1      -8.430   5.229  70.174  1.00  0.00    -0.109 C  
HETATM   13  C   UNL     1      -8.714   5.806  71.378  1.00  0.00    -0.133 C  
HETATM   14  C   UNL     1      -9.310   5.277  68.925  1.00  0.00    -0.163 C  
HETATM   15  C   UNL     1      -9.959   6.600  71.532  1.00  0.00    -0.189 A  
HETATM   16  C   UNL     1      -9.555   3.868  68.329  1.00  0.00    -0.114 C  
HETATM   17  C   UNL     1     -11.210   5.970  71.574  1.00  0.00    -0.326 A  
HETATM   18  C   UNL     1     -12.375   6.726  71.731  1.00  0.00    -0.400 A  
HETATM   19  C   UNL     1     -12.288   8.109  71.866  1.00  0.00    -0.332 A  
HETATM   20  C   UNL     1     -11.046   8.746  71.852  1.00  0.00    -0.434 A  
HETATM   21 CL   UNL     1     -13.720   9.041  72.070  1.00  0.00    -0.476 Cl 
HETATM   22  C   UNL     1      -9.872   7.995  71.691  1.00  0.00    -0.223 A  
HETATM   23  C   UNL     1      -8.517   8.656  71.731  1.00  0.00    -0.221 C  
HETATM   24  C   UNL     1      -7.751   8.292  73.006  1.00  0.00    -0.180 C  
HETATM   25  C   UNL     1      -7.293   6.863  73.212  1.00  0.00    -0.074 A  
HETATM   26  C   UNL     1      -7.746   5.733  72.515  1.00  0.00    -0.102 A  
HETATM   27  N   UNL     1      -7.343   4.473  72.835  1.00  0.00    -0.081 NA 
HETATM   28  C   UNL     1      -6.420   4.321  73.807  1.00  0.00    -0.051 A  
HETATM   29  C   UNL     1      -5.895   5.370  74.527  1.00  0.00    -0.052 A  
HETATM   30  C   UNL     1      -6.353   6.649  74.238  1.00  0.00    -0.069 A  
ENDBRANCH   8   9
ENDBRANCH   4   8
TORSDOF 2
ENDMDL
MODEL       97
REMARK 921   NORMALIZED FREE ENERGY PREDICTED BY IDOCK:   -4.03 KCAL/MOL
REMARK 922        TOTAL FREE ENERGY PREDICTED BY IDOCK:   -4.90 KCAL/MOL
REMARK 923 INTER-LIGAND FREE ENERGY PREDICTED BY IDOCK:   -4.57 KCAL/MOL
REMARK 924 INTRA-LIGAND FREE ENERGY PREDICTED BY IDOCK:   -0.33 KCAL/MOL
REMARK 927      BINDING AFFINITY PREDICTED BY RF-SCORE:    0.00 PKD
ROOT
HETATM    1  C   UNL     1      -6.906   5.447  62.858  1.00  0.00    -0.033 C  
HETATM    2  C   UNL     1      -8.193   4.954  63.432  1.00  0.00    -0.110 A  
HETATM    3  C   UNL     1      -8.499   5.079  64.793  1.00  0.00    -0.148 A  
HETATM    4  C   UNL     1      -9.727   4.629  65.285  1.00  0.00    -0.149 A  
HETATM    5  C   UNL     1     -10.593   4.037  64.364  1.00  0.00    -0.186 A  
HETATM    6  N   UNL     1     -10.328   3.875  63.049  1.00  0.00    -0.191 NA 
HETATM    7  C   UNL     1      -9.135   4.333  62.615  1.00  0.00    -0.121 A  
ENDROOT
BRANCH   4   8
HETATM    8  C   UNL     1     -10.116   4.640  66.748  1.00  0.00    -0.213 C  
BRANCH   8   9
HETATM    9  N   UNL     1     -10.905   5.792  67.233  1.00  0.00    -0.255 NA 
HETATM   10  C   UNL     1     -11.131   5.784  68.694  1.00  0.00     0.013 C  
HETATM   11  C   UNL     1      -9.850   5.962  69.521  1.00  0.00    -0.216 C  
HETATM   12  C   UNL     1      -9.229   7.317  69.207  1.00  0.00    -0.144 C  
HETATM   13  C   UNL     1      -8.947   8.278  70.134  1.00  0.00    -0.142 C  
HETATM   14  C   UNL     1      -8.974   7.416  67.703  1.00  0.00    -0.126 C  
HETATM   15  C   UNL     1      -8.296   9.541  69.702  1.00  0.00    -0.155 A  
HETATM   16  C   UNL     1     -10.234   7.066  66.873  1.00  0.00    -0.248 C  
HETATM   17  C   UNL     1      -9.006  10.500  68.968  1.00  0.00    -0.183 A  
HETATM   18  C   UNL     1      -8.386  11.690  68.577  1.00  0.00    -0.140 A  
HETATM   19  C   UNL     1      -7.062  11.929  68.937  1.00  0.00    -0.110 A  
HETATM   20  C   UNL     1      -6.352  10.994  69.690  1.00  0.00    -0.106 A  
HETATM   21 CL   UNL     1      -6.300  13.398  68.466  1.00  0.00    -0.080 Cl 
HETATM   22  C   UNL     1      -6.966   9.795  70.083  1.00  0.00    -0.118 A  
HETATM   23  C   UNL     1      -6.235   8.796  70.945  1.00  0.00    -0.043 C  
HETATM   24  C   UNL     1      -6.811   8.749  72.363  1.00  0.00     0.016 C  
HETATM   25  C   UNL     1      -8.214   8.222  72.575  1.00  0.00    -0.224 A  
HETATM   26  C   UNL     1      -9.196   8.042  71.589  1.00  0.00    -0.150 A  
HETATM   27  N   UNL     1     -10.464   7.648  71.889  1.00  0.00    -0.211 NA 
HETATM   28  C   UNL     1     -10.757   7.351  73.172  1.00  0.00    -0.387 A  
HETATM   29  C   UNL     1      -9.854   7.467  74.205  1.00  0.00    -0.078 A  
HETATM   30  C   UNL     1      -8.579   7.926  73.902  1.00  0.00    -0.332 A  
ENDBRANCH   8   9
ENDBRANCH   4   8
TORSDOF 2
ENDMDL
MODEL       98
REMARK 921   NORMALIZED FREE ENERGY PREDICTED BY IDOCK:   -3.98 KCAL/MOL
REMARK 922        TOTAL FREE ENERGY PREDICTED BY IDOCK:   -4.85 KCAL/MOL
REMARK 923 INTER-LIGAND FREE ENERGY PREDICTED BY IDOCK:   -4.74 KCAL/MOL
REMARK 924 INTRA-LIGAND FREE ENERGY PREDICTED BY IDOCK:   -0.11 KCAL/MOL
REMARK 927      BINDING AFFINITY PREDICTED BY RF-SCORE:    0.00 PKD
ROOT
HETATM    1  C   UNL     1     -11.153  16.392  65.376  1.00  0.00    -0.055 C  
HETATM    2  C   UNL     1     -11.244  14.975  64.912  1.00  0.00    -0.423 A  
HETATM    3  C   UNL     1     -10.229  14.042  65.161  1.00  0.00    -0.396 A  
HETATM    4  C   UNL     1     -10.366  12.719  64.733  1.00  0.00    -0.345 A  
HETATM    5  C   UNL     1     -11.532  12.403  64.036  1.00  0.00    -0.408 A  
HETATM    6  N   UNL     1     -12.524  13.276  63.753  1.00  0.00    -0.711 NA 
HETATM    7  C   UNL     1     -12.355  14.541  64.194  1.00  0.00    -0.286 A  
ENDROOT
BRANCH   4   8
HETATM    8  C   UNL     1      -9.294  11.660  64.877  1.00  0.00    -0.008 C  
BRANCH   8   9
HETATM    9  N   UNL     1      -9.730  10.249  64.899  1.00  0.00    -0.298 NA 
HETATM   10  C   UNL     1      -8.617   9.284  65.031  1.00  0.00    -0.177 C  
HETATM   11  C   UNL     1      -7.884   9.365  66.376  1.00  0.00    -0.100 C  
HETATM   12  C   UNL     1      -8.853   9.031  67.503  1.00  0.00    -0.128 C  
HETATM   13  C   UNL     1      -8.667   8.042  68.425  1.00  0.00    -0.130 C  
HETATM   14  C   UNL     1     -10.051   9.978  67.431  1.00  0.00    -0.256 C  
HETATM   15  C   UNL     1      -9.669   7.850  69.503  1.00  0.00    -0.173 A  
HETATM   16  C   UNL     1     -10.680  10.018  66.016  1.00  0.00     0.148 C  
HETATM   17  C   UNL     1     -10.930   7.308  69.222  1.00  0.00    -0.121 A  
HETATM   18  C   UNL     1     -11.861   7.122  70.248  1.00  0.00    -0.178 A  
HETATM   19  C   UNL     1     -11.524   7.458  71.557  1.00  0.00    -0.263 A  
HETATM   20  C   UNL     1     -10.262   7.973  71.853  1.00  0.00    -0.275 A  
HETATM   21 CL   UNL     1     -12.665   7.219  72.822  1.00  0.00     0.492 Cl 
HETATM   22  C   UNL     1      -9.323   8.168  70.829  1.00  0.00    -0.174 A  
HETATM   23  C   UNL     1      -7.934   8.670  71.136  1.00  0.00    -0.164 C  
HETATM   24  C   UNL     1      -6.884   7.572  70.946  1.00  0.00    -0.047 C  
HETATM   25  C   UNL     1      -6.613   7.040  69.554  1.00  0.00    -0.045 A  
HETATM   26  C   UNL     1      -7.424   7.211  68.422  1.00  0.00    -0.106 A  
HETATM   27  N   UNL     1      -7.143   6.616  67.230  1.00  0.00    -0.078 NA 
HETATM   28  C   UNL     1      -6.005   5.901  67.122  1.00  0.00    -0.018 A  
HETATM   29  C   UNL     1      -5.130   5.701  68.166  1.00  0.00    -0.004 A  
HETATM   30  C   UNL     1      -5.451   6.260  69.397  1.00  0.00    -0.013 A  
ENDBRANCH   8   9
ENDBRANCH   4   8
TORSDOF 2
ENDMDL
MODEL       99
REMARK 921   NORMALIZED FREE ENERGY PREDICTED BY IDOCK:   -3.96 KCAL/MOL
REMARK 922        TOTAL FREE ENERGY PREDICTED BY IDOCK:   -4.82 KCAL/MOL
REMARK 923 INTER-LIGAND FREE ENERGY PREDICTED BY IDOCK:   -5.39 KCAL/MOL
REMARK 924 INTRA-LIGAND FREE ENERGY PREDICTED BY IDOCK:    0.56 KCAL/MOL
REMARK 927      BINDING AFFINITY PREDICTED BY RF-SCORE:    0.00 PKD
ROOT
HETATM    1  C   UNL     1      -5.406   4.655  65.365  1.00  0.00    -0.013 C  
HETATM    2  C   UNL     1      -6.741   5.291  65.570  1.00  0.00    -0.045 A  
HETATM    3  C   UNL     1      -6.958   6.657  65.348  1.00  0.00    -0.056 A  
HETATM    4  C   UNL     1      -8.230   7.208  65.526  1.00  0.00    -0.139 A  
HETATM    5  C   UNL     1      -9.235   6.341  65.956  1.00  0.00    -0.078 A  
HETATM    6  N   UNL     1      -9.064   5.024  66.205  1.00  0.00    -0.125 NA 
HETATM    7  C   UNL     1      -7.821   4.532  66.011  1.00  0.00    -0.095 A  
ENDROOT
BRANCH   4   8
HETATM    8  C   UNL     1      -8.547   8.682  65.394  1.00  0.00    -0.181 C  
BRANCH   8   9
HETATM    9  N   UNL     1      -8.102   9.574  66.485  1.00  0.00    -0.111 NA 
HETATM   10  C   UNL     1      -9.201  10.332  67.120  1.00  0.00    -0.145 C  
HETATM   11  C   UNL     1     -10.204   9.453  67.878  1.00  0.00    -0.259 C  
HETATM   12  C   UNL     1      -9.489   8.735  69.015  1.00  0.00    -0.160 C  
HETATM   13  C   UNL     1      -9.849   8.804  70.330  1.00  0.00    -0.212 C  
HETATM   14  C   UNL     1      -8.319   7.932  68.446  1.00  0.00    -0.124 C  
HETATM   15  C   UNL     1      -9.095   8.015  71.337  1.00  0.00    -0.175 A  
HETATM   16  C   UNL     1      -7.405   8.794  67.539  1.00  0.00    -0.081 C  
HETATM   17  C   UNL     1      -7.794   8.381  71.706  1.00  0.00    -0.161 A  
HETATM   18  C   UNL     1      -7.098   7.638  72.664  1.00  0.00    -0.081 A  
HETATM   19  C   UNL     1      -7.710   6.542  73.266  1.00  0.00    -0.092 A  
HETATM   20  C   UNL     1      -9.015   6.184  72.927  1.00  0.00    -0.125 A  
HETATM   21 CL   UNL     1      -6.859   5.632  74.453  1.00  0.00    -0.080 Cl 
HETATM   22  C   UNL     1      -9.719   6.922  71.963  1.00  0.00    -0.160 A  
HETATM   23  C   UNL     1     -11.150   6.586  71.623  1.00  0.00    -0.302 C  
HETATM   24  C   UNL     1     -12.117   7.653  72.143  1.00  0.00    -0.325 C  
HETATM   25  C   UNL     1     -12.079   9.043  71.543  1.00  0.00    -0.410 A  
HETATM   26  C   UNL     1     -11.050   9.585  70.759  1.00  0.00    -0.323 A  
HETATM   27  N   UNL     1     -11.061  10.881  70.339  1.00  0.00    -0.136 NA 
HETATM   28  C   UNL     1     -12.139  11.639  70.628  1.00  0.00    -0.335 A  
HETATM   29  C   UNL     1     -13.211  11.188  71.364  1.00  0.00    -0.301 A  
HETATM   30  C   UNL     1     -13.167   9.884  71.842  1.00  0.00    -0.558 A  
ENDBRANCH   8   9
ENDBRANCH   4   8
TORSDOF 2
ENDMDL
MODEL      100
REMARK 921   NORMALIZED FREE ENERGY PREDICTED BY IDOCK:   -3.94 KCAL/MOL
REMARK 922        TOTAL FREE ENERGY PREDICTED BY IDOCK:   -4.80 KCAL/MOL
REMARK 923 INTER-LIGAND FREE ENERGY PREDICTED BY IDOCK:   -5.37 KCAL/MOL
REMARK 924 INTRA-LIGAND FREE ENERGY PREDICTED BY IDOCK:    0.57 KCAL/MOL
REMARK 927      BINDING AFFINITY PREDICTED BY RF-SCORE:    0.00 PKD
ROOT
HETATM    1  C   UNL     1     -12.182  10.701  71.070  1.00  0.00    -0.498 C  
HETATM    2  C   UNL     1     -12.078  11.823  70.090  1.00  0.00    -0.398 A  
HETATM    3  C   UNL     1     -11.908  11.602  68.717  1.00  0.00    -0.387 A  
HETATM    4  C   UNL     1     -11.841  12.680  67.831  1.00  0.00    -0.388 A  
HETATM    5  C   UNL     1     -11.923  13.956  68.389  1.00  0.00    -0.356 A  
HETATM    6  N   UNL     1     -12.062  14.215  69.708  1.00  0.00    -0.336 NA 
HETATM    7  C   UNL     1     -12.132  13.144  70.526  1.00  0.00    -0.306 A  
ENDROOT
BRANCH   4   8
HETATM    8  C   UNL     1     -11.575  12.549  66.347  1.00  0.00    -0.391 C  
BRANCH   8   9
HETATM    9  N   UNL     1     -10.173  12.663  65.894  1.00  0.00    -0.269 NA 
HETATM   10  C   UNL     1      -9.201  12.802  66.999  1.00  0.00    -0.221 C  
HETATM   11  C   UNL     1      -9.099  11.562  67.896  1.00  0.00    -0.167 C  
HETATM   12  C   UNL     1      -8.616  10.377  67.069  1.00  0.00    -0.130 C  
HETATM   13  C   UNL     1      -7.511   9.627  67.353  1.00  0.00    -0.091 C  
HETATM   14  C   UNL     1      -9.563  10.170  65.887  1.00  0.00    -0.274 C  
HETATM   15  C   UNL     1      -7.174   8.467  66.490  1.00  0.00    -0.076 A  
HETATM   16  C   UNL     1      -9.793  11.476  65.087  1.00  0.00    -0.257 C  
HETATM   17  C   UNL     1      -6.675   8.657  65.195  1.00  0.00    -0.064 A  
HETATM   18  C   UNL     1      -6.350   7.556  64.396  1.00  0.00    -0.044 A  
HETATM   19  C   UNL     1      -6.507   6.268  64.899  1.00  0.00    -0.038 A  
HETATM   20  C   UNL     1      -6.978   6.066  66.197  1.00  0.00    -0.062 A  
HETATM   21 CL   UNL     1      -6.098   4.912  63.922  1.00  0.00    -0.021 Cl 
HETATM   22  C   UNL     1      -7.310   7.164  67.004  1.00  0.00    -0.089 A  
HETATM   23  C   UNL     1      -7.767   6.970  68.428  1.00  0.00    -0.120 C  
HETATM   24  C   UNL     1      -6.706   7.437  69.428  1.00  0.00    -0.041 C  
HETATM   25  C   UNL     1      -6.368   8.910  69.515  1.00  0.00    -0.043 A  
HETATM   26  C   UNL     1      -6.689   9.897  68.572  1.00  0.00    -0.055 A  
HETATM   27  N   UNL     1      -6.261  11.185  68.692  1.00  0.00    -0.043 NA 
HETATM   28  C   UNL     1      -5.568  11.530  69.796  1.00  0.00    -0.081 A  
HETATM   29  C   UNL     1      -5.229  10.640  70.791  1.00  0.00    -0.087 A  
HETATM   30  C   UNL     1      -5.617   9.315  70.635  1.00  0.00    -0.035 A  
ENDBRANCH   8   9
ENDBRANCH   4   8
TORSDOF 2
ENDMDL
MODEL      101
REMARK 921   NORMALIZED FREE ENERGY PREDICTED BY IDOCK:   -3.90 KCAL/MOL
REMARK 922        TOTAL FREE ENERGY PREDICTED BY IDOCK:   -4.75 KCAL/MOL
REMARK 923 INTER-LIGAND FREE ENERGY PREDICTED BY IDOCK:   -5.39 KCAL/MOL
REMARK 924 INTRA-LIGAND FREE ENERGY PREDICTED BY IDOCK:    0.64 KCAL/MOL
REMARK 927      BINDING AFFINITY PREDICTED BY RF-SCORE:    0.00 PKD
ROOT
HETATM    1  C   UNL     1      -7.087  10.239  68.967  1.00  0.00    -0.072 C  
HETATM    2  C   UNL     1      -8.225   9.856  68.079  1.00  0.00    -0.113 A  
HETATM    3  C   UNL     1      -8.495  10.529  66.880  1.00  0.00    -0.125 A  
HETATM    4  C   UNL     1      -9.555  10.121  66.065  1.00  0.00    -0.265 A  
HETATM    5  C   UNL     1     -10.322   9.050  66.523  1.00  0.00    -0.193 A  
HETATM    6  N   UNL     1     -10.112   8.389  67.682  1.00  0.00    -0.194 NA 
HETATM    7  C   UNL     1      -9.072   8.810  68.434  1.00  0.00    -0.141 A  
ENDROOT
BRANCH   4   8
HETATM    8  C   UNL     1      -9.979  10.833  64.799  1.00  0.00    -0.320 C  
BRANCH   8   9
HETATM    9  N   UNL     1     -11.108  11.782  64.897  1.00  0.00    -0.302 NA 
HETATM   10  C   UNL     1     -11.703  11.860  66.248  1.00  0.00    -0.147 C  
HETATM   11  C   UNL     1     -10.761  12.445  67.308  1.00  0.00    -0.259 C  
HETATM   12  C   UNL     1     -10.403  13.877  66.932  1.00  0.00    -0.266 C  
HETATM   13  C   UNL     1     -10.602  14.966  67.731  1.00  0.00    -0.262 C  
HETATM   14  C   UNL     1      -9.790  13.891  65.531  1.00  0.00    -0.213 C  
HETATM   15  C   UNL     1     -10.164  16.305  67.264  1.00  0.00    -0.279 A  
HETATM   16  C   UNL     1     -10.674  13.145  64.500  1.00  0.00    -0.398 C  
HETATM   17  C   UNL     1     -10.855  16.969  66.241  1.00  0.00     0.034 A  
HETATM   18  C   UNL     1     -10.441  18.235  65.817  1.00  0.00    -0.228 A  
HETATM   19  C   UNL     1      -9.349  18.845  66.429  1.00  0.00    -0.328 A  
HETATM   20  C   UNL     1      -8.669  18.206  67.467  1.00  0.00    -0.249 A  
HETATM   21 CL   UNL     1      -8.843  20.408  65.916  1.00  0.00    -0.044 Cl 
HETATM   22  C   UNL     1      -9.076  16.933  67.896  1.00  0.00    -0.233 A  
HETATM   23  C   UNL     1      -8.391  16.250  69.052  1.00  0.00    -0.239 C  
HETATM   24  C   UNL     1      -9.294  16.195  70.288  1.00  0.00     1.138 C  
HETATM   25  C   UNL     1     -10.546  15.343  70.252  1.00  0.00    -0.299 A  
HETATM   26  C   UNL     1     -11.165  14.818  69.109  1.00  0.00    -0.271 A  
HETATM   27  N   UNL     1     -12.344  14.139  69.167  1.00  0.00    -0.240 NA 
HETATM   28  C   UNL     1     -12.890  13.903  70.378  1.00  0.00    -0.137 A  
HETATM   29  C   UNL     1     -12.342  14.352  71.559  1.00  0.00    -0.427 A  
HETATM   30  C   UNL     1     -11.171  15.096  71.489  1.00  0.00    -0.323 A  
ENDBRANCH   8   9
ENDBRANCH   4   8
TORSDOF 2
ENDMDL
MODEL      102
REMARK 921   NORMALIZED FREE ENERGY PREDICTED BY IDOCK:   -3.89 KCAL/MOL
REMARK 922        TOTAL FREE ENERGY PREDICTED BY IDOCK:   -4.74 KCAL/MOL
REMARK 923 INTER-LIGAND FREE ENERGY PREDICTED BY IDOCK:   -4.44 KCAL/MOL
REMARK 924 INTRA-LIGAND FREE ENERGY PREDICTED BY IDOCK:   -0.30 KCAL/MOL
REMARK 927      BINDING AFFINITY PREDICTED BY RF-SCORE:    0.00 PKD
ROOT
HETATM    1  C   UNL     1     -12.214  13.564  65.068  1.00  0.00    -0.453 C  
HETATM    2  C   UNL     1     -11.646  13.290  66.422  1.00  0.00    -0.387 A  
HETATM    3  C   UNL     1     -11.017  12.079  66.737  1.00  0.00    -0.329 A  
HETATM    4  C   UNL     1     -10.475  11.873  68.009  1.00  0.00    -0.228 A  
HETATM    5  C   UNL     1     -10.623  12.913  68.928  1.00  0.00    -0.123 A  
HETATM    6  N   UNL     1     -11.242  14.086  68.675  1.00  0.00    -0.253 NA 
HETATM    7  C   UNL     1     -11.742  14.245  67.431  1.00  0.00    -0.394 A  
ENDROOT
BRANCH   4   8
HETATM    8  C   UNL     1      -9.854  10.574  68.472  1.00  0.00    -0.168 C  
BRANCH   8   9
HETATM    9  N   UNL     1     -10.438   9.318  67.955  1.00  0.00    -0.222 NA 
HETATM   10  C   UNL     1      -9.608   8.655  66.927  1.00  0.00    -0.194 C  
HETATM   11  C   UNL     1      -8.264   8.135  67.455  1.00  0.00    -0.122 C  
HETATM   12  C   UNL     1      -8.515   7.080  68.525  1.00  0.00    -0.121 C  
HETATM   13  C   UNL     1      -8.029   5.805  68.491  1.00  0.00    -0.101 C  
HETATM   14  C   UNL     1      -9.385   7.681  69.629  1.00  0.00    -0.156 C  
HETATM   15  C   UNL     1      -8.309   4.886  69.623  1.00  0.00    -0.085 A  
HETATM   16  C   UNL     1     -10.660   8.357  69.064  1.00  0.00    -0.154 C  
HETATM   17  C   UNL     1      -9.592   4.360  69.820  1.00  0.00    -0.276 A  
HETATM   18  C   UNL     1      -9.840   3.486  70.883  1.00  0.00    -0.135 A  
HETATM   19  C   UNL     1      -8.802   3.125  71.737  1.00  0.00    -0.086 A  
HETATM   20  C   UNL     1      -7.513   3.622  71.535  1.00  0.00    -0.051 A  
HETATM   21 CL   UNL     1      -9.102   2.042  73.039  1.00  0.00    -0.076 Cl 
HETATM   22  C   UNL     1      -7.256   4.502  70.474  1.00  0.00    -0.048 A  
HETATM   23  C   UNL     1      -5.860   5.005  70.205  1.00  0.00    -0.017 C  
HETATM   24  C   UNL     1      -5.278   4.393  68.927  1.00  0.00    -0.007 C  
HETATM   25  C   UNL     1      -5.891   4.750  67.589  1.00  0.00    -0.022 A  
HETATM   26  C   UNL     1      -7.142   5.348  67.377  1.00  0.00    -0.070 A  
HETATM   27  N   UNL     1      -7.651   5.547  66.130  1.00  0.00    -0.089 NA 
HETATM   28  C   UNL     1      -6.888   5.223  65.066  1.00  0.00    -0.049 A  
HETATM   29  C   UNL     1      -5.636   4.658  65.172  1.00  0.00    -0.014 A  
HETATM   30  C   UNL     1      -5.146   4.402  66.447  1.00  0.00    -0.008 A  
ENDBRANCH   8   9
ENDBRANCH   4   8
TORSDOF 2
ENDMDL
MODEL      103
REMARK 921   NORMALIZED FREE ENERGY PREDICTED BY IDOCK:   -3.86 KCAL/MOL
REMARK 922        TOTAL FREE ENERGY PREDICTED BY IDOCK:   -4.71 KCAL/MOL
REMARK 923 INTER-LIGAND FREE ENERGY PREDICTED BY IDOCK:   -4.91 KCAL/MOL
REMARK 924 INTRA-LIGAND FREE ENERGY PREDICTED BY IDOCK:    0.19 KCAL/MOL
REMARK 927      BINDING AFFINITY PREDICTED BY RF-SCORE:    0.00 PKD
ROOT
HETATM    1  C   UNL     1     -10.142  13.690  66.905  1.00  0.00    -0.260 C  
HETATM    2  C   UNL     1     -10.952  13.696  68.159  1.00  0.00    -0.273 A  
HETATM    3  C   UNL     1     -10.994  12.597  69.026  1.00  0.00    -0.240 A  
HETATM    4  C   UNL     1     -11.745  12.654  70.203  1.00  0.00    -0.247 A  
HETATM    5  C   UNL     1     -12.454  13.833  70.439  1.00  0.00    -0.314 A  
HETATM    6  N   UNL     1     -12.461  14.906  69.619  1.00  0.00    -0.196 NA 
HETATM    7  C   UNL     1     -11.714  14.812  68.498  1.00  0.00    -0.317 A  
ENDROOT
BRANCH   4   8
HETATM    8  C   UNL     1     -11.922  11.494  71.159  1.00  0.00     0.147 C  
BRANCH   8   9
HETATM    9  N   UNL     1     -12.510  10.250  70.618  1.00  0.00    -0.320 NA 
HETATM   10  C   UNL     1     -11.846   9.764  69.390  1.00  0.00     0.332 C  
HETATM   11  C   UNL     1     -10.397   9.310  69.606  1.00  0.00    -0.227 C  
HETATM   12  C   UNL     1     -10.373   8.138  70.578  1.00  0.00    -0.211 C  
HETATM   13  C   UNL     1      -9.820   6.918  70.315  1.00  0.00    -0.186 C  
HETATM   14  C   UNL     1     -11.058   8.552  71.881  1.00  0.00    -0.395 C  
HETATM   15  C   UNL     1      -9.822   5.872  71.369  1.00  0.00    -0.205 A  
HETATM   16  C   UNL     1     -12.457   9.169  71.634  1.00  0.00    -0.359 C  
HETATM   17  C   UNL     1     -11.008   5.222  71.733  1.00  0.00    -0.143 A  
HETATM   18  C   UNL     1     -10.995   4.231  72.719  1.00  0.00    -0.138 A  
HETATM   19  C   UNL     1      -9.794   3.876  73.326  1.00  0.00    -0.120 A  
HETATM   20  C   UNL     1      -8.601   4.498  72.953  1.00  0.00    -0.109 A  
HETATM   21 CL   UNL     1      -9.773   2.650  74.532  1.00  0.00    -0.126 Cl 
HETATM   22  C   UNL     1      -8.605   5.496  71.968  1.00  0.00    -0.131 A  
HETATM   23  C   UNL     1      -7.320   6.140  71.511  1.00  0.00    -0.089 C  
HETATM   24  C   UNL     1      -6.950   5.708  70.089  1.00  0.00    -0.065 C  
HETATM   25  C   UNL     1      -7.825   6.141  68.932  1.00  0.00    -0.101 A  
HETATM   26  C   UNL     1      -9.129   6.649  69.016  1.00  0.00    -0.133 A  
HETATM   27  N   UNL     1      -9.875   6.925  67.911  1.00  0.00    -0.132 NA 
HETATM   28  C   UNL     1      -9.306   6.773  66.698  1.00  0.00    -0.165 A  
HETATM   29  C   UNL     1      -8.023   6.309  66.513  1.00  0.00    -0.109 A  
HETATM   30  C   UNL     1      -7.287   5.971  67.642  1.00  0.00    -0.077 A  
ENDBRANCH   8   9
ENDBRANCH   4   8
TORSDOF 2
ENDMDL
MODEL      104
REMARK 921   NORMALIZED FREE ENERGY PREDICTED BY IDOCK:   -3.85 KCAL/MOL
REMARK 922        TOTAL FREE ENERGY PREDICTED BY IDOCK:   -4.70 KCAL/MOL
REMARK 923 INTER-LIGAND FREE ENERGY PREDICTED BY IDOCK:   -4.26 KCAL/MOL
REMARK 924 INTRA-LIGAND FREE ENERGY PREDICTED BY IDOCK:   -0.44 KCAL/MOL
REMARK 927      BINDING AFFINITY PREDICTED BY RF-SCORE:    0.00 PKD
ROOT
HETATM    1  C   UNL     1      -5.807   4.306  62.460  1.00  0.00    -0.016 C  
HETATM    2  C   UNL     1      -6.895   3.553  63.154  1.00  0.00    -0.035 A  
HETATM    3  C   UNL     1      -7.220   3.780  64.497  1.00  0.00    -0.066 A  
HETATM    4  C   UNL     1      -8.263   3.072  65.101  1.00  0.00    -0.091 A  
HETATM    5  C   UNL     1      -8.921   2.130  64.309  1.00  0.00    -0.108 A  
HETATM    6  N   UNL     1      -8.625   1.862  63.019  1.00  0.00    -0.076 NA 
HETATM    7  C   UNL     1      -7.617   2.576  62.473  1.00  0.00    -0.049 A  
ENDROOT
BRANCH   4   8
HETATM    8  C   UNL     1      -8.635   3.183  66.563  1.00  0.00    -0.119 C  
BRANCH   8   9
HETATM    9  N   UNL     1      -9.895   3.880  66.894  1.00  0.00    -0.155 NA 
HETATM   10  C   UNL     1     -10.089   4.101  68.343  1.00  0.00     0.229 C  
HETATM   11  C   UNL     1      -9.072   5.066  68.966  1.00  0.00    -0.140 C  
HETATM   12  C   UNL     1      -9.212   6.437  68.317  1.00  0.00    -0.112 C  
HETATM   13  C   UNL     1      -9.451   7.598  68.994  1.00  0.00    -0.150 C  
HETATM   14  C   UNL     1      -9.038   6.298  66.805  1.00  0.00    -0.141 C  
HETATM   15  C   UNL     1      -9.519   8.879  68.246  1.00  0.00    -0.150 A  
HETATM   16  C   UNL     1      -9.952   5.196  66.211  1.00  0.00    -0.210 C  
HETATM   17  C   UNL     1     -10.614   9.170  67.421  1.00  0.00    -0.315 A  
HETATM   18  C   UNL     1     -10.673  10.384  66.730  1.00  0.00    -0.235 A  
HETATM   19  C   UNL     1      -9.648  11.314  66.881  1.00  0.00    -0.191 A  
HETATM   20  C   UNL     1      -8.566  11.047  67.721  1.00  0.00    -0.130 A  
HETATM   21 CL   UNL     1      -9.723  12.814  66.040  1.00  0.00    -0.251 Cl 
HETATM   22  C   UNL     1      -8.496   9.830  68.414  1.00  0.00    -0.114 A  
HETATM   23  C   UNL     1      -7.365   9.545  69.370  1.00  0.00    -0.084 C  
HETATM   24  C   UNL     1      -7.843   9.552  70.825  1.00  0.00    -0.093 C  
HETATM   25  C   UNL     1      -8.794   8.472  71.297  1.00  0.00    -0.240 A  
HETATM   26  C   UNL     1      -9.551   7.614  70.486  1.00  0.00    -0.167 A  
HETATM   27  N   UNL     1     -10.452   6.733  71.002  1.00  0.00    -0.210 NA 
HETATM   28  C   UNL     1     -10.559   6.636  72.343  1.00  0.00    -0.214 A  
HETATM   29  C   UNL     1      -9.838   7.413  73.221  1.00  0.00    -0.322 A  
HETATM   30  C   UNL     1      -8.964   8.352  72.689  1.00  0.00    -0.304 A  
ENDBRANCH   8   9
ENDBRANCH   4   8
TORSDOF 2
ENDMDL
MODEL      105
REMARK 921   NORMALIZED FREE ENERGY PREDICTED BY IDOCK:   -3.71 KCAL/MOL
REMARK 922        TOTAL FREE ENERGY PREDICTED BY IDOCK:   -4.54 KCAL/MOL
REMARK 923 INTER-LIGAND FREE ENERGY PREDICTED BY IDOCK:   -4.40 KCAL/MOL
REMARK 924 INTRA-LIGAND FREE ENERGY PREDICTED BY IDOCK:   -0.14 KCAL/MOL
REMARK 927      BINDING AFFINITY PREDICTED BY RF-SCORE:    0.00 PKD
ROOT
HETATM    1  C   UNL     1     -10.267  19.415  66.244  1.00  0.00    -0.566 C  
HETATM    2  C   UNL     1      -8.876  19.368  66.784  1.00  0.00    -0.363 A  
HETATM    3  C   UNL     1      -8.091  18.210  66.722  1.00  0.00    -0.266 A  
HETATM    4  C   UNL     1      -6.783  18.215  67.216  1.00  0.00    -0.205 A  
HETATM    5  C   UNL     1      -6.333  19.407  67.785  1.00  0.00    -0.212 A  
HETATM    6  N   UNL     1      -7.064  20.539  67.887  1.00  0.00    -0.295 NA 
HETATM    7  C   UNL     1      -8.318  20.491  67.389  1.00  0.00    -0.283 A  
ENDROOT
BRANCH   4   8
HETATM    8  C   UNL     1      -5.887  16.997  67.273  1.00  0.00    -0.158 C  
BRANCH   8   9
HETATM    9  N   UNL     1      -6.018  16.110  68.447  1.00  0.00    -0.104 NA 
HETATM   10  C   UNL     1      -7.419  15.824  68.823  1.00  0.00    -0.158 C  
HETATM   11  C   UNL     1      -8.188  15.006  67.777  1.00  0.00    -0.162 C  
HETATM   12  C   UNL     1      -7.521  13.647  67.606  1.00  0.00    -0.191 C  
HETATM   13  C   UNL     1      -8.149  12.446  67.765  1.00  0.00    -0.162 C  
HETATM   14  C   UNL     1      -6.054  13.851  67.228  1.00  0.00     0.433 C  
HETATM   15  C   UNL     1      -7.396  11.190  67.523  1.00  0.00    -0.102 A  
HETATM   16  C   UNL     1      -5.330  14.818  68.199  1.00  0.00    -0.120 C  
HETATM   17  C   UNL     1      -6.411  10.759  68.422  1.00  0.00    -0.054 A  
HETATM   18  C   UNL     1      -5.716   9.569  68.189  1.00  0.00    -0.040 A  
HETATM   19  C   UNL     1      -6.020   8.800  67.069  1.00  0.00    -0.057 A  
HETATM   20  C   UNL     1      -7.017   9.204  66.180  1.00  0.00    -0.086 A  
HETATM   21 CL   UNL     1      -5.173   7.329  66.786  1.00  0.00    -0.022 Cl 
HETATM   22  C   UNL     1      -7.716  10.399  66.404  1.00  0.00    -0.125 A  
HETATM   23  C   UNL     1      -8.836  10.826  65.488  1.00  0.00    -0.203 C  
HETATM   24  C   UNL     1     -10.200  10.708  66.174  1.00  0.00    -0.308 C  
HETATM   25  C   UNL     1     -10.523  11.620  67.339  1.00  0.00    -0.239 A  
HETATM   26  C   UNL     1      -9.608  12.376  68.086  1.00  0.00    -0.218 A  
HETATM   27  N   UNL     1      -9.982  13.097  69.179  1.00  0.00     0.245 NA 
HETATM   28  C   UNL     1     -11.291  13.142  69.502  1.00  0.00    -0.160 A  
HETATM   29  C   UNL     1     -12.267  12.459  68.812  1.00  0.00     0.025 A  
HETATM   30  C   UNL     1     -11.873  11.676  67.734  1.00  0.00    -0.247 A  
ENDBRANCH   8   9
ENDBRANCH   4   8
TORSDOF 2
ENDMDL
MODEL      106
REMARK 921   NORMALIZED FREE ENERGY PREDICTED BY IDOCK:   -3.50 KCAL/MOL
REMARK 922        TOTAL FREE ENERGY PREDICTED BY IDOCK:   -4.31 KCAL/MOL
REMARK 923 INTER-LIGAND FREE ENERGY PREDICTED BY IDOCK:   -4.86 KCAL/MOL
REMARK 924 INTRA-LIGAND FREE ENERGY PREDICTED BY IDOCK:    0.55 KCAL/MOL
REMARK 927      BINDING AFFINITY PREDICTED BY RF-SCORE:    0.00 PKD
ROOT
HETATM    1  C   UNL     1     -11.650   7.641  72.549  1.00  0.00    -0.382 C  
HETATM    2  C   UNL     1     -10.525   8.248  71.776  1.00  0.00    -0.325 A  
HETATM    3  C   UNL     1     -10.684   8.702  70.460  1.00  0.00    -0.252 A  
HETATM    4  C   UNL     1      -9.612   9.288  69.781  1.00  0.00    -0.203 A  
HETATM    5  C   UNL     1      -8.400   9.362  70.468  1.00  0.00    -0.197 A  
HETATM    6  N   UNL     1      -8.197   8.915  71.727  1.00  0.00    -0.354 NA 
HETATM    7  C   UNL     1      -9.262   8.365  72.348  1.00  0.00    -0.275 A  
ENDROOT
BRANCH   4   8
HETATM    8  C   UNL     1      -9.658   9.732  68.335  1.00  0.00    -0.148 C  
BRANCH   8   9
HETATM    9  N   UNL     1     -10.902  10.373  67.859  1.00  0.00    -0.259 NA 
HETATM   10  C   UNL     1     -11.782  10.845  68.949  1.00  0.00    -0.306 C  
HETATM   11  C   UNL     1     -11.185  11.990  69.777  1.00  0.00    -0.105 C  
HETATM   12  C   UNL     1     -10.956  13.199  68.880  1.00  0.00    -0.270 C  
HETATM   13  C   UNL     1     -11.473  14.443  69.100  1.00  0.00    -0.328 C  
HETATM   14  C   UNL     1     -10.060  12.793  67.709  1.00  0.00    -0.224 C  
HETATM   15  C   UNL     1     -11.134  15.550  68.171  1.00  0.00    -0.325 A  
HETATM   16  C   UNL     1     -10.585  11.529  66.983  1.00  0.00    -0.242 C  
HETATM   17  C   UNL     1     -11.671  15.591  66.878  1.00  0.00     0.218 A  
HETATM   18  C   UNL     1     -11.354  16.645  66.016  1.00  0.00     0.642 A  
HETATM   19  C   UNL     1     -10.517  17.668  66.454  1.00  0.00    -0.286 A  
HETATM   20  C   UNL     1      -9.998  17.652  67.750  1.00  0.00    -0.315 A  
HETATM   21 CL   UNL     1     -10.134  18.971  65.399  1.00  0.00     0.391 Cl 
HETATM   22  C   UNL     1     -10.307  16.596  68.620  1.00  0.00    -0.304 A  
HETATM   23  C   UNL     1      -9.803  16.590  70.041  1.00  0.00     0.514 C  
HETATM   24  C   UNL     1     -10.938  16.830  71.041  1.00  0.00     0.544 C  
HETATM   25  C   UNL     1     -12.021  15.784  71.198  1.00  0.00    -0.469 A  
HETATM   26  C   UNL     1     -12.297  14.730  70.315  1.00  0.00    -0.345 A  
HETATM   27  N   UNL     1     -13.354  13.890  70.492  1.00  0.00     0.095 NA 
HETATM   28  C   UNL     1     -14.113  14.038  71.598  1.00  0.00    -0.280 A  
HETATM   29  C   UNL     1     -13.903  15.023  72.537  1.00  0.00    -0.571 A  
HETATM   30  C   UNL     1     -12.860  15.914  72.321  1.00  0.00    -0.503 A  
ENDBRANCH   8   9
ENDBRANCH   4   8
TORSDOF 2
ENDMDL
MODEL      107
REMARK 921   NORMALIZED FREE ENERGY PREDICTED BY IDOCK:   -3.45 KCAL/MOL
REMARK 922        TOTAL FREE ENERGY PREDICTED BY IDOCK:   -4.25 KCAL/MOL
REMARK 923 INTER-LIGAND FREE ENERGY PREDICTED BY IDOCK:   -4.76 KCAL/MOL
REMARK 924 INTRA-LIGAND FREE ENERGY PREDICTED BY IDOCK:    0.51 KCAL/MOL
REMARK 927      BINDING AFFINITY PREDICTED BY RF-SCORE:    0.00 PKD
ROOT
HETATM    1  C   UNL     1      -9.830  19.354  69.246  1.00  0.00    -0.330 C  
HETATM    2  C   UNL     1     -10.116  18.274  68.256  1.00  0.00    -0.406 A  
HETATM    3  C   UNL     1     -10.923  17.172  68.567  1.00  0.00    -0.204 A  
HETATM    4  C   UNL     1     -11.188  16.195  67.602  1.00  0.00    -0.147 A  
HETATM    5  C   UNL     1     -10.589  16.370  66.353  1.00  0.00    -0.236 A  
HETATM    6  N   UNL     1      -9.786  17.404  66.019  1.00  0.00    -0.501 NA 
HETATM    7  C   UNL     1      -9.566  18.328  66.978  1.00  0.00    -0.291 A  
ENDROOT
BRANCH   4   8
HETATM    8  C   UNL     1     -11.973  14.929  67.863  1.00  0.00    -0.176 C  
BRANCH   8   9
HETATM    9  N   UNL     1     -11.805  13.815  66.907  1.00  0.00    -0.389 NA 
HETATM   10  C   UNL     1     -10.412  13.629  66.449  1.00  0.00    -0.288 C  
HETATM   11  C   UNL     1      -9.448  13.187  67.557  1.00  0.00    -0.212 C  
HETATM   12  C   UNL     1      -9.886  11.832  68.099  1.00  0.00    -0.190 C  
HETATM   13  C   UNL     1      -9.100  10.718  68.140  1.00  0.00    -0.151 C  
HETATM   14  C   UNL     1     -11.333  11.930  68.585  1.00  0.00    -0.331 C  
HETATM   15  C   UNL     1      -9.634   9.468  68.738  1.00  0.00    -0.159 A  
HETATM   16  C   UNL     1     -12.269  12.540  67.512  1.00  0.00     0.188 C  
HETATM   17  C   UNL     1     -10.612   8.716  68.074  1.00  0.00    -0.205 A  
HETATM   18  C   UNL     1     -11.099   7.535  68.642  1.00  0.00     0.171 A  
HETATM   19  C   UNL     1     -10.594   7.096  69.863  1.00  0.00    -0.230 A  
HETATM   20  C   UNL     1      -9.601   7.823  70.521  1.00  0.00    -0.167 A  
HETATM   21 CL   UNL     1     -11.185   5.638  70.558  1.00  0.00    -0.206 Cl 
HETATM   22  C   UNL     1      -9.110   9.011  69.961  1.00  0.00    -0.187 A  
HETATM   23  C   UNL     1      -7.997   9.780  70.628  1.00  0.00     0.049 C  
HETATM   24  C   UNL     1      -6.690   9.680  69.835  1.00  0.00    -0.069 C  
HETATM   25  C   UNL     1      -6.602  10.326  68.468  1.00  0.00    -0.052 A  
HETATM   26  C   UNL     1      -7.678  10.761  67.680  1.00  0.00    -0.104 A  
HETATM   27  N   UNL     1      -7.505  11.246  66.419  1.00  0.00    -0.107 NA 
HETATM   28  C   UNL     1      -6.248  11.380  65.949  1.00  0.00     0.288 A  
HETATM   29  C   UNL     1      -5.128  11.010  66.659  1.00  0.00    -0.084 A  
HETATM   30  C   UNL     1      -5.312  10.459  67.921  1.00  0.00    -0.037 A  
ENDBRANCH   8   9
ENDBRANCH   4   8
TORSDOF 2
ENDMDL
MODEL      108
REMARK 921   NORMALIZED FREE ENERGY PREDICTED BY IDOCK:   -3.39 KCAL/MOL
REMARK 922        TOTAL FREE ENERGY PREDICTED BY IDOCK:   -4.18 KCAL/MOL
REMARK 923 INTER-LIGAND FREE ENERGY PREDICTED BY IDOCK:   -4.33 KCAL/MOL
REMARK 924 INTRA-LIGAND FREE ENERGY PREDICTED BY IDOCK:    0.14 KCAL/MOL
REMARK 927      BINDING AFFINITY PREDICTED BY RF-SCORE:    0.00 PKD
ROOT
HETATM    1  C   UNL     1      -9.663   3.286  62.918  1.00  0.00    -0.097 C  
HETATM    2  C   UNL     1      -9.314   3.914  64.227  1.00  0.00    -0.152 A  
HETATM    3  C   UNL     1      -8.058   4.486  64.469  1.00  0.00    -0.102 A  
HETATM    4  C   UNL     1      -7.781   5.088  65.700  1.00  0.00    -0.087 A  
HETATM    5  C   UNL     1      -8.797   5.057  66.655  1.00  0.00    -0.111 A  
HETATM    6  N   UNL     1     -10.012   4.495  66.473  1.00  0.00    -0.226 NA 
HETATM    7  C   UNL     1     -10.240   3.934  65.267  1.00  0.00    -0.073 A  
ENDROOT
BRANCH   4   8
HETATM    8  C   UNL     1      -6.433   5.656  66.087  1.00  0.00    -0.040 C  
BRANCH   8   9
HETATM    9  N   UNL     1      -5.939   6.819  65.321  1.00  0.00    -0.034 NA 
HETATM   10  C   UNL     1      -6.975   7.467  64.489  1.00  0.00    -0.052 C  
HETATM   11  C   UNL     1      -8.095   8.131  65.299  1.00  0.00    -0.136 C  
HETATM   12  C   UNL     1      -7.507   9.240  66.163  1.00  0.00    -0.096 C  
HETATM   13  C   UNL     1      -7.910  10.544  66.138  1.00  0.00    -0.145 C  
HETATM   14  C   UNL     1      -6.409   8.655  67.051  1.00  0.00    -0.057 C  
HETATM   15  C   UNL     1      -7.286  11.519  67.067  1.00  0.00    -0.146 A  
HETATM   16  C   UNL     1      -5.372   7.840  66.238  1.00  0.00    -0.025 C  
HETATM   17  C   UNL     1      -5.969  11.954  66.870  1.00  0.00    -0.115 A  
HETATM   18  C   UNL     1      -5.395  12.882  67.745  1.00  0.00    -0.114 A  
HETATM   19  C   UNL     1      -6.145  13.389  68.803  1.00  0.00    -0.086 A  
HETATM   20  C   UNL     1      -7.466  12.983  68.994  1.00  0.00     0.097 A  
HETATM   21 CL   UNL     1      -5.444  14.538  69.874  1.00  0.00    -0.095 Cl 
HETATM   22  C   UNL     1      -8.048  12.049  68.123  1.00  0.00    -0.160 A  
HETATM   23  C   UNL     1      -9.492  11.640  68.278  1.00  0.00    -0.191 C  
HETATM   24  C   UNL     1     -10.359  12.200  67.147  1.00  0.00    -0.233 C  
HETATM   25  C   UNL     1     -10.148  11.696  65.734  1.00  0.00    -0.278 A  
HETATM   26  C   UNL     1      -9.036  10.985  65.259  1.00  0.00    -0.189 A  
HETATM   27  N   UNL     1      -8.892  10.654  63.946  1.00  0.00    -0.179 NA 
HETATM   28  C   UNL     1      -9.892  10.957  63.094  1.00  0.00    -0.351 A  
HETATM   29  C   UNL     1     -11.035  11.626  63.471  1.00  0.00    -0.485 A  
HETATM   30  C   UNL     1     -11.151  12.015  64.799  1.00  0.00    -0.369 A  
ENDBRANCH   8   9
ENDBRANCH   4   8
TORSDOF 2
ENDMDL
MODEL      109
REMARK 921   NORMALIZED FREE ENERGY PREDICTED BY IDOCK:   -3.34 KCAL/MOL
REMARK 922        TOTAL FREE ENERGY PREDICTED BY IDOCK:   -4.13 KCAL/MOL
REMARK 923 INTER-LIGAND FREE ENERGY PREDICTED BY IDOCK:   -5.58 KCAL/MOL
REMARK 924 INTRA-LIGAND FREE ENERGY PREDICTED BY IDOCK:    1.45 KCAL/MOL
REMARK 927      BINDING AFFINITY PREDICTED BY RF-SCORE:    0.00 PKD
ROOT
HETATM    1  C   UNL     1     -12.105  13.409  70.042  1.00  0.00    -0.404 C  
HETATM    2  C   UNL     1     -11.335  13.806  68.825  1.00  0.00    -0.318 A  
HETATM    3  C   UNL     1     -11.903  13.790  67.545  1.00  0.00    -0.422 A  
HETATM    4  C   UNL     1     -11.156  14.194  66.436  1.00  0.00    -0.320 A  
HETATM    5  C   UNL     1      -9.835  14.576  66.675  1.00  0.00    -0.273 A  
HETATM    6  N   UNL     1      -9.241  14.584  67.888  1.00  0.00    -0.191 NA 
HETATM    7  C   UNL     1     -10.003  14.195  68.933  1.00  0.00    -0.127 A  
ENDROOT
BRANCH   4   8
HETATM    8  C   UNL     1     -11.649  14.133  65.006  1.00  0.00    -0.362 C  
BRANCH   8   9
HETATM    9  N   UNL     1     -11.886  12.795  64.425  1.00  0.00    -0.360 NA 
HETATM   10  C   UNL     1     -10.772  12.306  63.585  1.00  0.00    -0.467 C  
HETATM   11  C   UNL     1      -9.477  12.040  64.365  1.00  0.00     0.125 C  
HETATM   12  C   UNL     1      -9.723  10.949  65.398  1.00  0.00    -0.287 C  
HETATM   13  C   UNL     1      -9.014   9.786  65.488  1.00  0.00    -0.214 C  
HETATM   14  C   UNL     1     -10.879  11.368  66.307  1.00  0.00    -0.318 C  
HETATM   15  C   UNL     1      -9.324   8.823  66.575  1.00  0.00    -0.260 A  
HETATM   16  C   UNL     1     -12.129  11.800  65.500  1.00  0.00     0.383 C  
HETATM   17  C   UNL     1     -10.503   8.065  66.546  1.00  0.00    -0.022 A  
HETATM   18  C   UNL     1     -10.779   7.153  67.569  1.00  0.00    -0.344 A  
HETATM   19  C   UNL     1      -9.868   6.984  68.608  1.00  0.00    -0.148 A  
HETATM   20  C   UNL     1      -8.678   7.713  68.634  1.00  0.00    -0.128 A  
HETATM   21 CL   UNL     1     -10.201   5.854  69.862  1.00  0.00    -0.258 Cl 
HETATM   22  C   UNL     1      -8.395   8.634  67.614  1.00  0.00    -0.121 A  
HETATM   23  C   UNL     1      -7.090   9.390  67.593  1.00  0.00    -0.082 C  
HETATM   24  C   UNL     1      -6.179   8.907  66.461  1.00  0.00    -0.061 C  
HETATM   25  C   UNL     1      -6.588   9.154  65.024  1.00  0.00    -0.073 A  
HETATM   26  C   UNL     1      -7.866   9.511  64.570  1.00  0.00    -0.126 A  
HETATM   27  N   UNL     1      -8.163   9.621  63.246  1.00  0.00    -0.145 NA 
HETATM   28  C   UNL     1      -7.169   9.453  62.349  1.00  0.00    -0.098 A  
HETATM   29  C   UNL     1      -5.877   9.130  62.698  1.00  0.00    -0.089 A  
HETATM   30  C   UNL     1      -5.593   8.960  64.047  1.00  0.00    -0.069 A  
ENDBRANCH   8   9
ENDBRANCH   4   8
TORSDOF 2
ENDMDL
MODEL      110
REMARK 921   NORMALIZED FREE ENERGY PREDICTED BY IDOCK:   -3.34 KCAL/MOL
REMARK 922        TOTAL FREE ENERGY PREDICTED BY IDOCK:   -4.13 KCAL/MOL
REMARK 923 INTER-LIGAND FREE ENERGY PREDICTED BY IDOCK:   -4.77 KCAL/MOL
REMARK 924 INTRA-LIGAND FREE ENERGY PREDICTED BY IDOCK:    0.64 KCAL/MOL
REMARK 927      BINDING AFFINITY PREDICTED BY RF-SCORE:    0.00 PKD
ROOT
HETATM    1  C   UNL     1     -12.150  13.575  69.602  1.00  0.00    -0.365 C  
HETATM    2  C   UNL     1     -11.247  13.869  68.449  1.00  0.00    -0.291 A  
HETATM    3  C   UNL     1      -9.859  13.978  68.599  1.00  0.00    -0.191 A  
HETATM    4  C   UNL     1      -9.046  14.227  67.489  1.00  0.00    -0.193 A  
HETATM    5  C   UNL     1      -9.692  14.386  66.263  1.00  0.00    -0.310 A  
HETATM    6  N   UNL     1     -11.028  14.313  66.078  1.00  0.00    -0.307 NA 
HETATM    7  C   UNL     1     -11.774  14.061  67.175  1.00  0.00    -0.393 A  
ENDROOT
BRANCH   4   8
HETATM    8  C   UNL     1      -7.550  14.446  67.559  1.00  0.00    -0.193 C  
BRANCH   8   9
HETATM    9  N   UNL     1      -6.679  13.281  67.302  1.00  0.00    -0.177 NA 
HETATM   10  C   UNL     1      -6.048  12.730  68.520  1.00  0.00    -0.067 C  
HETATM   11  C   UNL     1      -7.044  12.113  69.511  1.00  0.00     0.191 C  
HETATM   12  C   UNL     1      -7.755  10.940  68.849  1.00  0.00    -0.135 C  
HETATM   13  C   UNL     1      -7.781   9.667  69.341  1.00  0.00    -0.101 C  
HETATM   14  C   UNL     1      -8.429  11.421  67.564  1.00  0.00    -0.137 C  
HETATM   15  C   UNL     1      -8.553   8.622  68.622  1.00  0.00    -0.131 A  
HETATM   16  C   UNL     1      -7.449  12.194  66.646  1.00  0.00     0.182 C  
HETATM   17  C   UNL     1      -8.099   8.108  67.400  1.00  0.00    -0.122 A  
HETATM   18  C   UNL     1      -8.828   7.116  66.738  1.00  0.00    -0.137 A  
HETATM   19  C   UNL     1      -9.999   6.624  67.307  1.00  0.00    -0.154 A  
HETATM   20  C   UNL     1     -10.448   7.108  68.536  1.00  0.00    -0.229 A  
HETATM   21 CL   UNL     1     -10.893   5.395  66.499  1.00  0.00    -0.311 Cl 
HETATM   22  C   UNL     1      -9.725   8.107  69.206  1.00  0.00    -0.170 A  
HETATM   23  C   UNL     1     -10.161   8.604  70.561  1.00  0.00    -0.229 C  
HETATM   24  C   UNL     1      -9.206   8.141  71.664  1.00  0.00    -0.220 C  
HETATM   25  C   UNL     1      -7.789   8.677  71.690  1.00  0.00    -0.153 A  
HETATM   26  C   UNL     1      -7.125   9.329  70.641  1.00  0.00    -0.111 A  
HETATM   27  N   UNL     1      -5.816   9.695  70.726  1.00  0.00    -0.064 NA 
HETATM   28  C   UNL     1      -5.165   9.486  71.888  1.00  0.00    -0.076 A  
HETATM   29  C   UNL     1      -5.740   8.881  72.983  1.00  0.00    -0.075 A  
HETATM   30  C   UNL     1      -7.058   8.455  72.872  1.00  0.00    -0.103 A  
ENDBRANCH   8   9
ENDBRANCH   4   8
TORSDOF 2
ENDMDL
MODEL      111
REMARK 921   NORMALIZED FREE ENERGY PREDICTED BY IDOCK:   -3.27 KCAL/MOL
REMARK 922        TOTAL FREE ENERGY PREDICTED BY IDOCK:   -4.05 KCAL/MOL
REMARK 923 INTER-LIGAND FREE ENERGY PREDICTED BY IDOCK:   -4.20 KCAL/MOL
REMARK 924 INTRA-LIGAND FREE ENERGY PREDICTED BY IDOCK:    0.15 KCAL/MOL
REMARK 927      BINDING AFFINITY PREDICTED BY RF-SCORE:    0.00 PKD
ROOT
HETATM    1  C   UNL     1     -13.222  10.932  71.910  1.00  0.00    -0.508 C  
HETATM    2  C   UNL     1     -13.177   9.451  71.724  1.00  0.00    -0.487 A  
HETATM    3  C   UNL     1     -12.273   8.835  70.850  1.00  0.00    -0.148 A  
HETATM    4  C   UNL     1     -12.246   7.443  70.726  1.00  0.00    -0.204 A  
HETATM    5  C   UNL     1     -13.173   6.729  71.485  1.00  0.00    -0.146 A  
HETATM    6  N   UNL     1     -14.078   7.283  72.321  1.00  0.00    -0.006 NA 
HETATM    7  C   UNL     1     -14.062   8.629  72.418  1.00  0.00    -0.377 A  
ENDROOT
BRANCH   4   8
HETATM    8  C   UNL     1     -11.368   6.691  69.750  1.00  0.00    -0.354 C  
BRANCH   8   9
HETATM    9  N   UNL     1      -9.948   6.505  70.115  1.00  0.00    -0.166 NA 
HETATM   10  C   UNL     1      -9.070   6.216  68.961  1.00  0.00    -0.124 C  
HETATM   11  C   UNL     1      -8.948   7.380  67.969  1.00  0.00    -0.132 C  
HETATM   12  C   UNL     1      -8.324   8.580  68.670  1.00  0.00    -0.123 C  
HETATM   13  C   UNL     1      -7.194   9.224  68.257  1.00  0.00    -0.077 C  
HETATM   14  C   UNL     1      -9.167   8.940  69.894  1.00  0.00    -0.171 C  
HETATM   15  C   UNL     1      -6.716  10.414  69.006  1.00  0.00    -0.061 A  
HETATM   16  C   UNL     1      -9.429   7.714  70.803  1.00  0.00    -0.162 C  
HETATM   17  C   UNL     1      -6.138  10.278  70.275  1.00  0.00    -0.098 A  
HETATM   18  C   UNL     1      -5.681  11.405  70.965  1.00  0.00     0.046 A  
HETATM   19  C   UNL     1      -5.783  12.663  70.378  1.00  0.00    -0.172 A  
HETATM   20  C   UNL     1      -6.332  12.808  69.104  1.00  0.00    -0.106 A  
HETATM   21 CL   UNL     1      -5.212  14.049  71.221  1.00  0.00    -0.142 Cl 
HETATM   22  C   UNL     1      -6.797  11.683  68.405  1.00  0.00    -0.071 A  
HETATM   23  C   UNL     1      -7.342  11.811  67.005  1.00  0.00    -0.133 C  
HETATM   24  C   UNL     1      -6.390  11.197  65.973  1.00  0.00    -0.004 C  
HETATM   25  C   UNL     1      -6.163   9.700  65.975  1.00  0.00    -0.065 A  
HETATM   26  C   UNL     1      -6.483   8.808  67.009  1.00  0.00    -0.061 A  
HETATM   27  N   UNL     1      -6.155   7.488  66.958  1.00  0.00    -0.045 NA 
HETATM   28  C   UNL     1      -5.569   7.015  65.839  1.00  0.00    -0.031 A  
HETATM   29  C   UNL     1      -5.243   7.805  64.759  1.00  0.00    -0.029 A  
HETATM   30  C   UNL     1      -5.525   9.163  64.841  1.00  0.00    -0.046 A  
ENDBRANCH   8   9
ENDBRANCH   4   8
TORSDOF 2
ENDMDL
MODEL      112
REMARK 921   NORMALIZED FREE ENERGY PREDICTED BY IDOCK:   -3.18 KCAL/MOL
REMARK 922        TOTAL FREE ENERGY PREDICTED BY IDOCK:   -3.95 KCAL/MOL
REMARK 923 INTER-LIGAND FREE ENERGY PREDICTED BY IDOCK:   -4.18 KCAL/MOL
REMARK 924 INTRA-LIGAND FREE ENERGY PREDICTED BY IDOCK:    0.23 KCAL/MOL
REMARK 927      BINDING AFFINITY PREDICTED BY RF-SCORE:    0.00 PKD
ROOT
HETATM    1  C   UNL     1     -11.522  13.308  63.502  1.00  0.00    -0.200 C  
HETATM    2  C   UNL     1     -10.532  12.284  63.951  1.00  0.00    -0.458 A  
HETATM    3  C   UNL     1     -10.370  11.944  65.300  1.00  0.00    -0.316 A  
HETATM    4  C   UNL     1      -9.450  10.961  65.676  1.00  0.00    -0.252 A  
HETATM    5  C   UNL     1      -8.703  10.378  64.652  1.00  0.00    -0.187 A  
HETATM    6  N   UNL     1      -8.810  10.692  63.342  1.00  0.00    -0.187 NA 
HETATM    7  C   UNL     1      -9.717  11.640  63.024  1.00  0.00    -0.303 A  
ENDROOT
BRANCH   4   8
HETATM    8  C   UNL     1      -9.141  10.584  67.109  1.00  0.00    -0.143 C  
BRANCH   8   9
HETATM    9  N   UNL     1      -9.955   9.514  67.721  1.00  0.00    -0.165 NA 
HETATM   10  C   UNL     1     -10.480   8.534  66.747  1.00  0.00    -0.238 C  
HETATM   11  C   UNL     1      -9.392   7.694  66.065  1.00  0.00    -0.076 C  
HETATM   12  C   UNL     1      -8.652   6.875  67.115  1.00  0.00    -0.121 C  
HETATM   13  C   UNL     1      -8.522   5.516  67.094  1.00  0.00    -0.110 C  
HETATM   14  C   UNL     1      -8.085   7.816  68.179  1.00  0.00    -0.123 C  
HETATM   15  C   UNL     1      -7.733   4.842  68.156  1.00  0.00    -0.082 A  
HETATM   16  C   UNL     1      -9.162   8.780  68.739  1.00  0.00    -0.141 C  
HETATM   17  C   UNL     1      -8.228   4.744  69.464  1.00  0.00    -0.076 A  
HETATM   18  C   UNL     1      -7.481   4.096  70.453  1.00  0.00    -0.045 A  
HETATM   19  C   UNL     1      -6.251   3.530  70.129  1.00  0.00    -0.027 A  
HETATM   20  C   UNL     1      -5.760   3.597  68.825  1.00  0.00    -0.022 A  
HETATM   21 CL   UNL     1      -5.336   2.723  71.342  1.00  0.00    -0.004 Cl 
HETATM   22  C   UNL     1      -6.501   4.249  67.827  1.00  0.00    -0.038 A  
HETATM   23  C   UNL     1      -6.015   4.284  66.400  1.00  0.00    -0.027 C  
HETATM   24  C   UNL     1      -6.875   3.401  65.491  1.00  0.00    -0.052 C  
HETATM   25  C   UNL     1      -8.317   3.787  65.233  1.00  0.00    -0.101 A  
HETATM   26  C   UNL     1      -9.080   4.706  65.968  1.00  0.00    -0.131 A  
HETATM   27  N   UNL     1     -10.401   4.920  65.717  1.00  0.00    -0.212 NA 
HETATM   28  C   UNL     1     -10.968   4.278  64.676  1.00  0.00    -0.005 A  
HETATM   29  C   UNL     1     -10.295   3.381  63.878  1.00  0.00    -0.231 A  
HETATM   30  C   UNL     1      -8.963   3.120  64.175  1.00  0.00    -0.103 A  
ENDBRANCH   8   9
ENDBRANCH   4   8
TORSDOF 2
ENDMDL
MODEL      113
REMARK 921   NORMALIZED FREE ENERGY PREDICTED BY IDOCK:   -3.13 KCAL/MOL
REMARK 922        TOTAL FREE ENERGY PREDICTED BY IDOCK:   -3.90 KCAL/MOL
REMARK 923 INTER-LIGAND FREE ENERGY PREDICTED BY IDOCK:   -3.88 KCAL/MOL
REMARK 924 INTRA-LIGAND FREE ENERGY PREDICTED BY IDOCK:   -0.02 KCAL/MOL
REMARK 927      BINDING AFFINITY PREDICTED BY RF-SCORE:    0.00 PKD
ROOT
HETATM    1  C   UNL     1      -7.708   6.502  71.389  1.00  0.00    -0.099 C  
HETATM    2  C   UNL     1      -7.701   6.962  69.968  1.00  0.00    -0.101 A  
HETATM    3  C   UNL     1      -7.118   8.175  69.580  1.00  0.00    -0.051 A  
HETATM    4  C   UNL     1      -7.109   8.556  68.235  1.00  0.00    -0.085 A  
HETATM    5  C   UNL     1      -7.726   7.687  67.334  1.00  0.00    -0.117 A  
HETATM    6  N   UNL     1      -8.320   6.521  67.668  1.00  0.00    -0.121 NA 
HETATM    7  C   UNL     1      -8.297   6.188  68.976  1.00  0.00    -0.112 A  
ENDROOT
BRANCH   4   8
HETATM    8  C   UNL     1      -6.583   9.880  67.727  1.00  0.00    -0.068 C  
BRANCH   8   9
HETATM    9  N   UNL     1      -6.371  10.954  68.719  1.00  0.00    -0.047 NA 
HETATM   10  C   UNL     1      -5.886  12.221  68.130  1.00  0.00    -0.059 C  
HETATM   11  C   UNL     1      -6.901  12.902  67.202  1.00  0.00     0.064 C  
HETATM   12  C   UNL     1      -8.148  13.268  67.997  1.00  0.00    -0.157 C  
HETATM   13  C   UNL     1      -8.670  14.526  68.092  1.00  0.00    -0.171 C  
HETATM   14  C   UNL     1      -8.711  12.009  68.656  1.00  0.00    -0.014 C  
HETATM   15  C   UNL     1      -9.921  14.741  68.862  1.00  0.00    -0.233 A  
HETATM   16  C   UNL     1      -7.631  11.235  69.453  1.00  0.00     0.050 C  
HETATM   17  C   UNL     1      -9.924  14.667  70.261  1.00  0.00     0.658 A  
HETATM   18  C   UNL     1     -11.106  14.883  70.976  1.00  0.00    -0.126 A  
HETATM   19  C   UNL     1     -12.279  15.192  70.293  1.00  0.00    -0.350 A  
HETATM   20  C   UNL     1     -12.283  15.295  68.902  1.00  0.00    -0.132 A  
HETATM   21 CL   UNL     1     -13.733  15.468  71.172  1.00  0.00    -0.527 Cl 
HETATM   22  C   UNL     1     -11.103  15.075  68.176  1.00  0.00    -0.296 A  
HETATM   23  C   UNL     1     -11.073  15.237  66.677  1.00  0.00    -0.276 C  
HETATM   24  C   UNL     1     -10.279  16.478  66.261  1.00  0.00    -0.343 C  
HETATM   25  C   UNL     1      -8.785  16.518  66.506  1.00  0.00    -0.317 A  
HETATM   26  C   UNL     1      -8.056  15.673  67.355  1.00  0.00    -0.171 A  
HETATM   27  N   UNL     1      -6.725  15.844  67.583  1.00  0.00    -0.154 NA 
HETATM   28  C   UNL     1      -6.078  16.816  66.909  1.00  0.00    -0.177 A  
HETATM   29  C   UNL     1      -6.700  17.676  66.032  1.00  0.00    -0.296 A  
HETATM   30  C   UNL     1      -8.070  17.536  65.848  1.00  0.00    -0.050 A  
ENDBRANCH   8   9
ENDBRANCH   4   8
TORSDOF 2
ENDMDL
MODEL      114
REMARK 921   NORMALIZED FREE ENERGY PREDICTED BY IDOCK:   -3.08 KCAL/MOL
REMARK 922        TOTAL FREE ENERGY PREDICTED BY IDOCK:   -3.84 KCAL/MOL
REMARK 923 INTER-LIGAND FREE ENERGY PREDICTED BY IDOCK:   -3.45 KCAL/MOL
REMARK 924 INTRA-LIGAND FREE ENERGY PREDICTED BY IDOCK:   -0.40 KCAL/MOL
REMARK 927      BINDING AFFINITY PREDICTED BY RF-SCORE:    0.00 PKD
ROOT
HETATM    1  C   UNL     1      -7.595   2.053  68.780  1.00  0.00    -0.043 C  
HETATM    2  C   UNL     1      -8.099   3.247  69.522  1.00  0.00    -0.061 A  
HETATM    3  C   UNL     1      -8.920   4.208  68.919  1.00  0.00    -0.162 A  
HETATM    4  C   UNL     1      -9.392   5.297  69.657  1.00  0.00    -0.174 A  
HETATM    5  C   UNL     1      -8.980   5.378  70.988  1.00  0.00    -0.139 A  
HETATM    6  N   UNL     1      -8.171   4.487  71.602  1.00  0.00    -0.100 NA 
HETATM    7  C   UNL     1      -7.746   3.446  70.854  1.00  0.00    -0.043 A  
ENDROOT
BRANCH   4   8
HETATM    8  C   UNL     1     -10.210   6.430  69.078  1.00  0.00    -0.183 C  
BRANCH   8   9
HETATM    9  N   UNL     1      -9.768   7.809  69.372  1.00  0.00    -0.167 NA 
HETATM   10  C   UNL     1      -8.466   8.159  68.765  1.00  0.00    -0.126 C  
HETATM   11  C   UNL     1      -8.487   8.200  67.232  1.00  0.00    -0.125 C  
HETATM   12  C   UNL     1      -9.460   9.276  66.767  1.00  0.00    -0.228 C  
HETATM   13  C   UNL     1      -9.137  10.316  65.944  1.00  0.00    -0.194 C  
HETATM   14  C   UNL     1     -10.840   8.999  67.365  1.00  0.00    -0.116 C  
HETATM   15  C   UNL     1     -10.193  11.273  65.527  1.00  0.00    -0.312 A  
HETATM   16  C   UNL     1     -10.779   8.788  68.899  1.00  0.00    -0.087 C  
HETATM   17  C   UNL     1     -10.722  12.198  66.437  1.00  0.00    -0.292 A  
HETATM   18  C   UNL     1     -11.707  13.102  66.030  1.00  0.00    -0.424 A  
HETATM   19  C   UNL     1     -12.148  13.095  64.710  1.00  0.00    -0.409 A  
HETATM   20  C   UNL     1     -11.609  12.197  63.788  1.00  0.00    -0.557 A  
HETATM   21 CL   UNL     1     -13.353  14.214  64.204  1.00  0.00     1.437 Cl 
HETATM   22  C   UNL     1     -10.623  11.283  64.188  1.00  0.00    -0.437 A  
HETATM   23  C   UNL     1      -9.988  10.343  63.195  1.00  0.00    -0.097 C  
HETATM   24  C   UNL     1      -8.534  10.728  62.907  1.00  0.00    -0.168 C  
HETATM   25  C   UNL     1      -7.502  10.598  64.009  1.00  0.00     0.216 A  
HETATM   26  C   UNL     1      -7.759  10.452  65.379  1.00  0.00    -0.136 A  
HETATM   27  N   UNL     1      -6.763  10.437  66.308  1.00  0.00    -0.104 NA 
HETATM   28  C   UNL     1      -5.485  10.489  65.880  1.00  0.00    -0.101 A  
HETATM   29  C   UNL     1      -5.132  10.603  64.554  1.00  0.00    -0.154 A  
HETATM   30  C   UNL     1      -6.153  10.679  63.615  1.00  0.00     0.039 A  
ENDBRANCH   8   9
ENDBRANCH   4   8
TORSDOF 2
ENDMDL
MODEL      115
REMARK 921   NORMALIZED FREE ENERGY PREDICTED BY IDOCK:   -3.06 KCAL/MOL
REMARK 922        TOTAL FREE ENERGY PREDICTED BY IDOCK:   -3.82 KCAL/MOL
REMARK 923 INTER-LIGAND FREE ENERGY PREDICTED BY IDOCK:   -3.58 KCAL/MOL
REMARK 924 INTRA-LIGAND FREE ENERGY PREDICTED BY IDOCK:   -0.24 KCAL/MOL
REMARK 927      BINDING AFFINITY PREDICTED BY RF-SCORE:    0.00 PKD
ROOT
HETATM    1  C   UNL     1      -8.842  16.319  66.323  1.00  0.00    -0.367 C  
HETATM    2  C   UNL     1      -8.337  15.387  67.375  1.00  0.00    -0.204 A  
HETATM    3  C   UNL     1      -8.466  13.997  67.265  1.00  0.00    -0.220 A  
HETATM    4  C   UNL     1      -7.956  13.159  68.261  1.00  0.00    -0.148 A  
HETATM    5  C   UNL     1      -7.351  13.780  69.354  1.00  0.00     0.182 A  
HETATM    6  N   UNL     1      -7.226  15.116  69.511  1.00  0.00    -0.193 NA 
HETATM    7  C   UNL     1      -7.725  15.887  68.522  1.00  0.00    -0.147 A  
ENDROOT
BRANCH   4   8
HETATM    8  C   UNL     1      -8.120  11.655  68.277  1.00  0.00    -0.150 C  
BRANCH   8   9
HETATM    9  N   UNL     1      -7.062  10.861  68.936  1.00  0.00    -0.082 NA 
HETATM   10  C   UNL     1      -7.457  10.322  70.254  1.00  0.00     0.036 C  
HETATM   11  C   UNL     1      -8.579   9.278  70.186  1.00  0.00    -0.215 C  
HETATM   12  C   UNL     1      -8.106   8.078  69.376  1.00  0.00    -0.118 C  
HETATM   13  C   UNL     1      -8.091   6.790  69.827  1.00  0.00    -0.126 C  
HETATM   14  C   UNL     1      -7.661   8.551  67.991  1.00  0.00    -0.098 C  
HETATM   15  C   UNL     1      -7.649   5.703  68.917  1.00  0.00    -0.088 A  
HETATM   16  C   UNL     1      -6.653   9.725  68.072  1.00  0.00    -0.061 C  
HETATM   17  C   UNL     1      -6.299   5.564  68.569  1.00  0.00    -0.038 A  
HETATM   18  C   UNL     1      -5.892   4.529  67.721  1.00  0.00    -0.022 A  
HETATM   19  C   UNL     1      -6.832   3.623  67.238  1.00  0.00    -0.050 A  
HETATM   20  C   UNL     1      -8.175   3.734  67.600  1.00  0.00    -0.090 A  
HETATM   21 CL   UNL     1      -6.333   2.342  66.203  1.00  0.00    -0.024 Cl 
HETATM   22  C   UNL     1      -8.593   4.772  68.446  1.00  0.00    -0.104 A  
HETATM   23  C   UNL     1     -10.029   4.877  68.895  1.00  0.00    -0.220 C  
HETATM   24  C   UNL     1     -10.181   4.536  70.380  1.00  0.00    -0.145 C  
HETATM   25  C   UNL     1      -9.570   5.455  71.417  1.00  0.00    -0.202 A  
HETATM   26  C   UNL     1      -8.602   6.444  71.189  1.00  0.00    -0.128 A  
HETATM   27  N   UNL     1      -8.042   7.161  72.202  1.00  0.00    -0.095 NA 
HETATM   28  C   UNL     1      -8.493   6.958  73.457  1.00  0.00    -0.128 A  
HETATM   29  C   UNL     1      -9.459   6.031  73.777  1.00  0.00    -0.144 A  
HETATM   30  C   UNL     1      -9.985   5.261  72.748  1.00  0.00    -0.189 A  
ENDBRANCH   8   9
ENDBRANCH   4   8
TORSDOF 2
ENDMDL
MODEL      116
REMARK 921   NORMALIZED FREE ENERGY PREDICTED BY IDOCK:   -3.01 KCAL/MOL
REMARK 922        TOTAL FREE ENERGY PREDICTED BY IDOCK:   -3.76 KCAL/MOL
REMARK 923 INTER-LIGAND FREE ENERGY PREDICTED BY IDOCK:   -3.54 KCAL/MOL
REMARK 924 INTRA-LIGAND FREE ENERGY PREDICTED BY IDOCK:   -0.22 KCAL/MOL
REMARK 927      BINDING AFFINITY PREDICTED BY RF-SCORE:    0.00 PKD
ROOT
HETATM    1  C   UNL     1      -7.762   6.471  62.613  1.00  0.00    -0.096 C  
HETATM    2  C   UNL     1      -8.353   5.381  63.446  1.00  0.00    -0.098 A  
HETATM    3  C   UNL     1      -8.059   5.240  64.808  1.00  0.00    -0.124 A  
HETATM    4  C   UNL     1      -8.654   4.221  65.557  1.00  0.00    -0.119 A  
HETATM    5  C   UNL     1      -9.513   3.360  64.874  1.00  0.00    -0.156 A  
HETATM    6  N   UNL     1      -9.806   3.445  63.557  1.00  0.00    -0.136 NA 
HETATM    7  C   UNL     1      -9.216   4.450  62.874  1.00  0.00    -0.124 A  
ENDROOT
BRANCH   4   8
HETATM    8  C   UNL     1      -8.337   3.933  67.009  1.00  0.00    -0.100 C  
BRANCH   8   9
HETATM    9  N   UNL     1      -9.267   4.466  68.027  1.00  0.00    -0.128 NA 
HETATM   10  C   UNL     1      -8.655   4.630  69.363  1.00  0.00    -0.082 C  
HETATM   11  C   UNL     1      -7.553   5.695  69.415  1.00  0.00    -0.083 C  
HETATM   12  C   UNL     1      -8.145   7.054  69.064  1.00  0.00    -0.121 C  
HETATM   13  C   UNL     1      -8.077   8.163  69.858  1.00  0.00    -0.115 C  
HETATM   14  C   UNL     1      -8.816   6.971  67.692  1.00  0.00    -0.119 C  
HETATM   15  C   UNL     1      -8.656   9.442  69.377  1.00  0.00    -0.148 A  
HETATM   16  C   UNL     1      -9.805   5.782  67.597  1.00  0.00    -0.126 C  
HETATM   17  C   UNL     1     -10.044   9.619  69.303  1.00  0.00    -0.201 A  
HETATM   18  C   UNL     1     -10.578  10.832  68.860  1.00  0.00    -0.246 A  
HETATM   19  C   UNL     1      -9.724  11.875  68.510  1.00  0.00    -0.169 A  
HETATM   20  C   UNL     1      -8.341  11.721  68.605  1.00  0.00    -0.079 A  
HETATM   21 CL   UNL     1     -10.379  13.373  67.974  1.00  0.00    -0.235 Cl 
HETATM   22  C   UNL     1      -7.797  10.505  69.044  1.00  0.00    -0.129 A  
HETATM   23  C   UNL     1      -6.307  10.337  69.208  1.00  0.00    -0.047 C  
HETATM   24  C   UNL     1      -5.909  10.253  70.684  1.00  0.00    -0.102 C  
HETATM   25  C   UNL     1      -6.347   9.057  71.502  1.00  0.00    -0.079 A  
HETATM   26  C   UNL     1      -7.345   8.133  71.161  1.00  0.00    -0.065 A  
HETATM   27  N   UNL     1      -7.735   7.138  72.006  1.00  0.00    -0.090 NA 
HETATM   28  C   UNL     1      -7.082   6.999  73.178  1.00  0.00    -0.073 A  
HETATM   29  C   UNL     1      -6.070   7.837  73.588  1.00  0.00    -0.071 A  
HETATM   30  C   UNL     1      -5.716   8.886  72.749  1.00  0.00    -0.077 A  
ENDBRANCH   8   9
ENDBRANCH   4   8
TORSDOF 2
ENDMDL
MODEL      117
REMARK 921   NORMALIZED FREE ENERGY PREDICTED BY IDOCK:   -2.97 KCAL/MOL
REMARK 922        TOTAL FREE ENERGY PREDICTED BY IDOCK:   -3.72 KCAL/MOL
REMARK 923 INTER-LIGAND FREE ENERGY PREDICTED BY IDOCK:   -3.47 KCAL/MOL
REMARK 924 INTRA-LIGAND FREE ENERGY PREDICTED BY IDOCK:   -0.24 KCAL/MOL
REMARK 927      BINDING AFFINITY PREDICTED BY RF-SCORE:    0.00 PKD
ROOT
HETATM    1  C   UNL     1     -11.395   2.124  74.013  1.00  0.00    -0.163 C  
HETATM    2  C   UNL     1     -10.140   2.528  73.312  1.00  0.00    -0.190 A  
HETATM    3  C   UNL     1      -9.982   2.392  71.927  1.00  0.00    -0.220 A  
HETATM    4  C   UNL     1      -8.800   2.808  71.306  1.00  0.00    -0.131 A  
HETATM    5  C   UNL     1      -7.805   3.325  72.136  1.00  0.00    -0.059 A  
HETATM    6  N   UNL     1      -7.906   3.451  73.477  1.00  0.00    -0.069 NA 
HETATM    7  C   UNL     1      -9.067   3.046  74.033  1.00  0.00    -0.081 A  
ENDROOT
BRANCH   4   8
HETATM    8  C   UNL     1      -8.500   2.626  69.834  1.00  0.00    -0.050 C  
BRANCH   8   9
HETATM    9  N   UNL     1      -9.418   3.265  68.868  1.00  0.00    -0.161 NA 
HETATM   10  C   UNL     1      -9.994   4.539  69.349  1.00  0.00    -0.142 C  
HETATM   11  C   UNL     1      -8.961   5.659  69.527  1.00  0.00    -0.129 C  
HETATM   12  C   UNL     1      -8.323   5.978  68.181  1.00  0.00    -0.113 C  
HETATM   13  C   UNL     1      -8.306   7.213  67.600  1.00  0.00    -0.117 C  
HETATM   14  C   UNL     1      -7.710   4.703  67.601  1.00  0.00    -0.086 C  
HETATM   15  C   UNL     1      -7.607   7.400  66.303  1.00  0.00    -0.088 A  
HETATM   16  C   UNL     1      -8.718   3.526  67.585  1.00  0.00    -0.109 C  
HETATM   17  C   UNL     1      -8.145   6.883  65.117  1.00  0.00    -0.132 A  
HETATM   18  C   UNL     1      -7.484   7.076  63.901  1.00  0.00    -0.096 A  
HETATM   19  C   UNL     1      -6.296   7.802  63.867  1.00  0.00    -0.058 A  
HETATM   20  C   UNL     1      -5.765   8.345  65.038  1.00  0.00    -0.044 A  
HETATM   21 CL   UNL     1      -5.487   8.050  62.370  1.00  0.00    -0.064 Cl 
HETATM   22  C   UNL     1      -6.419   8.153  66.263  1.00  0.00    -0.047 A  
HETATM   23  C   UNL     1      -5.891   8.778  67.530  1.00  0.00    -0.043 C  
HETATM   24  C   UNL     1      -6.796   9.915  68.015  1.00  0.00    -0.072 C  
HETATM   25  C   UNL     1      -8.192   9.593  68.505  1.00  0.00    -0.105 A  
HETATM   26  C   UNL     1      -8.896   8.399  68.293  1.00  0.00    -0.139 A  
HETATM   27  N   UNL     1     -10.187   8.235  68.694  1.00  0.00    -0.201 NA 
HETATM   28  C   UNL     1     -10.776   9.233  69.385  1.00  0.00    -0.208 A  
HETATM   29  C   UNL     1     -10.157  10.429  69.668  1.00  0.00    -0.226 A  
HETATM   30  C   UNL     1      -8.861  10.615  69.205  1.00  0.00    -0.133 A  
ENDBRANCH   8   9
ENDBRANCH   4   8
TORSDOF 2
ENDMDL
MODEL      118
REMARK 921   NORMALIZED FREE ENERGY PREDICTED BY IDOCK:   -2.89 KCAL/MOL
REMARK 922        TOTAL FREE ENERGY PREDICTED BY IDOCK:   -3.63 KCAL/MOL
REMARK 923 INTER-LIGAND FREE ENERGY PREDICTED BY IDOCK:   -4.69 KCAL/MOL
REMARK 924 INTRA-LIGAND FREE ENERGY PREDICTED BY IDOCK:    1.06 KCAL/MOL
REMARK 927      BINDING AFFINITY PREDICTED BY RF-SCORE:    0.00 PKD
ROOT
HETATM    1  C   UNL     1     -10.954   7.834  70.122  1.00  0.00    -0.246 C  
HETATM    2  C   UNL     1      -9.483   7.647  69.948  1.00  0.00    -0.160 A  
HETATM    3  C   UNL     1      -8.912   7.330  68.709  1.00  0.00    -0.129 A  
HETATM    4  C   UNL     1      -7.527   7.190  68.584  1.00  0.00    -0.102 A  
HETATM    5  C   UNL     1      -6.773   7.352  69.747  1.00  0.00    -0.044 A  
HETATM    6  N   UNL     1      -7.284   7.635  70.966  1.00  0.00    -0.058 NA 
HETATM    7  C   UNL     1      -8.625   7.771  71.038  1.00  0.00    -0.127 A  
ENDROOT
BRANCH   4   8
HETATM    8  C   UNL     1      -6.823   6.766  67.313  1.00  0.00    -0.072 C  
BRANCH   8   9
HETATM    9  N   UNL     1      -6.305   7.835  66.434  1.00  0.00    -0.045 NA 
HETATM   10  C   UNL     1      -7.266   8.271  65.398  1.00  0.00    -0.071 C  
HETATM   11  C   UNL     1      -8.514   8.962  65.962  1.00  0.00    -0.138 C  
HETATM   12  C   UNL     1      -8.102  10.229  66.701  1.00  0.00    -0.119 C  
HETATM   13  C   UNL     1      -8.573  11.480  66.425  1.00  0.00    -0.159 C  
HETATM   14  C   UNL     1      -7.090   9.869  67.789  1.00  0.00    -0.087 C  
HETATM   15  C   UNL     1      -8.125  12.628  67.254  1.00  0.00    -0.178 A  
HETATM   16  C   UNL     1      -5.916   9.022  67.237  1.00  0.00    -0.050 C  
HETATM   17  C   UNL     1      -6.821  13.128  67.141  1.00  0.00     0.175 A  
HETATM   18  C   UNL     1      -6.414  14.217  67.918  1.00  0.00    -0.174 A  
HETATM   19  C   UNL     1      -7.316  14.818  68.791  1.00  0.00    -0.129 A  
HETATM   20  C   UNL     1      -8.625  14.346  68.892  1.00  0.00    -0.064 A  
HETATM   21 CL   UNL     1      -6.820  16.165  69.740  1.00  0.00    -0.142 Cl 
HETATM   22  C   UNL     1      -9.041  13.251  68.120  1.00  0.00    -0.207 A  
HETATM   23  C   UNL     1     -10.467  12.762  68.173  1.00  0.00    -0.244 C  
HETATM   24  C   UNL     1     -11.218  13.079  66.876  1.00  0.00    -0.331 C  
HETATM   25  C   UNL     1     -10.806  12.387  65.594  1.00  0.00    -0.312 A  
HETATM   26  C   UNL     1      -9.605  11.699  65.366  1.00  0.00    -0.205 A  
HETATM   27  N   UNL     1      -9.281  11.187  64.146  1.00  0.00    -0.153 NA 
HETATM   28  C   UNL     1     -10.184  11.283  63.149  1.00  0.00    -0.319 A  
HETATM   29  C   UNL     1     -11.401  11.912  63.284  1.00  0.00    -0.373 A  
HETATM   30  C   UNL     1     -11.702  12.486  64.513  1.00  0.00    -0.423 A  
ENDBRANCH   8   9
ENDBRANCH   4   8
TORSDOF 2
ENDMDL
MODEL      119
REMARK 921   NORMALIZED FREE ENERGY PREDICTED BY IDOCK:   -2.75 KCAL/MOL
REMARK 922        TOTAL FREE ENERGY PREDICTED BY IDOCK:   -3.47 KCAL/MOL
REMARK 923 INTER-LIGAND FREE ENERGY PREDICTED BY IDOCK:   -3.95 KCAL/MOL
REMARK 924 INTRA-LIGAND FREE ENERGY PREDICTED BY IDOCK:    0.48 KCAL/MOL
REMARK 927      BINDING AFFINITY PREDICTED BY RF-SCORE:    0.00 PKD
ROOT
HETATM    1  C   UNL     1     -11.118  14.649  64.373  1.00  0.00    -0.153 C  
HETATM    2  C   UNL     1     -11.004  13.906  65.663  1.00  0.00    -0.290 A  
HETATM    3  C   UNL     1      -9.938  14.107  66.549  1.00  0.00    -0.289 A  
HETATM    4  C   UNL     1      -9.883  13.409  67.759  1.00  0.00    -0.234 A  
HETATM    5  C   UNL     1     -10.915  12.504  68.008  1.00  0.00    -0.232 A  
HETATM    6  N   UNL     1     -11.949  12.262  67.172  1.00  0.00    -0.576 NA 
HETATM    7  C   UNL     1     -11.966  12.964  66.019  1.00  0.00    -0.446 A  
ENDROOT
BRANCH   4   8
HETATM    8  C   UNL     1      -8.734  13.492  68.740  1.00  0.00     0.102 C  
BRANCH   8   9
HETATM    9  N   UNL     1      -7.476  12.807  68.375  1.00  0.00    -0.118 NA 
HETATM   10  C   UNL     1      -6.978  11.884  69.417  1.00  0.00    -0.001 C  
HETATM   11  C   UNL     1      -7.888  10.673  69.659  1.00  0.00    -0.048 C  
HETATM   12  C   UNL     1      -7.980   9.845  68.385  1.00  0.00    -0.096 C  
HETATM   13  C   UNL     1      -7.667   8.519  68.292  1.00  0.00    -0.102 C  
HETATM   14  C   UNL     1      -8.477  10.732  67.243  1.00  0.00    -0.124 C  
HETATM   15  C   UNL     1      -7.845   7.815  66.997  1.00  0.00    -0.112 A  
HETATM   16  C   UNL     1      -7.653  12.038  67.118  1.00  0.00    -0.146 C  
HETATM   17  C   UNL     1      -6.982   8.062  65.922  1.00  0.00    -0.057 A  
HETATM   18  C   UNL     1      -7.152   7.385  64.711  1.00  0.00    -0.061 A  
HETATM   19  C   UNL     1      -8.172   6.446  64.583  1.00  0.00    -0.069 A  
HETATM   20  C   UNL     1      -9.022   6.172  65.655  1.00  0.00    -0.056 A  
HETATM   21 CL   UNL     1      -8.378   5.603  63.097  1.00  0.00    -0.094 Cl 
HETATM   22  C   UNL     1      -8.861   6.850  66.872  1.00  0.00    -0.122 A  
HETATM   23  C   UNL     1      -9.731   6.528  68.061  1.00  0.00    -0.119 C  
HETATM   24  C   UNL     1      -8.943   5.803  69.155  1.00  0.00    -0.120 C  
HETATM   25  C   UNL     1      -7.847   6.543  69.892  1.00  0.00    -0.115 A  
HETATM   26  C   UNL     1      -7.238   7.743  69.496  1.00  0.00    -0.079 A  
HETATM   27  N   UNL     1      -6.193   8.288  70.178  1.00  0.00    -0.031 NA 
HETATM   28  C   UNL     1      -5.785   7.687  71.314  1.00  0.00    -0.035 A  
HETATM   29  C   UNL     1      -6.338   6.523  71.800  1.00  0.00    -0.042 A  
HETATM   30  C   UNL     1      -7.364   5.939  71.069  1.00  0.00    -0.082 A  
ENDBRANCH   8   9
ENDBRANCH   4   8
TORSDOF 2
ENDMDL
MODEL      120
REMARK 921   NORMALIZED FREE ENERGY PREDICTED BY IDOCK:   -2.74 KCAL/MOL
REMARK 922        TOTAL FREE ENERGY PREDICTED BY IDOCK:   -3.46 KCAL/MOL
REMARK 923 INTER-LIGAND FREE ENERGY PREDICTED BY IDOCK:   -4.64 KCAL/MOL
REMARK 924 INTRA-LIGAND FREE ENERGY PREDICTED BY IDOCK:    1.18 KCAL/MOL
REMARK 927      BINDING AFFINITY PREDICTED BY RF-SCORE:    0.00 PKD
ROOT
HETATM    1  C   UNL     1     -11.887  12.476  67.614  1.00  0.00    -0.381 C  
HETATM    2  C   UNL     1     -10.714  11.774  67.012  1.00  0.00    -0.286 A  
HETATM    3  C   UNL     1      -9.413  11.940  67.503  1.00  0.00    -0.176 A  
HETATM    4  C   UNL     1      -8.347  11.244  66.928  1.00  0.00    -0.155 A  
HETATM    5  C   UNL     1      -8.649  10.418  65.844  1.00  0.00    -0.158 A  
HETATM    6  N   UNL     1      -9.884  10.248  65.324  1.00  0.00    -0.286 NA 
HETATM    7  C   UNL     1     -10.886  10.932  65.917  1.00  0.00    -0.062 A  
ENDROOT
BRANCH   4   8
HETATM    8  C   UNL     1      -6.898  11.418  67.329  1.00  0.00    -0.115 C  
BRANCH   8   9
HETATM    9  N   UNL     1      -6.508  10.971  68.682  1.00  0.00    -0.050 NA 
HETATM   10  C   UNL     1      -7.648  10.822  69.612  1.00  0.00    -0.042 C  
HETATM   11  C   UNL     1      -8.622   9.703  69.224  1.00  0.00    -0.153 C  
HETATM   12  C   UNL     1      -7.894   8.365  69.249  1.00  0.00    -0.104 C  
HETATM   13  C   UNL     1      -8.276   7.283  69.988  1.00  0.00    -0.132 C  
HETATM   14  C   UNL     1      -6.682   8.435  68.319  1.00  0.00    -0.065 C  
HETATM   15  C   UNL     1      -7.503   6.020  69.887  1.00  0.00    -0.080 A  
HETATM   16  C   UNL     1      -5.794   9.671  68.610  1.00  0.00    -0.039 C  
HETATM   17  C   UNL     1      -6.225   5.914  70.450  1.00  0.00    -0.031 A  
HETATM   18  C   UNL     1      -5.511   4.715  70.359  1.00  0.00    -0.011 A  
HETATM   19  C   UNL     1      -6.084   3.617  69.722  1.00  0.00    -0.023 A  
HETATM   20  C   UNL     1      -7.368   3.702  69.181  1.00  0.00    -0.050 A  
HETATM   21 CL   UNL     1      -5.212   2.138  69.618  1.00  0.00    -0.011 Cl 
HETATM   22  C   UNL     1      -8.089   4.902  69.265  1.00  0.00    -0.078 A  
HETATM   23  C   UNL     1      -9.498   4.998  68.737  1.00  0.00    -0.192 C  
HETATM   24  C   UNL     1     -10.518   5.112  69.873  1.00  0.00    -0.296 C  
HETATM   25  C   UNL     1     -10.531   6.358  70.734  1.00  0.00    -0.270 A  
HETATM   26  C   UNL     1      -9.515   7.320  70.825  1.00  0.00    -0.164 A  
HETATM   27  N   UNL     1      -9.577   8.363  71.699  1.00  0.00    -0.197 NA 
HETATM   28  C   UNL     1     -10.690   8.508  72.446  1.00  0.00    -0.306 A  
HETATM   29  C   UNL     1     -11.752   7.634  72.406  1.00  0.00    -0.366 A  
HETATM   30  C   UNL     1     -11.659   6.539  71.557  1.00  0.00    -0.366 A  
ENDBRANCH   8   9
ENDBRANCH   4   8
TORSDOF 2
ENDMDL
MODEL      121
REMARK 921   NORMALIZED FREE ENERGY PREDICTED BY IDOCK:   -2.68 KCAL/MOL
REMARK 922        TOTAL FREE ENERGY PREDICTED BY IDOCK:   -3.39 KCAL/MOL
REMARK 923 INTER-LIGAND FREE ENERGY PREDICTED BY IDOCK:   -3.28 KCAL/MOL
REMARK 924 INTRA-LIGAND FREE ENERGY PREDICTED BY IDOCK:   -0.11 KCAL/MOL
REMARK 927      BINDING AFFINITY PREDICTED BY RF-SCORE:    0.00 PKD
ROOT
HETATM    1  C   UNL     1      -6.863   3.696  62.434  1.00  0.00    -0.027 C  
HETATM    2  C   UNL     1      -7.907   3.192  63.375  1.00  0.00    -0.069 A  
HETATM    3  C   UNL     1      -7.833   3.407  64.757  1.00  0.00    -0.078 A  
HETATM    4  C   UNL     1      -8.845   2.941  65.601  1.00  0.00    -0.136 A  
HETATM    5  C   UNL     1      -9.891   2.241  64.997  1.00  0.00     0.280 A  
HETATM    6  N   UNL     1      -9.990   1.990  63.673  1.00  0.00    -0.128 NA 
HETATM    7  C   UNL     1      -8.995   2.467  62.895  1.00  0.00    -0.088 A  
ENDROOT
BRANCH   4   8
HETATM    8  C   UNL     1      -8.815   3.048  67.110  1.00  0.00    -0.143 C  
BRANCH   8   9
HETATM    9  N   UNL     1      -9.748   4.002  67.743  1.00  0.00    -0.141 NA 
HETATM   10  C   UNL     1      -9.191   4.676  68.935  1.00  0.00    -0.129 C  
HETATM   11  C   UNL     1      -8.013   5.610  68.626  1.00  0.00    -0.100 C  
HETATM   12  C   UNL     1      -8.481   6.727  67.702  1.00  0.00    -0.122 C  
HETATM   13  C   UNL     1      -8.365   8.060  67.971  1.00  0.00    -0.126 C  
HETATM   14  C   UNL     1      -9.089   6.114  66.441  1.00  0.00    -0.158 C  
HETATM   15  C   UNL     1      -8.819   9.051  66.963  1.00  0.00    -0.131 A  
HETATM   16  C   UNL     1     -10.161   5.045  66.770  1.00  0.00    -0.248 C  
HETATM   17  C   UNL     1     -10.184   9.250  66.717  1.00  0.00    -0.325 A  
HETATM   18  C   UNL     1     -10.600  10.194  65.774  1.00  0.00    -0.017 A  
HETATM   19  C   UNL     1      -9.652  10.952  65.091  1.00  0.00    -0.243 A  
HETATM   20  C   UNL     1      -8.291  10.781  65.346  1.00  0.00    -0.104 A  
HETATM   21 CL   UNL     1     -10.162  12.121  63.937  1.00  0.00    -0.400 Cl 
HETATM   22  C   UNL     1      -7.865   9.833  66.288  1.00  0.00    -0.106 A  
HETATM   23  C   UNL     1      -6.402   9.673  66.619  1.00  0.00    -0.066 C  
HETATM   24  C   UNL     1      -6.083  10.192  68.024  1.00  0.00    -0.052 C  
HETATM   25  C   UNL     1      -6.652   9.469  69.227  1.00  0.00    -0.048 A  
HETATM   26  C   UNL     1      -7.701   8.539  69.223  1.00  0.00    -0.093 A  
HETATM   27  N   UNL     1      -8.207   8.008  70.370  1.00  0.00    -0.116 NA 
HETATM   28  C   UNL     1      -7.624   8.337  71.541  1.00  0.00    -0.092 A  
HETATM   29  C   UNL     1      -6.571   9.217  71.645  1.00  0.00     0.000 A  
HETATM   30  C   UNL     1      -6.097   9.802  70.477  1.00  0.00    -0.078 A  
ENDBRANCH   8   9
ENDBRANCH   4   8
TORSDOF 2
ENDMDL
MODEL      122
REMARK 921   NORMALIZED FREE ENERGY PREDICTED BY IDOCK:   -2.63 KCAL/MOL
REMARK 922        TOTAL FREE ENERGY PREDICTED BY IDOCK:   -3.34 KCAL/MOL
REMARK 923 INTER-LIGAND FREE ENERGY PREDICTED BY IDOCK:   -3.86 KCAL/MOL
REMARK 924 INTRA-LIGAND FREE ENERGY PREDICTED BY IDOCK:    0.52 KCAL/MOL
REMARK 927      BINDING AFFINITY PREDICTED BY RF-SCORE:    0.00 PKD
ROOT
HETATM    1  C   UNL     1     -11.535  10.648  68.400  1.00  0.00    -0.330 C  
HETATM    2  C   UNL     1     -10.162  10.967  67.906  1.00  0.00    -0.207 A  
HETATM    3  C   UNL     1      -9.053  11.007  68.761  1.00  0.00    -0.161 A  
HETATM    4  C   UNL     1      -7.780  11.283  68.253  1.00  0.00    -0.122 A  
HETATM    5  C   UNL     1      -7.693  11.539  66.884  1.00  0.00    -0.157 A  
HETATM    6  N   UNL     1      -8.739  11.534  66.029  1.00  0.00    -0.144 NA 
HETATM    7  C   UNL     1      -9.948  11.253  66.560  1.00  0.00    -0.212 A  
ENDROOT
BRANCH   4   8
HETATM    8  C   UNL     1      -6.537  11.433  69.103  1.00  0.00    -0.095 C  
BRANCH   8   9
HETATM    9  N   UNL     1      -5.652  10.256  69.228  1.00  0.00    -0.038 NA 
HETATM   10  C   UNL     1      -5.657   9.648  70.576  1.00  0.00    -0.048 C  
HETATM   11  C   UNL     1      -7.001   9.022  70.969  1.00  0.00    -0.097 C  
HETATM   12  C   UNL     1      -7.334   7.890  70.006  1.00  0.00    -0.070 C  
HETATM   13  C   UNL     1      -7.591   6.602  70.376  1.00  0.00    -0.096 C  
HETATM   14  C   UNL     1      -7.336   8.431  68.576  1.00  0.00    -0.093 C  
HETATM   15  C   UNL     1      -7.950   5.601  69.339  1.00  0.00    -0.099 A  
HETATM   16  C   UNL     1      -6.039   9.212  68.246  1.00  0.00    -0.053 C  
HETATM   17  C   UNL     1      -6.986   5.119  68.444  1.00  0.00    -0.057 A  
HETATM   18  C   UNL     1      -7.333   4.169  67.479  1.00  0.00    -0.068 A  
HETATM   19  C   UNL     1      -8.637   3.686  67.423  1.00  0.00    -0.104 A  
HETATM   20  C   UNL     1      -9.600   4.138  68.327  1.00  0.00    -0.191 A  
HETATM   21 CL   UNL     1      -9.064   2.508  66.244  1.00  0.00    -0.134 Cl 
HETATM   22  C   UNL     1      -9.261   5.095  69.295  1.00  0.00    -0.151 A  
HETATM   23  C   UNL     1     -10.271   5.555  70.317  1.00  0.00    -0.326 C  
HETATM   24  C   UNL     1      -9.935   5.031  71.716  1.00  0.00    -0.250 C  
HETATM   25  C   UNL     1      -8.687   5.532  72.413  1.00  0.00    -0.128 A  
HETATM   26  C   UNL     1      -7.610   6.204  71.817  1.00  0.00    -0.096 A  
HETATM   27  N   UNL     1      -6.486   6.535  72.510  1.00  0.00    -0.058 NA 
HETATM   28  C   UNL     1      -6.446   6.270  73.832  1.00  0.00    -0.070 A  
HETATM   29  C   UNL     1      -7.465   5.641  74.513  1.00  0.00    -0.087 A  
HETATM   30  C   UNL     1      -8.585   5.252  73.789  1.00  0.00    -0.113 A  
ENDBRANCH   8   9
ENDBRANCH   4   8
TORSDOF 2
ENDMDL
MODEL      123
REMARK 921   NORMALIZED FREE ENERGY PREDICTED BY IDOCK:   -2.55 KCAL/MOL
REMARK 922        TOTAL FREE ENERGY PREDICTED BY IDOCK:   -3.25 KCAL/MOL
REMARK 923 INTER-LIGAND FREE ENERGY PREDICTED BY IDOCK:   -2.95 KCAL/MOL
REMARK 924 INTRA-LIGAND FREE ENERGY PREDICTED BY IDOCK:   -0.30 KCAL/MOL
REMARK 927      BINDING AFFINITY PREDICTED BY RF-SCORE:    0.00 PKD
ROOT
HETATM    1  C   UNL     1     -10.923   2.876  73.607  1.00  0.00    -0.318 C  
HETATM    2  C   UNL     1     -10.432   4.261  73.342  1.00  0.00    -0.260 A  
HETATM    3  C   UNL     1      -9.968   4.660  72.082  1.00  0.00    -0.241 A  
HETATM    4  C   UNL     1      -9.541   5.974  71.869  1.00  0.00    -0.166 A  
HETATM    5  C   UNL     1      -9.579   6.831  72.970  1.00  0.00    -0.148 A  
HETATM    6  N   UNL     1      -9.995   6.482  74.207  1.00  0.00    -0.310 NA 
HETATM    7  C   UNL     1     -10.408   5.206  74.364  1.00  0.00    -0.279 A  
ENDROOT
BRANCH   4   8
HETATM    8  C   UNL     1      -8.945   6.478  70.573  1.00  0.00    -0.152 C  
BRANCH   8   9
HETATM    9  N   UNL     1      -9.878   6.995  69.551  1.00  0.00    -0.160 NA 
HETATM   10  C   UNL     1      -9.256   7.946  68.604  1.00  0.00    -0.142 C  
HETATM   11  C   UNL     1      -8.187   7.313  67.703  1.00  0.00    -0.114 C  
HETATM   12  C   UNL     1      -8.825   6.232  66.841  1.00  0.00    -0.115 C  
HETATM   13  C   UNL     1      -8.782   6.196  65.477  1.00  0.00    -0.105 C  
HETATM   14  C   UNL     1      -9.510   5.207  67.746  1.00  0.00    -0.150 C  
HETATM   15  C   UNL     1      -9.406   5.057  64.757  1.00  0.00     0.048 A  
HETATM   16  C   UNL     1     -10.462   5.876  68.770  1.00  0.00    -0.249 C  
HETATM   17  C   UNL     1     -10.800   4.932  64.685  1.00  0.00     0.688 A  
HETATM   18  C   UNL     1     -11.377   3.863  63.994  1.00  0.00     0.547 A  
HETATM   19  C   UNL     1     -10.560   2.931  63.358  1.00  0.00    -0.228 A  
HETATM   20  C   UNL     1      -9.172   3.060  63.400  1.00  0.00    -0.095 A  
HETATM   21 CL   UNL     1     -11.268   1.620  62.498  1.00  0.00    -0.190 Cl 
HETATM   22  C   UNL     1      -8.584   4.127  64.095  1.00  0.00    -0.110 A  
HETATM   23  C   UNL     1      -7.088   4.317  64.104  1.00  0.00    -0.046 C  
HETATM   24  C   UNL     1      -6.670   5.534  63.274  1.00  0.00    -0.033 C  
HETATM   25  C   UNL     1      -7.060   6.920  63.743  1.00  0.00    -0.061 A  
HETATM   26  C   UNL     1      -8.033   7.233  64.703  1.00  0.00    -0.115 A  
HETATM   27  N   UNL     1      -8.382   8.517  64.993  1.00  0.00    -0.161 NA 
HETATM   28  C   UNL     1      -7.711   9.517  64.387  1.00  0.00    -0.123 A  
HETATM   29  C   UNL     1      -6.720   9.310  63.453  1.00  0.00    -0.091 A  
HETATM   30  C   UNL     1      -6.409   7.999  63.116  1.00  0.00    -0.076 A  
ENDBRANCH   8   9
ENDBRANCH   4   8
TORSDOF 2
ENDMDL
MODEL      124
REMARK 921   NORMALIZED FREE ENERGY PREDICTED BY IDOCK:   -2.52 KCAL/MOL
REMARK 922        TOTAL FREE ENERGY PREDICTED BY IDOCK:   -3.22 KCAL/MOL
REMARK 923 INTER-LIGAND FREE ENERGY PREDICTED BY IDOCK:   -5.42 KCAL/MOL
REMARK 924 INTRA-LIGAND FREE ENERGY PREDICTED BY IDOCK:    2.21 KCAL/MOL
REMARK 927      BINDING AFFINITY PREDICTED BY RF-SCORE:    0.00 PKD
ROOT
HETATM    1  C   UNL     1     -10.243  11.140  62.998  1.00  0.00    -0.265 C  
HETATM    2  C   UNL     1     -10.615  11.852  64.256  1.00  0.00    -0.381 A  
HETATM    3  C   UNL     1      -9.685  12.589  65.000  1.00  0.00    -0.014 A  
HETATM    4  C   UNL     1     -10.081  13.263  66.158  1.00  0.00    -0.293 A  
HETATM    5  C   UNL     1     -11.420  13.135  66.531  1.00  0.00    -0.338 A  
HETATM    6  N   UNL     1     -12.344  12.416  65.857  1.00  0.00    -0.577 NA 
HETATM    7  C   UNL     1     -11.920  11.789  64.739  1.00  0.00    -0.038 A  
ENDROOT
BRANCH   4   8
HETATM    8  C   UNL     1      -9.138  14.013  67.074  1.00  0.00    -0.246 C  
BRANCH   8   9
HETATM    9  N   UNL     1      -8.149  13.218  67.830  1.00  0.00    -0.151 NA 
HETATM   10  C   UNL     1      -8.705  12.564  69.033  1.00  0.00     0.495 C  
HETATM   11  C   UNL     1      -9.747  11.481  68.724  1.00  0.00    -0.137 C  
HETATM   12  C   UNL     1      -9.096  10.367  67.914  1.00  0.00    -0.132 C  
HETATM   13  C   UNL     1      -9.079   9.050  68.273  1.00  0.00    -0.133 C  
HETATM   14  C   UNL     1      -8.476  10.962  66.649  1.00  0.00    -0.151 C  
HETATM   15  C   UNL     1      -8.449   8.055  67.369  1.00  0.00    -0.126 A  
HETATM   16  C   UNL     1      -7.556  12.169  66.962  1.00  0.00    -0.093 C  
HETATM   17  C   UNL     1      -7.057   8.001  67.220  1.00  0.00    -0.083 A  
HETATM   18  C   UNL     1      -6.474   7.052  66.375  1.00  0.00    -0.051 A  
HETATM   19  C   UNL     1      -7.282   6.145  65.694  1.00  0.00    -0.074 A  
HETATM   20  C   UNL     1      -8.668   6.172  65.855  1.00  0.00    -0.158 A  
HETATM   21 CL   UNL     1      -6.567   4.969  64.662  1.00  0.00    -0.039 Cl 
HETATM   22  C   UNL     1      -9.261   7.123  66.698  1.00  0.00    -0.193 A  
HETATM   23  C   UNL     1     -10.752   7.133  66.929  1.00  0.00    -0.363 C  
HETATM   24  C   UNL     1     -11.104   6.674  68.347  1.00  0.00    -0.281 C  
HETATM   25  C   UNL     1     -10.703   7.536  69.525  1.00  0.00    -0.222 A  
HETATM   26  C   UNL     1      -9.767   8.581  69.515  1.00  0.00    -0.176 A  
HETATM   27  N   UNL     1      -9.403   9.242  70.648  1.00  0.00    -0.257 NA 
HETATM   28  C   UNL     1     -10.023   8.926  71.803  1.00  0.00    -0.327 A  
HETATM   29  C   UNL     1     -10.975   7.937  71.908  1.00  0.00    -0.308 A  
HETATM   30  C   UNL     1     -11.300   7.224  70.761  1.00  0.00    -0.312 A  
ENDBRANCH   8   9
ENDBRANCH   4   8
TORSDOF 2
ENDMDL
MODEL      125
REMARK 921   NORMALIZED FREE ENERGY PREDICTED BY IDOCK:   -2.52 KCAL/MOL
REMARK 922        TOTAL FREE ENERGY PREDICTED BY IDOCK:   -3.22 KCAL/MOL
REMARK 923 INTER-LIGAND FREE ENERGY PREDICTED BY IDOCK:   -4.44 KCAL/MOL
REMARK 924 INTRA-LIGAND FREE ENERGY PREDICTED BY IDOCK:    1.22 KCAL/MOL
REMARK 927      BINDING AFFINITY PREDICTED BY RF-SCORE:    0.00 PKD
ROOT
HETATM    1  C   UNL     1     -12.030  11.679  70.130  1.00  0.00    -0.441 C  
HETATM    2  C   UNL     1     -11.273  11.647  68.843  1.00  0.00    -0.306 A  
HETATM    3  C   UNL     1      -9.920  12.000  68.765  1.00  0.00    -0.086 A  
HETATM    4  C   UNL     1      -9.241  11.930  67.545  1.00  0.00    -0.177 A  
HETATM    5  C   UNL     1      -9.985  11.527  66.436  1.00  0.00    -0.209 A  
HETATM    6  N   UNL     1     -11.296  11.201  66.462  1.00  0.00    -0.264 NA 
HETATM    7  C   UNL     1     -11.910  11.273  67.662  1.00  0.00    -0.019 A  
ENDROOT
BRANCH   4   8
HETATM    8  C   UNL     1      -7.808  12.369  67.340  1.00  0.00    -0.174 C  
BRANCH   8   9
HETATM    9  N   UNL     1      -6.751  11.355  67.536  1.00  0.00    -0.072 NA 
HETATM   10  C   UNL     1      -6.304  11.225  68.939  1.00  0.00    -0.055 C  
HETATM   11  C   UNL     1      -7.383  10.681  69.885  1.00  0.00    -0.074 C  
HETATM   12  C   UNL     1      -7.780   9.277  69.447  1.00  0.00    -0.082 C  
HETATM   13  C   UNL     1      -7.728   8.169  70.241  1.00  0.00    -0.085 C  
HETATM   14  C   UNL     1      -8.244   9.318  67.990  1.00  0.00    -0.115 C  
HETATM   15  C   UNL     1      -8.190   6.863  69.705  1.00  0.00    -0.131 A  
HETATM   16  C   UNL     1      -7.218  10.025  67.070  1.00  0.00    -0.090 C  
HETATM   17  C   UNL     1      -7.435   6.174  68.747  1.00  0.00    -0.087 A  
HETATM   18  C   UNL     1      -7.874   4.940  68.258  1.00  0.00    -0.082 A  
HETATM   19  C   UNL     1      -9.056   4.387  68.742  1.00  0.00    -0.124 A  
HETATM   20  C   UNL     1      -9.803   5.051  69.717  1.00  0.00    -0.286 A  
HETATM   21 CL   UNL     1      -9.593   2.863  68.150  1.00  0.00    -0.207 Cl 
HETATM   22  C   UNL     1      -9.372   6.291  70.209  1.00  0.00    -0.170 A  
HETATM   23  C   UNL     1     -10.133   6.998  71.303  1.00  0.00    -0.199 C  
HETATM   24  C   UNL     1      -9.362   6.984  72.625  1.00  0.00    -0.159 C  
HETATM   25  C   UNL     1      -8.067   7.762  72.735  1.00  0.00    -0.163 A  
HETATM   26  C   UNL     1      -7.303   8.265  71.672  1.00  0.00    -0.091 A  
HETATM   27  N   UNL     1      -6.100   8.874  71.864  1.00  0.00    -0.075 NA 
HETATM   28  C   UNL     1      -5.671   9.061  73.129  1.00  0.00    -0.061 A  
HETATM   29  C   UNL     1      -6.363   8.629  74.239  1.00  0.00    -0.139 A  
HETATM   30  C   UNL     1      -7.561   7.956  74.034  1.00  0.00    -0.210 A  
ENDBRANCH   8   9
ENDBRANCH   4   8
TORSDOF 2
ENDMDL
MODEL      126
REMARK 921   NORMALIZED FREE ENERGY PREDICTED BY IDOCK:   -2.04 KCAL/MOL
REMARK 922        TOTAL FREE ENERGY PREDICTED BY IDOCK:   -2.67 KCAL/MOL
REMARK 923 INTER-LIGAND FREE ENERGY PREDICTED BY IDOCK:   -2.74 KCAL/MOL
REMARK 924 INTRA-LIGAND FREE ENERGY PREDICTED BY IDOCK:    0.07 KCAL/MOL
REMARK 927      BINDING AFFINITY PREDICTED BY RF-SCORE:    0.00 PKD
ROOT
HETATM    1  C   UNL     1      -6.300   7.283  72.122  1.00  0.00    -0.043 C  
HETATM    2  C   UNL     1      -5.970   8.665  71.665  1.00  0.00    -0.054 A  
HETATM    3  C   UNL     1      -6.133   9.070  70.334  1.00  0.00    -0.037 A  
HETATM    4  C   UNL     1      -5.837  10.382  69.953  1.00  0.00    -0.055 A  
HETATM    5  C   UNL     1      -5.355  11.231  70.951  1.00  0.00    -0.117 A  
HETATM    6  N   UNL     1      -5.160  10.875  72.239  1.00  0.00    -0.317 NA 
HETATM    7  C   UNL     1      -5.468   9.602  72.565  1.00  0.00     0.057 A  
ENDROOT
BRANCH   4   8
HETATM    8  C   UNL     1      -5.898  10.892  68.530  1.00  0.00    -0.043 C  
BRANCH   8   9
HETATM    9  N   UNL     1      -7.138  10.636  67.768  1.00  0.00    -0.082 NA 
HETATM   10  C   UNL     1      -8.321  10.392  68.620  1.00  0.00    -0.127 C  
HETATM   11  C   UNL     1      -8.753  11.613  69.443  1.00  0.00     0.722 C  
HETATM   12  C   UNL     1      -9.149  12.744  68.503  1.00  0.00    -0.049 C  
HETATM   13  C   UNL     1     -10.360  13.375  68.508  1.00  0.00    -0.240 C  
HETATM   14  C   UNL     1      -7.979  13.052  67.568  1.00  0.00    -0.177 C  
HETATM   15  C   UNL     1     -10.603  14.497  67.568  1.00  0.00    -0.262 A  
HETATM   16  C   UNL     1      -7.439  11.779  66.870  1.00  0.00    -0.106 C  
HETATM   17  C   UNL     1     -10.767  14.261  66.196  1.00  0.00    -0.295 A  
HETATM   18  C   UNL     1     -11.007  15.325  65.322  1.00  0.00    -0.403 A  
HETATM   19  C   UNL     1     -11.103  16.621  65.821  1.00  0.00     0.168 A  
HETATM   20  C   UNL     1     -10.968  16.866  67.188  1.00  0.00     0.024 A  
HETATM   21 CL   UNL     1     -11.408  17.931  64.748  1.00  0.00     1.337 Cl 
HETATM   22  C   UNL     1     -10.723  15.805  68.072  1.00  0.00    -0.296 A  
HETATM   23  C   UNL     1     -10.631  16.040  69.559  1.00  0.00    -0.290 C  
HETATM   24  C   UNL     1     -11.842  15.463  70.296  1.00  0.00    -0.368 C  
HETATM   25  C   UNL     1     -12.040  13.962  70.333  1.00  0.00    -0.421 A  
HETATM   26  C   UNL     1     -11.410  13.017  69.510  1.00  0.00    -0.155 A  
HETATM   27  N   UNL     1     -11.722  11.692  69.554  1.00  0.00    -0.316 NA 
HETATM   28  C   UNL     1     -12.614  11.272  70.475  1.00  0.00    -0.246 A  
HETATM   29  C   UNL     1     -13.262  12.119  71.346  1.00  0.00    -0.168 A  
HETATM   30  C   UNL     1     -12.985  13.477  71.257  1.00  0.00    -0.384 A  
ENDBRANCH   8   9
ENDBRANCH   4   8
TORSDOF 2
ENDMDL
MODEL      127
REMARK 921   NORMALIZED FREE ENERGY PREDICTED BY IDOCK:   -1.99 KCAL/MOL
REMARK 922        TOTAL FREE ENERGY PREDICTED BY IDOCK:   -2.63 KCAL/MOL
REMARK 923 INTER-LIGAND FREE ENERGY PREDICTED BY IDOCK:   -2.69 KCAL/MOL
REMARK 924 INTRA-LIGAND FREE ENERGY PREDICTED BY IDOCK:    0.06 KCAL/MOL
REMARK 927      BINDING AFFINITY PREDICTED BY RF-SCORE:    0.00 PKD
ROOT
HETATM    1  C   UNL     1      -7.666  14.016  66.848  1.00  0.00     0.347 C  
HETATM    2  C   UNL     1      -7.347  12.559  66.911  1.00  0.00     0.121 A  
HETATM    3  C   UNL     1      -6.520  12.018  67.903  1.00  0.00    -0.072 A  
HETATM    4  C   UNL     1      -6.268  10.644  67.942  1.00  0.00    -0.054 A  
HETATM    5  C   UNL     1      -6.854   9.871  66.939  1.00  0.00    -0.087 A  
HETATM    6  N   UNL     1      -7.639  10.354  65.950  1.00  0.00    -0.141 NA 
HETATM    7  C   UNL     1      -7.863  11.685  65.957  1.00  0.00     0.318 A  
ENDROOT
BRANCH   4   8
HETATM    8  C   UNL     1      -5.323   9.977  68.917  1.00  0.00    -0.035 C  
BRANCH   8   9
HETATM    9  N   UNL     1      -5.708   9.974  70.344  1.00  0.00    -0.056 NA 
HETATM   10  C   UNL     1      -7.141  10.256  70.574  1.00  0.00     0.089 C  
HETATM   11  C   UNL     1      -8.081   9.170  70.035  1.00  0.00    -0.130 C  
HETATM   12  C   UNL     1      -7.800   7.855  70.752  1.00  0.00    -0.091 C  
HETATM   13  C   UNL     1      -8.729   7.126  71.435  1.00  0.00    -0.124 C  
HETATM   14  C   UNL     1      -6.325   7.493  70.577  1.00  0.00    -0.038 C  
HETATM   15  C   UNL     1      -8.335   5.834  72.052  1.00  0.00    -0.122 A  
HETATM   16  C   UNL     1      -5.387   8.664  70.964  1.00  0.00    -0.028 C  
HETATM   17  C   UNL     1      -7.518   5.802  73.190  1.00  0.00    -0.095 A  
HETATM   18  C   UNL     1      -7.163   4.580  73.768  1.00  0.00    -0.069 A  
HETATM   19  C   UNL     1      -7.640   3.392  73.221  1.00  0.00    -0.061 A  
HETATM   20  C   UNL     1      -8.477   3.412  72.104  1.00  0.00    -0.087 A  
HETATM   21 CL   UNL     1      -7.213   1.887  73.937  1.00  0.00    -0.028 Cl 
HETATM   22  C   UNL     1      -8.835   4.634  71.514  1.00  0.00    -0.149 A  
HETATM   23  C   UNL     1      -9.782   4.680  70.342  1.00  0.00    -0.292 C  
HETATM   24  C   UNL     1     -11.140   5.266  70.739  1.00  0.00     0.144 C  
HETATM   25  C   UNL     1     -11.229   6.724  71.140  1.00  0.00    -0.327 A  
HETATM   26  C   UNL     1     -10.159   7.559  71.492  1.00  0.00    -0.181 A  
HETATM   27  N   UNL     1     -10.346   8.835  71.929  1.00  0.00    -0.327 NA 
HETATM   28  C   UNL     1     -11.601   9.329  71.950  1.00  0.00    -0.334 A  
HETATM   29  C   UNL     1     -12.712   8.597  71.594  1.00  0.00    -0.379 A  
HETATM   30  C   UNL     1     -12.522   7.277  71.207  1.00  0.00    -0.402 A  
ENDBRANCH   8   9
ENDBRANCH   4   8
TORSDOF 2
ENDMDL
MODEL      128
REMARK 921   NORMALIZED FREE ENERGY PREDICTED BY IDOCK:   -1.87 KCAL/MOL
REMARK 922        TOTAL FREE ENERGY PREDICTED BY IDOCK:   -2.49 KCAL/MOL
REMARK 923 INTER-LIGAND FREE ENERGY PREDICTED BY IDOCK:   -3.55 KCAL/MOL
REMARK 924 INTRA-LIGAND FREE ENERGY PREDICTED BY IDOCK:    1.06 KCAL/MOL
REMARK 927      BINDING AFFINITY PREDICTED BY RF-SCORE:    0.00 PKD
ROOT
HETATM    1  C   UNL     1     -10.817  16.094  68.050  1.00  0.00    -0.333 C  
HETATM    2  C   UNL     1     -11.388  15.319  69.191  1.00  0.00    -0.307 A  
HETATM    3  C   UNL     1     -11.782  13.981  69.062  1.00  0.00    -0.368 A  
HETATM    4  C   UNL     1     -12.286  13.283  70.163  1.00  0.00    -0.376 A  
HETATM    5  C   UNL     1     -12.396  13.994  71.359  1.00  0.00    -0.326 A  
HETATM    6  N   UNL     1     -12.051  15.290  71.522  1.00  0.00    -0.325 NA 
HETATM    7  C   UNL     1     -11.559  15.922  70.434  1.00  0.00    -0.371 A  
ENDROOT
BRANCH   4   8
HETATM    8  C   UNL     1     -12.816  11.867  70.106  1.00  0.00     0.333 C  
BRANCH   8   9
HETATM    9  N   UNL     1     -12.478  11.061  68.915  1.00  0.00    -0.345 NA 
HETATM   10  C   UNL     1     -11.277  11.538  68.196  1.00  0.00    -0.271 C  
HETATM   11  C   UNL     1      -9.977  11.397  68.998  1.00  0.00    -0.087 C  
HETATM   12  C   UNL     1      -9.722   9.925  69.296  1.00  0.00    -0.218 C  
HETATM   13  C   UNL     1      -8.587   9.247  68.957  1.00  0.00    -0.134 C  
HETATM   14  C   UNL     1     -10.930   9.345  70.031  1.00  0.00    -0.267 C  
HETATM   15  C   UNL     1      -8.444   7.822  69.348  1.00  0.00    -0.134 A  
HETATM   16  C   UNL     1     -12.260   9.643  69.295  1.00  0.00     1.103 C  
HETATM   17  C   UNL     1      -9.194   6.824  68.712  1.00  0.00    -0.130 A  
HETATM   18  C   UNL     1      -9.041   5.484  69.081  1.00  0.00    -0.127 A  
HETATM   19  C   UNL     1      -8.125   5.141  70.071  1.00  0.00    -0.082 A  
HETATM   20  C   UNL     1      -7.353   6.122  70.694  1.00  0.00    -0.086 A  
HETATM   21 CL   UNL     1      -7.928   3.492  70.520  1.00  0.00    -0.053 Cl 
HETATM   22  C   UNL     1      -7.502   7.470  70.333  1.00  0.00    -0.081 A  
HETATM   23  C   UNL     1      -6.638   8.539  70.952  1.00  0.00    -0.044 C  
HETATM   24  C   UNL     1      -5.629   9.099  69.946  1.00  0.00    -0.032 C  
HETATM   25  C   UNL     1      -6.130   9.896  68.760  1.00  0.00    -0.041 A  
HETATM   26  C   UNL     1      -7.448   9.941  68.282  1.00  0.00    -0.080 A  
HETATM   27  N   UNL     1      -7.787  10.615  67.148  1.00  0.00    -0.115 NA 
HETATM   28  C   UNL     1      -6.832  11.322  66.512  1.00  0.00    -0.101 A  
HETATM   29  C   UNL     1      -5.518  11.365  66.921  1.00  0.00    -0.115 A  
HETATM   30  C   UNL     1      -5.164  10.627  68.043  1.00  0.00    -0.036 A  
ENDBRANCH   8   9
ENDBRANCH   4   8
TORSDOF 2
ENDMDL
MODEL      129
REMARK 921   NORMALIZED FREE ENERGY PREDICTED BY IDOCK:   -1.59 KCAL/MOL
REMARK 922        TOTAL FREE ENERGY PREDICTED BY IDOCK:   -2.18 KCAL/MOL
REMARK 923 INTER-LIGAND FREE ENERGY PREDICTED BY IDOCK:   -3.91 KCAL/MOL
REMARK 924 INTRA-LIGAND FREE ENERGY PREDICTED BY IDOCK:    1.74 KCAL/MOL
REMARK 927      BINDING AFFINITY PREDICTED BY RF-SCORE:    0.00 PKD
ROOT
HETATM    1  C   UNL     1     -12.466  13.795  70.965  1.00  0.00    -0.458 C  
HETATM    2  C   UNL     1     -11.787  14.338  69.750  1.00  0.00    -0.380 A  
HETATM    3  C   UNL     1     -10.565  15.019  69.821  1.00  0.00    -0.232 A  
HETATM    4  C   UNL     1      -9.949  15.488  68.657  1.00  0.00    -0.208 A  
HETATM    5  C   UNL     1     -10.626  15.265  67.457  1.00  0.00    -0.273 A  
HETATM    6  N   UNL     1     -11.815  14.635  67.346  1.00  0.00    -0.385 NA 
HETATM    7  C   UNL     1     -12.369  14.190  68.494  1.00  0.00     0.005 A  
ENDROOT
BRANCH   4   8
HETATM    8  C   UNL     1      -8.677  16.307  68.635  1.00  0.00    -0.226 C  
BRANCH   8   9
HETATM    9  N   UNL     1      -7.442  15.634  68.183  1.00  0.00    -0.120 NA 
HETATM   10  C   UNL     1      -6.832  14.761  69.208  1.00  0.00    -0.144 C  
HETATM   11  C   UNL     1      -7.688  13.542  69.573  1.00  0.00     0.626 C  
HETATM   12  C   UNL     1      -7.874  12.665  68.342  1.00  0.00    -0.136 C  
HETATM   13  C   UNL     1      -7.540  11.343  68.268  1.00  0.00    -0.113 C  
HETATM   14  C   UNL     1      -8.492  13.499  67.219  1.00  0.00    -0.200 C  
HETATM   15  C   UNL     1      -7.817  10.588  67.020  1.00  0.00    -0.114 A  
HETATM   16  C   UNL     1      -7.712  14.816  66.974  1.00  0.00    -0.002 C  
HETATM   17  C   UNL     1      -7.059  10.812  65.864  1.00  0.00    -0.080 A  
HETATM   18  C   UNL     1      -7.322  10.087  64.698  1.00  0.00    -0.143 A  
HETATM   19  C   UNL     1      -8.328   9.124  64.695  1.00  0.00    -0.172 A  
HETATM   20  C   UNL     1      -9.071   8.873  65.849  1.00  0.00    -0.271 A  
HETATM   21 CL   UNL     1      -8.645   8.223  63.264  1.00  0.00     0.047 Cl 
HETATM   22  C   UNL     1      -8.818   9.599  67.022  1.00  0.00    -0.142 A  
HETATM   23  C   UNL     1      -9.571   9.304  68.294  1.00  0.00    -0.160 C  
HETATM   24  C   UNL     1      -8.672   8.636  69.338  1.00  0.00    -0.139 C  
HETATM   25  C   UNL     1      -7.532   9.425  69.947  1.00  0.00    -0.100 A  
HETATM   26  C   UNL     1      -6.989  10.621  69.456  1.00  0.00    -0.121 A  
HETATM   27  N   UNL     1      -5.900  11.211  70.021  1.00  0.00    -0.096 NA 
HETATM   28  C   UNL     1      -5.377  10.661  71.136  1.00  0.00    -0.085 A  
HETATM   29  C   UNL     1      -5.859   9.506  71.710  1.00  0.00    -0.002 A  
HETATM   30  C   UNL     1      -6.932   8.874  71.096  1.00  0.00    -0.089 A  
ENDBRANCH   8   9
ENDBRANCH   4   8
TORSDOF 2
ENDMDL
MODEL      130
REMARK 921   NORMALIZED FREE ENERGY PREDICTED BY IDOCK:   -1.53 KCAL/MOL
REMARK 922        TOTAL FREE ENERGY PREDICTED BY IDOCK:   -2.11 KCAL/MOL
REMARK 923 INTER-LIGAND FREE ENERGY PREDICTED BY IDOCK:   -3.37 KCAL/MOL
REMARK 924 INTRA-LIGAND FREE ENERGY PREDICTED BY IDOCK:    1.25 KCAL/MOL
REMARK 927      BINDING AFFINITY PREDICTED BY RF-SCORE:    0.00 PKD
ROOT
HETATM    1  C   UNL     1     -10.913   2.815  62.385  1.00  0.00    -0.157 C  
HETATM    2  C   UNL     1     -10.237   3.334  63.611  1.00  0.00    -0.204 A  
HETATM    3  C   UNL     1      -8.842   3.374  63.735  1.00  0.00    -0.093 A  
HETATM    4  C   UNL     1      -8.250   3.893  64.889  1.00  0.00    -0.093 A  
HETATM    5  C   UNL     1      -9.113   4.330  65.895  1.00  0.00    -0.134 A  
HETATM    6  N   UNL     1     -10.462   4.288  65.827  1.00  0.00    -0.168 NA 
HETATM    7  C   UNL     1     -10.991   3.788  64.690  1.00  0.00     0.132 A  
ENDROOT
BRANCH   4   8
HETATM    8  C   UNL     1      -6.760   3.901  65.154  1.00  0.00    -0.048 C  
BRANCH   8   9
HETATM    9  N   UNL     1      -6.035   5.168  64.925  1.00  0.00    -0.021 NA 
HETATM   10  C   UNL     1      -6.866   6.227  64.314  1.00  0.00    -0.042 C  
HETATM   11  C   UNL     1      -8.003   6.722  65.218  1.00  0.00    -0.127 C  
HETATM   12  C   UNL     1      -7.414   7.338  66.481  1.00  0.00    -0.088 C  
HETATM   13  C   UNL     1      -7.657   8.609  66.915  1.00  0.00    -0.084 C  
HETATM   14  C   UNL     1      -6.522   6.307  67.173  1.00  0.00    -0.053 C  
HETATM   15  C   UNL     1      -7.057   9.072  68.192  1.00  0.00    -0.078 A  
HETATM   16  C   UNL     1      -5.485   5.687  66.203  1.00  0.00    -0.013 C  
HETATM   17  C   UNL     1      -5.684   9.336  68.284  1.00  0.00    -0.038 A  
HETATM   18  C   UNL     1      -5.132   9.783  69.488  1.00  0.00    -0.035 A  
HETATM   19  C   UNL     1      -5.956   9.985  70.593  1.00  0.00    -0.094 A  
HETATM   20  C   UNL     1      -7.329   9.752  70.505  1.00  0.00    -0.126 A  
HETATM   21 CL   UNL     1      -5.280  10.546  72.073  1.00  0.00     0.027 Cl 
HETATM   22  C   UNL     1      -7.890   9.299  69.302  1.00  0.00    -0.085 A  
HETATM   23  C   UNL     1      -9.379   9.095  69.170  1.00  0.00    -0.152 C  
HETATM   24  C   UNL     1     -10.013  10.153  68.263  1.00  0.00    -0.168 C  
HETATM   25  C   UNL     1      -9.671  10.166  66.788  1.00  0.00    -0.235 A  
HETATM   26  C   UNL     1      -8.594   9.509  66.175  1.00  0.00    -0.131 A  
HETATM   27  N   UNL     1      -8.312   9.655  64.851  1.00  0.00    -0.138 NA 
HETATM   28  C   UNL     1      -9.145  10.399  64.095  1.00  0.00    -0.242 A  
HETATM   29  C   UNL     1     -10.244  11.058  64.599  1.00  0.00    -0.392 A  
HETATM   30  C   UNL     1     -10.494  10.955  65.962  1.00  0.00    -0.287 A  
ENDBRANCH   8   9
ENDBRANCH   4   8
TORSDOF 2
ENDMDL
MODEL      131
REMARK 921   NORMALIZED FREE ENERGY PREDICTED BY IDOCK:   -1.43 KCAL/MOL
REMARK 922        TOTAL FREE ENERGY PREDICTED BY IDOCK:   -2.00 KCAL/MOL
REMARK 923 INTER-LIGAND FREE ENERGY PREDICTED BY IDOCK:   -3.57 KCAL/MOL
REMARK 924 INTRA-LIGAND FREE ENERGY PREDICTED BY IDOCK:    1.57 KCAL/MOL
REMARK 927      BINDING AFFINITY PREDICTED BY RF-SCORE:    0.00 PKD
ROOT
HETATM    1  C   UNL     1     -10.121   2.639  74.310  1.00  0.00    -0.173 C  
HETATM    2  C   UNL     1      -8.944   2.628  73.391  1.00  0.00    -0.084 A  
HETATM    3  C   UNL     1      -9.043   2.214  72.057  1.00  0.00    -0.132 A  
HETATM    4  C   UNL     1      -7.922   2.243  71.223  1.00  0.00    -0.045 A  
HETATM    5  C   UNL     1      -6.725   2.673  71.797  1.00  0.00    -0.022 A  
HETATM    6  N   UNL     1      -6.580   3.058  73.084  1.00  0.00    -0.021 NA 
HETATM    7  C   UNL     1      -7.690   3.022  73.851  1.00  0.00    -0.060 A  
ENDROOT
BRANCH   4   8
HETATM    8  C   UNL     1      -7.906   1.738  69.796  1.00  0.00    -0.042 C  
BRANCH   8   9
HETATM    9  N   UNL     1      -8.737   2.458  68.810  1.00  0.00    -0.075 NA 
HETATM   10  C   UNL     1      -9.897   3.156  69.406  1.00  0.00     0.310 C  
HETATM   11  C   UNL     1      -9.513   4.313  70.336  1.00  0.00    -0.245 C  
HETATM   12  C   UNL     1      -8.759   5.373  69.543  1.00  0.00    -0.108 C  
HETATM   13  C   UNL     1      -9.122   6.685  69.454  1.00  0.00    -0.143 C  
HETATM   14  C   UNL     1      -7.543   4.729  68.876  1.00  0.00    -0.068 C  
HETATM   15  C   UNL     1      -8.272   7.628  68.684  1.00  0.00    -0.128 A  
HETATM   16  C   UNL     1      -7.921   3.457  68.076  1.00  0.00    -0.074 C  
HETATM   17  C   UNL     1      -8.230   7.576  67.284  1.00  0.00    -0.115 A  
HETATM   18  C   UNL     1      -7.434   8.477  66.570  1.00  0.00    -0.088 A  
HETATM   19  C   UNL     1      -6.697   9.440  67.253  1.00  0.00    -0.075 A  
HETATM   20  C   UNL     1      -6.752   9.519  68.645  1.00  0.00    -0.052 A  
HETATM   21 CL   UNL     1      -5.726  10.556  66.375  1.00  0.00    -0.066 Cl 
HETATM   22  C   UNL     1      -7.544   8.617  69.371  1.00  0.00    -0.092 A  
HETATM   23  C   UNL     1      -7.661   8.720  70.871  1.00  0.00    -0.121 C  
HETATM   24  C   UNL     1      -9.050   9.208  71.294  1.00  0.00    -0.232 C  
HETATM   25  C   UNL     1     -10.252   8.320  71.050  1.00  0.00    -0.230 A  
HETATM   26  C   UNL     1     -10.309   7.208  70.197  1.00  0.00    -0.206 A  
HETATM   27  N   UNL     1     -11.465   6.524  69.971  1.00  0.00    -0.407 NA 
HETATM   28  C   UNL     1     -12.571   6.890  70.651  1.00  0.00    -0.034 A  
HETATM   29  C   UNL     1     -12.607   7.948  71.532  1.00  0.00    -0.343 A  
HETATM   30  C   UNL     1     -11.440   8.680  71.714  1.00  0.00    -0.394 A  
ENDBRANCH   8   9
ENDBRANCH   4   8
TORSDOF 2
ENDMDL
MODEL      132
REMARK 921   NORMALIZED FREE ENERGY PREDICTED BY IDOCK:   -1.03 KCAL/MOL
REMARK 922        TOTAL FREE ENERGY PREDICTED BY IDOCK:   -1.54 KCAL/MOL
REMARK 923 INTER-LIGAND FREE ENERGY PREDICTED BY IDOCK:   -4.35 KCAL/MOL
REMARK 924 INTRA-LIGAND FREE ENERGY PREDICTED BY IDOCK:    2.80 KCAL/MOL
REMARK 927      BINDING AFFINITY PREDICTED BY RF-SCORE:    0.00 PKD
ROOT
HETATM    1  C   UNL     1     -11.936  14.971  73.987  1.00  0.00    -0.439 C  
HETATM    2  C   UNL     1     -12.059  15.272  72.530  1.00  0.00    -0.505 A  
HETATM    3  C   UNL     1     -11.376  16.335  71.927  1.00  0.00    -0.105 A  
HETATM    4  C   UNL     1     -11.498  16.566  70.554  1.00  0.00    -0.009 A  
HETATM    5  C   UNL     1     -12.344  15.711  69.848  1.00  0.00    -0.234 A  
HETATM    6  N   UNL     1     -13.040  14.689  70.393  1.00  0.00    -0.218 NA 
HETATM    7  C   UNL     1     -12.885  14.496  71.720  1.00  0.00    -0.343 A  
ENDROOT
BRANCH   4   8
HETATM    8  C   UNL     1     -10.871  17.735  69.826  1.00  0.00     1.059 C  
BRANCH   8   9
HETATM    9  N   UNL     1      -9.837  17.432  68.815  1.00  0.00    -0.306 NA 
HETATM   10  C   UNL     1      -8.822  16.460  69.274  1.00  0.00    -0.121 C  
HETATM   11  C   UNL     1      -9.380  15.053  69.525  1.00  0.00    -0.070 C  
HETATM   12  C   UNL     1      -9.933  14.487  68.223  1.00  0.00    -0.229 C  
HETATM   13  C   UNL     1      -9.541  13.309  67.657  1.00  0.00    -0.213 C  
HETATM   14  C   UNL     1     -10.987  15.445  67.666  1.00  0.00    -0.315 C  
HETATM   15  C   UNL     1     -10.194  12.847  66.406  1.00  0.00    -0.273 A  
HETATM   16  C   UNL     1     -10.464  16.901  67.578  1.00  0.00    -0.328 C  
HETATM   17  C   UNL     1      -9.936  13.483  65.185  1.00  0.00    -0.201 A  
HETATM   18  C   UNL     1     -10.548  13.032  64.012  1.00  0.00    -0.371 A  
HETATM   19  C   UNL     1     -11.400  11.932  64.057  1.00  0.00    -0.397 A  
HETATM   20  C   UNL     1     -11.644  11.273  65.262  1.00  0.00     0.252 A  
HETATM   21 CL   UNL     1     -12.146  11.368  62.612  1.00  0.00     0.736 Cl 
HETATM   22  C   UNL     1     -11.038  11.722  66.445  1.00  0.00    -0.360 A  
HETATM   23  C   UNL     1     -11.243  10.990  67.747  1.00  0.00    -0.374 C  
HETATM   24  C   UNL     1      -9.970  10.261  68.190  1.00  0.00    -0.168 C  
HETATM   25  C   UNL     1      -8.756  11.072  68.593  1.00  0.00    -0.161 A  
HETATM   26  C   UNL     1      -8.533  12.430  68.326  1.00  0.00    -0.170 A  
HETATM   27  N   UNL     1      -7.365  13.053  68.648  1.00  0.00    -0.106 NA 
HETATM   28  C   UNL     1      -6.426  12.350  69.313  1.00  0.00    -0.107 A  
HETATM   29  C   UNL     1      -6.564  11.021  69.646  1.00  0.00    -0.132 A  
HETATM   30  C   UNL     1      -7.732  10.374  69.262  1.00  0.00    -0.140 A  
ENDBRANCH   8   9
ENDBRANCH   4   8
TORSDOF 2
ENDMDL
MODEL      133
REMARK 921   NORMALIZED FREE ENERGY PREDICTED BY IDOCK:   -0.73 KCAL/MOL
REMARK 922        TOTAL FREE ENERGY PREDICTED BY IDOCK:   -1.21 KCAL/MOL
REMARK 923 INTER-LIGAND FREE ENERGY PREDICTED BY IDOCK:   -1.70 KCAL/MOL
REMARK 924 INTRA-LIGAND FREE ENERGY PREDICTED BY IDOCK:    0.49 KCAL/MOL
REMARK 927      BINDING AFFINITY PREDICTED BY RF-SCORE:    0.00 PKD
ROOT
HETATM    1  C   UNL     1     -10.048  17.178  65.711  1.00  0.00    -0.192 C  
HETATM    2  C   UNL     1     -10.232  16.622  67.085  1.00  0.00    -0.290 A  
HETATM    3  C   UNL     1      -9.188  16.011  67.789  1.00  0.00    -0.205 A  
HETATM    4  C   UNL     1      -9.396  15.527  69.084  1.00  0.00    -0.250 A  
HETATM    5  C   UNL     1     -10.684  15.664  69.604  1.00  0.00    -0.278 A  
HETATM    6  N   UNL     1     -11.725  16.225  68.951  1.00  0.00    -0.256 NA 
HETATM    7  C   UNL     1     -11.476  16.686  67.707  1.00  0.00     0.198 A  
ENDROOT
BRANCH   4   8
HETATM    8  C   UNL     1      -8.359  14.777  69.892  1.00  0.00     0.413 C  
BRANCH   8   9
HETATM    9  N   UNL     1      -7.187  14.244  69.168  1.00  0.00    -0.119 NA 
HETATM   10  C   UNL     1      -6.545  13.094  69.840  1.00  0.00     0.116 C  
HETATM   11  C   UNL     1      -7.426  11.839  69.896  1.00  0.00     0.945 C  
HETATM   12  C   UNL     1      -7.731  11.370  68.480  1.00  0.00    -0.133 C  
HETATM   13  C   UNL     1      -7.459  10.123  67.996  1.00  0.00    -0.087 C  
HETATM   14  C   UNL     1      -8.388  12.512  67.703  1.00  0.00    -0.172 C  
HETATM   15  C   UNL     1      -7.852   9.777  66.606  1.00  0.00    -0.109 A  
HETATM   16  C   UNL     1      -7.573  13.826  67.796  1.00  0.00    -0.169 C  
HETATM   17  C   UNL     1      -7.165  10.319  65.511  1.00  0.00    -0.149 A  
HETATM   18  C   UNL     1      -7.537   9.977  64.207  1.00  0.00    -0.141 A  
HETATM   19  C   UNL     1      -8.580   9.078  64.000  1.00  0.00    -0.140 A  
HETATM   20  C   UNL     1      -9.253   8.511  65.083  1.00  0.00     0.124 A  
HETATM   21 CL   UNL     1      -9.031   8.647  62.396  1.00  0.00    -0.031 Cl 
HETATM   22  C   UNL     1      -8.890   8.852  66.394  1.00  0.00    -0.178 A  
HETATM   23  C   UNL     1      -9.567   8.208  67.578  1.00  0.00    -0.196 C  
HETATM   24  C   UNL     1      -8.627   7.243  68.307  1.00  0.00    -0.123 C  
HETATM   25  C   UNL     1      -7.416   7.794  69.030  1.00  0.00    -0.095 A  
HETATM   26  C   UNL     1      -6.858   9.071  68.872  1.00  0.00    -0.057 A  
HETATM   27  N   UNL     1      -5.710   9.445  69.499  1.00  0.00    -0.034 NA 
HETATM   28  C   UNL     1      -5.136   8.579  70.359  1.00  0.00    -0.022 A  
HETATM   29  C   UNL     1      -5.625   7.315  70.604  1.00  0.00    -0.027 A  
HETATM   30  C   UNL     1      -6.764   6.916  69.916  1.00  0.00    -0.049 A  
ENDBRANCH   8   9
ENDBRANCH   4   8
TORSDOF 2
ENDMDL
MODEL      134
REMARK 921   NORMALIZED FREE ENERGY PREDICTED BY IDOCK:   -0.73 KCAL/MOL
REMARK 922        TOTAL FREE ENERGY PREDICTED BY IDOCK:   -1.21 KCAL/MOL
REMARK 923 INTER-LIGAND FREE ENERGY PREDICTED BY IDOCK:   -0.80 KCAL/MOL
REMARK 924 INTRA-LIGAND FREE ENERGY PREDICTED BY IDOCK:   -0.41 KCAL/MOL
REMARK 927      BINDING AFFINITY PREDICTED BY RF-SCORE:    0.00 PKD
ROOT
HETATM    1  C   UNL     1      -8.595   6.682  73.643  1.00  0.00    -0.137 C  
HETATM    2  C   UNL     1      -9.587   6.877  72.544  1.00  0.00    -0.165 A  
HETATM    3  C   UNL     1      -9.791   8.122  71.935  1.00  0.00    -0.276 A  
HETATM    4  C   UNL     1     -10.711   8.256  70.891  1.00  0.00    -0.250 A  
HETATM    5  C   UNL     1     -11.414   7.107  70.525  1.00  0.00    -0.295 A  
HETATM    6  N   UNL     1     -11.267   5.894  71.101  1.00  0.00    -0.252 NA 
HETATM    7  C   UNL     1     -10.361   5.809  72.098  1.00  0.00    -0.205 A  
ENDROOT
BRANCH   4   8
HETATM    8  C   UNL     1     -11.063   9.569  70.227  1.00  0.00    -0.271 C  
BRANCH   8   9
HETATM    9  N   UNL     1      -9.957  10.356  69.644  1.00  0.00    -0.211 NA 
HETATM   10  C   UNL     1      -9.289   9.689  68.506  1.00  0.00    -0.137 C  
HETATM   11  C   UNL     1     -10.185   9.522  67.272  1.00  0.00    -0.295 C  
HETATM   12  C   UNL     1     -10.602  10.894  66.759  1.00  0.00    -0.313 C  
HETATM   13  C   UNL     1     -10.388  11.350  65.490  1.00  0.00    -0.317 C  
HETATM   14  C   UNL     1     -11.293  11.663  67.885  1.00  0.00    -0.369 C  
HETATM   15  C   UNL     1     -10.887  12.693  65.102  1.00  0.00    -0.321 A  
HETATM   16  C   UNL     1     -10.450  11.679  69.185  1.00  0.00    -0.064 C  
HETATM   17  C   UNL     1     -10.273  13.854  65.590  1.00  0.00    -0.344 A  
HETATM   18  C   UNL     1     -10.745  15.114  65.208  1.00  0.00    -0.422 A  
HETATM   19  C   UNL     1     -11.817  15.212  64.325  1.00  0.00    -0.251 A  
HETATM   20  C   UNL     1     -12.419  14.063  63.812  1.00  0.00    -0.080 A  
HETATM   21 CL   UNL     1     -12.392  16.761  63.846  1.00  0.00     2.491 Cl 
HETATM   22  C   UNL     1     -11.955  12.795  64.192  1.00  0.00    -0.499 A  
HETATM   23  C   UNL     1     -12.555  11.541  63.606  1.00  0.00    -0.079 C  
HETATM   24  C   UNL     1     -11.582  10.847  62.648  1.00  0.00     1.828 C  
HETATM   25  C   UNL     1     -10.312  10.234  63.199  1.00  0.00     0.680 A  
HETATM   26  C   UNL     1      -9.744  10.481  64.458  1.00  0.00    -0.314 A  
HETATM   27  N   UNL     1      -8.546   9.952  64.831  1.00  0.00    -0.156 NA 
HETATM   28  C   UNL     1      -7.927   9.104  63.985  1.00  0.00    -0.141 A  
HETATM   29  C   UNL     1      -8.419   8.777  62.741  1.00  0.00    -0.170 A  
HETATM   30  C   UNL     1      -9.612   9.366  62.341  1.00  0.00     0.539 A  
ENDBRANCH   8   9
ENDBRANCH   4   8
TORSDOF 2
ENDMDL
MODEL      135
REMARK 921   NORMALIZED FREE ENERGY PREDICTED BY IDOCK:   -0.33 KCAL/MOL
REMARK 922        TOTAL FREE ENERGY PREDICTED BY IDOCK:   -0.76 KCAL/MOL
REMARK 923 INTER-LIGAND FREE ENERGY PREDICTED BY IDOCK:   -0.71 KCAL/MOL
REMARK 924 INTRA-LIGAND FREE ENERGY PREDICTED BY IDOCK:   -0.05 KCAL/MOL
REMARK 927      BINDING AFFINITY PREDICTED BY RF-SCORE:    0.00 PKD
ROOT
HETATM    1  C   UNL     1      -9.132   5.303  63.276  1.00  0.00     0.260 C  
HETATM    2  C   UNL     1      -7.980   5.219  64.223  1.00  0.00    -0.111 A  
HETATM    3  C   UNL     1      -7.690   6.240  65.137  1.00  0.00    -0.099 A  
HETATM    4  C   UNL     1      -6.618   6.110  66.025  1.00  0.00    -0.048 A  
HETATM    5  C   UNL     1      -5.860   4.943  65.925  1.00  0.00    -0.022 A  
HETATM    6  N   UNL     1      -6.090   3.945  65.043  1.00  0.00    -0.023 NA 
HETATM    7  C   UNL     1      -7.141   4.108  64.211  1.00  0.00    -0.047 A  
ENDROOT
BRANCH   4   8
HETATM    8  C   UNL     1      -6.172   7.188  66.988  1.00  0.00    -0.049 C  
BRANCH   8   9
HETATM    9  N   UNL     1      -7.136   7.619  68.022  1.00  0.00    -0.082 NA 
HETATM   10  C   UNL     1      -6.536   8.458  69.081  1.00  0.00    -0.047 C  
HETATM   11  C   UNL     1      -6.040   9.822  68.585  1.00  0.00    -0.042 C  
HETATM   12  C   UNL     1      -7.217  10.623  68.042  1.00  0.00    -0.087 C  
HETATM   13  C   UNL     1      -7.582  11.865  68.476  1.00  0.00    -0.127 C  
HETATM   14  C   UNL     1      -7.909   9.816  66.943  1.00  0.00    -0.102 C  
HETATM   15  C   UNL     1      -8.723  12.558  67.829  1.00  0.00    -0.178 A  
HETATM   16  C   UNL     1      -8.252   8.377  67.403  1.00  0.00    -0.120 C  
HETATM   17  C   UNL     1     -10.040  12.130  68.047  1.00  0.00    -0.204 A  
HETATM   18  C   UNL     1     -11.108  12.798  67.441  1.00  0.00    -0.312 A  
HETATM   19  C   UNL     1     -10.861  13.907  66.635  1.00  0.00    -0.289 A  
HETATM   20  C   UNL     1      -9.557  14.360  66.433  1.00  0.00    -0.320 A  
HETATM   21 CL   UNL     1     -12.175  14.738  65.898  1.00  0.00    -0.132 Cl 
HETATM   22  C   UNL     1      -8.479  13.692  67.033  1.00  0.00    -0.141 A  
HETATM   23  C   UNL     1      -7.067  14.199  66.874  1.00  0.00     0.897 C  
HETATM   24  C   UNL     1      -6.531  14.791  68.180  1.00  0.00    -0.141 C  
HETATM   25  C   UNL     1      -6.293  13.877  69.364  1.00  0.00    -0.110 A  
HETATM   26  C   UNL     1      -6.791  12.576  69.527  1.00  0.00     0.089 A  
HETATM   27  N   UNL     1      -6.600  11.863  70.672  1.00  0.00     0.277 NA 
HETATM   28  C   UNL     1      -5.843  12.405  71.647  1.00  0.00     0.921 A  
HETATM   29  C   UNL     1      -5.287  13.662  71.568  1.00  0.00    -0.208 A  
HETATM   30  C   UNL     1      -5.534  14.409  70.423  1.00  0.00    -0.118 A  
ENDBRANCH   8   9
ENDBRANCH   4   8
TORSDOF 2
ENDMDL
MODEL      136
REMARK 921   NORMALIZED FREE ENERGY PREDICTED BY IDOCK:   -0.07 KCAL/MOL
REMARK 922        TOTAL FREE ENERGY PREDICTED BY IDOCK:   -0.48 KCAL/MOL
REMARK 923 INTER-LIGAND FREE ENERGY PREDICTED BY IDOCK:   -0.18 KCAL/MOL
REMARK 924 INTRA-LIGAND FREE ENERGY PREDICTED BY IDOCK:   -0.30 KCAL/MOL
REMARK 927      BINDING AFFINITY PREDICTED BY RF-SCORE:    0.00 PKD
ROOT
HETATM    1  C   UNL     1     -12.659  16.796  70.089  1.00  0.00     3.200 C  
HETATM    2  C   UNL     1     -11.462  16.329  69.328  1.00  0.00    -0.251 A  
HETATM    3  C   UNL     1     -11.279  14.986  68.976  1.00  0.00    -0.279 A  
HETATM    4  C   UNL     1     -10.157  14.595  68.240  1.00  0.00    -0.228 A  
HETATM    5  C   UNL     1      -9.242  15.596  67.913  1.00  0.00    -0.190 A  
HETATM    6  N   UNL     1      -9.367  16.898  68.253  1.00  0.00    -0.240 NA 
HETATM    7  C   UNL     1     -10.470  17.233  68.955  1.00  0.00    -0.309 A  
ENDROOT
BRANCH   4   8
HETATM    8  C   UNL     1      -9.826  13.162  67.885  1.00  0.00    -0.231 C  
BRANCH   8   9
HETATM    9  N   UNL     1      -8.427  12.722  68.061  1.00  0.00    -0.168 NA 
HETATM   10  C   UNL     1      -8.248  11.720  69.134  1.00  0.00     0.292 C  
HETATM   11  C   UNL     1      -8.923  10.374  68.843  1.00  0.00    -0.170 C  
HETATM   12  C   UNL     1      -8.304   9.756  67.596  1.00  0.00    -0.114 C  
HETATM   13  C   UNL     1      -7.732   8.518  67.541  1.00  0.00    -0.098 C  
HETATM   14  C   UNL     1      -8.432  10.739  66.432  1.00  0.00    -0.158 C  
HETATM   15  C   UNL     1      -7.206   8.013  66.248  1.00  0.00    -0.071 A  
HETATM   16  C   UNL     1      -7.902  12.148  66.797  1.00  0.00     0.004 C  
HETATM   17  C   UNL     1      -6.034   8.545  65.694  1.00  0.00    -0.044 A  
HETATM   18  C   UNL     1      -5.542   8.054  64.481  1.00  0.00    -0.044 A  
HETATM   19  C   UNL     1      -6.209   7.017  63.833  1.00  0.00    -0.043 A  
HETATM   20  C   UNL     1      -7.362   6.461  64.389  1.00  0.00    -0.075 A  
HETATM   21 CL   UNL     1      -5.599   6.404  62.346  1.00  0.00    -0.023 Cl 
HETATM   22  C   UNL     1      -7.866   6.951  65.603  1.00  0.00    -0.109 A  
HETATM   23  C   UNL     1      -9.077   6.326  66.248  1.00  0.00    -0.166 C  
HETATM   24  C   UNL     1      -8.703   5.549  67.514  1.00  0.00    -0.107 C  
HETATM   25  C   UNL     1      -8.188   6.305  68.721  1.00  0.00    -0.120 A  
HETATM   26  C   UNL     1      -7.713   7.624  68.740  1.00  0.00    -0.118 A  
HETATM   27  N   UNL     1      -7.181   8.190  69.859  1.00  0.00    -0.059 NA 
HETATM   28  C   UNL     1      -7.184   7.475  71.002  1.00  0.00    -0.066 A  
HETATM   29  C   UNL     1      -7.656   6.185  71.091  1.00  0.00    -0.093 A  
HETATM   30  C   UNL     1      -8.141   5.591  69.933  1.00  0.00    -0.097 A  
ENDBRANCH   8   9
ENDBRANCH   4   8
TORSDOF 2
ENDMDL
MODEL      137
REMARK 921   NORMALIZED FREE ENERGY PREDICTED BY IDOCK:    0.48 KCAL/MOL
REMARK 922        TOTAL FREE ENERGY PREDICTED BY IDOCK:    0.14 KCAL/MOL
REMARK 923 INTER-LIGAND FREE ENERGY PREDICTED BY IDOCK:   -1.33 KCAL/MOL
REMARK 924 INTRA-LIGAND FREE ENERGY PREDICTED BY IDOCK:    1.47 KCAL/MOL
REMARK 927      BINDING AFFINITY PREDICTED BY RF-SCORE:    0.00 PKD
ROOT
HETATM    1  C   UNL     1      -5.354   7.890  72.261  1.00  0.00    -0.036 C  
HETATM    2  C   UNL     1      -5.559   9.349  72.015  1.00  0.00    -0.053 A  
HETATM    3  C   UNL     1      -6.164   9.831  70.848  1.00  0.00    -0.084 A  
HETATM    4  C   UNL     1      -6.361  11.203  70.669  1.00  0.00     0.198 A  
HETATM    5  C   UNL     1      -5.901  12.040  71.686  1.00  0.00     0.984 A  
HETATM    6  N   UNL     1      -5.291  11.620  72.816  1.00  0.00     0.061 NA 
HETATM    7  C   UNL     1      -5.131  10.286  72.952  1.00  0.00     0.106 A  
ENDROOT
BRANCH   4   8
HETATM    8  C   UNL     1      -6.925  11.827  69.411  1.00  0.00    -0.026 C  
BRANCH   8   9
HETATM    9  N   UNL     1      -8.232  11.331  68.933  1.00  0.00    -0.118 NA 
HETATM   10  C   UNL     1      -8.321  11.213  67.462  1.00  0.00    -0.122 C  
HETATM   11  C   UNL     1      -7.390  10.148  66.867  1.00  0.00    -0.092 C  
HETATM   12  C   UNL     1      -7.772   8.778  67.414  1.00  0.00    -0.097 C  
HETATM   13  C   UNL     1      -8.103   7.698  66.649  1.00  0.00    -0.119 C  
HETATM   14  C   UNL     1      -7.721   8.815  68.942  1.00  0.00    -0.095 C  
HETATM   15  C   UNL     1      -8.411   6.403  67.307  1.00  0.00    -0.111 A  
HETATM   16  C   UNL     1      -8.529  10.002  69.525  1.00  0.00    -0.176 C  
HETATM   17  C   UNL     1      -9.606   6.226  68.018  1.00  0.00    -0.115 A  
HETATM   18  C   UNL     1      -9.890   4.999  68.623  1.00  0.00    -0.227 A  
HETATM   19  C   UNL     1      -8.990   3.943  68.501  1.00  0.00    -0.121 A  
HETATM   20  C   UNL     1      -7.810   4.099  67.773  1.00  0.00    -0.086 A  
HETATM   21 CL   UNL     1      -9.343   2.428  69.236  1.00  0.00    -0.193 Cl 
HETATM   22  C   UNL     1      -7.515   5.328  67.166  1.00  0.00    -0.084 A  
HETATM   23  C   UNL     1      -6.273   5.500  66.328  1.00  0.00    -0.034 C  
HETATM   24  C   UNL     1      -6.612   5.634  64.840  1.00  0.00    -0.042 C  
HETATM   25  C   UNL     1      -7.361   6.858  64.359  1.00  0.00    -0.088 A  
HETATM   26  C   UNL     1      -8.067   7.772  65.156  1.00  0.00    -0.137 A  
HETATM   27  N   UNL     1      -8.790   8.795  64.622  1.00  0.00    -0.082 NA 
HETATM   28  C   UNL     1      -8.760   8.973  63.286  1.00  0.00    -0.092 A  
HETATM   29  C   UNL     1      -8.072   8.149  62.424  1.00  0.00    -0.167 A  
HETATM   30  C   UNL     1      -7.385   7.071  62.968  1.00  0.00    -0.083 A  
ENDBRANCH   8   9
ENDBRANCH   4   8
TORSDOF 2
ENDMDL
MODEL      138
REMARK 921   NORMALIZED FREE ENERGY PREDICTED BY IDOCK:    0.60 KCAL/MOL
REMARK 922        TOTAL FREE ENERGY PREDICTED BY IDOCK:    0.28 KCAL/MOL
REMARK 923 INTER-LIGAND FREE ENERGY PREDICTED BY IDOCK:   -2.71 KCAL/MOL
REMARK 924 INTRA-LIGAND FREE ENERGY PREDICTED BY IDOCK:    2.99 KCAL/MOL
REMARK 927      BINDING AFFINITY PREDICTED BY RF-SCORE:    0.00 PKD
ROOT
HETATM    1  C   UNL     1     -12.881  14.688  64.906  1.00  0.00     0.108 C  
HETATM    2  C   UNL     1     -12.007  14.002  65.904  1.00  0.00    -0.424 A  
HETATM    3  C   UNL     1     -11.190  14.712  66.794  1.00  0.00    -0.344 A  
HETATM    4  C   UNL     1     -10.407  14.031  67.730  1.00  0.00    -0.236 A  
HETATM    5  C   UNL     1     -10.466  12.637  67.702  1.00  0.00    -0.219 A  
HETATM    6  N   UNL     1     -11.220  11.913  66.846  1.00  0.00    -0.308 NA 
HETATM    7  C   UNL     1     -11.968  12.612  65.965  1.00  0.00    -0.417 A  
ENDROOT
BRANCH   4   8
HETATM    8  C   UNL     1      -9.431  14.700  68.674  1.00  0.00    -0.211 C  
BRANCH   8   9
HETATM    9  N   UNL     1      -7.991  14.472  68.437  1.00  0.00    -0.133 NA 
HETATM   10  C   UNL     1      -7.355  13.594  69.442  1.00  0.00     0.220 C  
HETATM   11  C   UNL     1      -7.868  12.149  69.416  1.00  0.00     0.605 C  
HETATM   12  C   UNL     1      -7.552  11.523  68.063  1.00  0.00    -0.112 C  
HETATM   13  C   UNL     1      -6.836  10.375  67.884  1.00  0.00    -0.070 C  
HETATM   14  C   UNL     1      -8.164  12.382  66.957  1.00  0.00    -0.141 C  
HETATM   15  C   UNL     1      -6.638   9.844  66.511  1.00  0.00    -0.072 A  
HETATM   16  C   UNL     1      -7.775  13.876  67.095  1.00  0.00     0.029 C  
HETATM   17  C   UNL     1      -5.775  10.486  65.613  1.00  0.00    -0.123 A  
HETATM   18  C   UNL     1      -5.588   9.971  64.326  1.00  0.00    -0.108 A  
HETATM   19  C   UNL     1      -6.246   8.804  63.947  1.00  0.00    -0.072 A  
HETATM   20  C   UNL     1      -7.087   8.142  64.842  1.00  0.00    -0.079 A  
HETATM   21 CL   UNL     1      -6.009   8.163  62.368  1.00  0.00    -0.078 Cl 
HETATM   22  C   UNL     1      -7.285   8.654  66.133  1.00  0.00    -0.085 A  
HETATM   23  C   UNL     1      -8.144   7.923  67.134  1.00  0.00    -0.117 C  
HETATM   24  C   UNL     1      -7.302   7.309  68.256  1.00  0.00    -0.100 C  
HETATM   25  C   UNL     1      -6.580   8.222  69.225  1.00  0.00    -0.039 A  
HETATM   26  C   UNL     1      -6.331   9.591  69.053  1.00  0.00    -0.042 A  
HETATM   27  N   UNL     1      -5.591  10.313  69.940  1.00  0.00    -0.042 NA 
HETATM   28  C   UNL     1      -5.150   9.699  71.057  1.00  0.00    -0.041 A  
HETATM   29  C   UNL     1      -5.369   8.367  71.329  1.00  0.00    -0.033 A  
HETATM   30  C   UNL     1      -6.073   7.621  70.392  1.00  0.00    -0.030 A  
ENDBRANCH   8   9
ENDBRANCH   4   8
TORSDOF 2
ENDMDL
MODEL      139
REMARK 921   NORMALIZED FREE ENERGY PREDICTED BY IDOCK:    1.07 KCAL/MOL
REMARK 922        TOTAL FREE ENERGY PREDICTED BY IDOCK:    0.80 KCAL/MOL
REMARK 923 INTER-LIGAND FREE ENERGY PREDICTED BY IDOCK:   -5.43 KCAL/MOL
REMARK 924 INTRA-LIGAND FREE ENERGY PREDICTED BY IDOCK:    6.23 KCAL/MOL
REMARK 927      BINDING AFFINITY PREDICTED BY RF-SCORE:    0.00 PKD
ROOT
HETATM    1  C   UNL     1     -12.382  14.617  66.181  1.00  0.00    -0.106 C  
HETATM    2  C   UNL     1     -11.693  13.579  65.359  1.00  0.00    -0.351 A  
HETATM    3  C   UNL     1     -10.918  12.564  65.935  1.00  0.00    -0.314 A  
HETATM    4  C   UNL     1     -10.311  11.596  65.131  1.00  0.00    -0.326 A  
HETATM    5  C   UNL     1     -10.497  11.719  63.753  1.00  0.00    -0.416 A  
HETATM    6  N   UNL     1     -11.215  12.694  63.155  1.00  0.00    -0.205 NA 
HETATM    7  C   UNL     1     -11.792  13.603  63.970  1.00  0.00    -0.400 A  
ENDROOT
BRANCH   4   8
HETATM    8  C   UNL     1      -9.389  10.513  65.648  1.00  0.00    -0.200 C  
BRANCH   8   9
HETATM    9  N   UNL     1      -9.025  10.555  67.079  1.00  0.00    -0.140 NA 
HETATM   10  C   UNL     1      -7.939  11.509  67.390  1.00  0.00    -0.143 C  
HETATM   11  C   UNL     1      -8.320  12.977  67.162  1.00  0.00    -0.153 C  
HETATM   12  C   UNL     1      -9.473  13.351  68.084  1.00  0.00    -0.218 C  
HETATM   13  C   UNL     1      -9.451  14.380  68.981  1.00  0.00    -0.042 C  
HETATM   14  C   UNL     1     -10.643  12.398  67.838  1.00  0.00    -0.231 C  
HETATM   15  C   UNL     1     -10.662  14.669  69.790  1.00  0.00    -0.129 A  
HETATM   16  C   UNL     1     -10.208  10.912  67.903  1.00  0.00    -0.179 C  
HETATM   17  C   UNL     1     -11.052  13.813  70.828  1.00  0.00     1.059 A  
HETATM   18  C   UNL     1     -12.188  14.102  71.591  1.00  0.00    -0.291 A  
HETATM   19  C   UNL     1     -12.920  15.256  71.329  1.00  0.00    -0.441 A  
HETATM   20  C   UNL     1     -12.526  16.131  70.315  1.00  0.00     0.302 A  
HETATM   21 CL   UNL     1     -14.312  15.619  72.273  1.00  0.00    -0.591 Cl 
HETATM   22  C   UNL     1     -11.391  15.847  69.542  1.00  0.00    -0.335 A  
HETATM   23  C   UNL     1     -10.916  16.806  68.481  1.00  0.00    -0.312 C  
HETATM   24  C   UNL     1      -9.612  17.498  68.890  1.00  0.00    -0.224 C  
HETATM   25  C   UNL     1      -8.346  16.677  69.013  1.00  0.00    -0.182 A  
HETATM   26  C   UNL     1      -8.262  15.279  69.094  1.00  0.00    -0.234 A  
HETATM   27  N   UNL     1      -7.081  14.632  69.297  1.00  0.00    -0.142 NA 
HETATM   28  C   UNL     1      -5.949  15.363  69.345  1.00  0.00    -0.112 A  
HETATM   29  C   UNL     1      -5.925  16.736  69.246  1.00  0.00    -0.180 A  
HETATM   30  C   UNL     1      -7.139  17.396  69.099  1.00  0.00    -0.196 A  
ENDBRANCH   8   9
ENDBRANCH   4   8
TORSDOF 2
ENDMDL
MODEL      140
REMARK 921   NORMALIZED FREE ENERGY PREDICTED BY IDOCK:    1.32 KCAL/MOL
REMARK 922        TOTAL FREE ENERGY PREDICTED BY IDOCK:    1.08 KCAL/MOL
REMARK 923 INTER-LIGAND FREE ENERGY PREDICTED BY IDOCK:   -0.35 KCAL/MOL
REMARK 924 INTRA-LIGAND FREE ENERGY PREDICTED BY IDOCK:    1.43 KCAL/MOL
REMARK 927      BINDING AFFINITY PREDICTED BY RF-SCORE:    0.00 PKD
ROOT
HETATM    1  C   UNL     1     -12.252   8.581  68.343  1.00  0.00     4.186 C  
HETATM    2  C   UNL     1     -11.329   8.638  69.516  1.00  0.00     0.252 A  
HETATM    3  C   UNL     1     -10.004   8.192  69.445  1.00  0.00    -0.188 A  
HETATM    4  C   UNL     1      -9.165   8.288  70.559  1.00  0.00    -0.160 A  
HETATM    5  C   UNL     1      -9.727   8.814  71.723  1.00  0.00    -0.310 A  
HETATM    6  N   UNL     1     -11.006   9.233  71.842  1.00  0.00    -0.319 NA 
HETATM    7  C   UNL     1     -11.777   9.132  70.739  1.00  0.00    -0.256 A  
ENDROOT
BRANCH   4   8
HETATM    8  C   UNL     1      -7.749   7.758  70.609  1.00  0.00    -0.091 C  
BRANCH   8   9
HETATM    9  N   UNL     1      -6.694   8.576  69.975  1.00  0.00    -0.041 NA 
HETATM   10  C   UNL     1      -6.485   8.271  68.544  1.00  0.00    -0.054 C  
HETATM   11  C   UNL     1      -7.681   8.631  67.653  1.00  0.00    -0.102 C  
HETATM   12  C   UNL     1      -7.932  10.131  67.722  1.00  0.00    -0.102 C  
HETATM   13  C   UNL     1      -7.963  10.967  66.644  1.00  0.00    -0.156 C  
HETATM   14  C   UNL     1      -8.145  10.538  69.181  1.00  0.00    -0.152 C  
HETATM   15  C   UNL     1      -8.265  12.407  66.844  1.00  0.00    -0.089 A  
HETATM   16  C   UNL     1      -7.012  10.020  70.102  1.00  0.00    -0.148 C  
HETATM   17  C   UNL     1      -7.328  13.261  67.441  1.00  0.00    -0.125 A  
HETATM   18  C   UNL     1      -7.620  14.617  67.613  1.00  0.00    -0.198 A  
HETATM   19  C   UNL     1      -8.839  15.123  67.172  1.00  0.00    -0.216 A  
HETATM   20  C   UNL     1      -9.770  14.288  66.552  1.00  0.00    -0.304 A  
HETATM   21 CL   UNL     1      -9.196  16.794  67.373  1.00  0.00    -0.217 Cl 
HETATM   22  C   UNL     1      -9.488  12.925  66.378  1.00  0.00    -0.228 A  
HETATM   23  C   UNL     1     -10.455  12.018  65.660  1.00  0.00    -0.293 C  
HETATM   24  C   UNL     1      -9.918  11.594  64.290  1.00  0.00    -0.303 C  
HETATM   25  C   UNL     1      -8.699  10.700  64.218  1.00  0.00    -0.140 A  
HETATM   26  C   UNL     1      -7.791  10.440  65.255  1.00  0.00    -0.137 A  
HETATM   27  N   UNL     1      -6.668   9.693  65.069  1.00  0.00    -0.090 NA 
HETATM   28  C   UNL     1      -6.468   9.125  63.862  1.00  0.00    -0.089 A  
HETATM   29  C   UNL     1      -7.317   9.296  62.792  1.00  0.00    -0.100 A  
HETATM   30  C   UNL     1      -8.429  10.108  62.969  1.00  0.00    -0.180 A  
ENDBRANCH   8   9
ENDBRANCH   4   8
TORSDOF 2
ENDMDL
MODEL      141
REMARK 921   NORMALIZED FREE ENERGY PREDICTED BY IDOCK:    2.83 KCAL/MOL
REMARK 922        TOTAL FREE ENERGY PREDICTED BY IDOCK:    2.77 KCAL/MOL
REMARK 923 INTER-LIGAND FREE ENERGY PREDICTED BY IDOCK:   -3.02 KCAL/MOL
REMARK 924 INTRA-LIGAND FREE ENERGY PREDICTED BY IDOCK:    5.78 KCAL/MOL
REMARK 927      BINDING AFFINITY PREDICTED BY RF-SCORE:    0.00 PKD
ROOT
HETATM    1  C   UNL     1     -10.942   3.051  63.490  1.00  0.00    -0.109 C  
HETATM    2  C   UNL     1     -10.234   4.003  64.396  1.00  0.00    -0.210 A  
HETATM    3  C   UNL     1      -8.837   4.091  64.442  1.00  0.00    -0.129 A  
HETATM    4  C   UNL     1      -8.214   5.015  65.286  1.00  0.00    -0.123 A  
HETATM    5  C   UNL     1      -9.050   5.803  66.078  1.00  0.00    -0.153 A  
HETATM    6  N   UNL     1     -10.399   5.735  66.083  1.00  0.00    -0.047 NA 
HETATM    7  C   UNL     1     -10.959   4.835  65.246  1.00  0.00     0.112 A  
ENDROOT
BRANCH   4   8
HETATM    8  C   UNL     1      -6.716   5.128  65.470  1.00  0.00    -0.052 C  
BRANCH   8   9
HETATM    9  N   UNL     1      -6.230   5.928  66.613  1.00  0.00    -0.032 NA 
HETATM   10  C   UNL     1      -7.265   6.794  67.217  1.00  0.00    -0.085 C  
HETATM   11  C   UNL     1      -8.406   6.020  67.890  1.00  0.00    -0.116 C  
HETATM   12  C   UNL     1      -7.846   5.188  69.036  1.00  0.00    -0.081 C  
HETATM   13  C   UNL     1      -8.269   5.262  70.332  1.00  0.00    -0.103 C  
HETATM   14  C   UNL     1      -6.750   4.267  68.500  1.00  0.00    -0.047 C  
HETATM   15  C   UNL     1      -7.671   4.359  71.348  1.00  0.00    -0.080 A  
HETATM   16  C   UNL     1      -5.691   5.039  67.674  1.00  0.00    -0.017 C  
HETATM   17  C   UNL     1      -6.358   4.554  71.798  1.00  0.00    -0.022 A  
HETATM   18  C   UNL     1      -5.810   3.704  72.763  1.00  0.00    -0.008 A  
HETATM   19  C   UNL     1      -6.581   2.673  73.293  1.00  0.00    -0.021 A  
HETATM   20  C   UNL     1      -7.899   2.485  72.873  1.00  0.00    -0.050 A  
HETATM   21 CL   UNL     1      -5.913   1.633  74.489  1.00  0.00    -0.004 Cl 
HETATM   22  C   UNL     1      -8.455   3.331  71.902  1.00  0.00    -0.088 A  
HETATM   23  C   UNL     1      -9.894   3.180  71.476  1.00  0.00    -0.200 C  
HETATM   24  C   UNL     1     -10.755   4.341  71.983  1.00  0.00     0.084 C  
HETATM   25  C   UNL     1     -10.518   5.732  71.435  1.00  0.00    -0.296 A  
HETATM   26  C   UNL     1      -9.390   6.170  70.726  1.00  0.00    -0.158 A  
HETATM   27  N   UNL     1      -9.224   7.469  70.353  1.00  0.00    -0.157 NA 
HETATM   28  C   UNL     1     -10.217   8.343  70.612  1.00  0.00    -0.194 A  
HETATM   29  C   UNL     1     -11.375   8.003  71.275  1.00  0.00    -0.295 A  
HETATM   30  C   UNL     1     -11.514   6.690  71.707  1.00  0.00    -0.334 A  
ENDBRANCH   8   9
ENDBRANCH   4   8
TORSDOF 2
ENDMDL
MODEL      142
REMARK 921   NORMALIZED FREE ENERGY PREDICTED BY IDOCK:    2.92 KCAL/MOL
REMARK 922        TOTAL FREE ENERGY PREDICTED BY IDOCK:    2.86 KCAL/MOL
REMARK 923 INTER-LIGAND FREE ENERGY PREDICTED BY IDOCK:    2.89 KCAL/MOL
REMARK 924 INTRA-LIGAND FREE ENERGY PREDICTED BY IDOCK:   -0.02 KCAL/MOL
REMARK 927      BINDING AFFINITY PREDICTED BY RF-SCORE:    0.00 PKD
ROOT
HETATM    1  C   UNL     1      -6.352   5.212  67.144  1.00  0.00    -0.036 C  
HETATM    2  C   UNL     1      -7.757   5.059  67.626  1.00  0.00    -0.087 A  
HETATM    3  C   UNL     1      -8.722   6.057  67.442  1.00  0.00    -0.104 A  
HETATM    4  C   UNL     1     -10.033   5.863  67.886  1.00  0.00    -0.157 A  
HETATM    5  C   UNL     1     -10.304   4.656  68.532  1.00  0.00     0.194 A  
HETATM    6  N   UNL     1      -9.399   3.678  68.752  1.00  0.00    -0.161 NA 
HETATM    7  C   UNL     1      -8.147   3.904  68.298  1.00  0.00    -0.076 A  
ENDROOT
BRANCH   4   8
HETATM    8  C   UNL     1     -11.123   6.910  67.811  1.00  0.00    -0.146 C  
BRANCH   8   9
HETATM    9  N   UNL     1     -11.321   7.772  68.994  1.00  0.00     0.378 NA 
HETATM   10  C   UNL     1     -10.081   8.029  69.757  1.00  0.00    -0.196 C  
HETATM   11  C   UNL     1      -9.040   8.854  68.990  1.00  0.00    -0.137 C  
HETATM   12  C   UNL     1      -9.618  10.227  68.669  1.00  0.00    -0.169 C  
HETATM   13  C   UNL     1      -9.049  11.415  69.027  1.00  0.00     0.069 C  
HETATM   14  C   UNL     1     -10.920  10.053  67.887  1.00  0.00    -0.311 C  
HETATM   15  C   UNL     1      -9.691  12.687  68.610  1.00  0.00    -0.050 A  
HETATM   16  C   UNL     1     -11.898   9.079  68.591  1.00  0.00     1.742 C  
HETATM   17  C   UNL     1     -10.886  13.115  69.203  1.00  0.00    -0.139 A  
HETATM   18  C   UNL     1     -11.475  14.321  68.811  1.00  0.00    -0.327 A  
HETATM   19  C   UNL     1     -10.860  15.106  67.840  1.00  0.00    -0.291 A  
HETATM   20  C   UNL     1      -9.656  14.704  67.261  1.00  0.00    -0.221 A  
HETATM   21 CL   UNL     1     -11.578  16.596  67.363  1.00  0.00     0.422 Cl 
HETATM   22  C   UNL     1      -9.060  13.494  67.646  1.00  0.00    -0.205 A  
HETATM   23  C   UNL     1      -7.731  13.068  67.074  1.00  0.00     0.052 C  
HETATM   24  C   UNL     1      -6.616  13.150  68.120  1.00  0.00    -0.107 C  
HETATM   25  C   UNL     1      -6.644  12.211  69.308  1.00  0.00    -0.104 A  
HETATM   26  C   UNL     1      -7.740  11.456  69.749  1.00  0.00     0.655 A  
HETATM   27  N   UNL     1      -7.698  10.708  70.886  1.00  0.00     1.284 NA 
HETATM   28  C   UNL     1      -6.535  10.637  71.564  1.00  0.00     1.287 A  
HETATM   29  C   UNL     1      -5.396  11.317  71.194  1.00  0.00    -0.064 A  
HETATM   30  C   UNL     1      -5.462  12.127  70.067  1.00  0.00    -0.111 A  
ENDBRANCH   8   9
ENDBRANCH   4   8
TORSDOF 2
ENDMDL
MODEL      143
REMARK 921   NORMALIZED FREE ENERGY PREDICTED BY IDOCK:    3.05 KCAL/MOL
REMARK 922        TOTAL FREE ENERGY PREDICTED BY IDOCK:    3.01 KCAL/MOL
REMARK 923 INTER-LIGAND FREE ENERGY PREDICTED BY IDOCK:   -0.53 KCAL/MOL
REMARK 924 INTRA-LIGAND FREE ENERGY PREDICTED BY IDOCK:    3.54 KCAL/MOL
REMARK 927      BINDING AFFINITY PREDICTED BY RF-SCORE:    0.00 PKD
ROOT
HETATM    1  C   UNL     1     -11.479  12.069  65.772  1.00  0.00    -0.377 C  
HETATM    2  C   UNL     1     -10.144  11.407  65.665  1.00  0.00    -0.293 A  
HETATM    3  C   UNL     1      -9.336  11.172  66.785  1.00  0.00    -0.193 A  
HETATM    4  C   UNL     1      -8.105  10.526  66.645  1.00  0.00    -0.127 A  
HETATM    5  C   UNL     1      -7.730  10.165  65.350  1.00  0.00    -0.143 A  
HETATM    6  N   UNL     1      -8.467  10.393  64.240  1.00  0.00    -0.169 NA 
HETATM    7  C   UNL     1      -9.653  11.012  64.424  1.00  0.00    -0.259 A  
ENDROOT
BRANCH   4   8
HETATM    8  C   UNL     1      -7.124  10.303  67.775  1.00  0.00    -0.085 C  
BRANCH   8   9
HETATM    9  N   UNL     1      -6.754  11.475  68.596  1.00  0.00    -0.067 NA 
HETATM   10  C   UNL     1      -6.675  12.737  67.830  1.00  0.00    -0.116 C  
HETATM   11  C   UNL     1      -8.024  13.209  67.272  1.00  0.00    -0.140 C  
HETATM   12  C   UNL     1      -8.980  13.486  68.424  1.00  0.00    -0.146 C  
HETATM   13  C   UNL     1      -9.616  14.675  68.640  1.00  0.00    -0.219 C  
HETATM   14  C   UNL     1      -9.110  12.228  69.283  1.00  0.00     0.864 C  
HETATM   15  C   UNL     1     -10.563  14.800  69.777  1.00  0.00    -0.134 A  
HETATM   16  C   UNL     1      -7.730  11.661  69.700  1.00  0.00     0.643 C  
HETATM   17  C   UNL     1     -10.096  14.845  71.098  1.00  0.00     1.407 A  
HETATM   18  C   UNL     1     -10.996  14.975  72.159  1.00  0.00     0.402 A  
HETATM   19  C   UNL     1     -12.360  15.081  71.900  1.00  0.00    -0.342 A  
HETATM   20  C   UNL     1     -12.834  15.065  70.588  1.00  0.00    -0.413 A  
HETATM   21 CL   UNL     1     -13.468  15.252  73.204  1.00  0.00    -0.553 Cl 
HETATM   22  C   UNL     1     -11.939  14.930  69.516  1.00  0.00    -0.347 A  
HETATM   23  C   UNL     1     -12.426  14.968  68.089  1.00  0.00     0.469 C  
HETATM   24  C   UNL     1     -11.997  16.257  67.383  1.00  0.00     0.969 C  
HETATM   25  C   UNL     1     -10.527  16.498  67.110  1.00  0.00    -0.300 A  
HETATM   26  C   UNL     1      -9.447  15.822  67.696  1.00  0.00    -0.218 A  
HETATM   27  N   UNL     1      -8.154  16.172  67.457  1.00  0.00    -0.140 NA 
HETATM   28  C   UNL     1      -7.909  17.155  66.566  1.00  0.00    -0.290 A  
HETATM   29  C   UNL     1      -8.900  17.857  65.917  1.00  0.00     0.147 A  
HETATM   30  C   UNL     1     -10.220  17.536  66.210  1.00  0.00    -0.356 A  
ENDBRANCH   8   9
ENDBRANCH   4   8
TORSDOF 2
ENDMDL
MODEL      144
REMARK 921   NORMALIZED FREE ENERGY PREDICTED BY IDOCK:    4.75 KCAL/MOL
REMARK 922        TOTAL FREE ENERGY PREDICTED BY IDOCK:    4.90 KCAL/MOL
REMARK 923 INTER-LIGAND FREE ENERGY PREDICTED BY IDOCK:    1.09 KCAL/MOL
REMARK 924 INTRA-LIGAND FREE ENERGY PREDICTED BY IDOCK:    3.81 KCAL/MOL
REMARK 927      BINDING AFFINITY PREDICTED BY RF-SCORE:    0.00 PKD
ROOT
HETATM    1  C   UNL     1      -7.374   6.085  66.558  1.00  0.00    -0.081 C  
HETATM    2  C   UNL     1      -7.078   6.113  68.021  1.00  0.00    -0.078 A  
HETATM    3  C   UNL     1      -7.999   6.597  68.959  1.00  0.00    -0.112 A  
HETATM    4  C   UNL     1      -7.693   6.582  70.323  1.00  0.00    -0.098 A  
HETATM    5  C   UNL     1      -6.435   6.093  70.677  1.00  0.00    -0.041 A  
HETATM    6  N   UNL     1      -5.508   5.639  69.805  1.00  0.00    -0.004 NA 
HETATM    7  C   UNL     1      -5.850   5.664  68.499  1.00  0.00    -0.016 A  
ENDROOT
BRANCH   4   8
HETATM    8  C   UNL     1      -8.581   7.159  71.403  1.00  0.00    -0.116 C  
BRANCH   8   9
HETATM    9  N   UNL     1      -9.419   8.322  71.046  1.00  0.00    -0.155 NA 
HETATM   10  C   UNL     1      -8.808   9.623  71.393  1.00  0.00     0.906 C  
HETATM   11  C   UNL     1      -7.539   9.945  70.593  1.00  0.00     0.091 C  
HETATM   12  C   UNL     1      -7.882  10.032  69.112  1.00  0.00    -0.112 C  
HETATM   13  C   UNL     1      -7.634  11.114  68.317  1.00  0.00    -0.111 C  
HETATM   14  C   UNL     1      -8.537   8.724  68.670  1.00  0.00    -0.134 C  
HETATM   15  C   UNL     1      -7.976  11.053  66.873  1.00  0.00    -0.143 A  
HETATM   16  C   UNL     1      -9.715   8.320  69.591  1.00  0.00    -0.173 C  
HETATM   17  C   UNL     1      -9.311  11.087  66.450  1.00  0.00    -0.204 A  
HETATM   18  C   UNL     1      -9.620  11.041  65.088  1.00  0.00    -0.281 A  
HETATM   19  C   UNL     1      -8.594  10.982  64.148  1.00  0.00     0.158 A  
HETATM   20  C   UNL     1      -7.259  10.975  64.556  1.00  0.00     0.733 A  
HETATM   21 CL   UNL     1      -8.971  10.936  62.470  1.00  0.00    -0.330 Cl 
HETATM   22  C   UNL     1      -6.940  11.016  65.922  1.00  0.00     0.041 A  
HETATM   23  C   UNL     1      -5.505  11.067  66.381  1.00  0.00    -0.121 C  
HETATM   24  C   UNL     1      -5.149  12.437  66.965  1.00  0.00     0.072 C  
HETATM   25  C   UNL     1      -5.799  12.883  68.258  1.00  0.00    -0.079 A  
HETATM   26  C   UNL     1      -6.937  12.323  68.856  1.00  0.00    -0.098 A  
HETATM   27  N   UNL     1      -7.506  12.851  69.974  1.00  0.00     1.241 NA 
HETATM   28  C   UNL     1      -6.904  13.905  70.564  1.00  0.00     0.536 A  
HETATM   29  C   UNL     1      -5.768  14.505  70.070  1.00  0.00    -0.121 A  
HETATM   30  C   UNL     1      -5.226  13.999  68.895  1.00  0.00    -0.076 A  
ENDBRANCH   8   9
ENDBRANCH   4   8
TORSDOF 2
ENDMDL
MODEL      145
REMARK 921   NORMALIZED FREE ENERGY PREDICTED BY IDOCK:    5.59 KCAL/MOL
REMARK 922        TOTAL FREE ENERGY PREDICTED BY IDOCK:    5.85 KCAL/MOL
REMARK 923 INTER-LIGAND FREE ENERGY PREDICTED BY IDOCK:    4.53 KCAL/MOL
REMARK 924 INTRA-LIGAND FREE ENERGY PREDICTED BY IDOCK:    1.31 KCAL/MOL
REMARK 927      BINDING AFFINITY PREDICTED BY RF-SCORE:    0.00 PKD
ROOT
HETATM    1  C   UNL     1     -10.541  15.595  73.159  1.00  0.00     3.115 C  
HETATM    2  C   UNL     1     -11.389  14.905  72.142  1.00  0.00    -0.044 A  
HETATM    3  C   UNL     1     -11.956  13.645  72.373  1.00  0.00     1.121 A  
HETATM    4  C   UNL     1     -12.765  13.045  71.404  1.00  0.00    -0.375 A  
HETATM    5  C   UNL     1     -12.943  13.750  70.213  1.00  0.00     0.102 A  
HETATM    6  N   UNL     1     -12.397  14.955  69.939  1.00  0.00    -0.303 NA 
HETATM    7  C   UNL     1     -11.630  15.501  70.907  1.00  0.00    -0.375 A  
ENDROOT
BRANCH   4   8
HETATM    8  C   UNL     1     -13.352  11.656  71.523  1.00  0.00    -0.051 C  
BRANCH   8   9
HETATM    9  N   UNL     1     -12.931  10.651  70.525  1.00  0.00    -0.282 NA 
HETATM   10  C   UNL     1     -12.141  11.216  69.410  1.00  0.00    -0.326 C  
HETATM   11  C   UNL     1     -10.774  11.768  69.835  1.00  0.00     0.485 C  
HETATM   12  C   UNL     1      -9.928  10.639  70.409  1.00  0.00     0.800 C  
HETATM   13  C   UNL     1      -8.692  10.282  69.953  1.00  0.00     0.010 C  
HETATM   14  C   UNL     1     -10.682   9.985  71.568  1.00  0.00     0.558 C  
HETATM   15  C   UNL     1      -7.950   9.191  70.633  1.00  0.00    -0.177 A  
HETATM   16  C   UNL     1     -12.125   9.585  71.172  1.00  0.00    -0.347 C  
HETATM   17  C   UNL     1      -8.352   7.856  70.496  1.00  0.00    -0.124 A  
HETATM   18  C   UNL     1      -7.638   6.835  71.131  1.00  0.00    -0.088 A  
HETATM   19  C   UNL     1      -6.511   7.148  71.887  1.00  0.00    -0.044 A  
HETATM   20  C   UNL     1      -6.085   8.471  72.009  1.00  0.00    -0.066 A  
HETATM   21 CL   UNL     1      -5.625   5.893  72.661  1.00  0.00    -0.030 Cl 
HETATM   22  C   UNL     1      -6.798   9.502  71.378  1.00  0.00     0.135 A  
HETATM   23  C   UNL     1      -6.321  10.931  71.451  1.00  0.00     1.104 C  
HETATM   24  C   UNL     1      -5.785  11.414  70.101  1.00  0.00    -0.129 C  
HETATM   25  C   UNL     1      -6.741  11.570  68.937  1.00  0.00    -0.086 A  
HETATM   26  C   UNL     1      -8.034  11.035  68.841  1.00  0.00    -0.138 A  
HETATM   27  N   UNL     1      -8.788  11.151  67.713  1.00  0.00    -0.133 NA 
HETATM   28  C   UNL     1      -8.296  11.871  66.684  1.00  0.00    -0.117 A  
HETATM   29  C   UNL     1      -7.051  12.459  66.694  1.00  0.00     0.440 A  
HETATM   30  C   UNL     1      -6.262  12.288  67.825  1.00  0.00    -0.101 A  
ENDBRANCH   8   9
ENDBRANCH   4   8
TORSDOF 2
ENDMDL
MODEL      146
REMARK 921   NORMALIZED FREE ENERGY PREDICTED BY IDOCK:    6.57 KCAL/MOL
REMARK 922        TOTAL FREE ENERGY PREDICTED BY IDOCK:    6.94 KCAL/MOL
REMARK 923 INTER-LIGAND FREE ENERGY PREDICTED BY IDOCK:    6.03 KCAL/MOL
REMARK 924 INTRA-LIGAND FREE ENERGY PREDICTED BY IDOCK:    0.91 KCAL/MOL
REMARK 927      BINDING AFFINITY PREDICTED BY RF-SCORE:    0.00 PKD
ROOT
HETATM    1  C   UNL     1      -9.072   8.358  70.318  1.00  0.00    -0.149 C  
HETATM    2  C   UNL     1      -9.259   9.570  69.466  1.00  0.00    -0.198 A  
HETATM    3  C   UNL     1     -10.429  10.338  69.508  1.00  0.00    -0.268 A  
HETATM    4  C   UNL     1     -10.554  11.481  68.712  1.00  0.00    -0.241 A  
HETATM    5  C   UNL     1      -9.478  11.781  67.875  1.00  0.00    -0.191 A  
HETATM    6  N   UNL     1      -8.342  11.055  67.786  1.00  0.00    -0.116 NA 
HETATM    7  C   UNL     1      -8.262   9.966  68.579  1.00  0.00    -0.106 A  
ENDROOT
BRANCH   4   8
HETATM    8  C   UNL     1     -11.805  12.326  68.622  1.00  0.00    -0.305 C  
BRANCH   8   9
HETATM    9  N   UNL     1     -11.837  13.580  69.403  1.00  0.00    -0.317 NA 
HETATM   10  C   UNL     1     -10.513  14.000  69.908  1.00  0.00     0.540 C  
HETATM   11  C   UNL     1      -9.524  14.392  68.802  1.00  0.00    -0.161 C  
HETATM   12  C   UNL     1     -10.070  15.588  68.034  1.00  0.00    -0.223 C  
HETATM   13  C   UNL     1      -9.414  16.773  67.867  1.00  0.00    -0.230 C  
HETATM   14  C   UNL     1     -11.455  15.243  67.486  1.00  0.00    -0.271 C  
HETATM   15  C   UNL     1     -10.039  17.847  67.054  1.00  0.00    -0.340 A  
HETATM   16  C   UNL     1     -12.395  14.685  68.584  1.00  0.00     0.014 C  
HETATM   17  C   UNL     1     -11.143  18.561  67.537  1.00  0.00    -0.015 A  
HETATM   18  C   UNL     1     -11.717  19.578  66.767  1.00  0.00     1.286 A  
HETATM   19  C   UNL     1     -11.174  19.892  65.524  1.00  0.00     0.379 A  
HETATM   20  C   UNL     1     -10.058  19.206  65.044  1.00  0.00     1.868 A  
HETATM   21 CL   UNL     1     -11.871  21.150  64.579  1.00  0.00     3.156 Cl 
HETATM   22  C   UNL     1      -9.479  18.182  65.808  1.00  0.00     0.322 A  
HETATM   23  C   UNL     1      -8.239  17.466  65.333  1.00  0.00     1.420 C  
HETATM   24  C   UNL     1      -7.016  17.841  66.174  1.00  0.00    -0.338 C  
HETATM   25  C   UNL     1      -6.959  17.418  67.627  1.00  0.00    -0.175 A  
HETATM   26  C   UNL     1      -8.035  16.974  68.410  1.00  0.00    -0.239 A  
HETATM   27  N   UNL     1      -7.905  16.702  69.738  1.00  0.00     0.473 NA 
HETATM   28  C   UNL     1      -6.680  16.794  70.295  1.00  0.00     0.812 A  
HETATM   29  C   UNL     1      -5.558  17.192  69.602  1.00  0.00    -0.206 A  
HETATM   30  C   UNL     1      -5.708  17.526  68.262  1.00  0.00    -0.151 A  
ENDBRANCH   8   9
ENDBRANCH   4   8
TORSDOF 2
ENDMDL
MODEL      147
REMARK 921   NORMALIZED FREE ENERGY PREDICTED BY IDOCK:    6.60 KCAL/MOL
REMARK 922        TOTAL FREE ENERGY PREDICTED BY IDOCK:    6.97 KCAL/MOL
REMARK 923 INTER-LIGAND FREE ENERGY PREDICTED BY IDOCK:    5.25 KCAL/MOL
REMARK 924 INTRA-LIGAND FREE ENERGY PREDICTED BY IDOCK:    1.72 KCAL/MOL
REMARK 927      BINDING AFFINITY PREDICTED BY RF-SCORE:    0.00 PKD
ROOT
HETATM    1  C   UNL     1     -11.865  18.556  74.376  1.00  0.00     2.370 C  
HETATM    2  C   UNL     1     -11.649  17.260  73.667  1.00  0.00     0.623 A  
HETATM    3  C   UNL     1     -11.090  17.196  72.384  1.00  0.00     1.699 A  
HETATM    4  C   UNL     1     -10.880  15.960  71.766  1.00  0.00     0.504 A  
HETATM    5  C   UNL     1     -11.280  14.828  72.477  1.00  0.00     0.645 A  
HETATM    6  N   UNL     1     -11.844  14.845  73.704  1.00  0.00    -0.257 NA 
HETATM    7  C   UNL     1     -12.019  16.060  74.268  1.00  0.00    -0.158 A  
ENDROOT
BRANCH   4   8
HETATM    8  C   UNL     1     -10.364  15.789  70.354  1.00  0.00    -0.044 C  
BRANCH   8   9
HETATM    9  N   UNL     1     -11.209  15.033  69.406  1.00  0.00    -0.268 NA 
HETATM   10  C   UNL     1     -10.442  14.328  68.358  1.00  0.00    -0.249 C  
HETATM   11  C   UNL     1      -9.554  13.197  68.893  1.00  0.00     0.202 C  
HETATM   12  C   UNL     1     -10.427  12.135  69.551  1.00  0.00     0.411 C  
HETATM   13  C   UNL     1     -10.440  10.815  69.207  1.00  0.00    -0.243 C  
HETATM   14  C   UNL     1     -11.271  12.787  70.647  1.00  0.00     1.378 C  
HETATM   15  C   UNL     1     -11.305   9.872  69.960  1.00  0.00    -0.303 A  
HETATM   16  C   UNL     1     -12.033  14.034  70.133  1.00  0.00    -0.330 C  
HETATM   17  C   UNL     1     -12.697   9.894  69.803  1.00  0.00     0.626 A  
HETATM   18  C   UNL     1     -13.500   8.994  70.508  1.00  0.00     0.712 A  
HETATM   19  C   UNL     1     -12.911   8.059  71.355  1.00  0.00    -0.269 A  
HETATM   20  C   UNL     1     -11.524   8.009  71.499  1.00  0.00    -0.303 A  
HETATM   21 CL   UNL     1     -13.897   6.943  72.216  1.00  0.00    -0.012 Cl 
HETATM   22  C   UNL     1     -10.710   8.911  70.798  1.00  0.00    -0.287 A  
HETATM   23  C   UNL     1      -9.207   8.837  70.896  1.00  0.00    -0.261 C  
HETATM   24  C   UNL     1      -8.582   8.333  69.592  1.00  0.00    -0.129 C  
HETATM   25  C   UNL     1      -8.670   9.193  68.349  1.00  0.00    -0.129 A  
HETATM   26  C   UNL     1      -9.526  10.285  68.148  1.00  0.00    -0.147 A  
HETATM   27  N   UNL     1      -9.599  10.943  66.958  1.00  0.00    -0.172 NA 
HETATM   28  C   UNL     1      -8.762  10.572  65.967  1.00  0.00    -0.164 A  
HETATM   29  C   UNL     1      -7.866   9.532  66.078  1.00  0.00    -0.100 A  
HETATM   30  C   UNL     1      -7.838   8.826  67.274  1.00  0.00    -0.097 A  
ENDBRANCH   8   9
ENDBRANCH   4   8
TORSDOF 2
ENDMDL
MODEL      148
REMARK 921   NORMALIZED FREE ENERGY PREDICTED BY IDOCK:    8.08 KCAL/MOL
REMARK 922        TOTAL FREE ENERGY PREDICTED BY IDOCK:    8.63 KCAL/MOL
REMARK 923 INTER-LIGAND FREE ENERGY PREDICTED BY IDOCK:    8.09 KCAL/MOL
REMARK 924 INTRA-LIGAND FREE ENERGY PREDICTED BY IDOCK:    0.54 KCAL/MOL
REMARK 927      BINDING AFFINITY PREDICTED BY RF-SCORE:    0.00 PKD
ROOT
HETATM    1  C   UNL     1     -11.195  14.576  64.616  1.00  0.00    -0.359 C  
HETATM    2  C   UNL     1     -10.443  13.291  64.498  1.00  0.00    -0.434 A  
HETATM    3  C   UNL     1     -11.033  12.053  64.780  1.00  0.00    -0.361 A  
HETATM    4  C   UNL     1     -10.301  10.871  64.632  1.00  0.00    -0.407 A  
HETATM    5  C   UNL     1      -8.973  11.004  64.224  1.00  0.00    -0.038 A  
HETATM    6  N   UNL     1      -8.358  12.178  63.965  1.00  0.00     2.002 NA 
HETATM    7  C   UNL     1      -9.105  13.293  64.112  1.00  0.00     2.932 A  
ENDROOT
BRANCH   4   8
HETATM    8  C   UNL     1     -10.819   9.496  64.991  1.00  0.00     2.829 C  
BRANCH   8   9
HETATM    9  N   UNL     1      -9.828   8.409  65.129  1.00  0.00     1.016 NA 
HETATM   10  C   UNL     1      -8.588   8.819  65.823  1.00  0.00    -0.164 C  
HETATM   11  C   UNL     1      -8.796   9.187  67.297  1.00  0.00    -0.132 C  
HETATM   12  C   UNL     1      -9.309   7.970  68.056  1.00  0.00    -0.146 C  
HETATM   13  C   UNL     1      -8.710   7.428  69.156  1.00  0.00    -0.136 C  
HETATM   14  C   UNL     1     -10.591   7.468  67.391  1.00  0.00    -0.364 C  
HETATM   15  C   UNL     1      -9.340   6.266  69.832  1.00  0.00    -0.158 A  
HETATM   16  C   UNL     1     -10.416   7.262  65.866  1.00  0.00     1.546 C  
HETATM   17  C   UNL     1      -9.329   4.997  69.238  1.00  0.00    -0.178 A  
HETATM   18  C   UNL     1      -9.915   3.908  69.890  1.00  0.00     0.031 A  
HETATM   19  C   UNL     1     -10.494   4.084  71.144  1.00  0.00     0.427 A  
HETATM   20  C   UNL     1     -10.488   5.337  71.758  1.00  0.00    -0.278 A  
HETATM   21 CL   UNL     1     -11.207   2.743  71.953  1.00  0.00     1.426 Cl 
HETATM   22  C   UNL     1      -9.906   6.436  71.109  1.00  0.00    -0.198 A  
HETATM   23  C   UNL     1      -9.839   7.785  71.779  1.00  0.00    -0.210 C  
HETATM   24  C   UNL     1      -8.405   8.143  72.181  1.00  0.00    -0.209 C  
HETATM   25  C   UNL     1      -7.374   8.394  71.100  1.00  0.00    -0.074 A  
HETATM   26  C   UNL     1      -7.482   8.043  69.747  1.00  0.00    -0.089 A  
HETATM   27  N   UNL     1      -6.461   8.226  68.864  1.00  0.00    -0.051 NA 
HETATM   28  C   UNL     1      -5.339   8.835  69.299  1.00  0.00    -0.035 A  
HETATM   29  C   UNL     1      -5.151   9.242  70.601  1.00  0.00    -0.023 A  
HETATM   30  C   UNL     1      -6.172   8.999  71.511  1.00  0.00    -0.075 A  
ENDBRANCH   8   9
ENDBRANCH   4   8
TORSDOF 2
ENDMDL
MODEL      149
REMARK 921   NORMALIZED FREE ENERGY PREDICTED BY IDOCK:    8.99 KCAL/MOL
REMARK 922        TOTAL FREE ENERGY PREDICTED BY IDOCK:    9.64 KCAL/MOL
REMARK 923 INTER-LIGAND FREE ENERGY PREDICTED BY IDOCK:    7.74 KCAL/MOL
REMARK 924 INTRA-LIGAND FREE ENERGY PREDICTED BY IDOCK:    1.90 KCAL/MOL
REMARK 927      BINDING AFFINITY PREDICTED BY RF-SCORE:    0.00 PKD
ROOT
HETATM    1  C   UNL     1     -10.647  19.410  69.943  1.00  0.00     1.120 C  
HETATM    2  C   UNL     1     -11.130  18.294  70.810  1.00  0.00     3.241 A  
HETATM    3  C   UNL     1     -11.526  17.058  70.284  1.00  0.00     0.946 A  
HETATM    4  C   UNL     1     -11.946  16.030  71.133  1.00  0.00    -0.443 A  
HETATM    5  C   UNL     1     -11.972  16.317  72.498  1.00  0.00    -0.554 A  
HETATM    6  N   UNL     1     -11.622  17.501  73.046  1.00  0.00     0.818 NA 
HETATM    7  C   UNL     1     -11.214  18.462  72.190  1.00  0.00     3.599 A  
ENDROOT
BRANCH   4   8
HETATM    8  C   UNL     1     -12.473  14.694  70.658  1.00  0.00    -0.344 C  
BRANCH   8   9
HETATM    9  N   UNL     1     -12.358  14.390  69.217  1.00  0.00    -0.227 NA 
HETATM   10  C   UNL     1     -11.467  15.313  68.483  1.00  0.00    -0.342 C  
HETATM   11  C   UNL     1      -9.994  15.216  68.900  1.00  0.00    -0.227 C  
HETATM   12  C   UNL     1      -9.474  13.816  68.600  1.00  0.00    -0.099 C  
HETATM   13  C   UNL     1      -8.390  13.538  67.818  1.00  0.00    -0.181 C  
HETATM   14  C   UNL     1     -10.354  12.789  69.313  1.00  0.00     0.291 C  
HETATM   15  C   UNL     1      -7.957  12.129  67.643  1.00  0.00    -0.157 A  
HETATM   16  C   UNL     1     -11.859  13.006  69.018  1.00  0.00    -0.316 C  
HETATM   17  C   UNL     1      -8.709  11.240  66.863  1.00  0.00    -0.157 A  
HETATM   18  C   UNL     1      -8.286   9.918  66.695  1.00  0.00    -0.121 A  
HETATM   19  C   UNL     1      -7.102   9.491  67.291  1.00  0.00    -0.086 A  
HETATM   20  C   UNL     1      -6.331  10.374  68.048  1.00  0.00    -0.059 A  
HETATM   21 CL   UNL     1      -6.573   7.868  67.077  1.00  0.00    -0.058 Cl 
HETATM   22  C   UNL     1      -6.750  11.701  68.225  1.00  0.00    -0.064 A  
HETATM   23  C   UNL     1      -5.903  12.686  68.991  1.00  0.00    -0.075 C  
HETATM   24  C   UNL     1      -5.282  13.735  68.064  1.00  0.00    -0.105 C  
HETATM   25  C   UNL     1      -6.183  14.732  67.366  1.00  0.00     0.128 A  
HETATM   26  C   UNL     1      -7.574  14.636  67.214  1.00  0.00    -0.143 A  
HETATM   27  N   UNL     1      -8.290  15.538  66.487  1.00  0.00    -0.254 NA 
HETATM   28  C   UNL     1      -7.642  16.597  65.961  1.00  0.00     0.155 A  
HETATM   29  C   UNL     1      -6.284  16.794  66.080  1.00  0.00     0.552 A  
HETATM   30  C   UNL     1      -5.549  15.839  66.772  1.00  0.00     0.900 A  
ENDBRANCH   8   9
ENDBRANCH   4   8
TORSDOF 2
ENDMDL
MODEL      150
REMARK 921   NORMALIZED FREE ENERGY PREDICTED BY IDOCK:   10.01 KCAL/MOL
REMARK 922        TOTAL FREE ENERGY PREDICTED BY IDOCK:   10.79 KCAL/MOL
REMARK 923 INTER-LIGAND FREE ENERGY PREDICTED BY IDOCK:   10.12 KCAL/MOL
REMARK 924 INTRA-LIGAND FREE ENERGY PREDICTED BY IDOCK:    0.67 KCAL/MOL
REMARK 927      BINDING AFFINITY PREDICTED BY RF-SCORE:    0.00 PKD
ROOT
HETATM    1  C   UNL     1      -6.432   4.457  66.842  1.00  0.00    -0.041 C  
HETATM    2  C   UNL     1      -7.864   4.227  67.195  1.00  0.00    -0.096 A  
HETATM    3  C   UNL     1      -8.847   5.205  66.998  1.00  0.00    -0.109 A  
HETATM    4  C   UNL     1     -10.182   4.939  67.318  1.00  0.00    -0.190 A  
HETATM    5  C   UNL     1     -10.459   3.682  67.857  1.00  0.00     1.757 A  
HETATM    6  N   UNL     1      -9.539   2.720  68.086  1.00  0.00    -0.150 NA 
HETATM    7  C   UNL     1      -8.264   3.016  67.753  1.00  0.00    -0.079 A  
ENDROOT
BRANCH   4   8
HETATM    8  C   UNL     1     -11.301   5.954  67.223  1.00  0.00     0.465 C  
BRANCH   8   9
HETATM    9  N   UNL     1     -11.217   7.143  68.096  1.00  0.00     0.070 NA 
HETATM   10  C   UNL     1      -9.835   7.616  68.325  1.00  0.00    -0.166 C  
HETATM   11  C   UNL     1      -9.146   8.154  67.065  1.00  0.00    -0.170 C  
HETATM   12  C   UNL     1      -9.914   9.362  66.544  1.00  0.00    -0.339 C  
HETATM   13  C   UNL     1      -9.374  10.598  66.337  1.00  0.00    -0.195 C  
HETATM   14  C   UNL     1     -11.368   8.963  66.292  1.00  0.00     2.770 C  
HETATM   15  C   UNL     1     -10.222  11.682  65.780  1.00  0.00    -0.281 A  
HETATM   16  C   UNL     1     -12.002   8.263  67.520  1.00  0.00     4.183 C  
HETATM   17  C   UNL     1     -11.221  12.282  66.557  1.00  0.00    -0.373 A  
HETATM   18  C   UNL     1     -12.006  13.310  66.025  1.00  0.00    -0.473 A  
HETATM   19  C   UNL     1     -11.778  13.750  64.724  1.00  0.00    -0.381 A  
HETATM   20  C   UNL     1     -10.768  13.178  63.950  1.00  0.00    -0.229 A  
HETATM   21 CL   UNL     1     -12.736  15.021  64.071  1.00  0.00     0.142 Cl 
HETATM   22  C   UNL     1      -9.979  12.144  64.474  1.00  0.00    -0.231 A  
HETATM   23  C   UNL     1      -8.846  11.552  63.673  1.00  0.00     0.307 C  
HETATM   24  C   UNL     1      -7.483  11.948  64.249  1.00  0.00     3.461 C  
HETATM   25  C   UNL     1      -7.075  11.426  65.611  1.00  0.00     0.582 A  
HETATM   26  C   UNL     1      -7.919  10.853  66.573  1.00  0.00    -0.152 A  
HETATM   27  N   UNL     1      -7.476  10.496  67.810  1.00  0.00    -0.087 NA 
HETATM   28  C   UNL     1      -6.162  10.632  68.084  1.00  0.00    -0.057 A  
HETATM   29  C   UNL     1      -5.250  11.155  67.196  1.00  0.00    -0.054 A  
HETATM   30  C   UNL     1      -5.718  11.574  65.957  1.00  0.00     0.236 A  
ENDBRANCH   8   9
ENDBRANCH   4   8
TORSDOF 2
ENDMDL
MODEL      151
REMARK 921   NORMALIZED FREE ENERGY PREDICTED BY IDOCK:   10.03 KCAL/MOL
REMARK 922        TOTAL FREE ENERGY PREDICTED BY IDOCK:   10.80 KCAL/MOL
REMARK 923 INTER-LIGAND FREE ENERGY PREDICTED BY IDOCK:   10.58 KCAL/MOL
REMARK 924 INTRA-LIGAND FREE ENERGY PREDICTED BY IDOCK:    0.22 KCAL/MOL
REMARK 927      BINDING AFFINITY PREDICTED BY RF-SCORE:    0.00 PKD
ROOT
HETATM    1  C   UNL     1      -8.635   8.329  72.320  1.00  0.00    -0.257 C  
HETATM    2  C   UNL     1      -7.925   9.068  71.233  1.00  0.00    -0.139 A  
HETATM    3  C   UNL     1      -6.971  10.057  71.504  1.00  0.00     0.971 A  
HETATM    4  C   UNL     1      -6.311  10.707  70.457  1.00  0.00    -0.076 A  
HETATM    5  C   UNL     1      -6.674  10.338  69.162  1.00  0.00    -0.058 A  
HETATM    6  N   UNL     1      -7.605   9.407  68.856  1.00  0.00    -0.074 NA 
HETATM    7  C   UNL     1      -8.211   8.798  69.897  1.00  0.00    -0.118 A  
ENDROOT
BRANCH   4   8
HETATM    8  C   UNL     1      -5.330  11.844  70.643  1.00  0.00    -0.148 C  
BRANCH   8   9
HETATM    9  N   UNL     1      -5.858  13.118  71.172  1.00  0.00    -0.292 NA 
HETATM   10  C   UNL     1      -5.312  14.315  70.497  1.00  0.00    -0.118 C  
HETATM   11  C   UNL     1      -5.727  14.439  69.025  1.00  0.00    -0.088 C  
HETATM   12  C   UNL     1      -7.241  14.569  68.934  1.00  0.00    -0.125 C  
HETATM   13  C   UNL     1      -7.900  15.598  68.324  1.00  0.00    -0.128 C  
HETATM   14  C   UNL     1      -7.891  13.371  69.627  1.00  0.00     1.011 C  
HETATM   15  C   UNL     1      -9.384  15.581  68.264  1.00  0.00    -0.192 A  
HETATM   16  C   UNL     1      -7.337  13.153  71.057  1.00  0.00     4.395 C  
HETATM   17  C   UNL     1     -10.150  15.813  69.414  1.00  0.00    -0.268 A  
HETATM   18  C   UNL     1     -11.546  15.807  69.343  1.00  0.00    -0.371 A  
HETATM   19  C   UNL     1     -12.175  15.590  68.119  1.00  0.00     0.376 A  
HETATM   20  C   UNL     1     -11.422  15.385  66.963  1.00  0.00    -0.103 A  
HETATM   21 CL   UNL     1     -13.893  15.592  68.028  1.00  0.00     6.401 Cl 
HETATM   22  C   UNL     1     -10.021  15.385  67.025  1.00  0.00    -0.239 A  
HETATM   23  C   UNL     1      -9.189  15.222  65.778  1.00  0.00    -0.133 C  
HETATM   24  C   UNL     1      -8.481  16.526  65.399  1.00  0.00     1.558 C  
HETATM   25  C   UNL     1      -7.397  17.071  66.306  1.00  0.00    -0.294 A  
HETATM   26  C   UNL     1      -7.150  16.691  67.633  1.00  0.00    -0.136 A  
HETATM   27  N   UNL     1      -6.208  17.304  68.402  1.00  0.00    -0.150 NA 
HETATM   28  C   UNL     1      -5.440  18.258  67.836  1.00  0.00    -0.157 A  
HETATM   29  C   UNL     1      -5.587  18.679  66.534  1.00  0.00    -0.170 A  
HETATM   30  C   UNL     1      -6.589  18.092  65.771  1.00  0.00    -0.298 A  
ENDBRANCH   8   9
ENDBRANCH   4   8
TORSDOF 2
ENDMDL
MODEL      152
REMARK 921   NORMALIZED FREE ENERGY PREDICTED BY IDOCK:   11.51 KCAL/MOL
REMARK 922        TOTAL FREE ENERGY PREDICTED BY IDOCK:   12.46 KCAL/MOL
REMARK 923 INTER-LIGAND FREE ENERGY PREDICTED BY IDOCK:   11.79 KCAL/MOL
REMARK 924 INTRA-LIGAND FREE ENERGY PREDICTED BY IDOCK:    0.66 KCAL/MOL
REMARK 927      BINDING AFFINITY PREDICTED BY RF-SCORE:    0.00 PKD
ROOT
HETATM    1  C   UNL     1      -8.308  17.930  65.289  1.00  0.00     1.888 C  
HETATM    2  C   UNL     1      -8.845  17.811  66.678  1.00  0.00    -0.282 A  
HETATM    3  C   UNL     1      -8.130  17.177  67.702  1.00  0.00    -0.187 A  
HETATM    4  C   UNL     1      -8.657  17.111  68.995  1.00  0.00    -0.101 A  
HETATM    5  C   UNL     1      -9.919  17.675  69.187  1.00  0.00    -0.192 A  
HETATM    6  N   UNL     1     -10.652  18.274  68.223  1.00  0.00    -0.295 NA 
HETATM    7  C   UNL     1     -10.100  18.324  66.992  1.00  0.00    -0.360 A  
ENDROOT
BRANCH   4   8
HETATM    8  C   UNL     1      -8.004  16.376  70.145  1.00  0.00     1.533 C  
BRANCH   8   9
HETATM    9  N   UNL     1      -6.982  15.362  69.813  1.00  0.00    -0.177 NA 
HETATM   10  C   UNL     1      -6.907  14.252  70.788  1.00  0.00     0.561 C  
HETATM   11  C   UNL     1      -8.163  13.373  70.825  1.00  0.00     5.774 C  
HETATM   12  C   UNL     1      -8.361  12.714  69.465  1.00  0.00     1.411 C  
HETATM   13  C   UNL     1      -8.457  11.369  69.258  1.00  0.00     0.277 C  
HETATM   14  C   UNL     1      -8.435  13.797  68.388  1.00  0.00    -0.154 C  
HETATM   15  C   UNL     1      -8.697  10.857  67.885  1.00  0.00    -0.131 A  
HETATM   16  C   UNL     1      -7.244  14.785  68.471  1.00  0.00    -0.115 C  
HETATM   17  C   UNL     1      -7.686  10.902  66.916  1.00  0.00    -0.135 A  
HETATM   18  C   UNL     1      -7.919  10.406  65.630  1.00  0.00    -0.153 A  
HETATM   19  C   UNL     1      -9.156   9.847  65.319  1.00  0.00    -0.211 A  
HETATM   20  C   UNL     1     -10.162   9.772  66.283  1.00  0.00    -0.282 A  
HETATM   21 CL   UNL     1      -9.442   9.227  63.740  1.00  0.00     0.355 Cl 
HETATM   22  C   UNL     1      -9.938  10.271  67.575  1.00  0.00    -0.226 A  
HETATM   23  C   UNL     1     -10.991  10.148  68.647  1.00  0.00    -0.273 C  
HETATM   24  C   UNL     1     -10.587   9.131  69.719  1.00  0.00    -0.240 C  
HETATM   25  C   UNL     1      -9.406   9.433  70.618  1.00  0.00    -0.314 A  
HETATM   26  C   UNL     1      -8.422  10.408  70.403  1.00  0.00     0.935 A  
HETATM   27  N   UNL     1      -7.343  10.545  71.222  1.00  0.00     1.335 NA 
HETATM   28  C   UNL     1      -7.265   9.761  72.317  1.00  0.00     1.777 A  
HETATM   29  C   UNL     1      -8.196   8.796  72.629  1.00  0.00     0.111 A  
HETATM   30  C   UNL     1      -9.264   8.620  71.758  1.00  0.00    -0.338 A  
ENDBRANCH   8   9
ENDBRANCH   4   8
TORSDOF 2
ENDMDL
MODEL      153
REMARK 921   NORMALIZED FREE ENERGY PREDICTED BY IDOCK:   11.65 KCAL/MOL
REMARK 922        TOTAL FREE ENERGY PREDICTED BY IDOCK:   12.61 KCAL/MOL
REMARK 923 INTER-LIGAND FREE ENERGY PREDICTED BY IDOCK:   10.63 KCAL/MOL
REMARK 924 INTRA-LIGAND FREE ENERGY PREDICTED BY IDOCK:    1.99 KCAL/MOL
REMARK 927      BINDING AFFINITY PREDICTED BY RF-SCORE:    0.00 PKD
ROOT
HETATM    1  C   UNL     1     -13.066  12.254  63.346  1.00  0.00    -0.000 C  
HETATM    2  C   UNL     1     -12.505  13.399  64.124  1.00  0.00    -0.312 A  
HETATM    3  C   UNL     1     -12.137  13.278  65.470  1.00  0.00    -0.480 A  
HETATM    4  C   UNL     1     -11.591  14.367  66.154  1.00  0.00    -0.372 A  
HETATM    5  C   UNL     1     -11.466  15.558  65.438  1.00  0.00    -0.046 A  
HETATM    6  N   UNL     1     -11.830  15.726  64.147  1.00  0.00    -0.455 NA 
HETATM    7  C   UNL     1     -12.344  14.645  63.523  1.00  0.00     0.645 A  
ENDROOT
BRANCH   4   8
HETATM    8  C   UNL     1     -11.242  14.362  67.626  1.00  0.00    -0.313 C  
BRANCH   8   9
HETATM    9  N   UNL     1     -11.776  13.257  68.449  1.00  0.00    -0.334 NA 
HETATM   10  C   UNL     1     -12.185  12.074  67.662  1.00  0.00     0.426 C  
HETATM   11  C   UNL     1     -11.020  11.359  66.966  1.00  0.00    -0.347 C  
HETATM   12  C   UNL     1     -10.046  10.839  68.015  1.00  0.00    -0.198 C  
HETATM   13  C   UNL     1      -9.657   9.536  68.140  1.00  0.00    -0.153 C  
HETATM   14  C   UNL     1      -9.580  12.003  68.890  1.00  0.00     0.100 C  
HETATM   15  C   UNL     1      -8.662   9.167  69.178  1.00  0.00    -0.138 A  
HETATM   16  C   UNL     1     -10.769  12.824  69.450  1.00  0.00     0.197 C  
HETATM   17  C   UNL     1      -9.011   9.161  70.535  1.00  0.00    -0.274 A  
HETATM   18  C   UNL     1      -8.069   8.800  71.504  1.00  0.00    -0.174 A  
HETATM   19  C   UNL     1      -6.785   8.427  71.113  1.00  0.00    -0.052 A  
HETATM   20  C   UNL     1      -6.434   8.403  69.763  1.00  0.00    -0.036 A  
HETATM   21 CL   UNL     1      -5.627   7.973  72.302  1.00  0.00    -0.036 Cl 
HETATM   22  C   UNL     1      -7.372   8.768  68.785  1.00  0.00    -0.083 A  
HETATM   23  C   UNL     1      -7.030   8.694  67.318  1.00  0.00    -0.075 C  
HETATM   24  C   UNL     1      -7.779   7.554  66.622  1.00  0.00    -0.101 C  
HETATM   25  C   UNL     1      -9.285   7.634  66.484  1.00  0.00    -0.220 A  
HETATM   26  C   UNL     1     -10.144   8.492  67.187  1.00  0.00    -0.262 A  
HETATM   27  N   UNL     1     -11.498   8.428  67.062  1.00  0.00     1.485 NA 
HETATM   28  C   UNL     1     -12.020   7.557  66.174  1.00  0.00     6.593 A  
HETATM   29  C   UNL     1     -11.259   6.695  65.417  1.00  0.00     4.849 A  
HETATM   30  C   UNL     1      -9.881   6.723  65.591  1.00  0.00     0.790 A  
ENDBRANCH   8   9
ENDBRANCH   4   8
TORSDOF 2
ENDMDL
MODEL      154
REMARK 921   NORMALIZED FREE ENERGY PREDICTED BY IDOCK:   12.90 KCAL/MOL
REMARK 922        TOTAL FREE ENERGY PREDICTED BY IDOCK:   14.01 KCAL/MOL
REMARK 923 INTER-LIGAND FREE ENERGY PREDICTED BY IDOCK:   12.32 KCAL/MOL
REMARK 924 INTRA-LIGAND FREE ENERGY PREDICTED BY IDOCK:    1.68 KCAL/MOL
REMARK 927      BINDING AFFINITY PREDICTED BY RF-SCORE:    0.00 PKD
ROOT
HETATM    1  C   UNL     1     -12.026  17.904  65.559  1.00  0.00     4.289 C  
HETATM    2  C   UNL     1     -11.859  16.549  64.953  1.00  0.00     0.812 A  
HETATM    3  C   UNL     1     -12.508  15.418  65.464  1.00  0.00     0.815 A  
HETATM    4  C   UNL     1     -12.346  14.172  64.851  1.00  0.00    -0.446 A  
HETATM    5  C   UNL     1     -11.495  14.125  63.745  1.00  0.00     0.302 A  
HETATM    6  N   UNL     1     -10.832  15.185  63.235  1.00  0.00     2.906 NA 
HETATM    7  C   UNL     1     -11.025  16.370  63.852  1.00  0.00     1.680 A  
ENDROOT
BRANCH   4   8
HETATM    8  C   UNL     1     -12.933  12.880  65.375  1.00  0.00     0.181 C  
BRANCH   8   9
HETATM    9  N   UNL     1     -12.221  12.207  66.480  1.00  0.00    -0.469 NA 
HETATM   10  C   UNL     1     -10.763  12.457  66.488  1.00  0.00    -0.236 C  
HETATM   11  C   UNL     1     -10.386  13.917  66.768  1.00  0.00    -0.272 C  
HETATM   12  C   UNL     1     -10.878  14.311  68.155  1.00  0.00    -0.253 C  
HETATM   13  C   UNL     1     -10.087  14.803  69.152  1.00  0.00    -0.201 C  
HETATM   14  C   UNL     1     -12.385  14.069  68.241  1.00  0.00    -0.012 C  
HETATM   15  C   UNL     1     -10.701  15.194  70.446  1.00  0.00    -0.211 A  
HETATM   16  C   UNL     1     -12.773  12.638  67.789  1.00  0.00     1.760 C  
HETATM   17  C   UNL     1     -11.169  14.222  71.340  1.00  0.00     0.859 A  
HETATM   18  C   UNL     1     -11.735  14.601  72.561  1.00  0.00    -0.001 A  
HETATM   19  C   UNL     1     -11.814  15.950  72.896  1.00  0.00    -0.460 A  
HETATM   20  C   UNL     1     -11.326  16.926  72.026  1.00  0.00     0.590 A  
HETATM   21 CL   UNL     1     -12.500  16.418  74.403  1.00  0.00    -0.589 Cl 
HETATM   22  C   UNL     1     -10.761  16.555  70.797  1.00  0.00     0.404 A  
HETATM   23  C   UNL     1     -10.177  17.590  69.868  1.00  0.00     0.494 C  
HETATM   24  C   UNL     1      -8.650  17.497  69.812  1.00  0.00     1.327 C  
HETATM   25  C   UNL     1      -8.005  16.274  69.195  1.00  0.00    -0.221 A  
HETATM   26  C   UNL     1      -8.628  15.046  68.930  1.00  0.00    -0.189 A  
HETATM   27  N   UNL     1      -7.942  13.969  68.457  1.00  0.00    -0.140 NA 
HETATM   28  C   UNL     1      -6.633  14.119  68.168  1.00  0.00    -0.124 A  
HETATM   29  C   UNL     1      -5.940  15.292  68.366  1.00  0.00    -0.107 A  
HETATM   30  C   UNL     1      -6.631  16.370  68.904  1.00  0.00    -0.165 A  
ENDBRANCH   8   9
ENDBRANCH   4   8
TORSDOF 2
ENDMDL
MODEL      155
REMARK 921   NORMALIZED FREE ENERGY PREDICTED BY IDOCK:   14.33 KCAL/MOL
REMARK 922        TOTAL FREE ENERGY PREDICTED BY IDOCK:   15.61 KCAL/MOL
REMARK 923 INTER-LIGAND FREE ENERGY PREDICTED BY IDOCK:   10.31 KCAL/MOL
REMARK 924 INTRA-LIGAND FREE ENERGY PREDICTED BY IDOCK:    5.30 KCAL/MOL
REMARK 927      BINDING AFFINITY PREDICTED BY RF-SCORE:    0.00 PKD
ROOT
HETATM    1  C   UNL     1      -7.833  12.491  69.046  1.00  0.00     0.237 C  
HETATM    2  C   UNL     1      -8.900  13.527  68.909  1.00  0.00     0.223 A  
HETATM    3  C   UNL     1     -10.231  13.279  69.265  1.00  0.00     0.330 A  
HETATM    4  C   UNL     1     -11.194  14.285  69.146  1.00  0.00    -0.302 A  
HETATM    5  C   UNL     1     -10.760  15.510  68.637  1.00  0.00    -0.252 A  
HETATM    6  N   UNL     1      -9.492  15.785  68.260  1.00  0.00    -0.198 NA 
HETATM    7  C   UNL     1      -8.594  14.787  68.401  1.00  0.00    -0.166 A  
ENDROOT
BRANCH   4   8
HETATM    8  C   UNL     1     -12.669  14.092  69.422  1.00  0.00     0.357 C  
BRANCH   8   9
HETATM    9  N   UNL     1     -13.251  12.768  69.118  1.00  0.00     2.069 NA 
HETATM   10  C   UNL     1     -12.910  12.265  67.770  1.00  0.00     2.782 C  
HETATM   11  C   UNL     1     -11.419  11.958  67.581  1.00  0.00    -0.387 C  
HETATM   12  C   UNL     1     -11.001  10.858  68.548  1.00  0.00    -0.278 C  
HETATM   13  C   UNL     1     -10.420   9.678  68.184  1.00  0.00    -0.266 C  
HETATM   14  C   UNL     1     -11.333  11.293  69.976  1.00  0.00    -0.292 C  
HETATM   15  C   UNL     1     -10.016   8.708  69.233  1.00  0.00    -0.195 A  
HETATM   16  C   UNL     1     -12.803  11.765  70.116  1.00  0.00     0.291 C  
HETATM   17  C   UNL     1     -10.979   7.979  69.943  1.00  0.00    -0.172 A  
HETATM   18  C   UNL     1     -10.586   7.059  70.921  1.00  0.00    -0.238 A  
HETATM   19  C   UNL     1      -9.232   6.855  71.173  1.00  0.00    -0.154 A  
HETATM   20  C   UNL     1      -8.264   7.555  70.453  1.00  0.00    -0.123 A  
HETATM   21 CL   UNL     1      -8.747   5.716  72.367  1.00  0.00    -0.128 Cl 
HETATM   22  C   UNL     1      -8.649   8.483  69.473  1.00  0.00    -0.131 A  
HETATM   23  C   UNL     1      -7.618   9.209  68.645  1.00  0.00    -0.084 C  
HETATM   24  C   UNL     1      -7.617   8.720  67.194  1.00  0.00    -0.088 C  
HETATM   25  C   UNL     1      -8.822   8.996  66.319  1.00  0.00    -0.180 A  
HETATM   26  C   UNL     1     -10.096   9.389  66.753  1.00  0.00    -0.256 A  
HETATM   27  N   UNL     1     -11.147   9.524  65.897  1.00  0.00     1.233 NA 
HETATM   28  C   UNL     1     -10.927   9.345  64.578  1.00  0.00     5.292 A  
HETATM   29  C   UNL     1      -9.706   8.987  64.053  1.00  0.00     1.559 A  
HETATM   30  C   UNL     1      -8.652   8.792  64.936  1.00  0.00    -0.177 A  
ENDBRANCH   8   9
ENDBRANCH   4   8
TORSDOF 2
ENDMDL
MODEL      156
REMARK 921   NORMALIZED FREE ENERGY PREDICTED BY IDOCK:   15.20 KCAL/MOL
REMARK 922        TOTAL FREE ENERGY PREDICTED BY IDOCK:   16.58 KCAL/MOL
REMARK 923 INTER-LIGAND FREE ENERGY PREDICTED BY IDOCK:   16.35 KCAL/MOL
REMARK 924 INTRA-LIGAND FREE ENERGY PREDICTED BY IDOCK:    0.23 KCAL/MOL
REMARK 927      BINDING AFFINITY PREDICTED BY RF-SCORE:    0.00 PKD
ROOT
HETATM    1  C   UNL     1     -11.795  18.748  65.474  1.00  0.00     3.787 C  
HETATM    2  C   UNL     1     -11.991  17.333  65.037  1.00  0.00     2.948 A  
HETATM    3  C   UNL     1     -12.386  16.326  65.926  1.00  0.00     2.537 A  
HETATM    4  C   UNL     1     -12.585  15.019  65.470  1.00  0.00     0.351 A  
HETATM    5  C   UNL     1     -12.343  14.785  64.116  1.00  0.00    -0.231 A  
HETATM    6  N   UNL     1     -11.938  15.721  63.230  1.00  0.00     0.739 NA 
HETATM    7  C   UNL     1     -11.768  16.970  63.711  1.00  0.00     3.418 A  
ENDROOT
BRANCH   4   8
HETATM    8  C   UNL     1     -12.928  13.847  66.363  1.00  0.00     0.370 C  
BRANCH   8   9
HETATM    9  N   UNL     1     -12.776  12.491  65.794  1.00  0.00    -0.289 NA 
HETATM   10  C   UNL     1     -11.447  12.243  65.194  1.00  0.00    -0.341 C  
HETATM   11  C   UNL     1     -10.298  12.244  66.210  1.00  0.00    -0.257 C  
HETATM   12  C   UNL     1     -10.511  11.121  67.217  1.00  0.00    -0.263 C  
HETATM   13  C   UNL     1      -9.612  10.128  67.478  1.00  0.00    -0.180 C  
HETATM   14  C   UNL     1     -11.878  11.293  67.880  1.00  0.00    -0.209 C  
HETATM   15  C   UNL     1      -9.923   9.117  68.521  1.00  0.00    -0.192 A  
HETATM   16  C   UNL     1     -13.013  11.463  66.839  1.00  0.00     5.870 C  
HETATM   17  C   UNL     1     -10.898   8.135  68.299  1.00  0.00     0.029 A  
HETATM   18  C   UNL     1     -11.173   7.181  69.284  1.00  0.00    -0.040 A  
HETATM   19  C   UNL     1     -10.461   7.198  70.480  1.00  0.00    -0.212 A  
HETATM   20  C   UNL     1      -9.469   8.154  70.701  1.00  0.00    -0.174 A  
HETATM   21 CL   UNL     1     -10.791   6.018  71.689  1.00  0.00    -0.302 Cl 
HETATM   22  C   UNL     1      -9.189   9.117  69.721  1.00  0.00    -0.179 A  
HETATM   23  C   UNL     1      -8.083  10.124  69.917  1.00  0.00    -0.139 C  
HETATM   24  C   UNL     1      -6.895   9.842  68.992  1.00  0.00    -0.050 C  
HETATM   25  C   UNL     1      -7.066  10.005  67.497  1.00  0.00    -0.087 A  
HETATM   26  C   UNL     1      -8.280  10.096  66.800  1.00  0.00    -0.122 A  
HETATM   27  N   UNL     1      -8.336  10.149  65.441  1.00  0.00    -0.150 NA 
HETATM   28  C   UNL     1      -7.177  10.191  64.752  1.00  0.00    -0.130 A  
HETATM   29  C   UNL     1      -5.937  10.137  65.347  1.00  0.00    -0.101 A  
HETATM   30  C   UNL     1      -5.886  10.023  66.730  1.00  0.00    -0.051 A  
ENDBRANCH   8   9
ENDBRANCH   4   8
TORSDOF 2
ENDMDL
MODEL      157
REMARK 921   NORMALIZED FREE ENERGY PREDICTED BY IDOCK:   15.97 KCAL/MOL
REMARK 922        TOTAL FREE ENERGY PREDICTED BY IDOCK:   17.44 KCAL/MOL
REMARK 923 INTER-LIGAND FREE ENERGY PREDICTED BY IDOCK:   14.31 KCAL/MOL
REMARK 924 INTRA-LIGAND FREE ENERGY PREDICTED BY IDOCK:    3.13 KCAL/MOL
REMARK 927      BINDING AFFINITY PREDICTED BY RF-SCORE:    0.00 PKD
ROOT
HETATM    1  C   UNL     1      -8.339   9.452  71.708  1.00  0.00     0.735 C  
HETATM    2  C   UNL     1      -9.772   9.241  71.344  1.00  0.00    -0.269 A  
HETATM    3  C   UNL     1     -10.653  10.309  71.133  1.00  0.00     0.633 A  
HETATM    4  C   UNL     1     -11.981  10.069  70.767  1.00  0.00    -0.426 A  
HETATM    5  C   UNL     1     -12.368   8.733  70.658  1.00  0.00     0.144 A  
HETATM    6  N   UNL     1     -11.559   7.673  70.875  1.00  0.00    -0.283 NA 
HETATM    7  C   UNL     1     -10.283   7.952  71.217  1.00  0.00    -0.187 A  
ENDROOT
BRANCH   4   8
HETATM    8  C   UNL     1     -13.029  11.148  70.601  1.00  0.00    -0.082 C  
BRANCH   8   9
HETATM    9  N   UNL     1     -12.659  12.522  70.996  1.00  0.00    -0.326 NA 
HETATM   10  C   UNL     1     -11.246  12.664  71.407  1.00  0.00     3.692 C  
HETATM   11  C   UNL     1     -10.243  12.427  70.271  1.00  0.00     2.982 C  
HETATM   12  C   UNL     1     -10.460  13.467  69.179  1.00  0.00     0.007 C  
HETATM   13  C   UNL     1      -9.500  14.316  68.709  1.00  0.00    -0.131 C  
HETATM   14  C   UNL     1     -11.911  13.400  68.703  1.00  0.00    -0.362 C  
HETATM   15  C   UNL     1      -9.830  15.253  67.606  1.00  0.00    -0.217 A  
HETATM   16  C   UNL     1     -12.916  13.468  69.881  1.00  0.00     0.565 C  
HETATM   17  C   UNL     1     -10.656  16.362  67.831  1.00  0.00    -0.320 A  
HETATM   18  C   UNL     1     -10.950  17.245  66.787  1.00  0.00     0.175 A  
HETATM   19  C   UNL     1     -10.403  17.029  65.525  1.00  0.00    -0.143 A  
HETATM   20  C   UNL     1      -9.557  15.943  65.296  1.00  0.00     0.176 A  
HETATM   21 CL   UNL     1     -10.755  18.120  64.242  1.00  0.00     3.805 Cl 
HETATM   22  C   UNL     1      -9.260  15.050  66.336  1.00  0.00    -0.328 A  
HETATM   23  C   UNL     1      -8.304  13.903  66.123  1.00  0.00     1.171 C  
HETATM   24  C   UNL     1      -6.984  14.126  66.867  1.00  0.00     1.014 C  
HETATM   25  C   UNL     1      -6.979  14.127  68.382  1.00  0.00    -0.099 A  
HETATM   26  C   UNL     1      -8.096  14.250  69.220  1.00  0.00     0.164 A  
HETATM   27  N   UNL     1      -7.983  14.333  70.575  1.00  0.00     1.634 NA 
HETATM   28  C   UNL     1      -6.757  14.217  71.125  1.00  0.00     0.803 A  
HETATM   29  C   UNL     1      -5.605  14.064  70.387  1.00  0.00    -0.134 A  
HETATM   30  C   UNL     1      -5.719  14.040  69.003  1.00  0.00    -0.088 A  
ENDBRANCH   8   9
ENDBRANCH   4   8
TORSDOF 2
ENDMDL
MODEL      158
REMARK 921   NORMALIZED FREE ENERGY PREDICTED BY IDOCK:   21.07 KCAL/MOL
REMARK 922        TOTAL FREE ENERGY PREDICTED BY IDOCK:   23.13 KCAL/MOL
REMARK 923 INTER-LIGAND FREE ENERGY PREDICTED BY IDOCK:   22.17 KCAL/MOL
REMARK 924 INTRA-LIGAND FREE ENERGY PREDICTED BY IDOCK:    0.96 KCAL/MOL
REMARK 927      BINDING AFFINITY PREDICTED BY RF-SCORE:    0.00 PKD
ROOT
HETATM    1  C   UNL     1     -11.361   9.406  72.838  1.00  0.00     2.114 C  
HETATM    2  C   UNL     1     -10.890   9.173  71.440  1.00  0.00    -0.419 A  
HETATM    3  C   UNL     1     -11.242  10.023  70.383  1.00  0.00    -0.393 A  
HETATM    4  C   UNL     1     -10.757   9.784  69.094  1.00  0.00    -0.242 A  
HETATM    5  C   UNL     1      -9.948   8.660  68.927  1.00  0.00    -0.189 A  
HETATM    6  N   UNL     1      -9.604   7.802  69.912  1.00  0.00    -0.164 NA 
HETATM    7  C   UNL     1     -10.086   8.076  71.143  1.00  0.00    -0.188 A  
ENDROOT
BRANCH   4   8
HETATM    8  C   UNL     1     -11.146  10.590  67.874  1.00  0.00    -0.304 C  
BRANCH   8   9
HETATM    9  N   UNL     1     -11.458  12.021  68.074  1.00  0.00    -0.304 NA 
HETATM   10  C   UNL     1     -11.035  12.543  69.391  1.00  0.00     0.007 C  
HETATM   11  C   UNL     1      -9.514  12.564  69.591  1.00  0.00     1.843 C  
HETATM   12  C   UNL     1      -8.881  13.489  68.559  1.00  0.00    -0.086 C  
HETATM   13  C   UNL     1      -8.081  14.555  68.855  1.00  0.00    -0.124 C  
HETATM   14  C   UNL     1      -9.281  13.027  67.158  1.00  0.00    -0.226 C  
HETATM   15  C   UNL     1      -7.487  15.350  67.751  1.00  0.00    -0.173 A  
HETATM   16  C   UNL     1     -10.813  12.843  67.019  1.00  0.00    -0.260 C  
HETATM   17  C   UNL     1      -8.281  16.201  66.971  1.00  0.00    -0.250 A  
HETATM   18  C   UNL     1      -7.708  16.954  65.942  1.00  0.00     0.135 A  
HETATM   19  C   UNL     1      -6.339  16.871  65.706  1.00  0.00     1.082 A  
HETATM   20  C   UNL     1      -5.532  16.047  66.493  1.00  0.00     1.160 A  
HETATM   21 CL   UNL     1      -5.629  17.804  64.447  1.00  0.00     0.780 Cl 
HETATM   22  C   UNL     1      -6.100  15.285  67.525  1.00  0.00    -0.070 A  
HETATM   23  C   UNL     1      -5.238  14.433  68.423  1.00  0.00    -0.105 C  
HETATM   24  C   UNL     1      -5.152  15.015  69.837  1.00  0.00    -0.091 C  
HETATM   25  C   UNL     1      -6.395  15.043  70.702  1.00  0.00     0.061 A  
HETATM   26  C   UNL     1      -7.718  14.877  70.269  1.00  0.00     0.595 A  
HETATM   27  N   UNL     1      -8.781  15.011  71.109  1.00  0.00     2.631 NA 
HETATM   28  C   UNL     1      -8.540  15.238  72.417  1.00  0.00     7.874 A  
HETATM   29  C   UNL     1      -7.276  15.386  72.943  1.00  0.00     6.216 A  
HETATM   30  C   UNL     1      -6.198  15.308  72.071  1.00  0.00     1.265 A  
ENDBRANCH   8   9
ENDBRANCH   4   8
TORSDOF 2
ENDMDL
MODEL      159
REMARK 921   NORMALIZED FREE ENERGY PREDICTED BY IDOCK:   25.76 KCAL/MOL
REMARK 922        TOTAL FREE ENERGY PREDICTED BY IDOCK:   28.38 KCAL/MOL
REMARK 923 INTER-LIGAND FREE ENERGY PREDICTED BY IDOCK:   28.79 KCAL/MOL
REMARK 924 INTRA-LIGAND FREE ENERGY PREDICTED BY IDOCK:   -0.42 KCAL/MOL
REMARK 927      BINDING AFFINITY PREDICTED BY RF-SCORE:    0.00 PKD
ROOT
HETATM    1  C   UNL     1      -9.693   4.251  63.712  1.00  0.00    -0.070 C  
HETATM    2  C   UNL     1      -8.647   5.169  64.255  1.00  0.00    -0.110 A  
HETATM    3  C   UNL     1      -8.692   6.554  64.052  1.00  0.00     0.558 A  
HETATM    4  C   UNL     1      -7.706   7.380  64.600  1.00  0.00    -0.118 A  
HETATM    5  C   UNL     1      -6.688   6.750  65.318  1.00  0.00    -0.051 A  
HETATM    6  N   UNL     1      -6.594   5.417  65.517  1.00  0.00    -0.040 NA 
HETATM    7  C   UNL     1      -7.572   4.658  64.978  1.00  0.00    -0.077 A  
ENDROOT
BRANCH   4   8
HETATM    8  C   UNL     1      -7.618   8.873  64.368  1.00  0.00    -0.114 C  
BRANCH   8   9
HETATM    9  N   UNL     1      -8.757   9.700  64.819  1.00  0.00    -0.179 NA 
HETATM   10  C   UNL     1      -8.942   9.708  66.285  1.00  0.00    -0.155 C  
HETATM   11  C   UNL     1      -7.796  10.381  67.051  1.00  0.00    -0.112 C  
HETATM   12  C   UNL     1      -7.701  11.845  66.640  1.00  0.00     0.018 C  
HETATM   13  C   UNL     1      -7.765  12.902  67.500  1.00  0.00    -0.174 C  
HETATM   14  C   UNL     1      -7.522  11.930  65.123  1.00  0.00     2.357 C  
HETATM   15  C   UNL     1      -7.612  14.282  66.974  1.00  0.00     0.175 A  
HETATM   16  C   UNL     1      -8.589  11.103  64.363  1.00  0.00     0.255 C  
HETATM   17  C   UNL     1      -8.629  14.878  66.216  1.00  0.00     0.127 A  
HETATM   18  C   UNL     1      -8.479  16.182  65.736  1.00  0.00     0.376 A  
HETATM   19  C   UNL     1      -7.321  16.897  66.031  1.00  0.00     0.048 A  
HETATM   20  C   UNL     1      -6.313  16.325  66.808  1.00  0.00     0.089 A  
HETATM   21 CL   UNL     1      -7.139  18.506  65.450  1.00  0.00    -0.121 Cl 
HETATM   22  C   UNL     1      -6.454  15.015  67.290  1.00  0.00     0.140 A  
HETATM   23  C   UNL     1      -5.402  14.399  68.178  1.00  0.00    -0.120 C  
HETATM   24  C   UNL     1      -5.901  14.244  69.617  1.00  0.00    -0.106 C  
HETATM   25  C   UNL     1      -7.022  13.269  69.911  1.00  0.00     0.444 A  
HETATM   26  C   UNL     1      -7.891  12.689  68.975  1.00  0.00     0.251 A  
HETATM   27  N   UNL     1      -8.931  11.892  69.344  1.00  0.00     0.736 NA 
HETATM   28  C   UNL     1      -9.079  11.595  70.652  1.00  0.00     5.944 A  
HETATM   29  C   UNL     1      -8.260  12.091  71.641  1.00  0.00    13.625 A  
HETATM   30  C   UNL     1      -7.237  12.951  71.265  1.00  0.00     5.197 A  
ENDBRANCH   8   9
ENDBRANCH   4   8
TORSDOF 2
ENDMDL
MODEL      160
REMARK 921   NORMALIZED FREE ENERGY PREDICTED BY IDOCK:   27.33 KCAL/MOL
REMARK 922        TOTAL FREE ENERGY PREDICTED BY IDOCK:   30.13 KCAL/MOL
REMARK 923 INTER-LIGAND FREE ENERGY PREDICTED BY IDOCK:   23.73 KCAL/MOL
REMARK 924 INTRA-LIGAND FREE ENERGY PREDICTED BY IDOCK:    6.41 KCAL/MOL
REMARK 927      BINDING AFFINITY PREDICTED BY RF-SCORE:    0.00 PKD
ROOT
HETATM    1  C   UNL     1     -11.067  11.903  71.733  1.00  0.00     5.505 C  
HETATM    2  C   UNL     1     -11.169  13.374  71.967  1.00  0.00     4.174 A  
HETATM    3  C   UNL     1     -10.484  14.305  71.176  1.00  0.00     2.206 A  
HETATM    4  C   UNL     1     -10.628  15.675  71.412  1.00  0.00     0.462 A  
HETATM    5  C   UNL     1     -11.453  16.044  72.476  1.00  0.00    -0.104 A  
HETATM    6  N   UNL     1     -12.113  15.180  73.278  1.00  0.00    -0.402 NA 
HETATM    7  C   UNL     1     -11.952  13.867  73.008  1.00  0.00     1.119 A  
ENDROOT
BRANCH   4   8
HETATM    8  C   UNL     1      -9.867  16.753  70.672  1.00  0.00     2.232 C  
BRANCH   8   9
HETATM    9  N   UNL     1      -8.672  16.340  69.908  1.00  0.00     0.531 NA 
HETATM   10  C   UNL     1      -7.810  15.378  70.626  1.00  0.00     1.559 C  
HETATM   11  C   UNL     1      -8.468  14.012  70.863  1.00  0.00     4.615 C  
HETATM   12  C   UNL     1      -8.783  13.362  69.522  1.00  0.00     1.342 C  
HETATM   13  C   UNL     1      -8.342  12.131  69.129  1.00  0.00     0.480 C  
HETATM   14  C   UNL     1      -9.665  14.304  68.701  1.00  0.00    -0.213 C  
HETATM   15  C   UNL     1      -8.760  11.591  67.811  1.00  0.00    -0.142 A  
HETATM   16  C   UNL     1      -9.071  15.732  68.613  1.00  0.00    -0.204 C  
HETATM   17  C   UNL     1      -8.243  12.121  66.622  1.00  0.00    -0.017 A  
HETATM   18  C   UNL     1      -8.635  11.597  65.387  1.00  0.00     0.345 A  
HETATM   19  C   UNL     1      -9.529  10.530  65.342  1.00  0.00    -0.223 A  
HETATM   20  C   UNL     1     -10.031   9.976  66.521  1.00  0.00    -0.286 A  
HETATM   21 CL   UNL     1     -10.005   9.876  63.824  1.00  0.00     0.239 Cl 
HETATM   22  C   UNL     1      -9.646  10.499  67.764  1.00  0.00    -0.173 A  
HETATM   23  C   UNL     1     -10.132   9.879  69.050  1.00  0.00    -0.199 C  
HETATM   24  C   UNL     1      -9.003   9.150  69.785  1.00  0.00    -0.168 C  
HETATM   25  C   UNL     1      -7.855   9.952  70.359  1.00  0.00    -0.066 A  
HETATM   26  C   UNL     1      -7.523  11.278  70.045  1.00  0.00     0.759 A  
HETATM   27  N   UNL     1      -6.414  11.889  70.545  1.00  0.00    -0.018 NA 
HETATM   28  C   UNL     1      -5.653  11.213  71.431  1.00  0.00     0.181 A  
HETATM   29  C   UNL     1      -5.913   9.919  71.824  1.00  0.00     0.216 A  
HETATM   30  C   UNL     1      -7.013   9.280  71.265  1.00  0.00    -0.026 A  
ENDBRANCH   8   9
ENDBRANCH   4   8
TORSDOF 2
ENDMDL
MODEL      161
REMARK 921   NORMALIZED FREE ENERGY PREDICTED BY IDOCK:   29.82 KCAL/MOL
REMARK 922        TOTAL FREE ENERGY PREDICTED BY IDOCK:   32.91 KCAL/MOL
REMARK 923 INTER-LIGAND FREE ENERGY PREDICTED BY IDOCK:   24.03 KCAL/MOL
REMARK 924 INTRA-LIGAND FREE ENERGY PREDICTED BY IDOCK:    8.87 KCAL/MOL
REMARK 927      BINDING AFFINITY PREDICTED BY RF-SCORE:    0.00 PKD
ROOT
HETATM    1  C   UNL     1     -12.311  14.211  73.645  1.00  0.00     0.582 C  
HETATM    2  C   UNL     1     -11.605  14.889  72.517  1.00  0.00    -0.221 A  
HETATM    3  C   UNL     1     -11.391  16.273  72.496  1.00  0.00     0.228 A  
HETATM    4  C   UNL     1     -10.702  16.866  71.434  1.00  0.00     1.589 A  
HETATM    5  C   UNL     1     -10.279  16.017  70.411  1.00  0.00     0.264 A  
HETATM    6  N   UNL     1     -10.484  14.682  70.379  1.00  0.00     0.249 NA 
HETATM    7  C   UNL     1     -11.145  14.151  71.430  1.00  0.00     1.506 A  
ENDROOT
BRANCH   4   8
HETATM    8  C   UNL     1     -10.496  18.357  71.277  1.00  0.00     3.062 C  
BRANCH   8   9
HETATM    9  N   UNL     1      -9.829  18.825  70.044  1.00  0.00     0.753 NA 
HETATM   10  C   UNL     1      -8.617  18.055  69.694  1.00  0.00     0.995 C  
HETATM   11  C   UNL     1      -8.897  16.595  69.315  1.00  0.00    -0.032 C  
HETATM   12  C   UNL     1      -9.783  16.554  68.076  1.00  0.00    -0.236 C  
HETATM   13  C   UNL     1      -9.470  15.907  66.916  1.00  0.00    -0.242 C  
HETATM   14  C   UNL     1     -11.063  17.345  68.347  1.00  0.00     0.028 C  
HETATM   15  C   UNL     1     -10.445  15.904  65.796  1.00  0.00    -0.386 A  
HETATM   16  C   UNL     1     -10.767  18.765  68.894  1.00  0.00     0.575 C  
HETATM   17  C   UNL     1     -10.680  17.066  65.048  1.00  0.00     0.006 A  
HETATM   18  C   UNL     1     -11.591  17.049  63.988  1.00  0.00     2.105 A  
HETATM   19  C   UNL     1     -12.251  15.866  63.663  1.00  0.00     1.226 A  
HETATM   20  C   UNL     1     -12.005  14.697  64.383  1.00  0.00    -0.454 A  
HETATM   21 CL   UNL     1     -13.365  15.840  62.352  1.00  0.00     7.343 Cl 
HETATM   22  C   UNL     1     -11.095  14.706  65.451  1.00  0.00    -0.349 A  
HETATM   23  C   UNL     1     -10.773  13.440  66.206  1.00  0.00    -0.290 C  
HETATM   24  C   UNL     1      -9.352  12.953  65.906  1.00  0.00     0.028 C  
HETATM   25  C   UNL     1      -8.172  13.782  66.370  1.00  0.00     0.819 A  
HETATM   26  C   UNL     1      -8.205  15.120  66.789  1.00  0.00    -0.137 A  
HETATM   27  N   UNL     1      -7.075  15.812  67.102  1.00  0.00    -0.207 NA 
HETATM   28  C   UNL     1      -5.895  15.159  67.077  1.00  0.00     0.886 A  
HETATM   29  C   UNL     1      -5.765  13.839  66.708  1.00  0.00     2.057 A  
HETATM   30  C   UNL     1      -6.913  13.154  66.332  1.00  0.00     2.288 A  
ENDBRANCH   8   9
ENDBRANCH   4   8
TORSDOF 2
ENDMDL
MODEL      162
REMARK 921   NORMALIZED FREE ENERGY PREDICTED BY IDOCK:   30.17 KCAL/MOL
REMARK 922        TOTAL FREE ENERGY PREDICTED BY IDOCK:   33.30 KCAL/MOL
REMARK 923 INTER-LIGAND FREE ENERGY PREDICTED BY IDOCK:   30.48 KCAL/MOL
REMARK 924 INTRA-LIGAND FREE ENERGY PREDICTED BY IDOCK:    2.82 KCAL/MOL
REMARK 927      BINDING AFFINITY PREDICTED BY RF-SCORE:    0.00 PKD
ROOT
HETATM    1  C   UNL     1     -12.648  13.123  67.431  1.00  0.00     0.592 C  
HETATM    2  C   UNL     1     -12.139  11.831  67.981  1.00  0.00    -0.003 A  
HETATM    3  C   UNL     1     -10.783  11.622  68.262  1.00  0.00    -0.246 A  
HETATM    4  C   UNL     1     -10.353  10.407  68.802  1.00  0.00    -0.213 A  
HETATM    5  C   UNL     1     -11.330   9.432  69.009  1.00  0.00     0.227 A  
HETATM    6  N   UNL     1     -12.643   9.583  68.731  1.00  0.00     2.528 NA 
HETATM    7  C   UNL     1     -13.016  10.776  68.220  1.00  0.00     4.209 A  
ENDROOT
BRANCH   4   8
HETATM    8  C   UNL     1      -8.904  10.053  69.059  1.00  0.00    -0.159 C  
BRANCH   8   9
HETATM    9  N   UNL     1      -8.125  10.963  69.925  1.00  0.00     0.344 NA 
HETATM   10  C   UNL     1      -7.423  12.033  69.184  1.00  0.00     0.096 C  
HETATM   11  C   UNL     1      -8.364  13.038  68.508  1.00  0.00    -0.057 C  
HETATM   12  C   UNL     1      -9.194  13.749  69.569  1.00  0.00     1.000 C  
HETATM   13  C   UNL     1      -9.249  15.102  69.739  1.00  0.00     0.005 C  
HETATM   14  C   UNL     1      -9.947  12.707  70.397  1.00  0.00     4.271 C  
HETATM   15  C   UNL     1     -10.137  15.671  70.784  1.00  0.00     0.618 A  
HETATM   16  C   UNL     1      -9.008  11.598  70.935  1.00  0.00     7.774 C  
HETATM   17  C   UNL     1      -9.819  15.544  72.142  1.00  0.00     4.022 A  
HETATM   18  C   UNL     1     -10.656  16.095  73.117  1.00  0.00     4.121 A  
HETATM   19  C   UNL     1     -11.800  16.789  72.732  1.00  0.00    -0.039 A  
HETATM   20  C   UNL     1     -12.114  16.945  71.381  1.00  0.00     1.459 A  
HETATM   21 CL   UNL     1     -12.827  17.476  73.929  1.00  0.00     1.595 Cl 
HETATM   22  C   UNL     1     -11.281  16.392  70.397  1.00  0.00    -0.253 A  
HETATM   23  C   UNL     1     -11.571  16.598  68.931  1.00  0.00     0.103 C  
HETATM   24  C   UNL     1     -10.552  17.538  68.283  1.00  0.00    -0.354 C  
HETATM   25  C   UNL     1      -9.111  17.091  68.151  1.00  0.00    -0.237 A  
HETATM   26  C   UNL     1      -8.503  16.024  68.828  1.00  0.00    -0.228 A  
HETATM   27  N   UNL     1      -7.174  15.753  68.714  1.00  0.00    -0.129 NA 
HETATM   28  C   UNL     1      -6.438  16.496  67.862  1.00  0.00    -0.135 A  
HETATM   29  C   UNL     1      -6.950  17.545  67.132  1.00  0.00    -0.199 A  
HETATM   30  C   UNL     1      -8.294  17.855  67.296  1.00  0.00    -0.232 A  
ENDBRANCH   8   9
ENDBRANCH   4   8
TORSDOF 2
ENDMDL
MODEL      163
REMARK 921   NORMALIZED FREE ENERGY PREDICTED BY IDOCK:   34.60 KCAL/MOL
REMARK 922        TOTAL FREE ENERGY PREDICTED BY IDOCK:   38.25 KCAL/MOL
REMARK 923 INTER-LIGAND FREE ENERGY PREDICTED BY IDOCK:   38.25 KCAL/MOL
REMARK 924 INTRA-LIGAND FREE ENERGY PREDICTED BY IDOCK:    0.00 KCAL/MOL
REMARK 927      BINDING AFFINITY PREDICTED BY RF-SCORE:    0.00 PKD
ROOT
HETATM    1  C   UNL     1      -9.590   8.971  68.158  1.00  0.00    -0.164 C  
HETATM    2  C   UNL     1      -9.510   9.225  66.689  1.00  0.00    -0.246 A  
HETATM    3  C   UNL     1      -9.126  10.466  66.166  1.00  0.00    -0.183 A  
HETATM    4  C   UNL     1      -9.038  10.653  64.783  1.00  0.00    -0.236 A  
HETATM    5  C   UNL     1      -9.377   9.563  63.980  1.00  0.00     0.058 A  
HETATM    6  N   UNL     1      -9.775   8.358  64.442  1.00  0.00     1.930 NA 
HETATM    7  C   UNL     1      -9.837   8.218  65.784  1.00  0.00     0.354 A  
ENDROOT
BRANCH   4   8
HETATM    8  C   UNL     1      -8.716  11.975  64.120  1.00  0.00     1.253 C  
BRANCH   8   9
HETATM    9  N   UNL     1      -9.672  13.085  64.316  1.00  0.00     0.000 NA 
HETATM   10  C   UNL     1      -9.930  13.403  65.736  1.00  0.00    -0.252 C  
HETATM   11  C   UNL     1      -8.709  13.960  66.480  1.00  0.00     0.066 C  
HETATM   12  C   UNL     1      -8.278  15.271  65.836  1.00  0.00     1.339 C  
HETATM   13  C   UNL     1      -8.158  16.460  66.494  1.00  0.00    -0.345 C  
HETATM   14  C   UNL     1      -8.002  15.034  64.350  1.00  0.00    12.592 C  
HETATM   15  C   UNL     1      -7.681  17.658  65.758  1.00  0.00     0.035 A  
HETATM   16  C   UNL     1      -9.180  14.315  63.646  1.00  0.00     7.929 C  
HETATM   17  C   UNL     1      -8.503  18.296  64.819  1.00  0.00     4.612 A  
HETATM   18  C   UNL     1      -8.047  19.431  64.140  1.00  0.00     5.555 A  
HETATM   19  C   UNL     1      -6.780  19.938  64.415  1.00  0.00     0.247 A  
HETATM   20  C   UNL     1      -5.964  19.327  65.367  1.00  0.00    -0.255 A  
HETATM   21 CL   UNL     1      -6.222  21.340  63.588  1.00  0.00    -0.352 Cl 
HETATM   22  C   UNL     1      -6.411  18.186  66.050  1.00  0.00    -0.275 A  
HETATM   23  C   UNL     1      -5.567  17.545  67.123  1.00  0.00    -0.163 C  
HETATM   24  C   UNL     1      -6.166  17.765  68.515  1.00  0.00    -0.184 C  
HETATM   25  C   UNL     1      -7.485  17.109  68.866  1.00  0.00    -0.241 A  
HETATM   26  C   UNL     1      -8.407  16.555  67.966  1.00  0.00    -0.180 A  
HETATM   27  N   UNL     1      -9.614  16.069  68.367  1.00  0.00    -0.203 NA 
HETATM   28  C   UNL     1      -9.893  16.056  69.687  1.00  0.00    -0.196 A  
HETATM   29  C   UNL     1      -9.041  16.550  70.649  1.00  0.00     3.180 A  
HETATM   30  C   UNL     1      -7.837  17.099  70.229  1.00  0.00     2.572 A  
ENDBRANCH   8   9
ENDBRANCH   4   8
TORSDOF 2
ENDMDL
MODEL      164
REMARK 921   NORMALIZED FREE ENERGY PREDICTED BY IDOCK:   35.80 KCAL/MOL
REMARK 922        TOTAL FREE ENERGY PREDICTED BY IDOCK:   39.59 KCAL/MOL
REMARK 923 INTER-LIGAND FREE ENERGY PREDICTED BY IDOCK:   33.15 KCAL/MOL
REMARK 924 INTRA-LIGAND FREE ENERGY PREDICTED BY IDOCK:    6.44 KCAL/MOL
REMARK 927      BINDING AFFINITY PREDICTED BY RF-SCORE:    0.00 PKD
ROOT
HETATM    1  C   UNL     1      -7.152  12.452  70.881  1.00  0.00     3.602 C  
HETATM    2  C   UNL     1      -8.348  13.301  71.160  1.00  0.00     9.013 A  
HETATM    3  C   UNL     1      -9.444  13.354  70.290  1.00  0.00     3.786 A  
HETATM    4  C   UNL     1     -10.556  14.142  70.601  1.00  0.00     1.272 A  
HETATM    5  C   UNL     1     -10.492  14.875  71.787  1.00  0.00     1.574 A  
HETATM    6  N   UNL     1      -9.446  14.872  72.642  1.00  0.00     5.551 NA 
HETATM    7  C   UNL     1      -8.398  14.090  72.306  1.00  0.00     9.296 A  
ENDROOT
BRANCH   4   8
HETATM    8  C   UNL     1     -11.749  14.332  69.690  1.00  0.00    -0.308 C  
BRANCH   8   9
HETATM    9  N   UNL     1     -11.676  13.737  68.340  1.00  0.00    -0.338 NA 
HETATM   10  C   UNL     1     -10.319  13.757  67.753  1.00  0.00    -0.241 C  
HETATM   11  C   UNL     1      -9.309  12.873  68.497  1.00  0.00    -0.075 C  
HETATM   12  C   UNL     1      -9.764  11.421  68.433  1.00  0.00    -0.203 C  
HETATM   13  C   UNL     1      -9.016  10.391  67.938  1.00  0.00    -0.128 C  
HETATM   14  C   UNL     1     -11.175  11.310  69.010  1.00  0.00    -0.321 C  
HETATM   15  C   UNL     1      -9.560   9.010  67.977  1.00  0.00    -0.166 A  
HETATM   16  C   UNL     1     -12.150  12.330  68.368  1.00  0.00    -0.049 C  
HETATM   17  C   UNL     1     -10.600   8.624  67.121  1.00  0.00    -0.304 A  
HETATM   18  C   UNL     1     -11.096   7.318  67.158  1.00  0.00    -0.133 A  
HETATM   19  C   UNL     1     -10.538   6.392  68.036  1.00  0.00    -0.254 A  
HETATM   20  C   UNL     1      -9.483   6.756  68.874  1.00  0.00    -0.128 A  
HETATM   21 CL   UNL     1     -11.139   4.780  68.076  1.00  0.00     1.268 Cl 
HETATM   22  C   UNL     1      -8.983   8.067  68.846  1.00  0.00    -0.141 A  
HETATM   23  C   UNL     1      -7.807   8.465  69.702  1.00  0.00    -0.100 C  
HETATM   24  C   UNL     1      -6.552   8.706  68.858  1.00  0.00    -0.053 C  
HETATM   25  C   UNL     1      -6.520   9.877  67.898  1.00  0.00    -0.059 A  
HETATM   26  C   UNL     1      -7.623  10.617  67.447  1.00  0.00    -0.095 A  
HETATM   27  N   UNL     1      -7.506  11.597  66.509  1.00  0.00    -0.035 NA 
HETATM   28  C   UNL     1      -6.274  11.911  66.058  1.00  0.00     1.083 A  
HETATM   29  C   UNL     1      -5.129  11.263  66.463  1.00  0.00    -0.121 A  
HETATM   30  C   UNL     1      -5.260  10.224  67.375  1.00  0.00    -0.040 A  
ENDBRANCH   8   9
ENDBRANCH   4   8
TORSDOF 2
ENDMDL
MODEL      165
REMARK 921   NORMALIZED FREE ENERGY PREDICTED BY IDOCK:   37.83 KCAL/MOL
REMARK 922        TOTAL FREE ENERGY PREDICTED BY IDOCK:   41.85 KCAL/MOL
REMARK 923 INTER-LIGAND FREE ENERGY PREDICTED BY IDOCK:   42.14 KCAL/MOL
REMARK 924 INTRA-LIGAND FREE ENERGY PREDICTED BY IDOCK:   -0.29 KCAL/MOL
REMARK 927      BINDING AFFINITY PREDICTED BY RF-SCORE:    0.00 PKD
ROOT
HETATM    1  C   UNL     1      -9.268   5.448  63.266  1.00  0.00     0.467 C  
HETATM    2  C   UNL     1      -8.165   5.718  64.235  1.00  0.00    -0.106 A  
HETATM    3  C   UNL     1      -8.227   6.765  65.164  1.00  0.00    -0.114 A  
HETATM    4  C   UNL     1      -7.183   6.966  66.072  1.00  0.00    -0.074 A  
HETATM    5  C   UNL     1      -6.094   6.099  65.978  1.00  0.00    -0.033 A  
HETATM    6  N   UNL     1      -5.983   5.092  65.083  1.00  0.00    -0.024 NA 
HETATM    7  C   UNL     1      -7.018   4.928  64.231  1.00  0.00    -0.049 A  
ENDROOT
BRANCH   4   8
HETATM    8  C   UNL     1      -7.116   8.116  67.053  1.00  0.00    -0.079 C  
BRANCH   8   9
HETATM    9  N   UNL     1      -8.108   8.135  68.148  1.00  0.00    -0.127 NA 
HETATM   10  C   UNL     1      -7.519   8.387  69.480  1.00  0.00    -0.088 C  
HETATM   11  C   UNL     1      -6.914   9.788  69.635  1.00  0.00    -0.078 C  
HETATM   12  C   UNL     1      -8.008  10.835  69.465  1.00  0.00    -0.022 C  
HETATM   13  C   UNL     1      -8.320  11.794  70.384  1.00  0.00     4.249 C  
HETATM   14  C   UNL     1      -8.685  10.636  68.108  1.00  0.00    -0.130 C  
HETATM   15  C   UNL     1      -9.380  12.786  70.074  1.00  0.00     3.417 A  
HETATM   16  C   UNL     1      -9.141   9.171  67.893  1.00  0.00    -0.127 C  
HETATM   17  C   UNL     1     -10.729  12.410  70.053  1.00  0.00     1.043 A  
HETATM   18  C   UNL     1     -11.720  13.356  69.771  1.00  0.00    -0.355 A  
HETATM   19  C   UNL     1     -11.362  14.680  69.531  1.00  0.00    -0.280 A  
HETATM   20  C   UNL     1     -10.023  15.072  69.575  1.00  0.00    -0.152 A  
HETATM   21 CL   UNL     1     -12.580  15.848  69.194  1.00  0.00     0.275 Cl 
HETATM   22  C   UNL     1      -9.023  14.129  69.853  1.00  0.00     1.345 A  
HETATM   23  C   UNL     1      -7.576  14.542  69.962  1.00  0.00     0.369 C  
HETATM   24  C   UNL     1      -7.078  14.471  71.408  1.00  0.00     1.828 C  
HETATM   25  C   UNL     1      -6.963  13.121  72.086  1.00  0.00     5.719 A  
HETATM   26  C   UNL     1      -7.547  11.920  71.658  1.00  0.00     9.521 A  
HETATM   27  N   UNL     1      -7.464  10.772  72.385  1.00  0.00     5.911 NA 
HETATM   28  C   UNL     1      -6.730  10.780  73.517  1.00  0.00     4.571 A  
HETATM   29  C   UNL     1      -6.095  11.901  74.002  1.00  0.00     2.670 A  
HETATM   30  C   UNL     1      -6.232  13.085  73.288  1.00  0.00     2.597 A  
ENDBRANCH   8   9
ENDBRANCH   4   8
TORSDOF 2
ENDMDL
MODEL      166
REMARK 921   NORMALIZED FREE ENERGY PREDICTED BY IDOCK:   39.73 KCAL/MOL
REMARK 922        TOTAL FREE ENERGY PREDICTED BY IDOCK:   43.97 KCAL/MOL
REMARK 923 INTER-LIGAND FREE ENERGY PREDICTED BY IDOCK:   44.31 KCAL/MOL
REMARK 924 INTRA-LIGAND FREE ENERGY PREDICTED BY IDOCK:   -0.34 KCAL/MOL
REMARK 927      BINDING AFFINITY PREDICTED BY RF-SCORE:    0.00 PKD
ROOT
HETATM    1  C   UNL     1     -11.266  16.156  70.698  1.00  0.00    -0.371 C  
HETATM    2  C   UNL     1     -11.889  14.801  70.756  1.00  0.00    -0.370 A  
HETATM    3  C   UNL     1     -12.195  14.070  69.600  1.00  0.00    -0.383 A  
HETATM    4  C   UNL     1     -12.753  12.792  69.699  1.00  0.00     0.529 A  
HETATM    5  C   UNL     1     -13.007  12.317  70.986  1.00  0.00    -0.064 A  
HETATM    6  N   UNL     1     -12.751  12.997  72.125  1.00  0.00    -0.081 NA 
HETATM    7  C   UNL     1     -12.203  14.223  71.983  1.00  0.00    -0.121 A  
ENDROOT
BRANCH   4   8
HETATM    8  C   UNL     1     -13.196  11.961  68.515  1.00  0.00     4.228 C  
BRANCH   8   9
HETATM    9  N   UNL     1     -12.175  11.620  67.503  1.00  0.00    -0.288 NA 
HETATM   10  C   UNL     1     -10.860  11.265  68.080  1.00  0.00    -0.217 C  
HETATM   11  C   UNL     1     -10.873   9.970  68.902  1.00  0.00    -0.250 C  
HETATM   12  C   UNL     1     -11.256   8.802  68.003  1.00  0.00     0.485 C  
HETATM   13  C   UNL     1     -10.504   7.678  67.822  1.00  0.00    -0.282 C  
HETATM   14  C   UNL     1     -12.607   9.094  67.348  1.00  0.00     9.439 C  
HETATM   15  C   UNL     1     -11.015   6.589  66.951  1.00  0.00    -0.408 A  
HETATM   16  C   UNL     1     -12.636  10.484  66.665  1.00  0.00     6.548 C  
HETATM   17  C   UNL     1     -11.060   6.745  65.559  1.00  0.00     4.155 A  
HETATM   18  C   UNL     1     -11.532   5.709  64.749  1.00  0.00     3.868 A  
HETATM   19  C   UNL     1     -11.940   4.510  65.328  1.00  0.00     2.718 A  
HETATM   20  C   UNL     1     -11.874   4.332  66.711  1.00  0.00     7.149 A  
HETATM   21 CL   UNL     1     -12.511   3.229  64.332  1.00  0.00     6.109 Cl 
HETATM   22  C   UNL     1     -11.405   5.369  67.532  1.00  0.00     1.328 A  
HETATM   23  C   UNL     1     -11.273   5.178  69.022  1.00  0.00     1.467 C  
HETATM   24  C   UNL     1      -9.805   5.107  69.452  1.00  0.00    -0.269 C  
HETATM   25  C   UNL     1      -8.935   6.340  69.320  1.00  0.00    -0.125 A  
HETATM   26  C   UNL     1      -9.218   7.484  68.561  1.00  0.00    -0.143 A  
HETATM   27  N   UNL     1      -8.330   8.508  68.428  1.00  0.00    -0.123 NA 
HETATM   28  C   UNL     1      -7.171   8.444  69.114  1.00  0.00    -0.065 A  
HETATM   29  C   UNL     1      -6.815   7.377  69.909  1.00  0.00    -0.055 A  
HETATM   30  C   UNL     1      -7.699   6.308  69.993  1.00  0.00    -0.101 A  
ENDBRANCH   8   9
ENDBRANCH   4   8
TORSDOF 2
ENDMDL
MODEL      167
REMARK 921   NORMALIZED FREE ENERGY PREDICTED BY IDOCK:   40.14 KCAL/MOL
REMARK 922        TOTAL FREE ENERGY PREDICTED BY IDOCK:   44.43 KCAL/MOL
REMARK 923 INTER-LIGAND FREE ENERGY PREDICTED BY IDOCK:   42.54 KCAL/MOL
REMARK 924 INTRA-LIGAND FREE ENERGY PREDICTED BY IDOCK:    1.90 KCAL/MOL
REMARK 927      BINDING AFFINITY PREDICTED BY RF-SCORE:    0.00 PKD
ROOT
HETATM    1  C   UNL     1      -8.391  21.147  69.912  1.00  0.00     4.151 C  
HETATM    2  C   UNL     1      -8.954  19.913  70.537  1.00  0.00     1.587 A  
HETATM    3  C   UNL     1     -10.119  19.300  70.059  1.00  0.00     0.648 A  
HETATM    4  C   UNL     1     -10.598  18.130  70.656  1.00  0.00     2.069 A  
HETATM    5  C   UNL     1      -9.878  17.644  71.749  1.00  0.00     7.110 A  
HETATM    6  N   UNL     1      -8.766  18.217  72.257  1.00  0.00    13.679 NA 
HETATM    7  C   UNL     1      -8.333  19.339  71.643  1.00  0.00     5.295 A  
ENDROOT
BRANCH   4   8
HETATM    8  C   UNL     1     -11.889  17.442  70.269  1.00  0.00     3.398 C  
BRANCH   8   9
HETATM    9  N   UNL     1     -11.989  16.906  68.896  1.00  0.00     0.688 NA 
HETATM   10  C   UNL     1     -11.199  17.665  67.903  1.00  0.00     0.240 C  
HETATM   11  C   UNL     1      -9.683  17.577  68.120  1.00  0.00    -0.302 C  
HETATM   12  C   UNL     1      -9.234  16.128  67.983  1.00  0.00    -0.195 C  
HETATM   13  C   UNL     1      -8.279  15.686  67.114  1.00  0.00    -0.244 C  
HETATM   14  C   UNL     1     -10.018  15.264  68.972  1.00  0.00    -0.229 C  
HETATM   15  C   UNL     1      -7.899  14.251  67.114  1.00  0.00    -0.084 A  
HETATM   16  C   UNL     1     -11.546  15.490  68.859  1.00  0.00    -0.373 C  
HETATM   17  C   UNL     1      -8.770  13.279  66.603  1.00  0.00    -0.015 A  
HETATM   18  C   UNL     1      -8.396  11.932  66.598  1.00  0.00    -0.117 A  
HETATM   19  C   UNL     1      -7.145  11.560  67.083  1.00  0.00    -0.140 A  
HETATM   20  C   UNL     1      -6.259  12.522  67.569  1.00  0.00    -0.155 A  
HETATM   21 CL   UNL     1      -6.679   9.904  67.067  1.00  0.00    -0.074 Cl 
HETATM   22  C   UNL     1      -6.627  13.875  67.582  1.00  0.00    -0.178 A  
HETATM   23  C   UNL     1      -5.663  14.936  68.050  1.00  0.00    -0.148 C  
HETATM   24  C   UNL     1      -5.166  15.798  66.886  1.00  0.00     0.666 C  
HETATM   25  C   UNL     1      -6.143  16.704  66.166  1.00  0.00     0.828 A  
HETATM   26  C   UNL     1      -7.542  16.640  66.229  1.00  0.00    -0.191 A  
HETATM   27  N   UNL     1      -8.341  17.441  65.471  1.00  0.00     0.011 NA 
HETATM   28  C   UNL     1      -7.760  18.376  64.692  1.00  0.00     3.943 A  
HETATM   29  C   UNL     1      -6.396  18.536  64.586  1.00  0.00     0.358 A  
HETATM   30  C   UNL     1      -5.584  17.676  65.315  1.00  0.00     0.308 A  
ENDBRANCH   8   9
ENDBRANCH   4   8
TORSDOF 2
ENDMDL
MODEL      168
REMARK 921   NORMALIZED FREE ENERGY PREDICTED BY IDOCK:   42.89 KCAL/MOL
REMARK 922        TOTAL FREE ENERGY PREDICTED BY IDOCK:   47.51 KCAL/MOL
REMARK 923 INTER-LIGAND FREE ENERGY PREDICTED BY IDOCK:   46.23 KCAL/MOL
REMARK 924 INTRA-LIGAND FREE ENERGY PREDICTED BY IDOCK:    1.28 KCAL/MOL
REMARK 927      BINDING AFFINITY PREDICTED BY RF-SCORE:    0.00 PKD
ROOT
HETATM    1  C   UNL     1     -11.705  19.182  73.876  1.00  0.00     5.399 C  
HETATM    2  C   UNL     1     -11.102  18.010  73.173  1.00  0.00     2.252 A  
HETATM    3  C   UNL     1     -10.118  18.156  72.187  1.00  0.00     6.023 A  
HETATM    4  C   UNL     1      -9.560  17.031  71.573  1.00  0.00     6.711 A  
HETATM    5  C   UNL     1     -10.054  15.789  71.974  1.00  0.00     3.192 A  
HETATM    6  N   UNL     1     -11.018  15.604  72.902  1.00  0.00     0.734 NA 
HETATM    7  C   UNL     1     -11.521  16.717  73.476  1.00  0.00     0.797 A  
ENDROOT
BRANCH   4   8
HETATM    8  C   UNL     1      -8.558  17.086  70.441  1.00  0.00     3.338 C  
BRANCH   8   9
HETATM    9  N   UNL     1      -9.037  16.729  69.090  1.00  0.00    -0.183 NA 
HETATM   10  C   UNL     1      -8.016  16.063  68.253  1.00  0.00    -0.145 C  
HETATM   11  C   UNL     1      -7.598  14.680  68.769  1.00  0.00    -0.138 C  
HETATM   12  C   UNL     1      -8.805  13.751  68.763  1.00  0.00     0.044 C  
HETATM   13  C   UNL     1      -8.863  12.553  68.112  1.00  0.00    -0.191 C  
HETATM   14  C   UNL     1      -9.923  14.375  69.599  1.00  0.00     0.301 C  
HETATM   15  C   UNL     1     -10.087  11.719  68.225  1.00  0.00    -0.199 A  
HETATM   16  C   UNL     1     -10.220  15.837  69.179  1.00  0.00    -0.231 C  
HETATM   17  C   UNL     1     -11.272  12.093  67.578  1.00  0.00    -0.357 A  
HETATM   18  C   UNL     1     -12.414  11.293  67.682  1.00  0.00     1.815 A  
HETATM   19  C   UNL     1     -12.365  10.111  68.416  1.00  0.00     2.101 A  
HETATM   20  C   UNL     1     -11.183   9.714  69.042  1.00  0.00    -0.030 A  
HETATM   21 CL   UNL     1     -13.766   9.120  68.536  1.00  0.00    10.907 Cl 
HETATM   22  C   UNL     1     -10.033  10.512  68.946  1.00  0.00    -0.213 A  
HETATM   23  C   UNL     1      -8.731  10.074  69.568  1.00  0.00    -0.205 C  
HETATM   24  C   UNL     1      -7.704   9.679  68.503  1.00  0.00    -0.081 C  
HETATM   25  C   UNL     1      -7.148  10.743  67.580  1.00  0.00    -0.089 A  
HETATM   26  C   UNL     1      -7.681  12.023  67.366  1.00  0.00    -0.162 A  
HETATM   27  N   UNL     1      -7.163  12.881  66.444  1.00  0.00     1.013 NA 
HETATM   28  C   UNL     1      -6.055  12.508  65.771  1.00  0.00     3.888 A  
HETATM   29  C   UNL     1      -5.443  11.286  65.933  1.00  0.00    -0.007 A  
HETATM   30  C   UNL     1      -6.010  10.391  66.832  1.00  0.00    -0.057 A  
ENDBRANCH   8   9
ENDBRANCH   4   8
TORSDOF 2
ENDMDL
MODEL      169
REMARK 921   NORMALIZED FREE ENERGY PREDICTED BY IDOCK:   48.05 KCAL/MOL
REMARK 922        TOTAL FREE ENERGY PREDICTED BY IDOCK:   53.26 KCAL/MOL
REMARK 923 INTER-LIGAND FREE ENERGY PREDICTED BY IDOCK:   44.90 KCAL/MOL
REMARK 924 INTRA-LIGAND FREE ENERGY PREDICTED BY IDOCK:    8.37 KCAL/MOL
REMARK 927      BINDING AFFINITY PREDICTED BY RF-SCORE:    0.00 PKD
ROOT
HETATM    1  C   UNL     1      -8.619  10.417  70.620  1.00  0.00     1.511 C  
HETATM    2  C   UNL     1      -9.166  11.805  70.557  1.00  0.00     5.346 A  
HETATM    3  C   UNL     1     -10.501  12.095  70.865  1.00  0.00     4.838 A  
HETATM    4  C   UNL     1     -10.967  13.412  70.820  1.00  0.00     1.943 A  
HETATM    5  C   UNL     1     -10.049  14.388  70.429  1.00  0.00     1.183 A  
HETATM    6  N   UNL     1      -8.760  14.149  70.100  1.00  0.00     1.615 NA 
HETATM    7  C   UNL     1      -8.351  12.864  70.167  1.00  0.00     3.727 A  
ENDROOT
BRANCH   4   8
HETATM    8  C   UNL     1     -12.406  13.817  71.052  1.00  0.00    -0.372 C  
BRANCH   8   9
HETATM    9  N   UNL     1     -12.694  15.260  71.186  1.00  0.00    -0.374 NA 
HETATM   10  C   UNL     1     -11.674  16.001  71.958  1.00  0.00    -0.493 C  
HETATM   11  C   UNL     1     -10.301  16.058  71.277  1.00  0.00     1.269 C  
HETATM   12  C   UNL     1     -10.425  16.793  69.949  1.00  0.00    -0.048 C  
HETATM   13  C   UNL     1      -9.701  17.896  69.597  1.00  0.00     0.493 C  
HETATM   14  C   UNL     1     -11.478  16.097  69.086  1.00  0.00    -0.311 C  
HETATM   15  C   UNL     1      -9.884  18.490  68.249  1.00  0.00    -0.394 A  
HETATM   16  C   UNL     1     -12.812  15.890  69.847  1.00  0.00     0.523 C  
HETATM   17  C   UNL     1     -11.053  19.194  67.928  1.00  0.00     0.002 A  
HETATM   18  C   UNL     1     -11.209  19.760  66.660  1.00  0.00     0.108 A  
HETATM   19  C   UNL     1     -10.189  19.639  65.719  1.00  0.00    -0.356 A  
HETATM   20  C   UNL     1      -9.010  18.965  66.036  1.00  0.00    -0.025 A  
HETATM   21 CL   UNL     1     -10.375  20.344  64.161  1.00  0.00     3.409 Cl 
HETATM   22  C   UNL     1      -8.846  18.390  67.305  1.00  0.00    -0.261 A  
HETATM   23  C   UNL     1      -7.557  17.706  67.686  1.00  0.00    -0.211 C  
HETATM   24  C   UNL     1      -6.771  18.522  68.716  1.00  0.00    -0.281 C  
HETATM   25  C   UNL     1      -7.336  18.696  70.110  1.00  0.00     1.084 A  
HETATM   26  C   UNL     1      -8.658  18.456  70.511  1.00  0.00     3.847 A  
HETATM   27  N   UNL     1      -9.098  18.731  71.770  1.00  0.00     7.264 NA 
HETATM   28  C   UNL     1      -8.207  19.179  72.677  1.00  0.00     6.835 A  
HETATM   29  C   UNL     1      -6.882  19.417  72.388  1.00  0.00     2.179 A  
HETATM   30  C   UNL     1      -6.452  19.192  71.086  1.00  0.00     0.850 A  
ENDBRANCH   8   9
ENDBRANCH   4   8
TORSDOF 2
ENDMDL
MODEL      170
REMARK 921   NORMALIZED FREE ENERGY PREDICTED BY IDOCK:   56.43 KCAL/MOL
REMARK 922        TOTAL FREE ENERGY PREDICTED BY IDOCK:   62.63 KCAL/MOL
REMARK 923 INTER-LIGAND FREE ENERGY PREDICTED BY IDOCK:   59.34 KCAL/MOL
REMARK 924 INTRA-LIGAND FREE ENERGY PREDICTED BY IDOCK:    3.29 KCAL/MOL
REMARK 927      BINDING AFFINITY PREDICTED BY RF-SCORE:    0.00 PKD
ROOT
HETATM    1  C   UNL     1      -7.780   4.974  67.741  1.00  0.00    -0.087 C  
HETATM    2  C   UNL     1      -7.403   4.741  69.167  1.00  0.00    -0.053 A  
HETATM    3  C   UNL     1      -8.346   4.762  70.201  1.00  0.00    -0.079 A  
HETATM    4  C   UNL     1      -7.956   4.513  71.520  1.00  0.00    -0.095 A  
HETATM    5  C   UNL     1      -6.597   4.277  71.737  1.00  0.00    -0.026 A  
HETATM    6  N   UNL     1      -5.650   4.272  70.773  1.00  0.00    -0.011 NA 
HETATM    7  C   UNL     1      -6.074   4.508  69.513  1.00  0.00    -0.026 A  
ENDROOT
BRANCH   4   8
HETATM    8  C   UNL     1      -8.881   4.596  72.715  1.00  0.00    -0.117 C  
BRANCH   8   9
HETATM    9  N   UNL     1      -9.935   5.631  72.688  1.00  0.00    -0.172 NA 
HETATM   10  C   UNL     1      -9.584   6.858  73.435  1.00  0.00    -0.174 C  
HETATM   11  C   UNL     1      -8.416   7.642  72.826  1.00  0.00    -0.172 C  
HETATM   12  C   UNL     1      -8.793   8.108  71.425  1.00  0.00    -0.185 C  
HETATM   13  C   UNL     1      -8.775   9.406  71.004  1.00  0.00    -0.064 C  
HETATM   14  C   UNL     1      -9.188   6.895  70.582  1.00  0.00    -0.158 C  
HETATM   15  C   UNL     1      -9.122   9.722  69.595  1.00  0.00    -0.235 A  
HETATM   16  C   UNL     1     -10.249   6.013  71.288  1.00  0.00    -0.205 C  
HETATM   17  C   UNL     1     -10.445   9.626  69.144  1.00  0.00    -0.230 A  
HETATM   18  C   UNL     1     -10.762   9.937  67.818  1.00  0.00    -0.332 A  
HETATM   19  C   UNL     1      -9.760  10.363  66.950  1.00  0.00    -0.181 A  
HETATM   20  C   UNL     1      -8.443  10.487  67.395  1.00  0.00    -0.122 A  
HETATM   21 CL   UNL     1     -10.149  10.756  65.321  1.00  0.00    -0.333 Cl 
HETATM   22  C   UNL     1      -8.116  10.173  68.722  1.00  0.00    -0.111 A  
HETATM   23  C   UNL     1      -6.710  10.355  69.238  1.00  0.00    -0.067 C  
HETATM   24  C   UNL     1      -6.619  11.526  70.221  1.00  0.00     0.232 C  
HETATM   25  C   UNL     1      -7.322  11.425  71.559  1.00  0.00     6.041 A  
HETATM   26  C   UNL     1      -8.319  10.504  71.910  1.00  0.00     6.682 A  
HETATM   27  N   UNL     1      -8.961  10.550  73.110  1.00  0.00    10.294 NA 
HETATM   28  C   UNL     1      -8.566  11.470  74.015  1.00  0.00    18.101 A  
HETATM   29  C   UNL     1      -7.577  12.397  73.774  1.00  0.00    12.834 A  
HETATM   30  C   UNL     1      -6.967  12.384  72.526  1.00  0.00     8.389 A  
ENDBRANCH   8   9
ENDBRANCH   4   8
TORSDOF 2
ENDMDL
MODEL      171
REMARK 921   NORMALIZED FREE ENERGY PREDICTED BY IDOCK:   57.01 KCAL/MOL
REMARK 922        TOTAL FREE ENERGY PREDICTED BY IDOCK:   63.28 KCAL/MOL
REMARK 923 INTER-LIGAND FREE ENERGY PREDICTED BY IDOCK:   63.50 KCAL/MOL
REMARK 924 INTRA-LIGAND FREE ENERGY PREDICTED BY IDOCK:   -0.22 KCAL/MOL
REMARK 927      BINDING AFFINITY PREDICTED BY RF-SCORE:    0.00 PKD
ROOT
HETATM    1  C   UNL     1     -10.854  15.888  71.001  1.00  0.00    -0.028 C  
HETATM    2  C   UNL     1     -10.648  14.443  71.320  1.00  0.00     1.776 A  
HETATM    3  C   UNL     1     -11.261  13.422  70.583  1.00  0.00     0.976 A  
HETATM    4  C   UNL     1     -11.021  12.082  70.898  1.00  0.00     2.732 A  
HETATM    5  C   UNL     1     -10.178  11.834  71.982  1.00  0.00    12.733 A  
HETATM    6  N   UNL     1      -9.585  12.788  72.733  1.00  0.00    18.713 NA 
HETATM    7  C   UNL     1      -9.838  14.068  72.388  1.00  0.00     8.488 A  
ENDROOT
BRANCH   4   8
HETATM    8  C   UNL     1     -11.699  10.911  70.220  1.00  0.00    -0.347 C  
BRANCH   8   9
HETATM    9  N   UNL     1     -11.939  11.013  68.765  1.00  0.00    -0.511 NA 
HETATM   10  C   UNL     1     -10.753  11.448  67.996  1.00  0.00    -0.200 C  
HETATM   11  C   UNL     1      -9.598  10.439  68.013  1.00  0.00    -0.156 C  
HETATM   12  C   UNL     1     -10.053   9.137  67.366  1.00  0.00    -0.289 C  
HETATM   13  C   UNL     1      -9.438   8.538  66.305  1.00  0.00    -0.299 C  
HETATM   14  C   UNL     1     -11.293   8.620  68.096  1.00  0.00     0.798 C  
HETATM   15  C   UNL     1      -9.956   7.242  65.797  1.00  0.00     0.833 A  
HETATM   16  C   UNL     1     -12.391   9.707  68.223  1.00  0.00     3.699 C  
HETATM   17  C   UNL     1     -11.165   7.180  65.092  1.00  0.00     7.845 A  
HETATM   18  C   UNL     1     -11.637   5.956  64.609  1.00  0.00     5.729 A  
HETATM   19  C   UNL     1     -10.890   4.798  64.813  1.00  0.00     0.379 A  
HETATM   20  C   UNL     1      -9.671   4.852  65.490  1.00  0.00    -0.129 A  
HETATM   21 CL   UNL     1     -11.463   3.293  64.210  1.00  0.00     0.982 Cl 
HETATM   22  C   UNL     1      -9.192   6.075  65.982  1.00  0.00    -0.129 A  
HETATM   23  C   UNL     1      -7.851   6.164  66.667  1.00  0.00    -0.104 C  
HETATM   24  C   UNL     1      -6.826   6.902  65.801  1.00  0.00    -0.052 C  
HETATM   25  C   UNL     1      -7.018   8.378  65.522  1.00  0.00    -0.070 A  
HETATM   26  C   UNL     1      -8.196   9.116  65.707  1.00  0.00    -0.115 A  
HETATM   27  N   UNL     1      -8.300  10.423  65.340  1.00  0.00    -0.162 NA 
HETATM   28  C   UNL     1      -7.206  11.042  64.851  1.00  0.00     0.575 A  
HETATM   29  C   UNL     1      -5.997  10.411  64.661  1.00  0.00    -0.109 A  
HETATM   30  C   UNL     1      -5.912   9.062  64.981  1.00  0.00    -0.060 A  
ENDBRANCH   8   9
ENDBRANCH   4   8
TORSDOF 2
ENDMDL
MODEL      172
REMARK 921   NORMALIZED FREE ENERGY PREDICTED BY IDOCK:   57.74 KCAL/MOL
REMARK 922        TOTAL FREE ENERGY PREDICTED BY IDOCK:   64.10 KCAL/MOL
REMARK 923 INTER-LIGAND FREE ENERGY PREDICTED BY IDOCK:   62.60 KCAL/MOL
REMARK 924 INTRA-LIGAND FREE ENERGY PREDICTED BY IDOCK:    1.49 KCAL/MOL
REMARK 927      BINDING AFFINITY PREDICTED BY RF-SCORE:    0.00 PKD
ROOT
HETATM    1  C   UNL     1      -5.416  21.138  68.762  1.00  0.00    -0.311 C  
HETATM    2  C   UNL     1      -6.296  19.959  68.511  1.00  0.00    -0.311 A  
HETATM    3  C   UNL     1      -6.226  19.213  67.328  1.00  0.00    -0.178 A  
HETATM    4  C   UNL     1      -7.050  18.099  67.144  1.00  0.00    -0.212 A  
HETATM    5  C   UNL     1      -7.944  17.805  68.174  1.00  0.00    -0.263 A  
HETATM    6  N   UNL     1      -8.062  18.510  69.320  1.00  0.00     0.050 NA 
HETATM    7  C   UNL     1      -7.240  19.572  69.460  1.00  0.00    -0.179 A  
ENDROOT
BRANCH   4   8
HETATM    8  C   UNL     1      -7.109  17.283  65.871  1.00  0.00    -0.026 C  
BRANCH   8   9
HETATM    9  N   UNL     1      -6.530  15.924  65.907  1.00  0.00     2.364 NA 
HETATM   10  C   UNL     1      -6.127  15.485  67.260  1.00  0.00     0.120 C  
HETATM   11  C   UNL     1      -7.302  15.306  68.230  1.00  0.00    -0.113 C  
HETATM   12  C   UNL     1      -8.232  14.220  67.704  1.00  0.00    -0.193 C  
HETATM   13  C   UNL     1      -8.594  13.101  68.397  1.00  0.00    -0.124 C  
HETATM   14  C   UNL     1      -8.688  14.589  66.292  1.00  0.00     0.174 C  
HETATM   15  C   UNL     1      -9.547  12.140  67.787  1.00  0.00    -0.195 A  
HETATM   16  C   UNL     1      -7.496  14.935  65.365  1.00  0.00     7.600 C  
HETATM   17  C   UNL     1      -9.154  11.317  66.723  1.00  0.00    -0.181 A  
HETATM   18  C   UNL     1     -10.057  10.408  66.165  1.00  0.00    -0.299 A  
HETATM   19  C   UNL     1     -11.346  10.308  66.682  1.00  0.00     0.618 A  
HETATM   20  C   UNL     1     -11.741  11.104  67.758  1.00  0.00    -0.220 A  
HETATM   21 CL   UNL     1     -12.456   9.183  66.003  1.00  0.00    10.814 Cl 
HETATM   22  C   UNL     1     -10.843  12.022  68.322  1.00  0.00    -0.263 A  
HETATM   23  C   UNL     1     -11.231  12.850  69.521  1.00  0.00    -0.143 C  
HETATM   24  C   UNL     1     -10.486  12.400  70.781  1.00  0.00     4.451 C  
HETATM   25  C   UNL     1      -8.987  12.599  70.865  1.00  0.00    10.126 A  
HETATM   26  C   UNL     1      -8.121  12.875  69.797  1.00  0.00     1.902 A  
HETATM   27  N   UNL     1      -6.770  12.946  69.956  1.00  0.00     0.215 NA 
HETATM   28  C   UNL     1      -6.263  12.819  71.199  1.00  0.00     1.043 A  
HETATM   29  C   UNL     1      -7.034  12.576  72.314  1.00  0.00     7.611 A  
HETATM   30  C   UNL     1      -8.405  12.445  72.138  1.00  0.00    18.726 A  
ENDBRANCH   8   9
ENDBRANCH   4   8
TORSDOF 2
ENDMDL
MODEL      173
REMARK 921   NORMALIZED FREE ENERGY PREDICTED BY IDOCK:   67.20 KCAL/MOL
REMARK 922        TOTAL FREE ENERGY PREDICTED BY IDOCK:   74.66 KCAL/MOL
REMARK 923 INTER-LIGAND FREE ENERGY PREDICTED BY IDOCK:   73.50 KCAL/MOL
REMARK 924 INTRA-LIGAND FREE ENERGY PREDICTED BY IDOCK:    1.16 KCAL/MOL
REMARK 927      BINDING AFFINITY PREDICTED BY RF-SCORE:    0.00 PKD
ROOT
HETATM    1  C   UNL     1      -6.048  20.992  67.521  1.00  0.00    -0.381 C  
HETATM    2  C   UNL     1      -6.929  19.812  67.270  1.00  0.00    -0.236 A  
HETATM    3  C   UNL     1      -6.858  19.067  66.087  1.00  0.00    -0.260 A  
HETATM    4  C   UNL     1      -7.683  17.953  65.903  1.00  0.00    -0.141 A  
HETATM    5  C   UNL     1      -8.576  17.658  66.933  1.00  0.00    -0.242 A  
HETATM    6  N   UNL     1      -8.695  18.364  68.079  1.00  0.00    -0.280 NA 
HETATM    7  C   UNL     1      -7.872  19.425  68.219  1.00  0.00    -0.328 A  
ENDROOT
BRANCH   4   8
HETATM    8  C   UNL     1      -7.742  17.137  64.631  1.00  0.00     6.311 C  
BRANCH   8   9
HETATM    9  N   UNL     1      -7.162  15.778  64.666  1.00  0.00     9.527 NA 
HETATM   10  C   UNL     1      -7.026  15.225  66.031  1.00  0.00     3.946 C  
HETATM   11  C   UNL     1      -8.366  14.969  66.733  1.00  0.00    -0.189 C  
HETATM   12  C   UNL     1      -9.160  13.934  65.946  1.00  0.00     0.310 C  
HETATM   13  C   UNL     1      -9.636  12.762  66.459  1.00  0.00    -0.257 C  
HETATM   14  C   UNL     1      -9.336  14.422  64.508  1.00  0.00     2.539 C  
HETATM   15  C   UNL     1     -10.438  11.859  65.596  1.00  0.00    -0.302 A  
HETATM   16  C   UNL     1      -7.990  14.841  63.865  1.00  0.00    16.806 C  
HETATM   17  C   UNL     1      -9.834  11.127  64.566  1.00  0.00    -0.330 A  
HETATM   18  C   UNL     1     -10.598  10.271  63.767  1.00  0.00     0.938 A  
HETATM   19  C   UNL     1     -11.961  10.132  64.012  1.00  0.00     6.079 A  
HETATM   20  C   UNL     1     -12.570  10.835  65.052  1.00  0.00     4.722 A  
HETATM   21 CL   UNL     1     -12.902   9.071  63.037  1.00  0.00    16.164 Cl 
HETATM   22  C   UNL     1     -11.812  11.700  65.856  1.00  0.00     0.199 A  
HETATM   23  C   UNL     1     -12.439  12.425  67.020  1.00  0.00     0.863 C  
HETATM   24  C   UNL     1     -11.948  11.868  68.359  1.00  0.00    -0.246 C  
HETATM   25  C   UNL     1     -10.497  12.055  68.752  1.00  0.00    -0.207 A  
HETATM   26  C   UNL     1      -9.443  12.418  67.902  1.00  0.00    -0.198 A  
HETATM   27  N   UNL     1      -8.150  12.471  68.328  1.00  0.00    -0.161 NA 
HETATM   28  C   UNL     1      -7.895  12.238  69.631  1.00  0.00     1.174 A  
HETATM   29  C   UNL     1      -8.865  11.904  70.549  1.00  0.00     5.795 A  
HETATM   30  C   UNL     1     -10.174  11.793  70.097  1.00  0.00     1.888 A  
ENDBRANCH   8   9
ENDBRANCH   4   8
TORSDOF 2
ENDMDL
MODEL      174
REMARK 921   NORMALIZED FREE ENERGY PREDICTED BY IDOCK:   72.15 KCAL/MOL
REMARK 922        TOTAL FREE ENERGY PREDICTED BY IDOCK:   80.19 KCAL/MOL
REMARK 923 INTER-LIGAND FREE ENERGY PREDICTED BY IDOCK:   75.91 KCAL/MOL
REMARK 924 INTRA-LIGAND FREE ENERGY PREDICTED BY IDOCK:    4.28 KCAL/MOL
REMARK 927      BINDING AFFINITY PREDICTED BY RF-SCORE:    0.00 PKD
ROOT
HETATM    1  C   UNL     1     -12.640  12.848  67.897  1.00  0.00     0.912 C  
HETATM    2  C   UNL     1     -11.897  11.822  68.688  1.00  0.00    -0.369 A  
HETATM    3  C   UNL     1     -10.511  11.888  68.881  1.00  0.00    -0.164 A  
HETATM    4  C   UNL     1      -9.858  10.922  69.651  1.00  0.00     0.151 A  
HETATM    5  C   UNL     1     -10.649   9.899  70.175  1.00  0.00    -0.297 A  
HETATM    6  N   UNL     1     -11.983   9.783  69.994  1.00  0.00    -0.031 NA 
HETATM    7  C   UNL     1     -12.574  10.744  69.251  1.00  0.00     0.367 A  
ENDROOT
BRANCH   4   8
HETATM    8  C   UNL     1      -8.359  10.857  69.847  1.00  0.00     0.725 C  
BRANCH   8   9
HETATM    9  N   UNL     1      -7.636  12.138  69.988  1.00  0.00     1.223 NA 
HETATM   10  C   UNL     1      -7.093  12.657  68.714  1.00  0.00    -0.087 C  
HETATM   11  C   UNL     1      -8.171  13.062  67.701  1.00  0.00    -0.171 C  
HETATM   12  C   UNL     1      -9.014  14.191  68.280  1.00  0.00    -0.188 C  
HETATM   13  C   UNL     1      -9.204  15.406  67.687  1.00  0.00    -0.187 C  
HETATM   14  C   UNL     1      -9.605  13.742  69.617  1.00  0.00     1.095 C  
HETATM   15  C   UNL     1     -10.089  16.406  68.337  1.00  0.00    -0.245 A  
HETATM   16  C   UNL     1      -8.525  13.173  70.571  1.00  0.00     5.656 C  
HETATM   17  C   UNL     1      -9.685  17.072  69.502  1.00  0.00     0.141 A  
HETATM   18  C   UNL     1     -10.522  18.019  70.098  1.00  0.00     1.264 A  
HETATM   19  C   UNL     1     -11.753  18.315  69.518  1.00  0.00     5.025 A  
HETATM   20  C   UNL     1     -12.155  17.678  68.343  1.00  0.00     2.915 A  
HETATM   21 CL   UNL     1     -12.781  19.489  70.244  1.00  0.00    17.022 Cl 
HETATM   22  C   UNL     1     -11.323  16.723  67.741  1.00  0.00     0.109 A  
HETATM   23  C   UNL     1     -11.713  16.064  66.441  1.00  0.00     0.815 C  
HETATM   24  C   UNL     1     -10.837  16.546  65.281  1.00  0.00    -0.233 C  
HETATM   25  C   UNL     1      -9.366  16.187  65.266  1.00  0.00     0.639 A  
HETATM   26  C   UNL     1      -8.611  15.711  66.349  1.00  0.00    -0.284 A  
HETATM   27  N   UNL     1      -7.269  15.502  66.263  1.00  0.00     0.752 NA 
HETATM   28  C   UNL     1      -6.664  15.690  65.073  1.00  0.00    10.714 A  
HETATM   29  C   UNL     1      -7.324  16.127  63.946  1.00  0.00    17.468 A  
HETATM   30  C   UNL     1      -8.683  16.396  64.053  1.00  0.00    11.168 A  
ENDBRANCH   8   9
ENDBRANCH   4   8
TORSDOF 2
ENDMDL
MODEL      175
REMARK 921   NORMALIZED FREE ENERGY PREDICTED BY IDOCK:   76.90 KCAL/MOL
REMARK 922        TOTAL FREE ENERGY PREDICTED BY IDOCK:   85.49 KCAL/MOL
REMARK 923 INTER-LIGAND FREE ENERGY PREDICTED BY IDOCK:   81.37 KCAL/MOL
REMARK 924 INTRA-LIGAND FREE ENERGY PREDICTED BY IDOCK:    4.12 KCAL/MOL
REMARK 927      BINDING AFFINITY PREDICTED BY RF-SCORE:    0.00 PKD
ROOT
HETATM    1  C   UNL     1      -8.573   5.299  67.657  1.00  0.00    -0.104 C  
HETATM    2  C   UNL     1      -7.986   6.090  68.780  1.00  0.00    -0.104 A  
HETATM    3  C   UNL     1      -8.777   6.852  69.649  1.00  0.00    -0.141 A  
HETATM    4  C   UNL     1      -8.191   7.556  70.704  1.00  0.00    -0.111 A  
HETATM    5  C   UNL     1      -6.802   7.477  70.815  1.00  0.00    -0.047 A  
HETATM    6  N   UNL     1      -5.999   6.774  69.986  1.00  0.00    -0.023 NA 
HETATM    7  C   UNL     1      -6.609   6.101  68.987  1.00  0.00    -0.051 A  
ENDROOT
BRANCH   4   8
HETATM    8  C   UNL     1      -8.945   8.473  71.642  1.00  0.00    -0.219 C  
BRANCH   8   9
HETATM    9  N   UNL     1     -10.023   9.302  71.063  1.00  0.00    -0.292 NA 
HETATM   10  C   UNL     1      -9.534  10.518  70.378  1.00  0.00     1.006 C  
HETATM   11  C   UNL     1      -8.704  10.231  69.121  1.00  0.00    -0.176 C  
HETATM   12  C   UNL     1      -9.567   9.503  68.099  1.00  0.00    -0.153 C  
HETATM   13  C   UNL     1      -9.792   9.929  66.822  1.00  0.00    -0.256 C  
HETATM   14  C   UNL     1     -10.130   8.230  68.733  1.00  0.00    -0.212 C  
HETATM   15  C   UNL     1     -10.618   9.100  65.909  1.00  0.00     0.771 A  
HETATM   16  C   UNL     1     -10.819   8.510  70.092  1.00  0.00    -0.233 C  
HETATM   17  C   UNL     1     -12.004   9.001  66.086  1.00  0.00     7.443 A  
HETATM   18  C   UNL     1     -12.773   8.226  65.213  1.00  0.00    18.902 A  
HETATM   19  C   UNL     1     -12.159   7.567  64.152  1.00  0.00    21.334 A  
HETATM   20  C   UNL     1     -10.783   7.679  63.949  1.00  0.00    12.276 A  
HETATM   21 CL   UNL     1     -13.105   6.621  63.070  1.00  0.00    11.346 Cl 
HETATM   22  C   UNL     1     -10.003   8.451  64.822  1.00  0.00     2.502 A  
HETATM   23  C   UNL     1      -8.524   8.631  64.588  1.00  0.00    -0.150 C  
HETATM   24  C   UNL     1      -8.195  10.058  64.140  1.00  0.00    -0.159 C  
HETATM   25  C   UNL     1      -8.395  11.203  65.112  1.00  0.00     0.190 A  
HETATM   26  C   UNL     1      -9.141  11.170  66.299  1.00  0.00    -0.194 A  
HETATM   27  N   UNL     1      -9.341  12.279  67.063  1.00  0.00    -0.198 NA 
HETATM   28  C   UNL     1      -8.735  13.427  66.699  1.00  0.00     0.004 A  
HETATM   29  C   UNL     1      -7.960  13.552  65.568  1.00  0.00     4.278 A  
HETATM   30  C   UNL     1      -7.808  12.433  64.759  1.00  0.00     4.139 A  
ENDBRANCH   8   9
ENDBRANCH   4   8
TORSDOF 2
ENDMDL
MODEL      176
REMARK 921   NORMALIZED FREE ENERGY PREDICTED BY IDOCK:   85.85 KCAL/MOL
REMARK 922        TOTAL FREE ENERGY PREDICTED BY IDOCK:   95.48 KCAL/MOL
REMARK 923 INTER-LIGAND FREE ENERGY PREDICTED BY IDOCK:   95.92 KCAL/MOL
REMARK 924 INTRA-LIGAND FREE ENERGY PREDICTED BY IDOCK:   -0.44 KCAL/MOL
REMARK 927      BINDING AFFINITY PREDICTED BY RF-SCORE:    0.00 PKD
ROOT
HETATM    1  C   UNL     1      -8.902   4.461  64.860  1.00  0.00    -0.143 C  
HETATM    2  C   UNL     1      -8.013   5.361  65.652  1.00  0.00    -0.107 A  
HETATM    3  C   UNL     1      -8.170   6.753  65.652  1.00  0.00    -0.134 A  
HETATM    4  C   UNL     1      -7.332   7.559  66.429  1.00  0.00    -0.083 A  
HETATM    5  C   UNL     1      -6.338   6.907  67.161  1.00  0.00    -0.044 A  
HETATM    6  N   UNL     1      -6.136   5.571  67.171  1.00  0.00    -0.029 NA 
HETATM    7  C   UNL     1      -6.975   4.831  66.414  1.00  0.00    -0.067 A  
ENDROOT
BRANCH   4   8
HETATM    8  C   UNL     1      -7.365   9.071  66.431  1.00  0.00    -0.088 C  
BRANCH   8   9
HETATM    9  N   UNL     1      -8.627   9.724  66.836  1.00  0.00    -0.124 NA 
HETATM   10  C   UNL     1      -9.129   9.282  68.156  1.00  0.00    -0.128 C  
HETATM   11  C   UNL     1      -8.225   9.685  69.328  1.00  0.00    -0.123 C  
HETATM   12  C   UNL     1      -8.142  11.204  69.406  1.00  0.00     0.139 C  
HETATM   13  C   UNL     1      -8.463  11.946  70.506  1.00  0.00     5.448 C  
HETATM   14  C   UNL     1      -7.642  11.749  68.068  1.00  0.00    -0.116 C  
HETATM   15  C   UNL     1      -8.293  13.421  70.466  1.00  0.00     4.756 A  
HETATM   16  C   UNL     1      -8.459  11.198  66.872  1.00  0.00    -0.147 C  
HETATM   17  C   UNL     1      -9.157  14.223  69.710  1.00  0.00     0.911 A  
HETATM   18  C   UNL     1      -8.994  15.611  69.690  1.00  0.00    -0.136 A  
HETATM   19  C   UNL     1      -7.980  16.198  70.442  1.00  0.00     1.943 A  
HETATM   20  C   UNL     1      -7.129  15.412  71.220  1.00  0.00     2.034 A  
HETATM   21 CL   UNL     1      -7.784  17.907  70.427  1.00  0.00     2.566 Cl 
HETATM   22  C   UNL     1      -7.283  14.018  71.243  1.00  0.00     2.654 A  
HETATM   23  C   UNL     1      -6.411  13.156  72.121  1.00  0.00     2.542 C  
HETATM   24  C   UNL     1      -7.201  12.568  73.294  1.00  0.00    10.545 C  
HETATM   25  C   UNL     1      -8.290  11.553  73.018  1.00  0.00    20.351 A  
HETATM   26  C   UNL     1      -8.893  11.291  71.779  1.00  0.00    12.315 A  
HETATM   27  N   UNL     1      -9.933  10.422  71.646  1.00  0.00     2.621 NA 
HETATM   28  C   UNL     1     -10.342   9.739  72.734  1.00  0.00     4.272 A  
HETATM   29  C   UNL     1      -9.794   9.905  73.986  1.00  0.00    10.991 A  
HETATM   30  C   UNL     1      -8.773  10.836  74.129  1.00  0.00    13.304 A  
ENDBRANCH   8   9
ENDBRANCH   4   8
TORSDOF 2
ENDMDL
