MODEL        1
REMARK 921   NORMALIZED FREE ENERGY PREDICTED BY IDOCK:   -9.90 KCAL/MOL
REMARK 922        TOTAL FREE ENERGY PREDICTED BY IDOCK:  -14.84 KCAL/MOL
REMARK 923 INTER-LIGAND FREE ENERGY PREDICTED BY IDOCK:  -13.37 KCAL/MOL
REMARK 924 INTRA-LIGAND FREE ENERGY PREDICTED BY IDOCK:   -1.48 KCAL/MOL
REMARK 927      BINDING AFFINITY PREDICTED BY RF-SCORE:    0.00 PKD
ROOT
HETATM    1  C   UNL     1     -10.173  15.364  65.353  1.00  0.00    -0.408 C  
HETATM    2  C   UNL     1     -10.908  14.020  65.390  1.00  0.00    -0.328 C  
HETATM    3  O   UNL     1      -9.869  13.058  65.578  1.00  0.00    -0.234 OA 
HETATM    4  C   UNL     1     -10.082  11.693  65.248  1.00  0.00    -0.264 C  
HETATM    5  H   UNL     1     -13.798  12.682  62.913  1.00  0.00     0.000 HD 
HETATM    6  C   UNL     1     -10.935  11.478  63.989  1.00  0.00    -0.383 C  
HETATM    7  C   UNL     1     -12.192  12.359  64.035  1.00  0.00    -0.490 C  
HETATM    8  O   UNL     1     -12.878  14.733  64.146  1.00  0.00    -0.678 OA 
HETATM    9  O   UNL     1     -10.172  11.795  62.808  1.00  0.00    -0.595 OA 
HETATM   10  H   UNL     1     -10.699  11.663  62.030  1.00  0.00     0.000 HD 
HETATM   11  H   UNL     1     -13.403  14.617  63.363  1.00  0.00     0.000 HD 
HETATM   12  O   UNL     1     -13.021  12.137  62.885  1.00  0.00    -0.359 OA 
HETATM   13  C   UNL     1     -11.760  13.831  64.120  1.00  0.00    -0.364 C  
ENDROOT
BRANCH   4  14
HETATM   14  O   UNL     1     -10.590  10.880  66.307  1.00  0.00    -0.252 OA 
BRANCH  14  15
HETATM   15  C   UNL     1     -10.129   9.519  66.250  1.00  0.00    -0.257 C  
BRANCH  15  16
HETATM   16  C   UNL     1      -8.911   9.374  67.171  1.00  0.00    -0.127 C  
HETATM   17  C   UNL     1      -9.660  10.136  69.396  1.00  0.00    -0.232 C  
HETATM   18  O   UNL     1      -8.897  10.396  68.198  1.00  0.00    -0.128 OA 
HETATM   19  H   UNL     1     -10.877   6.608  68.143  1.00  0.00     0.000 HD 
HETATM   20  C   UNL     1      -9.124   8.803  69.969  1.00  0.00    -0.160 C  
HETATM   21  H   UNL     1      -7.132   6.787  67.999  1.00  0.00     0.000 HD 
HETATM   22  O   UNL     1      -7.703   8.898  70.238  1.00  0.00    -0.072 OA 
HETATM   23  C   UNL     1      -9.359   7.642  68.990  1.00  0.00    -0.146 C  
HETATM   24  H   UNL     1      -7.374   8.079  70.590  1.00  0.00     0.000 HD 
HETATM   25  O   UNL     1      -7.270   7.679  67.707  1.00  0.00    -0.082 OA 
HETATM   26  O   UNL     1     -10.732   7.326  68.748  1.00  0.00    -0.200 OA 
HETATM   27  C   UNL     1      -8.687   7.925  67.644  1.00  0.00    -0.126 C  
BRANCH  17  28
HETATM   28  O   UNL     1     -11.071  10.212  69.140  1.00  0.00    -0.222 OA 
BRANCH  28  29
HETATM   29  C   UNL     1     -11.817  11.097  69.919  1.00  0.00    -0.363 C  
HETATM   30  O   UNL     1     -13.042  11.606  71.974  1.00  0.00    -0.478 OA 
HETATM   31  C   UNL     1     -12.514  10.729  71.023  1.00  0.00    -0.420 C  
HETATM   32  C   UNL     1     -12.992  12.955  71.730  1.00  0.00    -0.315 A  
HETATM   33  O   UNL     1     -10.596  12.950  69.179  1.00  0.00    -0.107 OA 
HETATM   34  H   UNL     1     -11.794  14.659  68.364  1.00  0.00     0.000 HD 
HETATM   35  C   UNL     1     -13.498  13.847  72.675  1.00  0.00    -0.652 A  
HETATM   36  C   UNL     1     -11.580  12.550  69.790  1.00  0.00    -0.221 C  
HETATM   37  C   UNL     1     -13.512  15.216  72.385  1.00  0.00    -0.449 A  
HETATM   38  C   UNL     1     -12.434  13.461  70.540  1.00  0.00    -0.350 A  
HETATM   39  O   UNL     1     -12.167  15.261  68.997  1.00  0.00    -0.239 OA 
HETATM   40  C   UNL     1     -13.096  15.699  71.149  1.00  0.00    -0.523 A  
HETATM   41  O   UNL     1     -13.930  16.146  73.293  1.00  0.00    -0.756 OA 
HETATM   42  H   UNL     1     -13.940  17.075  73.097  1.00  0.00     0.000 HD 
HETATM   43  C   UNL     1     -12.551  14.820  70.225  1.00  0.00    -0.315 A  
BRANCH  31  44
HETATM   44  C   UNL     1     -12.660   9.301  71.338  1.00  0.00    -0.411 A  
HETATM   45  O   UNL     1     -13.405   5.500  72.827  1.00  0.00    -0.300 OA 
HETATM   46  H   UNL     1     -11.151   5.740  73.528  1.00  0.00     0.000 HD 
HETATM   47  C   UNL     1     -13.905   8.679  71.120  1.00  0.00    -0.108 A  
HETATM   48  H   UNL     1     -14.256   5.098  72.702  1.00  0.00     0.000 HD 
HETATM   49  O   UNL     1     -10.971   6.610  73.194  1.00  0.00    -0.266 OA 
HETATM   50  C   UNL     1     -13.146   6.731  72.293  1.00  0.00     0.160 A  
HETATM   51  C   UNL     1     -11.897   7.320  72.477  1.00  0.00    -0.156 A  
HETATM   52  C   UNL     1     -11.634   8.597  71.987  1.00  0.00    -0.440 A  
HETATM   53  C   UNL     1     -14.150   7.391  71.602  1.00  0.00    -0.552 A  
ENDBRANCH  31  44
ENDBRANCH  28  29
ENDBRANCH  17  28
ENDBRANCH  15  16
ENDBRANCH  14  15
ENDBRANCH   4  14
TORSDOF 6
ENDMDL
MODEL        2
REMARK 921   NORMALIZED FREE ENERGY PREDICTED BY IDOCK:   -9.41 KCAL/MOL
REMARK 922        TOTAL FREE ENERGY PREDICTED BY IDOCK:  -14.19 KCAL/MOL
REMARK 923 INTER-LIGAND FREE ENERGY PREDICTED BY IDOCK:  -12.60 KCAL/MOL
REMARK 924 INTRA-LIGAND FREE ENERGY PREDICTED BY IDOCK:   -1.59 KCAL/MOL
REMARK 927      BINDING AFFINITY PREDICTED BY RF-SCORE:    0.00 PKD
ROOT
HETATM    1  C   UNL     1     -10.713  10.202  69.959  1.00  0.00    -0.356 C  
HETATM    2  C   UNL     1      -9.768  10.034  68.765  1.00  0.00    -0.171 C  
HETATM    3  O   UNL     1     -10.617   9.591  67.706  1.00  0.00    -0.243 OA 
HETATM    4  C   UNL     1     -10.073   8.929  66.574  1.00  0.00    -0.286 C  
HETATM    5  H   UNL     1      -6.151   8.249  68.671  1.00  0.00     0.000 HD 
HETATM    6  C   UNL     1      -8.908   7.982  66.901  1.00  0.00    -0.132 C  
HETATM    7  C   UNL     1      -7.894   8.677  67.822  1.00  0.00    -0.103 C  
HETATM    8  O   UNL     1      -7.724   9.728  70.055  1.00  0.00    -0.137 OA 
HETATM    9  O   UNL     1      -9.398   6.790  67.544  1.00  0.00    -0.124 OA 
HETATM   10  H   UNL     1      -8.678   6.205  67.747  1.00  0.00     0.000 HD 
HETATM   11  H   UNL     1      -7.007   9.144  70.274  1.00  0.00     0.000 HD 
HETATM   12  O   UNL     1      -6.778   7.820  68.102  1.00  0.00    -0.062 OA 
HETATM   13  C   UNL     1      -8.606   9.086  69.120  1.00  0.00    -0.133 C  
ENDROOT
BRANCH   4  14
HETATM   14  O   UNL     1      -9.699   9.780  65.489  1.00  0.00    -0.276 OA 
BRANCH  14  15
HETATM   15  C   UNL     1      -9.789  11.180  65.808  1.00  0.00    -0.235 C  
BRANCH  15  16
HETATM   16  C   UNL     1     -11.096  11.733  65.225  1.00  0.00    -0.276 C  
HETATM   17  C   UNL     1     -11.912  13.389  66.864  1.00  0.00    -0.385 C  
HETATM   18  O   UNL     1     -12.039  12.079  66.270  1.00  0.00    -0.596 OA 
HETATM   19  H   UNL     1      -8.852  14.384  64.595  1.00  0.00     0.000 HD 
HETATM   20  C   UNL     1     -12.015  14.403  65.701  1.00  0.00    -0.354 C  
HETATM   21  H   UNL     1     -11.726  13.289  62.445  1.00  0.00     0.000 HD 
HETATM   22  O   UNL     1     -13.271  14.244  64.994  1.00  0.00    -0.638 OA 
HETATM   23  C   UNL     1     -10.865  14.218  64.697  1.00  0.00    -0.368 C  
HETATM   24  H   UNL     1     -13.334  14.867  64.280  1.00  0.00     0.000 HD 
HETATM   25  O   UNL     1     -11.869  12.634  63.118  1.00  0.00    -0.470 OA 
HETATM   26  O   UNL     1      -9.562  14.497  65.216  1.00  0.00    -0.156 OA 
HETATM   27  C   UNL     1     -10.863  12.795  64.134  1.00  0.00    -0.406 C  
BRANCH  17  28
HETATM   28  O   UNL     1     -10.744  13.472  67.695  1.00  0.00    -0.244 OA 
BRANCH  28  29
HETATM   29  C   UNL     1     -10.883  14.097  68.934  1.00  0.00    -0.258 C  
HETATM   30  O   UNL     1     -10.607  16.060  70.367  1.00  0.00    -0.262 OA 
HETATM   31  C   UNL     1     -10.287  15.271  69.260  1.00  0.00    -0.259 C  
HETATM   32  C   UNL     1     -11.490  15.570  71.296  1.00  0.00    -0.404 A  
HETATM   33  O   UNL     1     -12.892  12.989  69.392  1.00  0.00     0.490 OA 
HETATM   34  H   UNL     1     -13.001  11.911  71.352  1.00  0.00     0.000 HD 
HETATM   35  C   UNL     1     -11.836  16.349  72.399  1.00  0.00    -0.548 A  
HETATM   36  C   UNL     1     -11.990  13.694  69.827  1.00  0.00    -0.341 C  
HETATM   37  C   UNL     1     -12.679  15.812  73.379  1.00  0.00    -0.551 A  
HETATM   38  C   UNL     1     -12.060  14.290  71.155  1.00  0.00    -0.409 A  
HETATM   39  O   UNL     1     -13.210  12.433  72.118  1.00  0.00    -0.491 OA 
HETATM   40  C   UNL     1     -13.121  14.495  73.312  1.00  0.00    -0.440 A  
HETATM   41  O   UNL     1     -13.109  16.546  74.447  1.00  0.00    -0.840 OA 
HETATM   42  H   UNL     1     -13.680  16.181  75.113  1.00  0.00     0.000 HD 
HETATM   43  C   UNL     1     -12.816  13.733  72.194  1.00  0.00    -0.271 A  
BRANCH  31  44
HETATM   44  C   UNL     1      -9.291  15.849  68.346  1.00  0.00    -0.201 A  
HETATM   45  O   UNL     1      -6.323  17.921  66.317  1.00  0.00    -0.185 OA 
HETATM   46  H   UNL     1      -8.222  19.054  65.458  1.00  0.00     0.000 HD 
HETATM   47  C   UNL     1      -7.937  15.490  68.498  1.00  0.00    -0.137 A  
HETATM   48  H   UNL     1      -5.410  17.693  66.447  1.00  0.00     0.000 HD 
HETATM   49  O   UNL     1      -8.909  18.589  65.920  1.00  0.00    -0.482 OA 
HETATM   50  C   UNL     1      -7.301  17.204  66.948  1.00  0.00    -0.207 A  
HETATM   51  C   UNL     1      -8.640  17.539  66.758  1.00  0.00    -0.253 A  
HETATM   52  C   UNL     1      -9.647  16.856  67.435  1.00  0.00    -0.241 A  
HETATM   53  C   UNL     1      -6.939  16.172  67.800  1.00  0.00    -0.161 A  
ENDBRANCH  31  44
ENDBRANCH  28  29
ENDBRANCH  17  28
ENDBRANCH  15  16
ENDBRANCH  14  15
ENDBRANCH   4  14
TORSDOF 6
ENDMDL
MODEL        3
REMARK 921   NORMALIZED FREE ENERGY PREDICTED BY IDOCK:   -9.28 KCAL/MOL
REMARK 922        TOTAL FREE ENERGY PREDICTED BY IDOCK:  -14.01 KCAL/MOL
REMARK 923 INTER-LIGAND FREE ENERGY PREDICTED BY IDOCK:  -11.95 KCAL/MOL
REMARK 924 INTRA-LIGAND FREE ENERGY PREDICTED BY IDOCK:   -2.06 KCAL/MOL
REMARK 927      BINDING AFFINITY PREDICTED BY RF-SCORE:    0.00 PKD
ROOT
HETATM    1  C   UNL     1     -10.387  19.862  68.320  1.00  0.00    -0.526 C  
HETATM    2  C   UNL     1      -9.362  19.107  67.468  1.00  0.00    -0.303 C  
HETATM    3  O   UNL     1      -9.421  17.766  67.956  1.00  0.00    -0.266 OA 
HETATM    4  C   UNL     1      -8.347  16.867  67.724  1.00  0.00    -0.194 C  
HETATM    5  H   UNL     1      -5.607  20.220  66.504  1.00  0.00     0.000 HD 
HETATM    6  C   UNL     1      -6.957  17.516  67.798  1.00  0.00    -0.172 C  
HETATM    7  C   UNL     1      -6.928  18.818  66.983  1.00  0.00    -0.203 C  
HETATM    8  O   UNL     1      -8.009  21.040  66.863  1.00  0.00    -0.568 OA 
HETATM    9  O   UNL     1      -6.612  17.803  69.167  1.00  0.00    -0.234 OA 
HETATM   10  H   UNL     1      -5.753  18.206  69.214  1.00  0.00     0.000 HD 
HETATM   11  H   UNL     1      -7.157  21.456  66.916  1.00  0.00     0.000 HD 
HETATM   12  O   UNL     1      -5.624  19.415  67.008  1.00  0.00    -0.171 OA 
HETATM   13  C   UNL     1      -7.980  19.781  67.554  1.00  0.00    -0.289 C  
ENDROOT
BRANCH   4  14
HETATM   14  O   UNL     1      -8.443  16.095  66.524  1.00  0.00    -0.251 OA 
BRANCH  14  15
HETATM   15  C   UNL     1      -8.722  14.705  66.764  1.00  0.00    -0.203 C  
BRANCH  15  16
HETATM   16  C   UNL     1      -9.802  14.243  65.778  1.00  0.00    -0.287 C  
HETATM   17  C   UNL     1     -10.830  12.244  66.798  1.00  0.00    -0.253 C  
HETATM   18  O   UNL     1      -9.956  12.802  65.794  1.00  0.00    -0.265 OA 
HETATM   19  H   UNL     1     -11.742  15.766  68.303  1.00  0.00     0.000 HD 
HETATM   20  C   UNL     1     -12.206  12.921  66.597  1.00  0.00    -0.159 C  
HETATM   21  H   UNL     1     -12.440  15.740  64.617  1.00  0.00     0.000 HD 
HETATM   22  O   UNL     1     -12.699  12.686  65.253  1.00  0.00    -0.652 OA 
HETATM   23  C   UNL     1     -12.120  14.439  66.826  1.00  0.00    -0.365 C  
HETATM   24  H   UNL     1     -13.544  13.102  65.130  1.00  0.00     0.000 HD 
HETATM   25  O   UNL     1     -11.641  15.230  64.555  1.00  0.00    -0.395 OA 
HETATM   26  O   UNL     1     -11.795  14.828  68.162  1.00  0.00    -0.326 OA 
HETATM   27  C   UNL     1     -11.098  15.071  65.878  1.00  0.00    -0.334 C  
BRANCH  17  28
HETATM   28  O   UNL     1     -10.247  12.339  68.107  1.00  0.00    -0.200 OA 
BRANCH  28  29
HETATM   29  C   UNL     1     -10.278  11.196  68.906  1.00  0.00    -0.194 C  
HETATM   30  O   UNL     1      -9.131   9.321  69.979  1.00  0.00    -0.175 OA 
HETATM   31  C   UNL     1      -9.254  10.313  69.003  1.00  0.00    -0.183 C  
HETATM   32  C   UNL     1     -10.181   9.103  70.836  1.00  0.00    -0.282 A  
HETATM   33  O   UNL     1     -11.942  12.079  70.294  1.00  0.00    -0.344 OA 
HETATM   34  H   UNL     1     -13.752  10.796  70.604  1.00  0.00     0.000 HD 
HETATM   35  C   UNL     1     -10.072   8.129  71.828  1.00  0.00    -0.267 A  
HETATM   36  C   UNL     1     -11.293  11.090  69.975  1.00  0.00    -0.277 C  
HETATM   37  C   UNL     1     -11.174   7.861  72.648  1.00  0.00    -0.398 A  
HETATM   38  C   UNL     1     -11.371   9.849  70.735  1.00  0.00    -0.430 A  
HETATM   39  O   UNL     1     -13.685  10.111  71.259  1.00  0.00    -0.201 OA 
HETATM   40  C   UNL     1     -12.396   8.496  72.449  1.00  0.00    -0.424 A  
HETATM   41  O   UNL     1     -11.111   6.970  73.680  1.00  0.00    -0.541 OA 
HETATM   42  H   UNL     1     -11.859   6.788  74.236  1.00  0.00     0.000 HD 
HETATM   43  C   UNL     1     -12.494   9.497  71.494  1.00  0.00    -0.376 A  
BRANCH  31  44
HETATM   44  C   UNL     1      -8.106  10.441  68.094  1.00  0.00    -0.111 A  
HETATM   45  O   UNL     1      -5.186  11.413  65.310  1.00  0.00    -0.495 OA 
HETATM   46  H   UNL     1      -6.429   9.859  64.019  1.00  0.00     0.000 HD 
HETATM   47  C   UNL     1      -7.066  11.331  68.429  1.00  0.00    -0.081 A  
HETATM   48  H   UNL     1      -4.504  12.035  65.533  1.00  0.00     0.000 HD 
HETATM   49  O   UNL     1      -7.104   9.632  64.647  1.00  0.00    -0.108 OA 
HETATM   50  C   UNL     1      -6.117  11.057  66.245  1.00  0.00    -0.136 A  
HETATM   51  C   UNL     1      -7.116  10.143  65.918  1.00  0.00    -0.121 A  
HETATM   52  C   UNL     1      -8.106   9.810  66.839  1.00  0.00    -0.113 A  
HETATM   53  C   UNL     1      -6.071  11.642  67.501  1.00  0.00    -0.079 A  
ENDBRANCH  31  44
ENDBRANCH  28  29
ENDBRANCH  17  28
ENDBRANCH  15  16
ENDBRANCH  14  15
ENDBRANCH   4  14
TORSDOF 6
ENDMDL
MODEL        4
REMARK 921   NORMALIZED FREE ENERGY PREDICTED BY IDOCK:   -9.11 KCAL/MOL
REMARK 922        TOTAL FREE ENERGY PREDICTED BY IDOCK:  -13.79 KCAL/MOL
REMARK 923 INTER-LIGAND FREE ENERGY PREDICTED BY IDOCK:  -12.10 KCAL/MOL
REMARK 924 INTRA-LIGAND FREE ENERGY PREDICTED BY IDOCK:   -1.69 KCAL/MOL
REMARK 927      BINDING AFFINITY PREDICTED BY RF-SCORE:    0.00 PKD
ROOT
HETATM    1  C   UNL     1      -6.309  19.923  65.205  1.00  0.00    -0.296 C  
HETATM    2  C   UNL     1      -6.856  18.953  66.258  1.00  0.00    -0.222 C  
HETATM    3  O   UNL     1      -7.518  17.945  65.494  1.00  0.00    -0.524 OA 
HETATM    4  C   UNL     1      -8.497  17.111  66.097  1.00  0.00    -0.203 C  
HETATM    5  H   UNL     1      -8.816  19.818  69.676  1.00  0.00     0.000 HD 
HETATM    6  C   UNL     1      -9.388  17.828  67.122  1.00  0.00    -0.264 C  
HETATM    7  C   UNL     1      -8.531  18.660  68.088  1.00  0.00    -0.312 C  
HETATM    8  O   UNL     1      -6.922  20.540  68.106  1.00  0.00    -0.283 OA 
HETATM    9  O   UNL     1     -10.326  18.692  66.451  1.00  0.00    -0.390 OA 
HETATM   10  H   UNL     1     -10.877  19.136  67.085  1.00  0.00     0.000 HD 
HETATM   11  H   UNL     1      -7.467  20.999  68.734  1.00  0.00     0.000 HD 
HETATM   12  O   UNL     1      -9.346  19.304  69.079  1.00  0.00    -0.365 OA 
HETATM   13  C   UNL     1      -7.739  19.698  67.277  1.00  0.00    -0.254 C  
ENDROOT
BRANCH   4  14
HETATM   14  O   UNL     1      -8.000  15.900  66.669  1.00  0.00    -0.247 OA 
BRANCH  14  15
HETATM   15  C   UNL     1      -9.038  15.045  67.180  1.00  0.00    -0.215 C  
BRANCH  15  16
HETATM   16  C   UNL     1      -9.757  14.386  65.997  1.00  0.00    -0.294 C  
HETATM   17  C   UNL     1     -10.485  12.170  66.806  1.00  0.00    -0.218 C  
HETATM   18  O   UNL     1      -9.575  12.948  65.999  1.00  0.00    -0.242 OA 
HETATM   19  H   UNL     1     -12.471  15.336  68.045  1.00  0.00     0.000 HD 
HETATM   20  C   UNL     1     -11.908  12.522  66.315  1.00  0.00    -0.390 C  
HETATM   21  H   UNL     1     -12.373  15.283  64.295  1.00  0.00     0.000 HD 
HETATM   22  O   UNL     1     -12.048  12.230  64.901  1.00  0.00    -0.396 OA 
HETATM   23  C   UNL     1     -12.222  14.011  66.538  1.00  0.00    -0.451 C  
HETATM   24  H   UNL     1     -12.923  12.447  64.600  1.00  0.00     0.000 HD 
HETATM   25  O   UNL     1     -11.483  14.972  64.407  1.00  0.00    -0.323 OA 
HETATM   26  O   UNL     1     -12.276  14.416  67.908  1.00  0.00    -0.299 OA 
HETATM   27  C   UNL     1     -11.201  14.892  65.816  1.00  0.00    -0.334 C  
BRANCH  17  28
HETATM   28  O   UNL     1     -10.220  12.348  68.206  1.00  0.00    -0.218 OA 
BRANCH  28  29
HETATM   29  C   UNL     1     -10.232  11.208  69.010  1.00  0.00    -0.176 C  
HETATM   30  O   UNL     1      -9.054   9.357  70.091  1.00  0.00    -0.194 OA 
HETATM   31  C   UNL     1      -9.193  10.343  69.111  1.00  0.00    -0.191 C  
HETATM   32  C   UNL     1     -10.100   9.124  70.948  1.00  0.00    -0.287 A  
HETATM   33  O   UNL     1     -11.911  12.067  70.393  1.00  0.00    -0.348 OA 
HETATM   34  H   UNL     1     -13.700  10.755  70.708  1.00  0.00     0.000 HD 
HETATM   35  C   UNL     1      -9.975   8.157  71.944  1.00  0.00    -0.277 A  
HETATM   36  C   UNL     1     -11.246  11.088  70.079  1.00  0.00    -0.224 C  
HETATM   37  C   UNL     1     -11.074   7.873  72.765  1.00  0.00    -0.400 A  
HETATM   38  C   UNL     1     -11.303   9.850  70.844  1.00  0.00    -0.446 A  
HETATM   39  O   UNL     1     -13.621  10.074  71.365  1.00  0.00    -0.303 OA 
HETATM   40  C   UNL     1     -12.306   8.486  72.563  1.00  0.00    -0.372 A  
HETATM   41  O   UNL     1     -10.996   6.987  73.800  1.00  0.00    -0.526 OA 
HETATM   42  H   UNL     1     -11.741   6.795  74.357  1.00  0.00     0.000 HD 
HETATM   43  C   UNL     1     -12.420   9.481  71.604  1.00  0.00    -0.391 A  
BRANCH  31  44
HETATM   44  C   UNL     1      -8.047  10.486  68.202  1.00  0.00    -0.113 A  
HETATM   45  O   UNL     1      -5.201  11.419  65.329  1.00  0.00    -0.495 OA 
HETATM   46  H   UNL     1      -6.202   9.548  64.268  1.00  0.00     0.000 HD 
HETATM   47  C   UNL     1      -7.138  11.542  68.412  1.00  0.00    -0.081 A  
HETATM   48  H   UNL     1      -4.611  12.150  65.464  1.00  0.00     0.000 HD 
HETATM   49  O   UNL     1      -6.859   9.328  64.918  1.00  0.00    -0.083 OA 
HETATM   50  C   UNL     1      -6.104  11.083  66.298  1.00  0.00    -0.136 A  
HETATM   51  C   UNL     1      -6.970  10.010  66.100  1.00  0.00    -0.107 A  
HETATM   52  C   UNL     1      -7.933   9.688  67.053  1.00  0.00    -0.109 A  
HETATM   53  C   UNL     1      -6.166  11.844  67.456  1.00  0.00    -0.102 A  
ENDBRANCH  31  44
ENDBRANCH  28  29
ENDBRANCH  17  28
ENDBRANCH  15  16
ENDBRANCH  14  15
ENDBRANCH   4  14
TORSDOF 6
ENDMDL
MODEL        5
REMARK 921   NORMALIZED FREE ENERGY PREDICTED BY IDOCK:   -8.67 KCAL/MOL
REMARK 922        TOTAL FREE ENERGY PREDICTED BY IDOCK:  -13.19 KCAL/MOL
REMARK 923 INTER-LIGAND FREE ENERGY PREDICTED BY IDOCK:  -11.82 KCAL/MOL
REMARK 924 INTRA-LIGAND FREE ENERGY PREDICTED BY IDOCK:   -1.37 KCAL/MOL
REMARK 927      BINDING AFFINITY PREDICTED BY RF-SCORE:    0.00 PKD
ROOT
HETATM    1  C   UNL     1      -9.559   6.492  67.278  1.00  0.00    -0.148 C  
HETATM    2  C   UNL     1     -10.422   7.663  67.758  1.00  0.00    -0.216 C  
HETATM    3  O   UNL     1     -10.029   8.753  66.924  1.00  0.00    -0.208 OA 
HETATM    4  C   UNL     1     -10.282  10.093  67.321  1.00  0.00    -0.222 C  
HETATM    5  H   UNL     1     -11.168   8.830  71.547  1.00  0.00     0.000 HD 
HETATM    6  C   UNL     1     -10.112  10.344  68.827  1.00  0.00    -0.187 C  
HETATM    7  C   UNL     1     -10.835   9.258  69.637  1.00  0.00    -0.212 C  
HETATM    8  O   UNL     1     -10.844   6.811  70.001  1.00  0.00    -0.234 OA 
HETATM    9  O   UNL     1      -8.715  10.350  69.178  1.00  0.00    -0.154 OA 
HETATM   10  H   UNL     1      -8.609  10.505  70.109  1.00  0.00     0.000 HD 
HETATM   11  H   UNL     1     -10.731   6.951  70.934  1.00  0.00     0.000 HD 
HETATM   12  O   UNL     1     -10.721   9.502  71.047  1.00  0.00    -0.300 OA 
HETATM   13  C   UNL     1     -10.239   7.890  69.271  1.00  0.00    -0.216 C  
ENDROOT
BRANCH   4  14
HETATM   14  O   UNL     1     -11.534  10.632  66.891  1.00  0.00    -0.241 OA 
BRANCH  14  15
HETATM   15  C   UNL     1     -11.710  12.014  67.250  1.00  0.00    -0.269 C  
BRANCH  15  16
HETATM   16  C   UNL     1     -12.372  12.745  66.075  1.00  0.00    -0.182 C  
HETATM   17  C   UNL     1     -11.478  15.045  66.128  1.00  0.00    -0.222 C  
HETATM   18  O   UNL     1     -12.582  14.148  66.373  1.00  0.00    -0.427 OA 
HETATM   19  H   UNL     1      -9.122  12.174  64.823  1.00  0.00     0.000 HD 
HETATM   20  C   UNL     1     -11.101  14.871  64.638  1.00  0.00    -0.323 C  
HETATM   21  H   UNL     1     -12.331  12.167  62.880  1.00  0.00     0.000 HD 
HETATM   22  O   UNL     1     -12.238  15.161  63.787  1.00  0.00    -0.954 OA 
HETATM   23  C   UNL     1     -10.627  13.438  64.347  1.00  0.00    -0.407 C  
HETATM   24  H   UNL     1     -12.006  15.054  62.872  1.00  0.00     0.000 HD 
HETATM   25  O   UNL     1     -12.738  12.365  63.715  1.00  0.00    -0.693 OA 
HETATM   26  O   UNL     1      -9.415  13.060  65.003  1.00  0.00     0.156 OA 
HETATM   27  C   UNL     1     -11.712  12.424  64.721  1.00  0.00    -0.368 C  
BRANCH  17  28
HETATM   28  O   UNL     1     -10.429  14.853  67.089  1.00  0.00    -0.264 OA 
BRANCH  28  29
HETATM   29  C   UNL     1      -9.826  15.995  67.618  1.00  0.00    -0.235 C  
HETATM   30  O   UNL     1      -9.201  17.372  69.540  1.00  0.00     0.208 OA 
HETATM   31  C   UNL     1      -9.984  16.409  68.899  1.00  0.00    -0.257 C  
HETATM   32  C   UNL     1      -8.283  18.076  68.802  1.00  0.00    -0.218 A  
HETATM   33  O   UNL     1      -8.143  15.992  65.993  1.00  0.00    -0.104 OA 
HETATM   34  H   UNL     1      -7.852  17.909  64.869  1.00  0.00     0.000 HD 
HETATM   35  C   UNL     1      -7.479  19.029  69.425  1.00  0.00    -0.086 A  
HETATM   36  C   UNL     1      -8.686  16.606  66.903  1.00  0.00    -0.214 C  
HETATM   37  C   UNL     1      -6.600  19.795  68.652  1.00  0.00    -0.297 A  
HETATM   38  C   UNL     1      -8.133  17.851  67.419  1.00  0.00    -0.217 A  
HETATM   39  O   UNL     1      -7.328  18.578  65.293  1.00  0.00    -0.460 OA 
HETATM   40  C   UNL     1      -6.560  19.674  67.267  1.00  0.00    -0.216 A  
HETATM   41  O   UNL     1      -5.739  20.696  69.210  1.00  0.00    -0.330 OA 
HETATM   42  H   UNL     1      -5.142  21.216  68.685  1.00  0.00     0.000 HD 
HETATM   43  C   UNL     1      -7.325  18.696  66.648  1.00  0.00    -0.229 A  
BRANCH  31  44
HETATM   44  C   UNL     1     -10.979  15.743  69.752  1.00  0.00    -0.316 A  
HETATM   45  O   UNL     1     -13.238  13.766  72.617  1.00  0.00    -0.502 OA 
HETATM   46  H   UNL     1     -12.834  11.951  71.144  1.00  0.00     0.000 HD 
HETATM   47  C   UNL     1     -11.514  16.445  70.850  1.00  0.00    -0.213 A  
HETATM   48  H   UNL     1     -13.571  14.239  73.370  1.00  0.00     0.000 HD 
HETATM   49  O   UNL     1     -12.313  12.393  70.484  1.00  0.00    -0.330 OA 
HETATM   50  C   UNL     1     -12.537  14.430  71.650  1.00  0.00    -0.353 A  
HETATM   51  C   UNL     1     -12.049  13.735  70.545  1.00  0.00    -0.345 A  
HETATM   52  C   UNL     1     -11.285  14.384  69.578  1.00  0.00    -0.294 A  
HETATM   53  C   UNL     1     -12.292  15.786  71.804  1.00  0.00    -0.523 A  
ENDBRANCH  31  44
ENDBRANCH  28  29
ENDBRANCH  17  28
ENDBRANCH  15  16
ENDBRANCH  14  15
ENDBRANCH   4  14
TORSDOF 6
ENDMDL
MODEL        6
REMARK 921   NORMALIZED FREE ENERGY PREDICTED BY IDOCK:   -8.59 KCAL/MOL
REMARK 922        TOTAL FREE ENERGY PREDICTED BY IDOCK:  -13.08 KCAL/MOL
REMARK 923 INTER-LIGAND FREE ENERGY PREDICTED BY IDOCK:  -11.79 KCAL/MOL
REMARK 924 INTRA-LIGAND FREE ENERGY PREDICTED BY IDOCK:   -1.30 KCAL/MOL
REMARK 927      BINDING AFFINITY PREDICTED BY RF-SCORE:    0.00 PKD
ROOT
HETATM    1  C   UNL     1      -9.688   7.749  73.355  1.00  0.00    -0.353 C  
HETATM    2  C   UNL     1     -10.596   7.955  72.138  1.00  0.00    -0.253 C  
HETATM    3  O   UNL     1     -10.442   9.338  71.817  1.00  0.00    -0.337 OA 
HETATM    4  C   UNL     1     -11.417  10.010  71.033  1.00  0.00    -0.383 C  
HETATM    5  H   UNL     1     -14.382   6.673  71.596  1.00  0.00     0.000 HD 
HETATM    6  C   UNL     1     -12.862   9.575  71.322  1.00  0.00    -0.333 C  
HETATM    7  C   UNL     1     -12.965   8.043  71.351  1.00  0.00    -0.252 C  
HETATM    8  O   UNL     1     -12.085   6.075  72.565  1.00  0.00    -0.511 OA 
HETATM    9  O   UNL     1     -13.301  10.107  72.587  1.00  0.00    -0.524 OA 
HETATM   10  H   UNL     1     -14.194   9.838  72.765  1.00  0.00     0.000 HD 
HETATM   11  H   UNL     1     -12.973   5.798  72.757  1.00  0.00     0.000 HD 
HETATM   12  O   UNL     1     -14.318   7.620  71.577  1.00  0.00    -0.433 OA 
HETATM   13  C   UNL     1     -12.036   7.506  72.450  1.00  0.00    -0.222 C  
ENDROOT
BRANCH   4  14
HETATM   14  O   UNL     1     -11.190   9.986  69.623  1.00  0.00    -0.244 OA 
BRANCH  14  15
HETATM   15  C   UNL     1     -10.344  11.056  69.166  1.00  0.00    -0.188 C  
BRANCH  15  16
HETATM   16  C   UNL     1      -9.438  10.522  68.049  1.00  0.00    -0.148 C  
HETATM   17  C   UNL     1      -8.511  12.517  66.928  1.00  0.00    -0.130 C  
HETATM   18  O   UNL     1      -9.433  11.406  66.901  1.00  0.00    -0.175 OA 
HETATM   19  H   UNL     1      -7.073  11.546  70.462  1.00  0.00     0.000 HD 
HETATM   20  C   UNL     1      -7.105  11.906  67.131  1.00  0.00    -0.142 C  
HETATM   21  H   UNL     1      -6.810   8.616  68.133  1.00  0.00     0.000 HD 
HETATM   22  O   UNL     1      -6.797  10.968  66.069  1.00  0.00    -0.279 OA 
HETATM   23  C   UNL     1      -7.007  11.169  68.476  1.00  0.00    -0.072 C  
HETATM   24  H   UNL     1      -5.933  10.594  66.194  1.00  0.00     0.000 HD 
HETATM   25  O   UNL     1      -7.659   8.899  67.817  1.00  0.00    -0.092 OA 
HETATM   26  O   UNL     1      -7.134  12.002  69.631  1.00  0.00     0.066 OA 
HETATM   27  C   UNL     1      -8.060  10.062  68.564  1.00  0.00    -0.103 C  
BRANCH  17  28
HETATM   28  O   UNL     1      -8.927  13.515  67.873  1.00  0.00    -0.181 OA 
BRANCH  28  29
HETATM   29  C   UNL     1      -8.776  14.851  67.501  1.00  0.00    -0.187 C  
HETATM   30  O   UNL     1      -9.654  16.876  66.446  1.00  0.00    -0.258 OA 
HETATM   31  C   UNL     1      -9.600  15.493  66.636  1.00  0.00    -0.253 C  
HETATM   32  C   UNL     1      -8.717  17.665  67.063  1.00  0.00    -0.242 A  
HETATM   33  O   UNL     1      -7.548  15.362  69.426  1.00  0.00    -0.197 OA 
HETATM   34  H   UNL     1      -5.576  16.373  69.099  1.00  0.00     0.000 HD 
HETATM   35  C   UNL     1      -8.764  19.049  66.901  1.00  0.00    -0.316 A  
HETATM   36  C   UNL     1      -7.926  15.738  68.323  1.00  0.00    -0.130 C  
HETATM   37  C   UNL     1      -7.760  19.840  67.472  1.00  0.00    -0.278 A  
HETATM   38  C   UNL     1      -7.704  17.103  67.865  1.00  0.00    -0.188 A  
HETATM   39  O   UNL     1      -5.594  17.313  68.961  1.00  0.00    -0.153 OA 
HETATM   40  C   UNL     1      -6.680  19.270  68.138  1.00  0.00    -0.276 A  
HETATM   41  O   UNL     1      -7.785  21.203  67.407  1.00  0.00    -0.532 OA 
HETATM   42  H   UNL     1      -7.104  21.740  67.795  1.00  0.00     0.000 HD 
HETATM   43  C   UNL     1      -6.654  17.899  68.341  1.00  0.00    -0.205 A  
BRANCH  31  44
HETATM   44  C   UNL     1     -10.605  14.719  65.893  1.00  0.00    -0.322 A  
HETATM   45  O   UNL     1     -13.298  12.011  64.270  1.00  0.00    -0.709 OA 
HETATM   46  H   UNL     1     -11.491  11.684  62.769  1.00  0.00     0.000 HD 
HETATM   47  C   UNL     1     -11.898  14.583  66.437  1.00  0.00    -0.361 A  
HETATM   48  H   UNL     1     -14.158  11.904  64.660  1.00  0.00     0.000 HD 
HETATM   49  O   UNL     1     -10.866  12.299  63.135  1.00  0.00    -0.377 OA 
HETATM   50  C   UNL     1     -12.432  12.939  64.776  1.00  0.00    -0.455 A  
HETATM   51  C   UNL     1     -11.171  13.097  64.205  1.00  0.00    -0.397 A  
HETATM   52  C   UNL     1     -10.255  13.998  64.741  1.00  0.00    -0.332 A  
HETATM   53  C   UNL     1     -12.813  13.688  65.879  1.00  0.00    -0.328 A  
ENDBRANCH  31  44
ENDBRANCH  28  29
ENDBRANCH  17  28
ENDBRANCH  15  16
ENDBRANCH  14  15
ENDBRANCH   4  14
TORSDOF 6
ENDMDL
MODEL        7
REMARK 921   NORMALIZED FREE ENERGY PREDICTED BY IDOCK:   -8.57 KCAL/MOL
REMARK 922        TOTAL FREE ENERGY PREDICTED BY IDOCK:  -13.05 KCAL/MOL
REMARK 923 INTER-LIGAND FREE ENERGY PREDICTED BY IDOCK:  -10.97 KCAL/MOL
REMARK 924 INTRA-LIGAND FREE ENERGY PREDICTED BY IDOCK:   -2.08 KCAL/MOL
REMARK 927      BINDING AFFINITY PREDICTED BY RF-SCORE:    0.00 PKD
ROOT
HETATM    1  C   UNL     1     -12.675  12.294  63.336  1.00  0.00    -0.461 C  
HETATM    2  C   UNL     1     -11.469  12.777  64.149  1.00  0.00    -0.393 C  
HETATM    3  O   UNL     1     -11.147  11.667  64.989  1.00  0.00    -0.299 OA 
HETATM    4  C   UNL     1     -10.375  11.855  66.167  1.00  0.00    -0.226 C  
HETATM    5  H   UNL     1     -10.974  16.312  66.029  1.00  0.00     0.000 HD 
HETATM    6  C   UNL     1     -10.681  13.160  66.917  1.00  0.00    -0.263 C  
HETATM    7  C   UNL     1     -10.712  14.345  65.940  1.00  0.00    -0.306 C  
HETATM    8  O   UNL     1     -11.914  15.162  63.939  1.00  0.00    -0.891 OA 
HETATM    9  O   UNL     1     -11.952  13.063  67.590  1.00  0.00    -0.353 OA 
HETATM   10  H   UNL     1     -12.141  13.870  68.053  1.00  0.00     0.000 HD 
HETATM   11  H   UNL     1     -12.118  15.972  64.393  1.00  0.00     0.000 HD 
HETATM   12  O   UNL     1     -10.955  15.579  66.632  1.00  0.00    -0.312 OA 
HETATM   13  C   UNL     1     -11.800  14.089  64.886  1.00  0.00    -0.393 C  
ENDROOT
BRANCH   4  14
HETATM   14  O   UNL     1      -8.962  11.728  65.998  1.00  0.00    -0.191 OA 
BRANCH  14  15
HETATM   15  C   UNL     1      -8.566  10.453  65.462  1.00  0.00    -0.169 C  
BRANCH  15  16
HETATM   16  C   UNL     1      -7.310   9.978  66.203  1.00  0.00    -0.109 C  
HETATM   17  C   UNL     1      -8.105   8.408  67.933  1.00  0.00    -0.123 C  
HETATM   18  O   UNL     1      -7.585   9.712  67.601  1.00  0.00    -0.090 OA 
HETATM   19  H   UNL     1      -8.059   7.174  64.194  1.00  0.00     0.000 HD 
HETATM   20  C   UNL     1      -7.081   7.383  67.392  1.00  0.00    -0.085 C  
HETATM   21  H   UNL     1      -4.656   8.421  65.164  1.00  0.00     0.000 HD 
HETATM   22  O   UNL     1      -5.773   7.613  67.974  1.00  0.00    -0.030 OA 
HETATM   23  C   UNL     1      -6.956   7.474  65.862  1.00  0.00    -0.061 C  
HETATM   24  H   UNL     1      -5.144   6.984  67.642  1.00  0.00     0.000 HD 
HETATM   25  O   UNL     1      -5.131   9.095  65.636  1.00  0.00    -0.032 OA 
HETATM   26  O   UNL     1      -8.137   7.118  65.140  1.00  0.00    -0.123 OA 
HETATM   27  C   UNL     1      -6.540   8.885  65.438  1.00  0.00    -0.068 C  
BRANCH  17  28
HETATM   28  O   UNL     1      -9.464   8.261  67.491  1.00  0.00    -0.144 OA 
BRANCH  28  29
HETATM   29  C   UNL     1     -10.449   8.153  68.473  1.00  0.00    -0.162 C  
HETATM   30  O   UNL     1     -11.672   6.819  70.118  1.00  0.00    -0.357 OA 
HETATM   31  C   UNL     1     -10.901   6.973  68.963  1.00  0.00    -0.182 C  
HETATM   32  C   UNL     1     -12.148   7.941  70.749  1.00  0.00    -0.084 A  
HETATM   33  O   UNL     1     -10.056  10.320  69.261  1.00  0.00    -0.203 OA 
HETATM   34  H   UNL     1     -11.849  11.656  69.413  1.00  0.00     0.000 HD 
HETATM   35  C   UNL     1     -12.905   7.810  71.912  1.00  0.00    -0.317 A  
HETATM   36  C   UNL     1     -10.785   9.336  69.292  1.00  0.00    -0.196 C  
HETATM   37  C   UNL     1     -13.450   8.955  72.507  1.00  0.00    -0.412 A  
HETATM   38  C   UNL     1     -11.882   9.229  70.246  1.00  0.00    -0.015 A  
HETATM   39  O   UNL     1     -12.390  11.560  70.188  1.00  0.00    -0.288 OA 
HETATM   40  C   UNL     1     -13.309  10.210  71.925  1.00  0.00    -0.505 A  
HETATM   41  O   UNL     1     -14.142   8.902  73.682  1.00  0.00    -1.014 OA 
HETATM   42  H   UNL     1     -14.512   9.678  74.086  1.00  0.00     0.000 HD 
HETATM   43  C   UNL     1     -12.518  10.349  70.794  1.00  0.00    -0.368 A  
BRANCH  31  44
HETATM   44  C   UNL     1     -10.481   5.719  68.320  1.00  0.00    -0.281 A  
HETATM   45  O   UNL     1      -8.651   2.499  66.448  1.00  0.00    -0.101 OA 
HETATM   46  H   UNL     1      -9.721   3.467  64.564  1.00  0.00     0.000 HD 
HETATM   47  C   UNL     1      -9.738   4.785  69.068  1.00  0.00    -0.248 A  
HETATM   48  H   UNL     1      -8.128   1.890  66.953  1.00  0.00     0.000 HD 
HETATM   49  O   UNL     1     -10.141   4.210  64.982  1.00  0.00    -0.202 OA 
HETATM   50  C   UNL     1      -9.294   3.530  67.075  1.00  0.00    -0.194 A  
HETATM   51  C   UNL     1     -10.062   4.424  66.332  1.00  0.00    -0.209 A  
HETATM   52  C   UNL     1     -10.679   5.512  66.946  1.00  0.00    -0.310 A  
HETATM   53  C   UNL     1      -9.139   3.689  68.443  1.00  0.00    -0.200 A  
ENDBRANCH  31  44
ENDBRANCH  28  29
ENDBRANCH  17  28
ENDBRANCH  15  16
ENDBRANCH  14  15
ENDBRANCH   4  14
TORSDOF 6
ENDMDL
MODEL        8
REMARK 921   NORMALIZED FREE ENERGY PREDICTED BY IDOCK:   -8.55 KCAL/MOL
REMARK 922        TOTAL FREE ENERGY PREDICTED BY IDOCK:  -13.03 KCAL/MOL
REMARK 923 INTER-LIGAND FREE ENERGY PREDICTED BY IDOCK:  -13.48 KCAL/MOL
REMARK 924 INTRA-LIGAND FREE ENERGY PREDICTED BY IDOCK:    0.45 KCAL/MOL
REMARK 927      BINDING AFFINITY PREDICTED BY RF-SCORE:    0.00 PKD
ROOT
HETATM    1  C   UNL     1      -6.571  18.924  65.479  1.00  0.00    -0.311 C  
HETATM    2  C   UNL     1      -7.631  18.327  66.409  1.00  0.00    -0.252 C  
HETATM    3  O   UNL     1      -7.925  17.053  65.834  1.00  0.00    -0.465 OA 
HETATM    4  C   UNL     1      -9.136  16.382  66.148  1.00  0.00    -0.326 C  
HETATM    5  H   UNL     1     -10.916  20.111  67.926  1.00  0.00     0.000 HD 
HETATM    6  C   UNL     1     -10.349  17.313  66.298  1.00  0.00    -0.322 C  
HETATM    7  C   UNL     1      -9.998  18.512  67.190  1.00  0.00    -0.336 C  
HETATM    8  O   UNL     1      -8.450  20.438  67.308  1.00  0.00    -0.340 OA 
HETATM    9  O   UNL     1     -10.777  17.787  65.006  1.00  0.00    -0.664 OA 
HETATM   10  H   UNL     1     -11.526  18.363  65.099  1.00  0.00     0.000 HD 
HETATM   11  H   UNL     1      -9.190  21.027  67.393  1.00  0.00     0.000 HD 
HETATM   12  O   UNL     1     -11.133  19.370  67.375  1.00  0.00    -0.445 OA 
HETATM   13  C   UNL     1      -8.833  19.281  66.548  1.00  0.00    -0.346 C  
ENDROOT
BRANCH   4  14
HETATM   14  O   UNL     1      -9.074  15.503  67.273  1.00  0.00    -0.193 OA 
BRANCH  14  15
HETATM   15  C   UNL     1     -10.026  14.426  67.206  1.00  0.00    -0.247 C  
BRANCH  15  16
HETATM   16  C   UNL     1      -9.571  13.436  66.127  1.00  0.00    -0.202 C  
HETATM   17  C   UNL     1     -10.173  11.197  66.976  1.00  0.00    -0.215 C  
HETATM   18  O   UNL     1      -9.148  12.177  66.707  1.00  0.00    -0.196 OA 
HETATM   19  H   UNL     1     -13.063  13.499  65.614  1.00  0.00     0.000 HD 
HETATM   20  C   UNL     1     -10.894  10.945  65.632  1.00  0.00    -0.042 C  
HETATM   21  H   UNL     1     -10.396  13.125  63.002  1.00  0.00     0.000 HD 
HETATM   22  O   UNL     1      -9.955  10.487  64.627  1.00  0.00    -0.308 OA 
HETATM   23  C   UNL     1     -11.575  12.223  65.116  1.00  0.00    -0.351 C  
HETATM   24  H   UNL     1     -10.398  10.332  63.801  1.00  0.00     0.000 HD 
HETATM   25  O   UNL     1      -9.792  13.180  63.732  1.00  0.00    -0.061 OA 
HETATM   26  O   UNL     1     -12.642  12.709  65.934  1.00  0.00    -0.526 OA 
HETATM   27  C   UNL     1     -10.552  13.348  64.942  1.00  0.00    -0.385 C  
BRANCH  17  28
HETATM   28  O   UNL     1     -10.993  11.595  68.086  1.00  0.00    -0.200 OA 
BRANCH  28  29
HETATM   29  C   UNL     1     -11.070  10.722  69.172  1.00  0.00    -0.249 C  
HETATM   30  O   UNL     1     -12.052  10.080  71.317  1.00  0.00    -0.338 OA 
HETATM   31  C   UNL     1     -11.720  11.007  70.327  1.00  0.00    -0.355 C  
HETATM   32  C   UNL     1     -11.574   8.798  71.211  1.00  0.00    -0.292 A  
HETATM   33  O   UNL     1     -10.655   8.848  67.834  1.00  0.00    -0.230 OA 
HETATM   34  H   UNL     1      -8.991   7.505  68.503  1.00  0.00     0.000 HD 
HETATM   35  C   UNL     1     -11.909   7.853  72.180  1.00  0.00    -0.384 A  
HETATM   36  C   UNL     1     -10.758   9.291  68.971  1.00  0.00    -0.167 C  
HETATM   37  C   UNL     1     -11.355   6.569  72.104  1.00  0.00    -0.282 A  
HETATM   38  C   UNL     1     -10.750   8.414  70.135  1.00  0.00    -0.238 A  
HETATM   39  O   UNL     1      -9.197   6.873  69.181  1.00  0.00    -0.142 OA 
HETATM   40  C   UNL     1     -10.426   6.238  71.123  1.00  0.00    -0.271 A  
HETATM   41  O   UNL     1     -11.695   5.580  72.981  1.00  0.00    -0.513 OA 
HETATM   42  H   UNL     1     -11.320   4.709  72.930  1.00  0.00     0.000 HD 
HETATM   43  C   UNL     1     -10.126   7.161  70.133  1.00  0.00    -0.188 A  
BRANCH  31  44
HETATM   44  C   UNL     1     -12.227  12.369  70.549  1.00  0.00    -0.382 A  
HETATM   45  O   UNL     1     -13.033  16.322  71.522  1.00  0.00    -0.400 OA 
HETATM   46  H   UNL     1     -14.245  15.256  73.260  1.00  0.00     0.000 HD 
HETATM   47  C   UNL     1     -11.741  13.417  69.743  1.00  0.00    -0.355 A  
HETATM   48  H   UNL     1     -12.678  17.024  70.990  1.00  0.00     0.000 HD 
HETATM   49  O   UNL     1     -14.064  14.348  73.049  1.00  0.00    -0.391 OA 
HETATM   50  C   UNL     1     -12.807  15.020  71.170  1.00  0.00    -0.373 A  
HETATM   51  C   UNL     1     -13.328  13.990  71.950  1.00  0.00    -0.406 A  
HETATM   52  C   UNL     1     -13.062  12.659  71.639  1.00  0.00    -0.421 A  
HETATM   53  C   UNL     1     -12.029  14.747  70.056  1.00  0.00    -0.369 A  
ENDBRANCH  31  44
ENDBRANCH  28  29
ENDBRANCH  17  28
ENDBRANCH  15  16
ENDBRANCH  14  15
ENDBRANCH   4  14
TORSDOF 6
ENDMDL
MODEL        9
REMARK 921   NORMALIZED FREE ENERGY PREDICTED BY IDOCK:   -8.47 KCAL/MOL
REMARK 922        TOTAL FREE ENERGY PREDICTED BY IDOCK:  -12.93 KCAL/MOL
REMARK 923 INTER-LIGAND FREE ENERGY PREDICTED BY IDOCK:  -12.70 KCAL/MOL
REMARK 924 INTRA-LIGAND FREE ENERGY PREDICTED BY IDOCK:   -0.23 KCAL/MOL
REMARK 927      BINDING AFFINITY PREDICTED BY RF-SCORE:    0.00 PKD
ROOT
HETATM    1  C   UNL     1      -9.553  20.060  66.773  1.00  0.00    -0.543 C  
HETATM    2  C   UNL     1      -9.208  18.576  66.611  1.00  0.00    -0.306 C  
HETATM    3  O   UNL     1      -9.820  17.950  67.739  1.00  0.00    -0.280 OA 
HETATM    4  C   UNL     1      -9.386  16.670  68.176  1.00  0.00    -0.224 C  
HETATM    5  H   UNL     1      -5.644  16.925  65.692  1.00  0.00     0.000 HD 
HETATM    6  C   UNL     1      -7.870  16.449  68.063  1.00  0.00    -0.155 C  
HETATM    7  C   UNL     1      -7.365  16.891  66.682  1.00  0.00    -0.263 C  
HETATM    8  O   UNL     1      -7.225  18.890  65.231  1.00  0.00    -0.471 OA 
HETATM    9  O   UNL     1      -7.179  17.193  69.085  1.00  0.00    -0.246 OA 
HETATM   10  H   UNL     1      -6.242  17.056  69.015  1.00  0.00     0.000 HD 
HETATM   11  H   UNL     1      -6.285  18.770  65.158  1.00  0.00     0.000 HD 
HETATM   12  O   UNL     1      -5.956  16.651  66.546  1.00  0.00    -0.313 OA 
HETATM   13  C   UNL     1      -7.684  18.382  66.494  1.00  0.00    -0.252 C  
ENDROOT
BRANCH   4  14
HETATM   14  O   UNL     1     -10.070  15.560  67.591  1.00  0.00    -0.239 OA 
BRANCH  14  15
HETATM   15  C   UNL     1      -9.505  14.288  67.956  1.00  0.00    -0.204 C  
BRANCH  15  16
HETATM   16  C   UNL     1      -9.414  13.413  66.700  1.00  0.00    -0.260 C  
HETATM   17  C   UNL     1     -10.544  11.295  67.277  1.00  0.00    -0.233 C  
HETATM   18  O   UNL     1      -9.311  12.007  67.039  1.00  0.00    -0.182 OA 
HETATM   19  H   UNL     1     -12.783  14.462  66.598  1.00  0.00     0.000 HD 
HETATM   20  C   UNL     1     -11.398  11.470  65.999  1.00  0.00    -0.116 C  
HETATM   21  H   UNL     1     -10.507  13.863  63.676  1.00  0.00     0.000 HD 
HETATM   22  O   UNL     1     -10.691  10.964  64.839  1.00  0.00    -0.276 OA 
HETATM   23  C   UNL     1     -11.738  12.949  65.755  1.00  0.00    -0.390 C  
HETATM   24  H   UNL     1     -11.216  11.071  64.055  1.00  0.00     0.000 HD 
HETATM   25  O   UNL     1      -9.862  13.635  64.334  1.00  0.00    -0.165 OA 
HETATM   26  O   UNL     1     -12.572  13.548  66.750  1.00  0.00    -0.237 OA 
HETATM   27  C   UNL     1     -10.461  13.784  65.633  1.00  0.00    -0.305 C  
BRANCH  17  28
HETATM   28  O   UNL     1     -11.144  11.696  68.518  1.00  0.00    -0.201 OA 
BRANCH  28  29
HETATM   29  C   UNL     1     -11.214  10.742  69.533  1.00  0.00    -0.281 C  
HETATM   30  O   UNL     1     -12.182   9.937  71.631  1.00  0.00    -0.382 OA 
HETATM   31  C   UNL     1     -11.855  10.938  70.712  1.00  0.00    -0.319 C  
HETATM   32  C   UNL     1     -11.706   8.667  71.423  1.00  0.00    -0.297 A  
HETATM   33  O   UNL     1     -10.814   8.976  68.052  1.00  0.00    -0.163 OA 
HETATM   34  H   UNL     1      -9.147   7.584  68.603  1.00  0.00     0.000 HD 
HETATM   35  C   UNL     1     -12.035   7.651  72.318  1.00  0.00    -0.329 A  
HETATM   36  C   UNL     1     -10.906   9.330  69.221  1.00  0.00    -0.152 C  
HETATM   37  C   UNL     1     -11.485   6.376  72.140  1.00  0.00    -0.301 A  
HETATM   38  C   UNL     1     -10.891   8.366  70.314  1.00  0.00    -0.244 A  
HETATM   39  O   UNL     1      -9.349   6.901  69.232  1.00  0.00    -0.145 OA 
HETATM   40  C   UNL     1     -10.563   6.120  71.130  1.00  0.00    -0.300 A  
HETATM   41  O   UNL     1     -11.819   5.323  72.941  1.00  0.00    -0.446 OA 
HETATM   42  H   UNL     1     -11.446   4.458  72.820  1.00  0.00     0.000 HD 
HETATM   43  C   UNL     1     -10.270   7.116  70.210  1.00  0.00    -0.198 A  
BRANCH  31  44
HETATM   44  C   UNL     1     -12.358  12.279  71.043  1.00  0.00    -0.320 A  
HETATM   45  O   UNL     1     -14.341  15.887  71.560  1.00  0.00    -0.338 OA 
HETATM   46  H   UNL     1     -12.816  16.540  69.865  1.00  0.00     0.000 HD 
HETATM   47  C   UNL     1     -13.364  12.408  72.020  1.00  0.00    -0.511 A  
HETATM   48  H   UNL     1     -15.038  15.959  72.201  1.00  0.00     0.000 HD 
HETATM   49  O   UNL     1     -12.357  15.719  69.736  1.00  0.00    -0.319 OA 
HETATM   50  C   UNL     1     -13.656  14.712  71.427  1.00  0.00    -0.404 A  
HETATM   51  C   UNL     1     -12.633  14.607  70.487  1.00  0.00    -0.350 A  
HETATM   52  C   UNL     1     -11.961  13.401  70.299  1.00  0.00    -0.378 A  
HETATM   53  C   UNL     1     -14.018  13.627  72.211  1.00  0.00    -0.661 A  
ENDBRANCH  31  44
ENDBRANCH  28  29
ENDBRANCH  17  28
ENDBRANCH  15  16
ENDBRANCH  14  15
ENDBRANCH   4  14
TORSDOF 6
ENDMDL
MODEL       10
REMARK 921   NORMALIZED FREE ENERGY PREDICTED BY IDOCK:   -8.35 KCAL/MOL
REMARK 922        TOTAL FREE ENERGY PREDICTED BY IDOCK:  -12.75 KCAL/MOL
REMARK 923 INTER-LIGAND FREE ENERGY PREDICTED BY IDOCK:  -12.60 KCAL/MOL
REMARK 924 INTRA-LIGAND FREE ENERGY PREDICTED BY IDOCK:   -0.15 KCAL/MOL
REMARK 927      BINDING AFFINITY PREDICTED BY RF-SCORE:    0.00 PKD
ROOT
HETATM    1  C   UNL     1     -10.244  20.074  69.434  1.00  0.00    -0.102 C  
HETATM    2  C   UNL     1     -10.067  19.172  68.209  1.00  0.00    -0.416 C  
HETATM    3  O   UNL     1      -9.946  17.859  68.756  1.00  0.00    -0.359 OA 
HETATM    4  C   UNL     1      -9.357  16.813  67.997  1.00  0.00    -0.229 C  
HETATM    5  H   UNL     1      -7.659  19.728  65.021  1.00  0.00     0.000 HD 
HETATM    6  C   UNL     1      -8.170  17.259  67.130  1.00  0.00    -0.204 C  
HETATM    7  C   UNL     1      -8.524  18.534  66.350  1.00  0.00    -0.258 C  
HETATM    8  O   UNL     1      -9.201  20.886  66.710  1.00  0.00    -0.616 OA 
HETATM    9  O   UNL     1      -7.015  17.508  67.954  1.00  0.00    -0.175 OA 
HETATM   10  H   UNL     1      -6.281  17.784  67.418  1.00  0.00     0.000 HD 
HETATM   11  H   UNL     1      -8.467  21.177  66.182  1.00  0.00     0.000 HD 
HETATM   12  O   UNL     1      -7.440  18.939  65.502  1.00  0.00    -0.484 OA 
HETATM   13  C   UNL     1      -8.876  19.643  67.353  1.00  0.00    -0.316 C  
ENDROOT
BRANCH   4  14
HETATM   14  O   UNL     1     -10.265  16.050  67.199  1.00  0.00    -0.266 OA 
BRANCH  14  15
HETATM   15  C   UNL     1      -9.625  14.988  66.469  1.00  0.00    -0.277 C  
BRANCH  15  16
HETATM   16  C   UNL     1     -10.247  14.911  65.069  1.00  0.00    -0.330 C  
HETATM   17  C   UNL     1     -10.985  12.572  64.793  1.00  0.00    -0.303 C  
HETATM   18  O   UNL     1     -10.037  13.610  64.466  1.00  0.00    -0.349 OA 
HETATM   19  H   UNL     1     -13.115  14.921  67.127  1.00  0.00     0.000 HD 
HETATM   20  C   UNL     1     -12.378  13.119  64.400  1.00  0.00    -0.360 C  
HETATM   21  H   UNL     1     -12.755  16.485  63.736  1.00  0.00     0.000 HD 
HETATM   22  O   UNL     1     -12.413  13.465  62.993  1.00  0.00    -0.846 OA 
HETATM   23  C   UNL     1     -12.736  14.370  65.219  1.00  0.00    -0.267 C  
HETATM   24  H   UNL     1     -13.268  13.800  62.752  1.00  0.00     0.000 HD 
HETATM   25  O   UNL     1     -11.869  16.145  63.766  1.00  0.00    -0.885 OA 
HETATM   26  O   UNL     1     -12.893  14.147  66.622  1.00  0.00    -0.091 OA 
HETATM   27  C   UNL     1     -11.684  15.464  65.020  1.00  0.00    -0.102 C  
BRANCH  17  28
HETATM   28  O   UNL     1     -10.822  12.127  66.148  1.00  0.00    -0.262 OA 
BRANCH  28  29
HETATM   29  C   UNL     1     -10.202  10.893  66.347  1.00  0.00    -0.238 C  
HETATM   30  O   UNL     1      -9.907   8.850  67.659  1.00  0.00    -0.164 OA 
HETATM   31  C   UNL     1     -10.273  10.189  67.504  1.00  0.00    -0.211 C  
HETATM   32  C   UNL     1      -9.290   8.208  66.615  1.00  0.00    -0.197 A  
HETATM   33  O   UNL     1     -10.102  10.449  64.053  1.00  0.00    -0.307 OA 
HETATM   34  H   UNL     1      -8.089   9.895  63.241  1.00  0.00     0.000 HD 
HETATM   35  C   UNL     1      -8.932   6.867  66.744  1.00  0.00    -0.141 A  
HETATM   36  C   UNL     1      -9.742  10.118  65.176  1.00  0.00    -0.304 C  
HETATM   37  C   UNL     1      -8.235   6.241  65.703  1.00  0.00    -0.143 A  
HETATM   38  C   UNL     1      -9.012   8.879  65.408  1.00  0.00    -0.232 A  
HETATM   39  O   UNL     1      -7.819   8.990  63.344  1.00  0.00    -0.125 OA 
HETATM   40  C   UNL     1      -7.833   6.947  64.574  1.00  0.00    -0.115 A  
HETATM   41  O   UNL     1      -7.916   4.914  65.738  1.00  0.00    -0.104 OA 
HETATM   42  H   UNL     1      -7.444   4.490  65.032  1.00  0.00     0.000 HD 
HETATM   43  C   UNL     1      -8.227   8.268  64.423  1.00  0.00    -0.127 A  
BRANCH  31  44
HETATM   44  C   UNL     1     -10.876  10.814  68.690  1.00  0.00    -0.260 A  
HETATM   45  O   UNL     1     -13.210  12.405  71.730  1.00  0.00    -0.440 OA 
HETATM   46  H   UNL     1     -12.744  14.401  70.535  1.00  0.00     0.000 HD 
HETATM   47  C   UNL     1     -11.371   9.988  69.719  1.00  0.00    -0.281 A  
HETATM   48  H   UNL     1     -13.564  11.838  72.405  1.00  0.00     0.000 HD 
HETATM   49  O   UNL     1     -12.211  14.047  69.833  1.00  0.00    -0.317 OA 
HETATM   50  C   UNL     1     -12.401  11.887  70.758  1.00  0.00    -0.320 A  
HETATM   51  C   UNL     1     -11.881  12.719  69.769  1.00  0.00    -0.310 A  
HETATM   52  C   UNL     1     -11.100  12.199  68.740  1.00  0.00    -0.297 A  
HETATM   53  C   UNL     1     -12.138  10.525  70.754  1.00  0.00    -0.470 A  
ENDBRANCH  31  44
ENDBRANCH  28  29
ENDBRANCH  17  28
ENDBRANCH  15  16
ENDBRANCH  14  15
ENDBRANCH   4  14
TORSDOF 6
ENDMDL
MODEL       11
REMARK 921   NORMALIZED FREE ENERGY PREDICTED BY IDOCK:   -8.31 KCAL/MOL
REMARK 922        TOTAL FREE ENERGY PREDICTED BY IDOCK:  -12.70 KCAL/MOL
REMARK 923 INTER-LIGAND FREE ENERGY PREDICTED BY IDOCK:  -11.98 KCAL/MOL
REMARK 924 INTRA-LIGAND FREE ENERGY PREDICTED BY IDOCK:   -0.72 KCAL/MOL
REMARK 927      BINDING AFFINITY PREDICTED BY RF-SCORE:    0.00 PKD
ROOT
HETATM    1  C   UNL     1     -13.208   9.090  72.223  1.00  0.00    -0.519 C  
HETATM    2  C   UNL     1     -12.175   9.951  71.490  1.00  0.00    -0.416 C  
HETATM    3  O   UNL     1     -12.874  10.436  70.343  1.00  0.00    -0.314 OA 
HETATM    4  C   UNL     1     -12.161  10.914  69.212  1.00  0.00    -0.261 C  
HETATM    5  H   UNL     1      -8.321   9.083  70.675  1.00  0.00     0.000 HD 
HETATM    6  C   UNL     1     -10.882  10.123  68.897  1.00  0.00    -0.223 C  
HETATM    7  C   UNL     1     -10.052   9.914  70.172  1.00  0.00    -0.255 C  
HETATM    8  O   UNL     1     -10.194   8.876  72.414  1.00  0.00    -0.251 OA 
HETATM    9  O   UNL     1     -11.215   8.842  68.328  1.00  0.00    -0.418 OA 
HETATM   10  H   UNL     1     -10.424   8.353  68.133  1.00  0.00     0.000 HD 
HETATM   11  H   UNL     1      -9.408   8.375  72.230  1.00  0.00     0.000 HD 
HETATM   12  O   UNL     1      -8.833   9.213  69.887  1.00  0.00    -0.143 OA 
HETATM   13  C   UNL     1     -10.901   9.138  71.191  1.00  0.00    -0.311 C  
ENDROOT
BRANCH   4  14
HETATM   14  O   UNL     1     -11.860  12.311  69.224  1.00  0.00    -0.302 OA 
BRANCH  14  15
HETATM   15  C   UNL     1     -10.995  12.715  68.148  1.00  0.00    -0.236 C  
BRANCH  15  16
HETATM   16  C   UNL     1     -11.854  13.306  67.023  1.00  0.00    -0.390 C  
HETATM   17  C   UNL     1     -10.462  15.047  65.962  1.00  0.00    -0.315 C  
HETATM   18  O   UNL     1     -11.572  14.713  66.822  1.00  0.00    -0.365 OA 
HETATM   19  H   UNL     1      -9.600  11.278  65.215  1.00  0.00     0.000 HD 
HETATM   20  C   UNL     1     -10.749  14.366  64.603  1.00  0.00    -0.336 C  
HETATM   21  H   UNL     1     -13.202  11.944  64.401  1.00  0.00     0.000 HD 
HETATM   22  O   UNL     1     -12.015  14.820  64.061  1.00  0.00    -0.753 OA 
HETATM   23  C   UNL     1     -10.802  12.836  64.746  1.00  0.00    -0.308 C  
HETATM   24  H   UNL     1     -12.190  14.402  63.226  1.00  0.00     0.000 HD 
HETATM   25  O   UNL     1     -13.190  12.487  65.180  1.00  0.00    -0.573 OA 
HETATM   26  O   UNL     1      -9.568  12.224  65.127  1.00  0.00    -0.143 OA 
HETATM   27  C   UNL     1     -11.874  12.425  65.759  1.00  0.00    -0.406 C  
BRANCH  17  28
HETATM   28  O   UNL     1      -9.207  14.739  66.589  1.00  0.00    -0.247 OA 
BRANCH  28  29
HETATM   29  C   UNL     1      -8.522  15.790  67.199  1.00  0.00    -0.208 C  
HETATM   30  O   UNL     1      -6.543  16.652  68.349  1.00  0.00    -0.134 OA 
HETATM   31  C   UNL     1      -7.406  15.628  67.952  1.00  0.00    -0.137 C  
HETATM   32  C   UNL     1      -6.899  17.953  68.095  1.00  0.00    -0.209 A  
HETATM   33  O   UNL     1      -9.391  17.369  65.708  1.00  0.00    -0.518 OA 
HETATM   34  H   UNL     1     -10.373  19.160  66.628  1.00  0.00     0.000 HD 
HETATM   35  C   UNL     1      -6.044  18.989  68.468  1.00  0.00    -0.232 A  
HETATM   36  C   UNL     1      -8.769  17.174  66.745  1.00  0.00    -0.244 C  
HETATM   37  C   UNL     1      -6.449  20.315  68.273  1.00  0.00    -0.305 A  
HETATM   38  C   UNL     1      -8.117  18.264  67.458  1.00  0.00    -0.241 A  
HETATM   39  O   UNL     1      -9.801  19.864  66.911  1.00  0.00    -0.358 OA 
HETATM   40  C   UNL     1      -7.713  20.621  67.781  1.00  0.00    -0.183 A  
HETATM   41  O   UNL     1      -5.632  21.372  68.554  1.00  0.00    -0.372 OA 
HETATM   42  H   UNL     1      -5.907  22.271  68.422  1.00  0.00     0.000 HD 
HETATM   43  C   UNL     1      -8.548  19.593  67.366  1.00  0.00    -0.306 A  
BRANCH  31  44
HETATM   44  C   UNL     1      -6.974  14.270  68.314  1.00  0.00    -0.108 A  
HETATM   45  O   UNL     1      -6.432  10.352  69.569  1.00  0.00    -0.050 OA 
HETATM   46  H   UNL     1      -5.523  11.475  71.450  1.00  0.00     0.000 HD 
HETATM   47  C   UNL     1      -7.331  13.195  67.476  1.00  0.00    -0.153 A  
HETATM   48  H   UNL     1      -6.702   9.633  69.011  1.00  0.00     0.000 HD 
HETATM   49  O   UNL     1      -5.645  12.375  71.174  1.00  0.00    -0.334 OA 
HETATM   50  C   UNL     1      -6.565  11.641  69.132  1.00  0.00    -0.101 A  
HETATM   51  C   UNL     1      -6.169  12.696  69.950  1.00  0.00    -0.088 A  
HETATM   52  C   UNL     1      -6.349  14.016  69.545  1.00  0.00    -0.121 A  
HETATM   53  C   UNL     1      -7.130  11.876  67.888  1.00  0.00    -0.093 A  
ENDBRANCH  31  44
ENDBRANCH  28  29
ENDBRANCH  17  28
ENDBRANCH  15  16
ENDBRANCH  14  15
ENDBRANCH   4  14
TORSDOF 6
ENDMDL
MODEL       12
REMARK 921   NORMALIZED FREE ENERGY PREDICTED BY IDOCK:   -8.28 KCAL/MOL
REMARK 922        TOTAL FREE ENERGY PREDICTED BY IDOCK:  -12.66 KCAL/MOL
REMARK 923 INTER-LIGAND FREE ENERGY PREDICTED BY IDOCK:  -11.90 KCAL/MOL
REMARK 924 INTRA-LIGAND FREE ENERGY PREDICTED BY IDOCK:   -0.76 KCAL/MOL
REMARK 927      BINDING AFFINITY PREDICTED BY RF-SCORE:    0.00 PKD
ROOT
HETATM    1  C   UNL     1     -13.831   7.919  72.047  1.00  0.00    -0.329 C  
HETATM    2  C   UNL     1     -12.325   7.836  71.780  1.00  0.00    -0.317 C  
HETATM    3  O   UNL     1     -12.124   8.681  70.646  1.00  0.00    -0.144 OA 
HETATM    4  C   UNL     1     -10.960   8.545  69.843  1.00  0.00    -0.165 C  
HETATM    5  H   UNL     1      -9.980   4.555  71.676  1.00  0.00     0.000 HD 
HETATM    6  C   UNL     1     -10.496   7.093  69.652  1.00  0.00    -0.229 C  
HETATM    7  C   UNL     1     -10.469   6.357  70.999  1.00  0.00    -0.223 C  
HETATM    8  O   UNL     1     -11.958   5.682  72.856  1.00  0.00    -0.541 OA 
HETATM    9  O   UNL     1     -11.379   6.402  68.747  1.00  0.00    -0.535 OA 
HETATM   10  H   UNL     1     -11.092   5.504  68.629  1.00  0.00     0.000 HD 
HETATM   11  H   UNL     1     -11.686   4.779  72.744  1.00  0.00     0.000 HD 
HETATM   12  O   UNL     1      -9.996   5.011  70.843  1.00  0.00    -0.190 OA 
HETATM   13  C   UNL     1     -11.884   6.371  71.598  1.00  0.00    -0.306 C  
ENDROOT
BRANCH   4  14
HETATM   14  O   UNL     1      -9.847   9.349  70.239  1.00  0.00    -0.209 OA 
BRANCH  14  15
HETATM   15  C   UNL     1      -9.805  10.626  69.579  1.00  0.00    -0.084 C  
BRANCH  15  16
HETATM   16  C   UNL     1     -10.166  10.428  68.102  1.00  0.00    -0.161 C  
HETATM   17  C   UNL     1     -10.542  12.692  67.194  1.00  0.00    -0.236 C  
HETATM   18  O   UNL     1     -11.098  11.438  67.642  1.00  0.00    -0.230 OA 
HETATM   19  H   UNL     1      -6.832  11.565  67.879  1.00  0.00     0.000 HD 
HETATM   20  C   UNL     1      -9.541  12.344  66.067  1.00  0.00    -0.209 C  
HETATM   21  H   UNL     1      -8.528   9.070  65.648  1.00  0.00     0.000 HD 
HETATM   22  O   UNL     1     -10.207  11.629  64.996  1.00  0.00    -0.252 OA 
HETATM   23  C   UNL     1      -8.391  11.470  66.594  1.00  0.00    -0.167 C  
HETATM   24  H   UNL     1      -9.592  11.415  64.304  1.00  0.00     0.000 HD 
HETATM   25  O   UNL     1      -9.288   9.223  66.197  1.00  0.00    -0.176 OA 
HETATM   26  O   UNL     1      -7.543  12.105  67.554  1.00  0.00    -0.130 OA 
HETATM   27  C   UNL     1      -8.933  10.179  67.212  1.00  0.00    -0.135 C  
BRANCH  17  28
HETATM   28  O   UNL     1     -10.034  13.459  68.297  1.00  0.00    -0.231 OA 
BRANCH  28  29
HETATM   29  C   UNL     1     -10.162  14.847  68.224  1.00  0.00    -0.225 C  
HETATM   30  O   UNL     1     -10.986  16.956  69.149  1.00  0.00    -0.277 OA 
HETATM   31  C   UNL     1     -11.016  15.568  68.992  1.00  0.00    -0.256 C  
HETATM   32  C   UNL     1     -10.130  17.691  68.369  1.00  0.00    -0.368 A  
HETATM   33  O   UNL     1      -8.034  15.105  67.288  1.00  0.00    -0.175 OA 
HETATM   34  H   UNL     1      -7.926  16.292  65.392  1.00  0.00     0.000 HD 
HETATM   35  C   UNL     1     -10.072  19.076  68.522  1.00  0.00    -0.467 A  
HETATM   36  C   UNL     1      -9.103  15.637  67.563  1.00  0.00    -0.193 C  
HETATM   37  C   UNL     1      -9.252  19.826  67.670  1.00  0.00    -0.338 A  
HETATM   38  C   UNL     1      -9.300  17.072  67.413  1.00  0.00    -0.239 A  
HETATM   39  O   UNL     1      -7.913  17.238  65.479  1.00  0.00    -0.274 OA 
HETATM   40  C   UNL     1      -8.548  19.227  66.631  1.00  0.00    -0.339 A  
HETATM   41  O   UNL     1      -9.100  21.175  67.812  1.00  0.00    -0.062 OA 
HETATM   42  H   UNL     1      -8.543  21.683  67.234  1.00  0.00     0.000 HD 
HETATM   43  C   UNL     1      -8.567  17.846  66.505  1.00  0.00    -0.255 A  
BRANCH  31  44
HETATM   44  C   UNL     1     -12.001  14.865  69.827  1.00  0.00    -0.366 A  
HETATM   45  O   UNL     1     -14.358  13.075  72.735  1.00  0.00    -0.649 OA 
HETATM   46  H   UNL     1     -13.164  11.163  71.995  1.00  0.00     0.000 HD 
HETATM   47  C   UNL     1     -12.951  15.621  70.542  1.00  0.00    -0.260 A  
HETATM   48  H   UNL     1     -14.976  13.596  73.234  1.00  0.00     0.000 HD 
HETATM   49  O   UNL     1     -12.618  11.564  71.329  1.00  0.00    -0.383 OA 
HETATM   50  C   UNL     1     -13.619  13.657  71.744  1.00  0.00    -0.363 A  
HETATM   51  C   UNL     1     -12.713  12.893  71.012  1.00  0.00    -0.251 A  
HETATM   52  C   UNL     1     -11.912  13.480  70.036  1.00  0.00    -0.410 A  
HETATM   53  C   UNL     1     -13.760  15.016  71.506  1.00  0.00    -0.553 A  
ENDBRANCH  31  44
ENDBRANCH  28  29
ENDBRANCH  17  28
ENDBRANCH  15  16
ENDBRANCH  14  15
ENDBRANCH   4  14
TORSDOF 6
ENDMDL
MODEL       13
REMARK 921   NORMALIZED FREE ENERGY PREDICTED BY IDOCK:   -8.25 KCAL/MOL
REMARK 922        TOTAL FREE ENERGY PREDICTED BY IDOCK:  -12.62 KCAL/MOL
REMARK 923 INTER-LIGAND FREE ENERGY PREDICTED BY IDOCK:  -10.84 KCAL/MOL
REMARK 924 INTRA-LIGAND FREE ENERGY PREDICTED BY IDOCK:   -1.78 KCAL/MOL
REMARK 927      BINDING AFFINITY PREDICTED BY RF-SCORE:    0.00 PKD
ROOT
HETATM    1  C   UNL     1     -13.241   9.389  71.822  1.00  0.00    -0.487 C  
HETATM    2  C   UNL     1     -11.981   9.958  71.164  1.00  0.00    -0.384 C  
HETATM    3  O   UNL     1     -12.450  10.519  69.937  1.00  0.00    -0.260 OA 
HETATM    4  C   UNL     1     -11.550  10.763  68.865  1.00  0.00    -0.291 C  
HETATM    5  H   UNL     1      -8.365   8.215  70.763  1.00  0.00     0.000 HD 
HETATM    6  C   UNL     1     -10.460   9.692  68.705  1.00  0.00    -0.215 C  
HETATM    7  C   UNL     1      -9.814   9.378  70.063  1.00  0.00    -0.221 C  
HETATM    8  O   UNL     1     -10.381   8.526  72.315  1.00  0.00    -0.311 OA 
HETATM    9  O   UNL     1     -11.022   8.486  68.153  1.00  0.00    -0.462 OA 
HETATM   10  H   UNL     1     -10.348   7.824  68.054  1.00  0.00     0.000 HD 
HETATM   11  H   UNL     1      -9.716   7.854  72.227  1.00  0.00     0.000 HD 
HETATM   12  O   UNL     1      -8.764   8.410  69.924  1.00  0.00    -0.132 OA 
HETATM   13  C   UNL     1     -10.902   8.867  71.021  1.00  0.00    -0.259 C  
ENDROOT
BRANCH   4  14
HETATM   14  O   UNL     1     -10.946  12.057  68.856  1.00  0.00    -0.221 OA 
BRANCH  14  15
HETATM   15  C   UNL     1     -11.875  13.120  69.132  1.00  0.00    -0.314 C  
BRANCH  15  16
HETATM   16  C   UNL     1     -11.671  13.587  70.579  1.00  0.00    -0.066 C  
HETATM   17  C   UNL     1     -10.827  15.901  70.423  1.00  0.00    -0.313 C  
HETATM   18  O   UNL     1     -10.558  14.508  70.687  1.00  0.00     0.290 OA 
HETATM   19  H   UNL     1     -14.645  15.270  69.696  1.00  0.00     0.000 HD 
HETATM   20  C   UNL     1     -11.955  16.316  71.397  1.00  0.00    -0.275 C  
HETATM   21  H   UNL     1     -13.744  13.877  73.062  1.00  0.00     0.000 HD 
HETATM   22  O   UNL     1     -11.550  16.091  72.771  1.00  0.00    -0.402 OA 
HETATM   23  C   UNL     1     -13.242  15.520  71.131  1.00  0.00    -0.507 C  
HETATM   24  H   UNL     1     -12.243  16.346  73.369  1.00  0.00     0.000 HD 
HETATM   25  O   UNL     1     -12.935  13.612  72.641  1.00  0.00    -0.378 OA 
HETATM   26  O   UNL     1     -13.849  15.762  69.860  1.00  0.00     0.756 OA 
HETATM   27  C   UNL     1     -12.984  14.016  71.261  1.00  0.00    -0.347 C  
BRANCH  17  28
HETATM   28  O   UNL     1     -11.063  16.129  69.025  1.00  0.00    -0.294 OA 
BRANCH  28  29
HETATM   29  C   UNL     1     -10.025  16.694  68.284  1.00  0.00    -0.261 C  
HETATM   30  O   UNL     1      -8.775  16.903  66.191  1.00  0.00    -0.389 OA 
HETATM   31  C   UNL     1      -9.609  16.222  67.083  1.00  0.00    -0.233 C  
HETATM   32  C   UNL     1      -8.200  18.081  66.593  1.00  0.00    -0.261 A  
HETATM   33  O   UNL     1     -10.246  18.765  69.349  1.00  0.00    -0.155 OA 
HETATM   34  H   UNL     1      -8.376  19.625  70.235  1.00  0.00     0.000 HD 
HETATM   35  C   UNL     1      -7.378  18.784  65.712  1.00  0.00    -0.199 A  
HETATM   36  C   UNL     1      -9.573  18.065  68.603  1.00  0.00    -0.328 C  
HETATM   37  C   UNL     1      -6.735  19.946  66.156  1.00  0.00    -0.228 A  
HETATM   38  C   UNL     1      -8.425  18.601  67.883  1.00  0.00    -0.297 A  
HETATM   39  O   UNL     1      -7.793  20.085  69.642  1.00  0.00     0.074 OA 
HETATM   40  C   UNL     1      -6.843  20.375  67.474  1.00  0.00    -0.327 A  
HETATM   41  O   UNL     1      -5.973  20.715  65.324  1.00  0.00    -0.212 OA 
HETATM   42  H   UNL     1      -5.536  21.504  65.625  1.00  0.00     0.000 HD 
HETATM   43  C   UNL     1      -7.694  19.705  68.339  1.00  0.00    -0.331 A  
BRANCH  31  44
HETATM   44  C   UNL     1     -10.137  14.941  66.592  1.00  0.00    -0.264 A  
HETATM   45  O   UNL     1     -11.212  11.447  64.629  1.00  0.00    -0.258 OA 
HETATM   46  H   UNL     1     -13.075  12.792  64.040  1.00  0.00     0.000 HD 
HETATM   47  C   UNL     1      -9.332  13.790  66.690  1.00  0.00    -0.277 A  
HETATM   48  H   UNL     1     -10.650  10.683  64.676  1.00  0.00     0.000 HD 
HETATM   49  O   UNL     1     -12.837  13.598  64.483  1.00  0.00    -0.645 OA 
HETATM   50  C   UNL     1     -10.881  12.580  65.317  1.00  0.00    -0.286 A  
HETATM   51  C   UNL     1     -11.706  13.701  65.249  1.00  0.00    -0.334 A  
HETATM   52  C   UNL     1     -11.356  14.882  65.898  1.00  0.00    -0.306 A  
HETATM   53  C   UNL     1      -9.703  12.606  66.048  1.00  0.00    -0.232 A  
ENDBRANCH  31  44
ENDBRANCH  28  29
ENDBRANCH  17  28
ENDBRANCH  15  16
ENDBRANCH  14  15
ENDBRANCH   4  14
TORSDOF 6
ENDMDL
MODEL       14
REMARK 921   NORMALIZED FREE ENERGY PREDICTED BY IDOCK:   -8.16 KCAL/MOL
REMARK 922        TOTAL FREE ENERGY PREDICTED BY IDOCK:  -12.50 KCAL/MOL
REMARK 923 INTER-LIGAND FREE ENERGY PREDICTED BY IDOCK:  -10.17 KCAL/MOL
REMARK 924 INTRA-LIGAND FREE ENERGY PREDICTED BY IDOCK:   -2.33 KCAL/MOL
REMARK 927      BINDING AFFINITY PREDICTED BY RF-SCORE:    0.00 PKD
ROOT
HETATM    1  C   UNL     1      -5.474   4.920  70.230  1.00  0.00    -0.011 C  
HETATM    2  C   UNL     1      -6.749   4.830  69.385  1.00  0.00    -0.045 C  
HETATM    3  O   UNL     1      -7.520   5.959  69.794  1.00  0.00    -0.076 OA 
HETATM    4  C   UNL     1      -8.921   5.998  69.562  1.00  0.00    -0.131 C  
HETATM    5  H   UNL     1      -9.044   1.593  68.659  1.00  0.00     0.000 HD 
HETATM    6  C   UNL     1      -9.624   4.644  69.737  1.00  0.00    -0.188 C  
HETATM    7  C   UNL     1      -8.853   3.540  68.998  1.00  0.00    -0.106 C  
HETATM    8  O   UNL     1      -6.640   2.435  68.952  1.00  0.00    -0.029 OA 
HETATM    9  O   UNL     1      -9.718   4.306  71.135  1.00  0.00    -0.166 OA 
HETATM   10  H   UNL     1     -10.152   3.469  71.243  1.00  0.00     0.000 HD 
HETATM   11  H   UNL     1      -7.061   1.591  69.068  1.00  0.00     0.000 HD 
HETATM   12  O   UNL     1      -9.521   2.275  69.116  1.00  0.00    -0.135 OA 
HETATM   13  C   UNL     1      -7.431   3.461  69.573  1.00  0.00    -0.048 C  
ENDROOT
BRANCH   4  14
HETATM   14  O   UNL     1      -9.318   6.579  68.318  1.00  0.00    -0.121 OA 
BRANCH  14  15
HETATM   15  C   UNL     1      -9.097   7.999  68.259  1.00  0.00    -0.135 C  
BRANCH  15  16
HETATM   16  C   UNL     1      -9.681   8.532  66.944  1.00  0.00    -0.221 C  
HETATM   17  C   UNL     1     -11.067  10.477  67.567  1.00  0.00    -0.290 C  
HETATM   18  O   UNL     1     -11.000   9.100  67.141  1.00  0.00    -0.127 OA 
HETATM   19  H   UNL     1      -7.153  10.902  67.618  1.00  0.00     0.000 HD 
HETATM   20  C   UNL     1     -10.291  11.296  66.510  1.00  0.00    -0.240 C  
HETATM   21  H   UNL     1      -8.254   9.659  64.253  1.00  0.00     0.000 HD 
HETATM   22  O   UNL     1     -10.866  11.105  65.193  1.00  0.00    -0.248 OA 
HETATM   23  C   UNL     1      -8.811  10.881  66.460  1.00  0.00    -0.163 C  
HETATM   24  H   UNL     1     -10.389  11.608  64.543  1.00  0.00     0.000 HD 
HETATM   25  O   UNL     1      -8.872   9.130  64.745  1.00  0.00    -0.193 OA 
HETATM   26  O   UNL     1      -8.068  11.158  67.649  1.00  0.00    -0.113 OA 
HETATM   27  C   UNL     1      -8.679   9.389  66.147  1.00  0.00    -0.147 C  
BRANCH  17  28
HETATM   28  O   UNL     1     -10.648  10.619  68.933  1.00  0.00    -0.186 OA 
BRANCH  28  29
HETATM   29  C   UNL     1     -11.445  11.400  69.771  1.00  0.00    -0.300 C  
HETATM   30  O   UNL     1     -12.618  11.723  71.892  1.00  0.00    -0.164 OA 
HETATM   31  C   UNL     1     -12.046  10.933  70.893  1.00  0.00    -0.349 C  
HETATM   32  C   UNL     1     -12.724  13.076  71.686  1.00  0.00    -0.207 A  
HETATM   33  O   UNL     1     -10.466  13.391  69.030  1.00  0.00    -0.160 OA 
HETATM   34  H   UNL     1     -11.877  14.981  68.321  1.00  0.00     0.000 HD 
HETATM   35  C   UNL     1     -13.276  13.885  72.679  1.00  0.00    -0.592 A  
HETATM   36  C   UNL     1     -11.371  12.873  69.673  1.00  0.00    -0.096 C  
HETATM   37  C   UNL     1     -13.450  15.251  72.430  1.00  0.00    -0.463 A  
HETATM   38  C   UNL     1     -12.281  13.667  70.487  1.00  0.00    -0.438 A  
HETATM   39  O   UNL     1     -12.281  15.524  68.987  1.00  0.00    -0.267 OA 
HETATM   40  C   UNL     1     -13.148  15.806  71.190  1.00  0.00    -0.366 A  
HETATM   41  O   UNL     1     -13.921  16.108  73.382  1.00  0.00    -0.817 OA 
HETATM   42  H   UNL     1     -14.039  17.035  73.214  1.00  0.00     0.000 HD 
HETATM   43  C   UNL     1     -12.557  15.014  70.218  1.00  0.00    -0.317 A  
BRANCH  31  44
HETATM   44  C   UNL     1     -12.024   9.490  71.173  1.00  0.00    -0.429 A  
HETATM   45  O   UNL     1     -12.225   5.601  72.609  1.00  0.00    -0.487 OA 
HETATM   46  H   UNL     1      -9.924   6.026  73.003  1.00  0.00     0.000 HD 
HETATM   47  C   UNL     1     -13.229   8.763  71.104  1.00  0.00    -0.093 A  
HETATM   48  H   UNL     1     -13.048   5.128  72.586  1.00  0.00     0.000 HD 
HETATM   49  O   UNL     1      -9.868   6.917  72.680  1.00  0.00    -0.162 OA 
HETATM   50  C   UNL     1     -12.150   6.864  72.089  1.00  0.00    -0.243 A  
HETATM   51  C   UNL     1     -10.942   7.558  72.123  1.00  0.00    -0.250 A  
HETATM   52  C   UNL     1     -10.860   8.865  71.649  1.00  0.00    -0.420 A  
HETATM   53  C   UNL     1     -13.293   7.448  71.567  1.00  0.00    -0.435 A  
ENDBRANCH  31  44
ENDBRANCH  28  29
ENDBRANCH  17  28
ENDBRANCH  15  16
ENDBRANCH  14  15
ENDBRANCH   4  14
TORSDOF 6
ENDMDL
MODEL       15
REMARK 921   NORMALIZED FREE ENERGY PREDICTED BY IDOCK:   -8.06 KCAL/MOL
REMARK 922        TOTAL FREE ENERGY PREDICTED BY IDOCK:  -12.37 KCAL/MOL
REMARK 923 INTER-LIGAND FREE ENERGY PREDICTED BY IDOCK:  -10.65 KCAL/MOL
REMARK 924 INTRA-LIGAND FREE ENERGY PREDICTED BY IDOCK:   -1.72 KCAL/MOL
REMARK 927      BINDING AFFINITY PREDICTED BY RF-SCORE:    0.00 PKD
ROOT
HETATM    1  C   UNL     1     -11.284   5.032  73.453  1.00  0.00    -0.391 C  
HETATM    2  C   UNL     1     -10.045   5.640  72.790  1.00  0.00    -0.180 C  
HETATM    3  O   UNL     1      -9.586   4.619  71.904  1.00  0.00    -0.142 OA 
HETATM    4  C   UNL     1      -8.247   4.625  71.428  1.00  0.00    -0.102 C  
HETATM    5  H   UNL     1      -7.002   7.635  74.531  1.00  0.00     0.000 HD 
HETATM    6  C   UNL     1      -7.214   5.084  72.468  1.00  0.00    -0.087 C  
HETATM    7  C   UNL     1      -7.685   6.373  73.159  1.00  0.00    -0.098 C  
HETATM    8  O   UNL     1      -9.536   7.248  74.547  1.00  0.00    -0.426 OA 
HETATM    9  O   UNL     1      -7.012   4.058  73.459  1.00  0.00    -0.054 OA 
HETATM   10  H   UNL     1      -6.373   4.342  74.102  1.00  0.00     0.000 HD 
HETATM   11  H   UNL     1      -8.909   7.531  75.203  1.00  0.00     0.000 HD 
HETATM   12  O   UNL     1      -6.710   6.838  74.104  1.00  0.00    -0.079 OA 
HETATM   13  C   UNL     1      -9.028   6.098  73.853  1.00  0.00    -0.128 C  
ENDROOT
BRANCH   4  14
HETATM   14  O   UNL     1      -8.035   5.336  70.207  1.00  0.00    -0.081 OA 
BRANCH  14  15
HETATM   15  C   UNL     1      -9.145   6.174  69.838  1.00  0.00    -0.143 C  
BRANCH  15  16
HETATM   16  C   UNL     1     -10.003   5.429  68.808  1.00  0.00    -0.170 C  
HETATM   17  C   UNL     1     -10.870   7.161  67.279  1.00  0.00    -0.312 C  
HETATM   18  O   UNL     1     -11.118   6.238  68.361  1.00  0.00    -0.323 OA 
HETATM   19  H   UNL     1      -7.087   6.122  66.943  1.00  0.00     0.000 HD 
HETATM   20  C   UNL     1     -10.326   6.315  66.105  1.00  0.00     0.258 C  
HETATM   21  H   UNL     1      -9.269   3.080  66.689  1.00  0.00     0.000 HD 
HETATM   22  O   UNL     1     -11.276   5.284  65.734  1.00  0.00    -0.791 OA 
HETATM   23  C   UNL     1      -8.994   5.640  66.474  1.00  0.00    -0.126 C  
HETATM   24  H   UNL     1     -10.941   4.765  65.013  1.00  0.00     0.000 HD 
HETATM   25  O   UNL     1      -9.786   3.498  67.367  1.00  0.00    -0.180 OA 
HETATM   26  O   UNL     1      -7.910   6.539  66.715  1.00  0.00    -0.101 OA 
HETATM   27  C   UNL     1      -9.164   4.750  67.708  1.00  0.00    -0.125 C  
BRANCH  17  28
HETATM   28  O   UNL     1     -10.060   8.265  67.713  1.00  0.00    -0.182 OA 
BRANCH  28  29
HETATM   29  C   UNL     1     -10.465   9.544  67.333  1.00  0.00    -0.272 C  
HETATM   30  O   UNL     1     -11.086  11.837  67.916  1.00  0.00    -0.215 OA 
HETATM   31  C   UNL     1     -10.931  10.478  68.199  1.00  0.00    -0.277 C  
HETATM   32  C   UNL     1     -10.898  12.270  66.628  1.00  0.00    -0.258 A  
HETATM   33  O   UNL     1      -9.193   9.484  65.370  1.00  0.00    -0.213 OA 
HETATM   34  H   UNL     1     -10.284   9.959  63.472  1.00  0.00     0.000 HD 
HETATM   35  C   UNL     1     -11.032  13.625  66.328  1.00  0.00    -0.300 A  
HETATM   36  C   UNL     1     -10.055  10.071  66.014  1.00  0.00    -0.248 C  
HETATM   37  C   UNL     1     -10.913  14.047  64.998  1.00  0.00    -0.375 A  
HETATM   38  C   UNL     1     -10.566  11.369  65.597  1.00  0.00    -0.314 A  
HETATM   39  O   UNL     1     -10.407  10.878  63.267  1.00  0.00    -0.325 OA 
HETATM   40  C   UNL     1     -10.732  13.136  63.962  1.00  0.00    -0.330 A  
HETATM   41  O   UNL     1     -10.966  15.365  64.648  1.00  0.00    -0.596 OA 
HETATM   42  H   UNL     1     -10.885  15.651  63.745  1.00  0.00     0.000 HD 
HETATM   43  C   UNL     1     -10.553  11.794  64.263  1.00  0.00    -0.335 A  
BRANCH  31  44
HETATM   44  C   UNL     1     -11.207  10.093  69.591  1.00  0.00    -0.310 A  
HETATM   45  O   UNL     1     -12.039   8.336  73.257  1.00  0.00    -0.468 OA 
HETATM   46  H   UNL     1     -14.211   9.126  72.721  1.00  0.00     0.000 HD 
HETATM   47  C   UNL     1     -10.177   9.506  70.353  1.00  0.00    -0.337 A  
HETATM   48  H   UNL     1     -11.345   7.917  73.752  1.00  0.00     0.000 HD 
HETATM   49  O   UNL     1     -14.032   9.528  71.879  1.00  0.00    -0.284 OA 
HETATM   50  C   UNL     1     -11.753   8.958  72.074  1.00  0.00    -0.367 A  
HETATM   51  C   UNL     1     -12.770   9.574  71.348  1.00  0.00    -0.358 A  
HETATM   52  C   UNL     1     -12.507  10.163  70.114  1.00  0.00    -0.103 A  
HETATM   53  C   UNL     1     -10.451   8.934  71.596  1.00  0.00    -0.408 A  
ENDBRANCH  31  44
ENDBRANCH  28  29
ENDBRANCH  17  28
ENDBRANCH  15  16
ENDBRANCH  14  15
ENDBRANCH   4  14
TORSDOF 6
ENDMDL
MODEL       16
REMARK 921   NORMALIZED FREE ENERGY PREDICTED BY IDOCK:   -8.02 KCAL/MOL
REMARK 922        TOTAL FREE ENERGY PREDICTED BY IDOCK:  -12.31 KCAL/MOL
REMARK 923 INTER-LIGAND FREE ENERGY PREDICTED BY IDOCK:   -9.95 KCAL/MOL
REMARK 924 INTRA-LIGAND FREE ENERGY PREDICTED BY IDOCK:   -2.37 KCAL/MOL
REMARK 927      BINDING AFFINITY PREDICTED BY RF-SCORE:    0.00 PKD
ROOT
HETATM    1  C   UNL     1      -9.914   2.560  71.787  1.00  0.00    -0.194 C  
HETATM    2  C   UNL     1      -9.461   3.980  71.435  1.00  0.00    -0.160 C  
HETATM    3  O   UNL     1      -9.885   4.158  70.083  1.00  0.00    -0.209 OA 
HETATM    4  C   UNL     1      -9.296   5.160  69.268  1.00  0.00    -0.123 C  
HETATM    5  H   UNL     1      -5.892   5.718  72.157  1.00  0.00     0.000 HD 
HETATM    6  C   UNL     1      -7.789   5.349  69.497  1.00  0.00    -0.085 C  
HETATM    7  C   UNL     1      -7.482   5.442  70.999  1.00  0.00    -0.088 C  
HETATM    8  O   UNL     1      -7.680   4.134  73.090  1.00  0.00    -0.078 OA 
HETATM    9  O   UNL     1      -7.055   4.248  68.927  1.00  0.00    -0.050 OA 
HETATM   10  H   UNL     1      -6.123   4.365  69.069  1.00  0.00     0.000 HD 
HETATM   11  H   UNL     1      -6.748   4.236  73.241  1.00  0.00     0.000 HD 
HETATM   12  O   UNL     1      -6.082   5.661  71.229  1.00  0.00    -0.031 OA 
HETATM   13  C   UNL     1      -7.948   4.145  71.679  1.00  0.00    -0.082 C  
ENDROOT
BRANCH   4  14
HETATM   14  O   UNL     1      -9.942   6.435  69.303  1.00  0.00    -0.147 OA 
BRANCH  14  15
HETATM   15  C   UNL     1      -9.105   7.508  68.839  1.00  0.00    -0.140 C  
BRANCH  15  16
HETATM   16  C   UNL     1      -9.577   7.930  67.442  1.00  0.00    -0.152 C  
HETATM   17  C   UNL     1     -10.844  10.024  67.767  1.00  0.00    -0.282 C  
HETATM   18  O   UNL     1     -10.858   8.606  67.496  1.00  0.00    -0.202 OA 
HETATM   19  H   UNL     1      -6.917  10.180  68.008  1.00  0.00     0.000 HD 
HETATM   20  C   UNL     1      -9.953  10.664  66.677  1.00  0.00    -0.212 C  
HETATM   21  H   UNL     1      -7.931   8.648  64.736  1.00  0.00     0.000 HD 
HETATM   22  O   UNL     1     -10.472  10.368  65.355  1.00  0.00    -0.237 OA 
HETATM   23  C   UNL     1      -8.509  10.145  66.761  1.00  0.00    -0.126 C  
HETATM   24  H   UNL     1      -9.925  10.761  64.686  1.00  0.00     0.000 HD 
HETATM   25  O   UNL     1      -8.611   8.222  65.244  1.00  0.00    -0.171 OA 
HETATM   26  O   UNL     1      -7.810  10.501  67.956  1.00  0.00    -0.102 OA 
HETATM   27  C   UNL     1      -8.473   8.621  66.619  1.00  0.00    -0.112 C  
BRANCH  17  28
HETATM   28  O   UNL     1     -10.486  10.288  69.133  1.00  0.00    -0.196 OA 
BRANCH  28  29
HETATM   29  C   UNL     1     -11.359  11.078  69.882  1.00  0.00    -0.287 C  
HETATM   30  O   UNL     1     -12.674  11.455  71.910  1.00  0.00    -0.323 OA 
HETATM   31  C   UNL     1     -12.016  10.641  70.985  1.00  0.00    -0.339 C  
HETATM   32  C   UNL     1     -12.808  12.793  71.635  1.00  0.00    -0.261 A  
HETATM   33  O   UNL     1     -10.396  13.066  69.113  1.00  0.00    -0.016 OA 
HETATM   34  H   UNL     1     -11.806  14.575  68.244  1.00  0.00     0.000 HD 
HETATM   35  C   UNL     1     -13.447  13.626  72.553  1.00  0.00    -0.675 A  
HETATM   36  C   UNL     1     -11.324  12.546  69.721  1.00  0.00    -0.040 C  
HETATM   37  C   UNL     1     -13.646  14.974  72.231  1.00  0.00    -0.443 A  
HETATM   38  C   UNL     1     -12.308  13.346  70.440  1.00  0.00    -0.382 A  
HETATM   39  O   UNL     1     -12.269  15.133  68.858  1.00  0.00    -0.223 OA 
HETATM   40  C   UNL     1     -13.282  15.483  70.988  1.00  0.00    -0.539 A  
HETATM   41  O   UNL     1     -14.202  15.856  73.112  1.00  0.00    -0.552 OA 
HETATM   42  H   UNL     1     -14.337  16.770  72.893  1.00  0.00     0.000 HD 
HETATM   43  C   UNL     1     -12.607  14.669  70.092  1.00  0.00    -0.283 A  
BRANCH  31  44
HETATM   44  C   UNL     1     -11.967   9.213  71.332  1.00  0.00    -0.410 A  
HETATM   45  O   UNL     1     -12.253   5.368  72.868  1.00  0.00    -0.508 OA 
HETATM   46  H   UNL     1     -10.145   5.975  73.771  1.00  0.00     0.000 HD 
HETATM   47  C   UNL     1     -13.072   8.397  71.017  1.00  0.00     0.077 A  
HETATM   48  H   UNL     1     -13.014   4.835  72.675  1.00  0.00     0.000 HD 
HETATM   49  O   UNL     1     -10.071   6.858  73.428  1.00  0.00    -0.203 OA 
HETATM   50  C   UNL     1     -12.138   6.616  72.320  1.00  0.00    -0.188 A  
HETATM   51  C   UNL     1     -11.021   7.399  72.603  1.00  0.00    -0.317 A  
HETATM   52  C   UNL     1     -10.913   8.692  72.099  1.00  0.00    -0.434 A  
HETATM   53  C   UNL     1     -13.159   7.096  71.515  1.00  0.00    -0.427 A  
ENDBRANCH  31  44
ENDBRANCH  28  29
ENDBRANCH  17  28
ENDBRANCH  15  16
ENDBRANCH  14  15
ENDBRANCH   4  14
TORSDOF 6
ENDMDL
MODEL       17
REMARK 921   NORMALIZED FREE ENERGY PREDICTED BY IDOCK:   -8.02 KCAL/MOL
REMARK 922        TOTAL FREE ENERGY PREDICTED BY IDOCK:  -12.31 KCAL/MOL
REMARK 923 INTER-LIGAND FREE ENERGY PREDICTED BY IDOCK:  -10.59 KCAL/MOL
REMARK 924 INTRA-LIGAND FREE ENERGY PREDICTED BY IDOCK:   -1.73 KCAL/MOL
REMARK 927      BINDING AFFINITY PREDICTED BY RF-SCORE:    0.00 PKD
ROOT
HETATM    1  C   UNL     1      -6.851   4.803  72.155  1.00  0.00    -0.056 C  
HETATM    2  C   UNL     1      -8.300   4.396  71.871  1.00  0.00    -0.106 C  
HETATM    3  O   UNL     1      -8.927   5.607  71.449  1.00  0.00    -0.138 OA 
HETATM    4  C   UNL     1     -10.340   5.744  71.499  1.00  0.00    -0.220 C  
HETATM    5  H   UNL     1     -10.745   2.115  74.127  1.00  0.00     0.000 HD 
HETATM    6  C   UNL     1     -10.992   5.075  72.718  1.00  0.00    -0.247 C  
HETATM    7  C   UNL     1     -10.450   3.650  72.903  1.00  0.00    -0.156 C  
HETATM    8  O   UNL     1      -8.336   2.430  73.309  1.00  0.00    -0.064 OA 
HETATM    9  O   UNL     1     -10.730   5.843  73.909  1.00  0.00    -0.338 OA 
HETATM   10  H   UNL     1     -11.132   5.429  74.663  1.00  0.00     0.000 HD 
HETATM   11  H   UNL     1      -8.724   2.014  74.070  1.00  0.00     0.000 HD 
HETATM   12  O   UNL     1     -11.081   2.996  74.013  1.00  0.00    -0.189 OA 
HETATM   13  C   UNL     1      -8.929   3.722  73.106  1.00  0.00    -0.099 C  
ENDROOT
BRANCH   4  14
HETATM   14  O   UNL     1     -11.035   5.346  70.315  1.00  0.00    -0.225 OA 
BRANCH  14  15
HETATM   15  C   UNL     1     -11.189   6.413  69.362  1.00  0.00    -0.394 C  
BRANCH  15  16
HETATM   16  C   UNL     1     -10.839   5.879  67.967  1.00  0.00    -0.232 C  
HETATM   17  C   UNL     1     -10.188   7.855  66.638  1.00  0.00    -0.233 C  
HETATM   18  O   UNL     1     -11.170   6.839  66.933  1.00  0.00    -0.375 OA 
HETATM   19  H   UNL     1      -7.639   6.506  69.318  1.00  0.00     0.000 HD 
HETATM   20  C   UNL     1      -8.888   7.105  66.267  1.00  0.00    -0.148 C  
HETATM   21  H   UNL     1      -8.607   3.738  66.978  1.00  0.00     0.000 HD 
HETATM   22  O   UNL     1      -9.112   6.221  65.140  1.00  0.00    -0.365 OA 
HETATM   23  C   UNL     1      -8.371   6.267  67.448  1.00  0.00    -0.109 C  
HETATM   24  H   UNL     1      -8.313   5.760  64.912  1.00  0.00     0.000 HD 
HETATM   25  O   UNL     1      -9.475   4.120  67.020  1.00  0.00    -0.166 OA 
HETATM   26  O   UNL     1      -7.958   7.024  68.588  1.00  0.00    -0.116 OA 
HETATM   27  C   UNL     1      -9.431   5.259  67.899  1.00  0.00    -0.125 C  
BRANCH  17  28
HETATM   28  O   UNL     1     -10.101   8.817  67.701  1.00  0.00    -0.187 OA 
BRANCH  28  29
HETATM   29  C   UNL     1     -10.579  10.102  67.442  1.00  0.00    -0.272 C  
HETATM   30  O   UNL     1     -11.374  12.274  68.238  1.00  0.00    -0.243 OA 
HETATM   31  C   UNL     1     -11.135  10.905  68.383  1.00  0.00    -0.262 C  
HETATM   32  C   UNL     1     -11.172  12.854  67.012  1.00  0.00    -0.288 A  
HETATM   33  O   UNL     1      -9.242  10.335  65.537  1.00  0.00    -0.167 OA 
HETATM   34  H   UNL     1     -10.299  10.941  63.657  1.00  0.00     0.000 HD 
HETATM   35  C   UNL     1     -11.388  14.222  66.851  1.00  0.00    -0.354 A  
HETATM   36  C   UNL     1     -10.162  10.792  66.204  1.00  0.00    -0.250 C  
HETATM   37  C   UNL     1     -11.254  14.792  65.579  1.00  0.00    -0.346 A  
HETATM   38  C   UNL     1     -10.747  12.093  65.905  1.00  0.00    -0.302 A  
HETATM   39  O   UNL     1     -10.477  11.868  63.545  1.00  0.00    -0.385 OA 
HETATM   40  C   UNL     1     -10.978  14.012  64.461  1.00  0.00    -0.361 A  
HETATM   41  O   UNL     1     -11.384  16.134  65.368  1.00  0.00    -0.050 OA 
HETATM   42  H   UNL     1     -11.293  16.521  64.505  1.00  0.00     0.000 HD 
HETATM   43  C   UNL     1     -10.718  12.659  64.625  1.00  0.00    -0.326 A  
BRANCH  31  44
HETATM   44  C   UNL     1     -11.430  10.355  69.714  1.00  0.00    -0.348 A  
HETATM   45  O   UNL     1     -12.178   8.160  73.155  1.00  0.00    -0.645 OA 
HETATM   46  H   UNL     1     -14.416   8.609  72.506  1.00  0.00     0.000 HD 
HETATM   47  C   UNL     1     -10.366   9.889  70.510  1.00  0.00    -0.298 A  
HETATM   48  H   UNL     1     -11.456   7.824  73.671  1.00  0.00     0.000 HD 
HETATM   49  O   UNL     1     -14.256   9.109  71.714  1.00  0.00    -0.289 OA 
HETATM   50  C   UNL     1     -11.929   8.925  72.050  1.00  0.00    -0.369 A  
HETATM   51  C   UNL     1     -12.990   9.418  71.293  1.00  0.00    -0.301 A  
HETATM   52  C   UNL     1     -12.755  10.153  70.133  1.00  0.00    -0.017 A  
HETATM   53  C   UNL     1     -10.616   9.169  71.680  1.00  0.00    -0.427 A  
ENDBRANCH  31  44
ENDBRANCH  28  29
ENDBRANCH  17  28
ENDBRANCH  15  16
ENDBRANCH  14  15
ENDBRANCH   4  14
TORSDOF 6
ENDMDL
MODEL       18
REMARK 921   NORMALIZED FREE ENERGY PREDICTED BY IDOCK:   -7.93 KCAL/MOL
REMARK 922        TOTAL FREE ENERGY PREDICTED BY IDOCK:  -12.19 KCAL/MOL
REMARK 923 INTER-LIGAND FREE ENERGY PREDICTED BY IDOCK:   -9.92 KCAL/MOL
REMARK 924 INTRA-LIGAND FREE ENERGY PREDICTED BY IDOCK:   -2.27 KCAL/MOL
REMARK 927      BINDING AFFINITY PREDICTED BY RF-SCORE:    0.00 PKD
ROOT
HETATM    1  C   UNL     1      -6.000   4.601  71.468  1.00  0.00    -0.017 C  
HETATM    2  C   UNL     1      -7.351   3.980  71.100  1.00  0.00    -0.040 C  
HETATM    3  O   UNL     1      -8.223   5.101  70.954  1.00  0.00    -0.105 OA 
HETATM    4  C   UNL     1      -9.632   4.934  71.032  1.00  0.00    -0.174 C  
HETATM    5  H   UNL     1      -9.196   0.819  72.798  1.00  0.00     0.000 HD 
HETATM    6  C   UNL     1     -10.085   3.900  72.074  1.00  0.00    -0.149 C  
HETATM    7  C   UNL     1      -9.264   2.609  71.941  1.00  0.00    -0.095 C  
HETATM    8  O   UNL     1      -6.935   1.785  72.071  1.00  0.00    -0.018 OA 
HETATM    9  O   UNL     1      -9.928   4.430  73.405  1.00  0.00    -0.130 OA 
HETATM   10  H   UNL     1     -10.207   3.791  74.049  1.00  0.00     0.000 HD 
HETATM   11  H   UNL     1      -7.199   1.145  72.722  1.00  0.00     0.000 HD 
HETATM   12  O   UNL     1      -9.704   1.617  72.880  1.00  0.00    -0.079 OA 
HETATM   13  C   UNL     1      -7.780   2.943  72.157  1.00  0.00    -0.054 C  
ENDROOT
BRANCH   4  14
HETATM   14  O   UNL     1     -10.285   4.669  69.789  1.00  0.00    -0.234 OA 
BRANCH  14  15
HETATM   15  C   UNL     1     -10.786   5.854  69.147  1.00  0.00    -0.336 C  
BRANCH  15  16
HETATM   16  C   UNL     1     -10.562   5.725  67.635  1.00  0.00    -0.239 C  
HETATM   17  C   UNL     1      -9.915   7.977  66.859  1.00  0.00    -0.268 C  
HETATM   18  O   UNL     1     -10.920   6.944  66.939  1.00  0.00    -0.377 OA 
HETATM   19  H   UNL     1      -7.247   5.866  68.840  1.00  0.00     0.000 HD 
HETATM   20  C   UNL     1      -8.681   7.329  66.189  1.00  0.00    -0.155 C  
HETATM   21  H   UNL     1      -8.510   3.892  65.910  1.00  0.00     0.000 HD 
HETATM   22  O   UNL     1      -9.027   6.802  64.883  1.00  0.00    -0.303 OA 
HETATM   23  C   UNL     1      -8.122   6.180  67.044  1.00  0.00    -0.106 C  
HETATM   24  H   UNL     1      -8.269   6.404  64.471  1.00  0.00     0.000 HD 
HETATM   25  O   UNL     1      -9.354   4.269  66.128  1.00  0.00    -0.141 OA 
HETATM   26  O   UNL     1      -7.594   6.576  68.312  1.00  0.00    -0.099 OA 
HETATM   27  C   UNL     1      -9.193   5.113  67.282  1.00  0.00    -0.115 C  
BRANCH  17  28
HETATM   28  O   UNL     1      -9.707   8.600  68.136  1.00  0.00    -0.151 OA 
BRANCH  28  29
HETATM   29  C   UNL     1     -10.388   9.791  68.386  1.00  0.00    -0.201 C  
HETATM   30  O   UNL     1     -11.266  11.448  69.957  1.00  0.00    -0.212 OA 
HETATM   31  C   UNL     1     -10.830  10.166  69.612  1.00  0.00    -0.263 C  
HETATM   32  C   UNL     1     -11.405  12.388  68.968  1.00  0.00    -0.283 A  
HETATM   33  O   UNL     1      -9.527  10.815  66.468  1.00  0.00    -0.164 OA 
HETATM   34  H   UNL     1     -11.027  11.735  65.081  1.00  0.00     0.000 HD 
HETATM   35  C   UNL     1     -11.822  13.678  69.294  1.00  0.00    -0.395 A  
HETATM   36  C   UNL     1     -10.335  10.878  67.386  1.00  0.00    -0.211 C  
HETATM   37  C   UNL     1     -12.034  14.608  68.270  1.00  0.00    -0.247 A  
HETATM   38  C   UNL     1     -11.130  12.076  67.622  1.00  0.00    -0.319 A  
HETATM   39  O   UNL     1     -11.341  12.604  65.304  1.00  0.00    -0.297 OA 
HETATM   40  C   UNL     1     -11.904  14.254  66.931  1.00  0.00    -0.458 A  
HETATM   41  O   UNL     1     -12.376  15.904  68.527  1.00  0.00    -0.371 OA 
HETATM   42  H   UNL     1     -12.520  16.536  67.832  1.00  0.00     0.000 HD 
HETATM   43  C   UNL     1     -11.446  12.986  66.606  1.00  0.00    -0.336 A  
BRANCH  31  44
HETATM   44  C   UNL     1     -10.764   9.207  70.724  1.00  0.00    -0.327 A  
HETATM   45  O   UNL     1     -10.779   7.058  74.274  1.00  0.00    -0.523 OA 
HETATM   46  H   UNL     1      -8.456   7.517  74.126  1.00  0.00     0.000 HD 
HETATM   47  C   UNL     1     -11.962   8.657  71.222  1.00  0.00    -0.339 A  
HETATM   48  H   UNL     1     -11.594   6.715  74.619  1.00  0.00     0.000 HD 
HETATM   49  O   UNL     1      -8.442   8.013  73.316  1.00  0.00    -0.181 OA 
HETATM   50  C   UNL     1     -10.769   7.722  73.080  1.00  0.00    -0.384 A  
HETATM   51  C   UNL     1      -9.573   8.225  72.574  1.00  0.00    -0.295 A  
HETATM   52  C   UNL     1      -9.552   8.952  71.386  1.00  0.00    -0.359 A  
HETATM   53  C   UNL     1     -11.965   7.915  72.405  1.00  0.00    -0.373 A  
ENDBRANCH  31  44
ENDBRANCH  28  29
ENDBRANCH  17  28
ENDBRANCH  15  16
ENDBRANCH  14  15
ENDBRANCH   4  14
TORSDOF 6
ENDMDL
MODEL       19
REMARK 921   NORMALIZED FREE ENERGY PREDICTED BY IDOCK:   -7.89 KCAL/MOL
REMARK 922        TOTAL FREE ENERGY PREDICTED BY IDOCK:  -12.13 KCAL/MOL
REMARK 923 INTER-LIGAND FREE ENERGY PREDICTED BY IDOCK:  -10.15 KCAL/MOL
REMARK 924 INTRA-LIGAND FREE ENERGY PREDICTED BY IDOCK:   -1.99 KCAL/MOL
REMARK 927      BINDING AFFINITY PREDICTED BY RF-SCORE:    0.00 PKD
ROOT
HETATM    1  C   UNL     1     -12.657  13.819  64.945  1.00  0.00    -0.380 C  
HETATM    2  C   UNL     1     -11.286  14.450  65.207  1.00  0.00    -0.345 C  
HETATM    3  O   UNL     1     -10.902  13.936  66.483  1.00  0.00    -0.292 OA 
HETATM    4  C   UNL     1      -9.910  14.596  67.257  1.00  0.00    -0.231 C  
HETATM    5  H   UNL     1     -10.165  18.293  64.706  1.00  0.00     0.000 HD 
HETATM    6  C   UNL     1      -9.965  16.129  67.172  1.00  0.00    -0.251 C  
HETATM    7  C   UNL     1     -10.082  16.582  65.710  1.00  0.00    -0.303 C  
HETATM    8  O   UNL     1     -11.569  16.377  63.743  1.00  0.00    -1.605 OA 
HETATM    9  O   UNL     1     -11.090  16.631  67.920  1.00  0.00    -0.315 OA 
HETATM   10  H   UNL     1     -11.124  17.578  67.867  1.00  0.00     0.000 HD 
HETATM   11  H   UNL     1     -11.619  17.324  63.683  1.00  0.00     0.000 HD 
HETATM   12  O   UNL     1     -10.092  18.013  65.611  1.00  0.00    -0.551 OA 
HETATM   13  C   UNL     1     -11.366  15.986  65.110  1.00  0.00    -0.074 C  
ENDROOT
BRANCH   4  14
HETATM   14  O   UNL     1      -8.568  14.158  67.033  1.00  0.00    -0.215 OA 
BRANCH  14  15
HETATM   15  C   UNL     1      -8.426  12.727  67.062  1.00  0.00    -0.153 C  
BRANCH  15  16
HETATM   16  C   UNL     1      -7.454  12.353  68.188  1.00  0.00    -0.118 C  
HETATM   17  C   UNL     1      -7.355   9.887  68.196  1.00  0.00    -0.080 C  
HETATM   18  O   UNL     1      -7.826  11.102  68.817  1.00  0.00    -0.129 OA 
HETATM   19  H   UNL     1      -5.471  11.805  65.320  1.00  0.00     0.000 HD 
HETATM   20  C   UNL     1      -5.815  10.006  68.126  1.00  0.00    -0.042 C  
HETATM   21  H   UNL     1      -4.323  13.074  68.659  1.00  0.00     0.000 HD 
HETATM   22  O   UNL     1      -5.256  10.193  69.451  1.00  0.00    -0.039 OA 
HETATM   23  C   UNL     1      -5.387  11.192  67.245  1.00  0.00    -0.049 C  
HETATM   24  H   UNL     1      -4.310  10.266  69.407  1.00  0.00     0.000 HD 
HETATM   25  O   UNL     1      -5.234  12.984  68.912  1.00  0.00    -0.067 OA 
HETATM   26  O   UNL     1      -5.736  11.072  65.864  1.00  0.00    -0.141 OA 
HETATM   27  C   UNL     1      -5.976  12.500  67.778  1.00  0.00    -0.119 C  
BRANCH  17  28
HETATM   28  O   UNL     1      -8.043   9.634  66.961  1.00  0.00    -0.112 OA 
BRANCH  28  29
HETATM   29  C   UNL     1      -8.609   8.371  66.790  1.00  0.00    -0.118 C  
HETATM   30  O   UNL     1     -10.540   6.874  66.904  1.00  0.00    -0.288 OA 
HETATM   31  C   UNL     1      -9.825   8.015  67.275  1.00  0.00    -0.197 C  
HETATM   32  C   UNL     1      -9.934   5.946  66.096  1.00  0.00     0.013 A  
HETATM   33  O   UNL     1      -7.291   7.913  64.912  1.00  0.00    -0.066 OA 
HETATM   34  H   UNL     1      -6.142   5.990  64.957  1.00  0.00     0.000 HD 
HETATM   35  C   UNL     1     -10.637   4.809  65.701  1.00  0.00    -0.220 A  
HETATM   36  C   UNL     1      -8.068   7.471  65.751  1.00  0.00    -0.127 C  
HETATM   37  C   UNL     1      -9.986   3.832  64.939  1.00  0.00    -0.171 A  
HETATM   38  C   UNL     1      -8.608   6.121  65.652  1.00  0.00    -0.148 A  
HETATM   39  O   UNL     1      -6.615   5.203  64.715  1.00  0.00    -0.041 OA 
HETATM   40  C   UNL     1      -8.634   3.938  64.628  1.00  0.00    -0.110 A  
HETATM   41  O   UNL     1     -10.637   2.730  64.464  1.00  0.00    -0.380 OA 
HETATM   42  H   UNL     1     -10.195   2.066  63.947  1.00  0.00     0.000 HD 
HETATM   43  C   UNL     1      -7.945   5.088  64.980  1.00  0.00    -0.101 A  
BRANCH  31  44
HETATM   44  C   UNL     1     -10.530   8.928  68.187  1.00  0.00    -0.254 A  
HETATM   45  O   UNL     1     -11.898  11.871  70.772  1.00  0.00    -0.445 OA 
HETATM   46  H   UNL     1     -11.373  10.192  72.364  1.00  0.00     0.000 HD 
HETATM   47  C   UNL     1     -11.020  10.149  67.684  1.00  0.00    -0.331 A  
HETATM   48  H   UNL     1     -12.200  12.703  70.428  1.00  0.00     0.000 HD 
HETATM   49  O   UNL     1     -11.055   9.513  71.781  1.00  0.00    -0.352 OA 
HETATM   50  C   UNL     1     -11.495  10.885  69.916  1.00  0.00    -0.323 A  
HETATM   51  C   UNL     1     -11.052   9.664  70.420  1.00  0.00    -0.290 A  
HETATM   52  C   UNL     1     -10.586   8.669  69.566  1.00  0.00    -0.218 A  
HETATM   53  C   UNL     1     -11.501  11.132  68.551  1.00  0.00    -0.371 A  
ENDBRANCH  31  44
ENDBRANCH  28  29
ENDBRANCH  17  28
ENDBRANCH  15  16
ENDBRANCH  14  15
ENDBRANCH   4  14
TORSDOF 6
ENDMDL
MODEL       20
REMARK 921   NORMALIZED FREE ENERGY PREDICTED BY IDOCK:   -7.86 KCAL/MOL
REMARK 922        TOTAL FREE ENERGY PREDICTED BY IDOCK:  -12.10 KCAL/MOL
REMARK 923 INTER-LIGAND FREE ENERGY PREDICTED BY IDOCK:  -10.61 KCAL/MOL
REMARK 924 INTRA-LIGAND FREE ENERGY PREDICTED BY IDOCK:   -1.49 KCAL/MOL
REMARK 927      BINDING AFFINITY PREDICTED BY RF-SCORE:    0.00 PKD
ROOT
HETATM    1  C   UNL     1     -12.161  11.363  69.340  1.00  0.00    -0.358 C  
HETATM    2  C   UNL     1     -11.693  10.452  70.479  1.00  0.00    -0.344 C  
HETATM    3  O   UNL     1     -11.029   9.376  69.816  1.00  0.00    -0.237 OA 
HETATM    4  C   UNL     1     -10.828   8.135  70.477  1.00  0.00    -0.240 C  
HETATM    5  H   UNL     1     -13.776   9.208  73.702  1.00  0.00     0.000 HD 
HETATM    6  C   UNL     1     -11.996   7.709  71.380  1.00  0.00    -0.310 C  
HETATM    7  C   UNL     1     -12.439   8.879  72.272  1.00  0.00    -0.369 C  
HETATM    8  O   UNL     1     -13.334  11.181  72.126  1.00  0.00    -0.592 OA 
HETATM    9  O   UNL     1     -13.111   7.269  70.581  1.00  0.00    -0.591 OA 
HETATM   10  H   UNL     1     -13.833   7.006  71.139  1.00  0.00     0.000 HD 
HETATM   11  H   UNL     1     -14.066  10.930  72.677  1.00  0.00     0.000 HD 
HETATM   12  O   UNL     1     -13.502   8.485  73.152  1.00  0.00    -0.067 OA 
HETATM   13  C   UNL     1     -12.880  10.045  71.373  1.00  0.00    -0.417 C  
ENDROOT
BRANCH   4  14
HETATM   14  O   UNL     1      -9.603   8.021  71.205  1.00  0.00    -0.156 OA 
BRANCH  14  15
HETATM   15  C   UNL     1      -8.711   9.128  70.990  1.00  0.00    -0.189 C  
BRANCH  15  16
HETATM   16  C   UNL     1      -7.494   8.631  70.198  1.00  0.00    -0.054 C  
HETATM   17  C   UNL     1      -7.521   9.887  68.073  1.00  0.00    -0.085 C  
HETATM   18  O   UNL     1      -7.748   8.644  68.772  1.00  0.00    -0.094 OA 
HETATM   19  H   UNL     1      -6.375  11.782  71.329  1.00  0.00     0.000 HD 
HETATM   20  C   UNL     1      -6.051  10.277  68.353  1.00  0.00    -0.044 C  
HETATM   21  H   UNL     1      -4.318   8.677  70.875  1.00  0.00     0.000 HD 
HETATM   22  O   UNL     1      -5.151   9.230  67.909  1.00  0.00    -0.034 OA 
HETATM   23  C   UNL     1      -5.814  10.519  69.852  1.00  0.00    -0.059 C  
HETATM   24  H   UNL     1      -4.248   9.470  68.080  1.00  0.00     0.000 HD 
HETATM   25  O   UNL     1      -5.133   8.282  70.588  1.00  0.00    -0.023 OA 
HETATM   26  O   UNL     1      -6.522  11.633  70.402  1.00  0.00    -0.214 OA 
HETATM   27  C   UNL     1      -6.173   9.273  70.664  1.00  0.00    -0.060 C  
BRANCH  17  28
HETATM   28  O   UNL     1      -8.524  10.860  68.404  1.00  0.00    -0.127 OA 
BRANCH  28  29
HETATM   29  C   UNL     1      -9.050  11.618  67.358  1.00  0.00    -0.169 C  
HETATM   30  O   UNL     1     -10.438  11.797  65.352  1.00  0.00    -0.253 OA 
HETATM   31  C   UNL     1      -9.667  11.085  66.274  1.00  0.00    -0.207 C  
HETATM   32  C   UNL     1     -10.479  13.165  65.439  1.00  0.00    -0.296 A  
HETATM   33  O   UNL     1      -9.238  13.530  68.692  1.00  0.00    -0.141 OA 
HETATM   34  H   UNL     1      -8.302  15.397  67.880  1.00  0.00     0.000 HD 
HETATM   35  C   UNL     1     -11.256  13.892  64.539  1.00  0.00    -0.372 A  
HETATM   36  C   UNL     1      -9.290  13.062  67.561  1.00  0.00    -0.200 C  
HETATM   37  C   UNL     1     -11.232  15.291  64.588  1.00  0.00    -0.356 A  
HETATM   38  C   UNL     1      -9.749  13.854  66.428  1.00  0.00    -0.309 A  
HETATM   39  O   UNL     1      -8.809  15.890  67.246  1.00  0.00    -0.185 OA 
HETATM   40  C   UNL     1     -10.397  15.971  65.469  1.00  0.00    -0.415 A  
HETATM   41  O   UNL     1     -12.021  16.059  63.781  1.00  0.00    -1.339 OA 
HETATM   42  H   UNL     1     -12.004  17.009  63.814  1.00  0.00     0.000 HD 
HETATM   43  C   UNL     1      -9.657  15.251  66.395  1.00  0.00    -0.292 A  
BRANCH  31  44
HETATM   44  C   UNL     1      -9.635   9.629  66.073  1.00  0.00    -0.305 A  
HETATM   45  O   UNL     1      -9.218   5.501  66.147  1.00  0.00    -0.152 OA 
HETATM   46  H   UNL     1      -7.351   6.040  64.786  1.00  0.00     0.000 HD 
HETATM   47  C   UNL     1     -10.578   8.827  66.746  1.00  0.00    -0.220 A  
HETATM   48  H   UNL     1      -9.841   4.969  66.627  1.00  0.00     0.000 HD 
HETATM   49  O   UNL     1      -7.435   6.986  64.765  1.00  0.00    -0.082 OA 
HETATM   50  C   UNL     1      -9.386   6.856  66.083  1.00  0.00    -0.042 A  
HETATM   51  C   UNL     1      -8.473   7.637  65.378  1.00  0.00    -0.098 A  
HETATM   52  C   UNL     1      -8.597   9.024  65.348  1.00  0.00    -0.200 A  
HETATM   53  C   UNL     1     -10.451   7.437  66.754  1.00  0.00    -0.316 A  
ENDBRANCH  31  44
ENDBRANCH  28  29
ENDBRANCH  17  28
ENDBRANCH  15  16
ENDBRANCH  14  15
ENDBRANCH   4  14
TORSDOF 6
ENDMDL
MODEL       21
REMARK 921   NORMALIZED FREE ENERGY PREDICTED BY IDOCK:   -7.86 KCAL/MOL
REMARK 922        TOTAL FREE ENERGY PREDICTED BY IDOCK:  -12.09 KCAL/MOL
REMARK 923 INTER-LIGAND FREE ENERGY PREDICTED BY IDOCK:  -12.39 KCAL/MOL
REMARK 924 INTRA-LIGAND FREE ENERGY PREDICTED BY IDOCK:    0.30 KCAL/MOL
REMARK 927      BINDING AFFINITY PREDICTED BY RF-SCORE:    0.00 PKD
ROOT
HETATM    1  C   UNL     1      -9.867  20.324  67.209  1.00  0.00    -0.593 C  
HETATM    2  C   UNL     1      -9.009  19.222  66.580  1.00  0.00    -0.346 C  
HETATM    3  O   UNL     1      -9.181  18.104  67.452  1.00  0.00    -0.254 OA 
HETATM    4  C   UNL     1      -8.239  17.041  67.455  1.00  0.00    -0.183 C  
HETATM    5  H   UNL     1      -5.243  19.488  65.158  1.00  0.00     0.000 HD 
HETATM    6  C   UNL     1      -6.783  17.491  67.267  1.00  0.00    -0.166 C  
HETATM    7  C   UNL     1      -6.673  18.479  66.097  1.00  0.00    -0.240 C  
HETATM    8  O   UNL     1      -7.498  20.692  65.359  1.00  0.00    -0.525 OA 
HETATM    9  O   UNL     1      -6.295  18.119  68.469  1.00  0.00    -0.194 OA 
HETATM   10  H   UNL     1      -5.395  18.398  68.354  1.00  0.00     0.000 HD 
HETATM   11  H   UNL     1      -6.602  20.987  65.246  1.00  0.00     0.000 HD 
HETATM   12  O   UNL     1      -5.311  18.877  65.882  1.00  0.00    -0.147 OA 
HETATM   13  C   UNL     1      -7.556  19.700  66.397  1.00  0.00    -0.291 C  
ENDROOT
BRANCH   4  14
HETATM   14  O   UNL     1      -8.522  15.971  66.550  1.00  0.00    -0.257 OA 
BRANCH  14  15
HETATM   15  C   UNL     1      -9.891  15.531  66.602  1.00  0.00    -0.254 C  
BRANCH  15  16
HETATM   16  C   UNL     1     -10.351  15.190  65.179  1.00  0.00    -0.385 C  
HETATM   17  C   UNL     1     -10.556  12.731  65.112  1.00  0.00    -0.302 C  
HETATM   18  O   UNL     1      -9.820  13.916  64.740  1.00  0.00    -0.190 OA 
HETATM   19  H   UNL     1     -13.335  14.769  67.017  1.00  0.00     0.000 HD 
HETATM   20  C   UNL     1     -11.990  12.924  64.565  1.00  0.00    -0.395 C  
HETATM   21  H   UNL     1     -12.999  16.052  63.507  1.00  0.00     0.000 HD 
HETATM   22  O   UNL     1     -11.966  13.121  63.129  1.00  0.00    -0.796 OA 
HETATM   23  C   UNL     1     -12.675  14.138  65.212  1.00  0.00    -0.403 C  
HETATM   24  H   UNL     1     -12.847  13.239  62.793  1.00  0.00     0.000 HD 
HETATM   25  O   UNL     1     -12.068  15.916  63.637  1.00  0.00    -0.682 OA 
HETATM   26  O   UNL     1     -12.911  14.018  66.617  1.00  0.00    -0.112 OA 
HETATM   27  C   UNL     1     -11.861  15.411  64.969  1.00  0.00    -0.019 C  
BRANCH  17  28
HETATM   28  O   UNL     1     -10.429  12.461  66.516  1.00  0.00    -0.227 OA 
BRANCH  28  29
HETATM   29  C   UNL     1     -10.213  11.136  66.897  1.00  0.00    -0.222 C  
HETATM   30  O   UNL     1     -10.794   9.197  68.270  1.00  0.00    -0.163 OA 
HETATM   31  C   UNL     1     -10.759  10.567  68.000  1.00  0.00    -0.245 C  
HETATM   32  C   UNL     1     -10.107   8.343  67.445  1.00  0.00    -0.236 A  
HETATM   33  O   UNL     1      -9.630  10.492  64.724  1.00  0.00    -0.233 OA 
HETATM   34  H   UNL     1      -7.681   9.411  64.504  1.00  0.00     0.000 HD 
HETATM   35  C   UNL     1     -10.143   6.970  67.687  1.00  0.00    -0.218 A  
HETATM   36  C   UNL     1      -9.672  10.179  65.908  1.00  0.00    -0.232 C  
HETATM   37  C   UNL     1      -9.378   6.113  66.887  1.00  0.00    -0.134 A  
HETATM   38  C   UNL     1      -9.363   8.826  66.351  1.00  0.00    -0.264 A  
HETATM   39  O   UNL     1      -7.684   8.479  64.691  1.00  0.00    -0.103 OA 
HETATM   40  C   UNL     1      -8.531   6.607  65.901  1.00  0.00    -0.145 A  
HETATM   41  O   UNL     1      -9.423   4.756  67.029  1.00  0.00    -0.133 OA 
HETATM   42  H   UNL     1      -8.904   4.175  66.485  1.00  0.00     0.000 HD 
HETATM   43  C   UNL     1      -8.527   7.967  65.628  1.00  0.00    -0.147 A  
BRANCH  31  44
HETATM   44  C   UNL     1     -11.474  11.414  68.966  1.00  0.00    -0.366 A  
HETATM   45  O   UNL     1     -12.858  13.849  72.028  1.00  0.00    -0.326 OA 
HETATM   46  H   UNL     1     -13.581  11.750  72.865  1.00  0.00     0.000 HD 
HETATM   47  C   UNL     1     -11.317  12.812  68.894  1.00  0.00    -0.344 A  
HETATM   48  H   UNL     1     -12.723  14.788  71.987  1.00  0.00     0.000 HD 
HETATM   49  O   UNL     1     -13.266  11.183  72.171  1.00  0.00    -0.481 OA 
HETATM   50  C   UNL     1     -12.445  13.054  70.995  1.00  0.00    -0.296 A  
HETATM   51  C   UNL     1     -12.644  11.677  71.055  1.00  0.00    -0.331 A  
HETATM   52  C   UNL     1     -12.181  10.846  70.037  1.00  0.00    -0.422 A  
HETATM   53  C   UNL     1     -11.801  13.635  69.913  1.00  0.00    -0.389 A  
ENDBRANCH  31  44
ENDBRANCH  28  29
ENDBRANCH  17  28
ENDBRANCH  15  16
ENDBRANCH  14  15
ENDBRANCH   4  14
TORSDOF 6
ENDMDL
MODEL       22
REMARK 921   NORMALIZED FREE ENERGY PREDICTED BY IDOCK:   -7.85 KCAL/MOL
REMARK 922        TOTAL FREE ENERGY PREDICTED BY IDOCK:  -12.08 KCAL/MOL
REMARK 923 INTER-LIGAND FREE ENERGY PREDICTED BY IDOCK:   -9.62 KCAL/MOL
REMARK 924 INTRA-LIGAND FREE ENERGY PREDICTED BY IDOCK:   -2.45 KCAL/MOL
REMARK 927      BINDING AFFINITY PREDICTED BY RF-SCORE:    0.00 PKD
ROOT
HETATM    1  C   UNL     1     -10.061   3.362  73.019  1.00  0.00    -0.221 C  
HETATM    2  C   UNL     1      -8.900   4.138  72.389  1.00  0.00    -0.107 C  
HETATM    3  O   UNL     1      -8.656   3.462  71.155  1.00  0.00    -0.069 OA 
HETATM    4  C   UNL     1      -7.410   3.606  70.488  1.00  0.00    -0.041 C  
HETATM    5  H   UNL     1      -5.493   5.401  74.140  1.00  0.00     0.000 HD 
HETATM    6  C   UNL     1      -6.199   3.680  71.430  1.00  0.00    -0.015 C  
HETATM    7  C   UNL     1      -6.467   4.674  72.570  1.00  0.00    -0.041 C  
HETATM    8  O   UNL     1      -8.015   5.067  74.459  1.00  0.00    -0.095 OA 
HETATM    9  O   UNL     1      -5.917   2.381  71.985  1.00  0.00    -0.009 OA 
HETATM   10  H   UNL     1      -5.168   2.427  72.568  1.00  0.00     0.000 HD 
HETATM   11  H   UNL     1      -7.275   5.108  75.055  1.00  0.00     0.000 HD 
HETATM   12  O   UNL     1      -5.327   4.787  73.435  1.00  0.00    -0.008 OA 
HETATM   13  C   UNL     1      -7.701   4.204  73.355  1.00  0.00    -0.085 C  
ENDROOT
BRANCH   4  14
HETATM   14  O   UNL     1      -7.342   4.677  69.545  1.00  0.00    -0.051 OA 
BRANCH  14  15
HETATM   15  C   UNL     1      -8.517   5.508  69.544  1.00  0.00    -0.105 C  
BRANCH  15  16
HETATM   16  C   UNL     1      -9.526   4.928  68.545  1.00  0.00    -0.143 C  
HETATM   17  C   UNL     1     -10.742   6.866  67.620  1.00  0.00    -0.274 C  
HETATM   18  O   UNL     1     -10.739   5.719  68.496  1.00  0.00    -0.236 OA 
HETATM   19  H   UNL     1      -7.056   6.235  66.389  1.00  0.00     0.000 HD 
HETATM   20  C   UNL     1     -10.400   6.334  66.209  1.00  0.00     0.112 C  
HETATM   21  H   UNL     1      -9.120   3.146  65.860  1.00  0.00     0.000 HD 
HETATM   22  O   UNL     1     -11.361   5.330  65.795  1.00  0.00    -0.792 OA 
HETATM   23  C   UNL     1      -8.997   5.708  66.174  1.00  0.00    -0.151 C  
HETATM   24  H   UNL     1     -11.151   5.003  64.928  1.00  0.00     0.000 HD 
HETATM   25  O   UNL     1      -9.512   3.368  66.696  1.00  0.00    -0.185 OA 
HETATM   26  O   UNL     1      -7.924   6.622  66.411  1.00  0.00    -0.102 OA 
HETATM   27  C   UNL     1      -8.889   4.567  67.190  1.00  0.00    -0.109 C  
BRANCH  17  28
HETATM   28  O   UNL     1      -9.910   7.916  68.136  1.00  0.00    -0.159 OA 
BRANCH  28  29
HETATM   29  C   UNL     1     -10.520   9.139  68.414  1.00  0.00    -0.199 C  
HETATM   30  O   UNL     1     -11.179  10.870  70.012  1.00  0.00    -0.281 OA 
HETATM   31  C   UNL     1     -10.825   9.564  69.666  1.00  0.00    -0.235 C  
HETATM   32  C   UNL     1     -11.382  11.788  69.012  1.00  0.00    -0.278 A  
HETATM   33  O   UNL     1      -9.817  10.077  66.390  1.00  0.00    -0.199 OA 
HETATM   34  H   UNL     1     -11.414  11.015  65.129  1.00  0.00     0.000 HD 
HETATM   35  C   UNL     1     -11.719  13.101  69.337  1.00  0.00    -0.386 A  
HETATM   36  C   UNL     1     -10.528  10.196  67.381  1.00  0.00    -0.256 C  
HETATM   37  C   UNL     1     -11.998  14.011  68.311  1.00  0.00    -0.349 A  
HETATM   38  C   UNL     1     -11.253  11.429  67.656  1.00  0.00    -0.346 A  
HETATM   39  O   UNL     1     -11.673  11.901  65.355  1.00  0.00    -0.296 OA 
HETATM   40  C   UNL     1     -12.014  13.615  66.977  1.00  0.00    -0.448 A  
HETATM   41  O   UNL     1     -12.267  15.326  68.559  1.00  0.00    -0.572 OA 
HETATM   42  H   UNL     1     -12.456  15.943  67.863  1.00  0.00     0.000 HD 
HETATM   43  C   UNL     1     -11.635  12.322  66.648  1.00  0.00    -0.375 A  
BRANCH  31  44
HETATM   44  C   UNL     1     -10.683   8.634  70.795  1.00  0.00    -0.260 A  
HETATM   45  O   UNL     1     -10.731   6.457  74.328  1.00  0.00    -0.406 OA 
HETATM   46  H   UNL     1      -8.698   7.637  74.644  1.00  0.00     0.000 HD 
HETATM   47  C   UNL     1     -11.718   7.712  71.053  1.00  0.00    -0.306 A  
HETATM   48  H   UNL     1     -11.447   5.859  74.508  1.00  0.00     0.000 HD 
HETATM   49  O   UNL     1      -8.678   8.142  73.841  1.00  0.00    -0.264 OA 
HETATM   50  C   UNL     1     -10.692   7.135  73.141  1.00  0.00    -0.346 A  
HETATM   51  C   UNL     1      -9.643   8.012  72.877  1.00  0.00    -0.279 A  
HETATM   52  C   UNL     1      -9.615   8.753  71.698  1.00  0.00    -0.363 A  
HETATM   53  C   UNL     1     -11.724   6.963  72.231  1.00  0.00    -0.296 A  
ENDBRANCH  31  44
ENDBRANCH  28  29
ENDBRANCH  17  28
ENDBRANCH  15  16
ENDBRANCH  14  15
ENDBRANCH   4  14
TORSDOF 6
ENDMDL
MODEL       23
REMARK 921   NORMALIZED FREE ENERGY PREDICTED BY IDOCK:   -7.81 KCAL/MOL
REMARK 922        TOTAL FREE ENERGY PREDICTED BY IDOCK:  -12.03 KCAL/MOL
REMARK 923 INTER-LIGAND FREE ENERGY PREDICTED BY IDOCK:  -10.71 KCAL/MOL
REMARK 924 INTRA-LIGAND FREE ENERGY PREDICTED BY IDOCK:   -1.32 KCAL/MOL
REMARK 927      BINDING AFFINITY PREDICTED BY RF-SCORE:    0.00 PKD
ROOT
HETATM    1  C   UNL     1     -14.405   8.838  71.837  1.00  0.00    -0.441 C  
HETATM    2  C   UNL     1     -13.099   9.626  71.686  1.00  0.00    -0.412 C  
HETATM    3  O   UNL     1     -13.299  10.413  70.511  1.00  0.00    -0.238 OA 
HETATM    4  C   UNL     1     -12.190  10.951  69.806  1.00  0.00    -0.311 C  
HETATM    5  H   UNL     1      -9.312   8.270  71.990  1.00  0.00     0.000 HD 
HETATM    6  C   UNL     1     -10.968  10.021  69.755  1.00  0.00    -0.276 C  
HETATM    7  C   UNL     1     -10.664   9.457  71.151  1.00  0.00    -0.347 C  
HETATM    8  O   UNL     1     -11.687   8.087  72.939  1.00  0.00    -0.557 OA 
HETATM    9  O   UNL     1     -11.207   8.933  68.841  1.00  0.00    -0.437 OA 
HETATM   10  H   UNL     1     -10.452   8.357  68.810  1.00  0.00     0.000 HD 
HETATM   11  H   UNL     1     -10.941   7.499  72.913  1.00  0.00     0.000 HD 
HETATM   12  O   UNL     1      -9.499   8.619  71.127  1.00  0.00    -0.176 OA 
HETATM   13  C   UNL     1     -11.890   8.672  71.643  1.00  0.00    -0.323 C  
ENDROOT
BRANCH   4  14
HETATM   14  O   UNL     1     -11.774  12.254  70.222  1.00  0.00    -0.271 OA 
BRANCH  14  15
HETATM   15  C   UNL     1     -11.661  13.188  69.134  1.00  0.00    -0.316 C  
BRANCH  15  16
HETATM   16  C   UNL     1     -10.891  14.420  69.624  1.00  0.00    -0.111 C  
HETATM   17  C   UNL     1      -8.821  14.495  68.282  1.00  0.00    -0.179 C  
HETATM   18  O   UNL     1      -9.458  14.217  69.547  1.00  0.00     0.234 OA 
HETATM   19  H   UNL     1     -12.190  15.563  66.547  1.00  0.00     0.000 HD 
HETATM   20  C   UNL     1      -9.167  15.962  67.935  1.00  0.00    -0.198 C  
HETATM   21  H   UNL     1     -11.677  17.571  69.676  1.00  0.00     0.000 HD 
HETATM   22  O   UNL     1      -8.710  16.855  68.983  1.00  0.00    -0.240 OA 
HETATM   23  C   UNL     1     -10.682  16.151  67.760  1.00  0.00    -0.325 C  
HETATM   24  H   UNL     1      -8.923  17.756  68.770  1.00  0.00     0.000 HD 
HETATM   25  O   UNL     1     -11.346  16.759  70.041  1.00  0.00    -0.042 OA 
HETATM   26  O   UNL     1     -11.253  15.446  66.656  1.00  0.00    -0.284 OA 
HETATM   27  C   UNL     1     -11.428  15.737  69.031  1.00  0.00    -0.391 C  
BRANCH  17  28
HETATM   28  O   UNL     1      -9.157  13.501  67.301  1.00  0.00    -0.206 OA 
BRANCH  28  29
HETATM   29  C   UNL     1      -8.828  12.177  67.592  1.00  0.00    -0.172 C  
HETATM   30  O   UNL     1      -8.760   9.815  66.959  1.00  0.00    -0.133 OA 
HETATM   31  C   UNL     1      -9.271  11.113  66.877  1.00  0.00    -0.169 C  
HETATM   32  C   UNL     1      -7.833   9.529  67.929  1.00  0.00    -0.091 A  
HETATM   33  O   UNL     1      -6.896  12.798  68.757  1.00  0.00    -0.087 OA 
HETATM   34  H   UNL     1      -6.682  11.968  70.827  1.00  0.00     0.000 HD 
HETATM   35  C   UNL     1      -7.299   8.244  68.016  1.00  0.00    -0.096 A  
HETATM   36  C   UNL     1      -7.676  11.896  68.474  1.00  0.00    -0.135 C  
HETATM   37  C   UNL     1      -6.412   7.940  69.056  1.00  0.00    -0.037 A  
HETATM   38  C   UNL     1      -7.407  10.512  68.843  1.00  0.00    -0.098 A  
HETATM   39  O   UNL     1      -6.343  11.084  70.902  1.00  0.00    -0.339 OA 
HETATM   40  C   UNL     1      -6.106   8.872  70.043  1.00  0.00    -0.037 A  
HETATM   41  O   UNL     1      -5.802   6.723  69.157  1.00  0.00    -0.017 OA 
HETATM   42  H   UNL     1      -5.200   6.517  69.862  1.00  0.00     0.000 HD 
HETATM   43  C   UNL     1      -6.601  10.163  69.933  1.00  0.00    -0.100 A  
BRANCH  31  44
HETATM   44  C   UNL     1     -10.299  11.317  65.847  1.00  0.00    -0.304 A  
HETATM   45  O   UNL     1     -12.789  12.449  62.726  1.00  0.00    -0.418 OA 
HETATM   46  H   UNL     1     -13.940  13.493  64.518  1.00  0.00     0.000 HD 
HETATM   47  C   UNL     1     -10.043  10.878  64.533  1.00  0.00    -0.404 A  
HETATM   48  H   UNL     1     -12.594  12.173  61.838  1.00  0.00     0.000 HD 
HETATM   49  O   UNL     1     -13.375  13.243  65.239  1.00  0.00    -0.561 OA 
HETATM   50  C   UNL     1     -11.995  12.034  63.759  1.00  0.00    -0.490 A  
HETATM   51  C   UNL     1     -12.281  12.438  65.061  1.00  0.00    -0.399 A  
HETATM   52  C   UNL     1     -11.452  12.070  66.118  1.00  0.00    -0.401 A  
HETATM   53  C   UNL     1     -10.892  11.240  63.485  1.00  0.00    -0.373 A  
ENDBRANCH  31  44
ENDBRANCH  28  29
ENDBRANCH  17  28
ENDBRANCH  15  16
ENDBRANCH  14  15
ENDBRANCH   4  14
TORSDOF 6
ENDMDL
MODEL       24
REMARK 921   NORMALIZED FREE ENERGY PREDICTED BY IDOCK:   -7.74 KCAL/MOL
REMARK 922        TOTAL FREE ENERGY PREDICTED BY IDOCK:  -11.94 KCAL/MOL
REMARK 923 INTER-LIGAND FREE ENERGY PREDICTED BY IDOCK:   -9.21 KCAL/MOL
REMARK 924 INTRA-LIGAND FREE ENERGY PREDICTED BY IDOCK:   -2.72 KCAL/MOL
REMARK 927      BINDING AFFINITY PREDICTED BY RF-SCORE:    0.00 PKD
ROOT
HETATM    1  C   UNL     1      -8.891   1.595  65.835  1.00  0.00    -0.119 C  
HETATM    2  C   UNL     1      -8.510   2.776  66.732  1.00  0.00    -0.101 C  
HETATM    3  O   UNL     1      -9.763   3.317  67.150  1.00  0.00    -0.127 OA 
HETATM    4  C   UNL     1      -9.847   4.649  67.637  1.00  0.00    -0.141 C  
HETATM    5  H   UNL     1      -5.757   5.646  66.050  1.00  0.00     0.000 HD 
HETATM    6  C   UNL     1      -8.931   5.643  66.908  1.00  0.00    -0.112 C  
HETATM    7  C   UNL     1      -7.513   5.067  66.775  1.00  0.00    -0.087 C  
HETATM    8  O   UNL     1      -6.296   3.153  65.787  1.00  0.00    -0.030 OA 
HETATM    9  O   UNL     1      -9.453   5.935  65.597  1.00  0.00    -0.361 OA 
HETATM   10  H   UNL     1      -8.886   6.549  65.146  1.00  0.00     0.000 HD 
HETATM   11  H   UNL     1      -5.726   3.756  65.323  1.00  0.00     0.000 HD 
HETATM   12  O   UNL     1      -6.634   6.002  66.133  1.00  0.00    -0.045 OA 
HETATM   13  C   UNL     1      -7.586   3.754  65.980  1.00  0.00    -0.088 C  
ENDROOT
BRANCH   4  14
HETATM   14  O   UNL     1      -9.675   4.796  69.048  1.00  0.00    -0.155 OA 
BRANCH  14  15
HETATM   15  C   UNL     1     -10.161   6.052  69.552  1.00  0.00    -0.208 C  
BRANCH  15  16
HETATM   16  C   UNL     1      -9.951   6.087  71.071  1.00  0.00    -0.187 C  
HETATM   17  C   UNL     1     -10.518   8.384  71.774  1.00  0.00    -0.283 C  
HETATM   18  O   UNL     1      -9.503   7.391  71.516  1.00  0.00    -0.152 OA 
HETATM   19  H   UNL     1     -13.471   5.952  70.839  1.00  0.00     0.000 HD 
HETATM   20  C   UNL     1     -11.471   7.765  72.824  1.00  0.00    -0.359 C  
HETATM   21  H   UNL     1     -11.313   4.378  73.474  1.00  0.00     0.000 HD 
HETATM   22  O   UNL     1     -10.742   7.406  74.025  1.00  0.00    -0.550 OA 
HETATM   23  C   UNL     1     -12.160   6.505  72.277  1.00  0.00    -0.193 C  
HETATM   24  H   UNL     1     -11.328   7.026  74.670  1.00  0.00     0.000 HD 
HETATM   25  O   UNL     1     -10.590   4.763  72.992  1.00  0.00    -0.190 OA 
HETATM   26  O   UNL     1     -13.044   6.731  71.177  1.00  0.00    -0.249 OA 
HETATM   27  C   UNL     1     -11.123   5.463  71.853  1.00  0.00    -0.108 C  
BRANCH  17  28
HETATM   28  O   UNL     1     -11.114   8.848  70.552  1.00  0.00    -0.243 OA 
BRANCH  28  29
HETATM   29  C   UNL     1     -11.164  10.227  70.347  1.00  0.00    -0.332 C  
HETATM   30  O   UNL     1     -10.661  12.192  68.980  1.00  0.00    -0.181 OA 
HETATM   31  C   UNL     1     -10.445  10.877  69.399  1.00  0.00    -0.173 C  
HETATM   32  C   UNL     1     -11.570  12.961  69.661  1.00  0.00    -0.248 A  
HETATM   33  O   UNL     1     -13.265  10.412  71.358  1.00  0.00    -0.380 OA 
HETATM   34  H   UNL     1     -13.444  11.933  72.993  1.00  0.00     0.000 HD 
HETATM   35  C   UNL     1     -11.813  14.271  69.248  1.00  0.00    -0.372 A  
HETATM   36  C   UNL     1     -12.287  11.002  70.914  1.00  0.00    -0.402 C  
HETATM   37  C   UNL     1     -12.686  15.073  69.993  1.00  0.00    -0.160 A  
HETATM   38  C   UNL     1     -12.271  12.452  70.772  1.00  0.00    -0.336 A  
HETATM   39  O   UNL     1     -13.584  12.834  72.727  1.00  0.00    -0.449 OA 
HETATM   40  C   UNL     1     -13.262  14.614  71.173  1.00  0.00    -0.431 A  
HETATM   41  O   UNL     1     -13.018  16.339  69.605  1.00  0.00    -0.320 OA 
HETATM   42  H   UNL     1     -13.610  16.883  70.111  1.00  0.00     0.000 HD 
HETATM   43  C   UNL     1     -13.058  13.298  71.561  1.00  0.00    -0.328 A  
BRANCH  31  44
HETATM   44  C   UNL     1      -9.414  10.143  68.651  1.00  0.00    -0.164 A  
HETATM   45  O   UNL     1      -6.274   8.727  66.336  1.00  0.00    -0.058 OA 
HETATM   46  H   UNL     1      -8.041   8.447  64.778  1.00  0.00     0.000 HD 
HETATM   47  C   UNL     1      -8.111  10.064  69.183  1.00  0.00    -0.126 A  
HETATM   48  H   UNL     1      -5.394   8.704  66.691  1.00  0.00     0.000 HD 
HETATM   49  O   UNL     1      -8.766   8.772  65.298  1.00  0.00    -0.182 OA 
HETATM   50  C   UNL     1      -7.314   9.147  67.117  1.00  0.00    -0.087 A  
HETATM   51  C   UNL     1      -8.605   9.181  66.595  1.00  0.00    -0.127 A  
HETATM   52  C   UNL     1      -9.668   9.658  67.358  1.00  0.00    -0.198 A  
HETATM   53  C   UNL     1      -7.058   9.568  68.413  1.00  0.00    -0.071 A  
ENDBRANCH  31  44
ENDBRANCH  28  29
ENDBRANCH  17  28
ENDBRANCH  15  16
ENDBRANCH  14  15
ENDBRANCH   4  14
TORSDOF 6
ENDMDL
MODEL       25
REMARK 921   NORMALIZED FREE ENERGY PREDICTED BY IDOCK:   -7.71 KCAL/MOL
REMARK 922        TOTAL FREE ENERGY PREDICTED BY IDOCK:  -11.89 KCAL/MOL
REMARK 923 INTER-LIGAND FREE ENERGY PREDICTED BY IDOCK:  -10.30 KCAL/MOL
REMARK 924 INTRA-LIGAND FREE ENERGY PREDICTED BY IDOCK:   -1.59 KCAL/MOL
REMARK 927      BINDING AFFINITY PREDICTED BY RF-SCORE:    0.00 PKD
ROOT
HETATM    1  C   UNL     1      -7.820   3.379  65.569  1.00  0.00    -0.085 C  
HETATM    2  C   UNL     1      -8.656   3.944  66.722  1.00  0.00    -0.107 C  
HETATM    3  O   UNL     1      -7.902   5.067  67.182  1.00  0.00    -0.095 OA 
HETATM    4  C   UNL     1      -8.118   5.595  68.483  1.00  0.00    -0.103 C  
HETATM    5  H   UNL     1     -10.420   1.943  69.747  1.00  0.00     0.000 HD 
HETATM    6  C   UNL     1      -8.403   4.530  69.553  1.00  0.00    -0.073 C  
HETATM    7  C   UNL     1      -9.459   3.535  69.052  1.00  0.00    -0.143 C  
HETATM    8  O   UNL     1      -9.852   1.888  67.248  1.00  0.00    -0.334 OA 
HETATM    9  O   UNL     1      -7.194   3.819  69.884  1.00  0.00    -0.041 OA 
HETATM   10  H   UNL     1      -7.371   3.160  70.546  1.00  0.00     0.000 HD 
HETATM   11  H   UNL     1     -10.023   1.218  67.898  1.00  0.00     0.000 HD 
HETATM   12  O   UNL     1      -9.767   2.558  70.057  1.00  0.00    -0.059 OA 
HETATM   13  C   UNL     1      -8.933   2.857  67.777  1.00  0.00    -0.159 C  
ENDROOT
BRANCH   4  14
HETATM   14  O   UNL     1      -9.103   6.626  68.569  1.00  0.00    -0.130 OA 
BRANCH  14  15
HETATM   15  C   UNL     1      -8.582   7.935  68.281  1.00  0.00    -0.124 C  
BRANCH  15  16
HETATM   16  C   UNL     1      -9.172   8.418  66.950  1.00  0.00    -0.157 C  
HETATM   17  C   UNL     1     -10.839  10.139  67.542  1.00  0.00    -0.290 C  
HETATM   18  O   UNL     1     -10.564   8.796  67.093  1.00  0.00    -0.291 OA 
HETATM   19  H   UNL     1      -7.026  11.091  67.791  1.00  0.00     0.000 HD 
HETATM   20  C   UNL     1     -10.134  11.083  66.540  1.00  0.00    -0.226 C  
HETATM   21  H   UNL     1      -7.792   9.796  64.354  1.00  0.00     0.000 HD 
HETATM   22  O   UNL     1     -10.617  10.850  65.193  1.00  0.00    -0.269 OA 
HETATM   23  C   UNL     1      -8.611  10.875  66.554  1.00  0.00    -0.156 C  
HETATM   24  H   UNL     1     -10.185  11.429  64.577  1.00  0.00     0.000 HD 
HETATM   25  O   UNL     1      -8.353   9.176  64.805  1.00  0.00    -0.150 OA 
HETATM   26  O   UNL     1      -7.968  11.219  67.783  1.00  0.00    -0.111 OA 
HETATM   27  C   UNL     1      -8.262   9.422  66.220  1.00  0.00    -0.111 C  
BRANCH  17  28
HETATM   28  O   UNL     1     -10.505  10.302  68.929  1.00  0.00    -0.188 OA 
BRANCH  28  29
HETATM   29  C   UNL     1     -11.351  11.099  69.702  1.00  0.00    -0.294 C  
HETATM   30  O   UNL     1     -12.614  11.482  71.761  1.00  0.00    -0.260 OA 
HETATM   31  C   UNL     1     -11.988  10.665  70.818  1.00  0.00    -0.374 C  
HETATM   32  C   UNL     1     -12.737  12.823  71.497  1.00  0.00    -0.229 A  
HETATM   33  O   UNL     1     -10.380  13.079  68.922  1.00  0.00    -0.170 OA 
HETATM   34  H   UNL     1     -11.790  14.610  68.093  1.00  0.00     0.000 HD 
HETATM   35  C   UNL     1     -13.344  13.659  72.433  1.00  0.00    -0.641 A  
HETATM   36  C   UNL     1     -11.300  12.568  69.548  1.00  0.00    -0.171 C  
HETATM   37  C   UNL     1     -13.533  15.011  72.122  1.00  0.00    -0.407 A  
HETATM   38  C   UNL     1     -12.257  13.376  70.293  1.00  0.00    -0.405 A  
HETATM   39  O   UNL     1     -12.231  15.171  68.720  1.00  0.00    -0.204 OA 
HETATM   40  C   UNL     1     -13.191  15.522  70.874  1.00  0.00    -0.474 A  
HETATM   41  O   UNL     1     -14.058  15.895  73.020  1.00  0.00    -0.653 OA 
HETATM   42  H   UNL     1     -14.186  16.813  72.809  1.00  0.00     0.000 HD 
HETATM   43  C   UNL     1     -12.547  14.704  69.959  1.00  0.00    -0.230 A  
BRANCH  31  44
HETATM   44  C   UNL     1     -11.950   9.234  71.156  1.00  0.00    -0.394 A  
HETATM   45  O   UNL     1     -12.042   5.413  72.772  1.00  0.00    -0.448 OA 
HETATM   46  H   UNL     1      -9.711   5.826  72.925  1.00  0.00     0.000 HD 
HETATM   47  C   UNL     1     -13.162   8.520  71.234  1.00  0.00    -0.158 A  
HETATM   48  H   UNL     1     -12.867   4.949  72.848  1.00  0.00     0.000 HD 
HETATM   49  O   UNL     1      -9.679   6.703  72.560  1.00  0.00    -0.158 OA 
HETATM   50  C   UNL     1     -12.008   6.651  72.193  1.00  0.00    -0.280 A  
HETATM   51  C   UNL     1     -10.797   7.332  72.081  1.00  0.00    -0.229 A  
HETATM   52  C   UNL     1     -10.751   8.617  71.546  1.00  0.00    -0.352 A  
HETATM   53  C   UNL     1     -13.192   7.226  71.758  1.00  0.00    -0.368 A  
ENDBRANCH  31  44
ENDBRANCH  28  29
ENDBRANCH  17  28
ENDBRANCH  15  16
ENDBRANCH  14  15
ENDBRANCH   4  14
TORSDOF 6
ENDMDL
MODEL       26
REMARK 921   NORMALIZED FREE ENERGY PREDICTED BY IDOCK:   -7.59 KCAL/MOL
REMARK 922        TOTAL FREE ENERGY PREDICTED BY IDOCK:  -11.74 KCAL/MOL
REMARK 923 INTER-LIGAND FREE ENERGY PREDICTED BY IDOCK:  -10.94 KCAL/MOL
REMARK 924 INTRA-LIGAND FREE ENERGY PREDICTED BY IDOCK:   -0.80 KCAL/MOL
REMARK 927      BINDING AFFINITY PREDICTED BY RF-SCORE:    0.00 PKD
ROOT
HETATM    1  C   UNL     1     -11.618  13.875  67.832  1.00  0.00    -0.377 C  
HETATM    2  C   UNL     1     -11.820  12.926  66.646  1.00  0.00    -0.395 C  
HETATM    3  O   UNL     1     -10.574  12.238  66.531  1.00  0.00    -0.227 OA 
HETATM    4  C   UNL     1     -10.215  11.594  65.317  1.00  0.00    -0.272 C  
HETATM    5  H   UNL     1     -13.456  13.735  63.048  1.00  0.00     0.000 HD 
HETATM    6  C   UNL     1     -10.650  12.350  64.053  1.00  0.00    -0.413 C  
HETATM    7  C   UNL     1     -12.116  12.791  64.168  1.00  0.00    -0.438 C  
HETATM    8  O   UNL     1     -13.603  14.188  65.567  1.00  0.00    -0.685 OA 
HETATM    9  O   UNL     1      -9.817  13.509  63.853  1.00  0.00    -0.575 OA 
HETATM   10  H   UNL     1     -10.086  13.977  63.071  1.00  0.00     0.000 HD 
HETATM   11  H   UNL     1     -13.875  14.670  64.795  1.00  0.00     0.000 HD 
HETATM   12  O   UNL     1     -12.550  13.463  62.976  1.00  0.00    -0.669 OA 
HETATM   13  C   UNL     1     -12.261  13.708  65.393  1.00  0.00    -0.444 C  
ENDROOT
BRANCH   4  14
HETATM   14  O   UNL     1     -10.616  10.226  65.210  1.00  0.00    -0.147 OA 
BRANCH  14  15
HETATM   15  C   UNL     1     -10.274   9.442  66.366  1.00  0.00    -0.230 C  
BRANCH  15  16
HETATM   16  C   UNL     1      -8.753   9.251  66.398  1.00  0.00    -0.132 C  
HETATM   17  C   UNL     1      -8.303   7.777  68.326  1.00  0.00    -0.125 C  
HETATM   18  O   UNL     1      -8.264   9.102  67.754  1.00  0.00    -0.108 OA 
HETATM   19  H   UNL     1      -9.835   6.161  65.080  1.00  0.00     0.000 HD 
HETATM   20  C   UNL     1      -7.494   6.870  67.370  1.00  0.00    -0.097 C  
HETATM   21  H   UNL     1      -6.691   8.016  64.214  1.00  0.00     0.000 HD 
HETATM   22  O   UNL     1      -6.138   7.361  67.224  1.00  0.00    -0.043 OA 
HETATM   23  C   UNL     1      -8.143   6.810  65.978  1.00  0.00    -0.119 C  
HETATM   24  H   UNL     1      -5.642   6.803  66.637  1.00  0.00     0.000 HD 
HETATM   25  O   UNL     1      -6.996   8.657  64.845  1.00  0.00    -0.072 OA 
HETATM   26  O   UNL     1      -9.434   6.198  65.941  1.00  0.00    -0.077 OA 
HETATM   27  C   UNL     1      -8.258   8.212  65.374  1.00  0.00    -0.146 C  
BRANCH  17  28
HETATM   28  O   UNL     1      -9.650   7.375  68.617  1.00  0.00    -0.145 OA 
BRANCH  28  29
HETATM   29  C   UNL     1      -9.879   6.733  69.834  1.00  0.00    -0.164 C  
HETATM   30  O   UNL     1     -11.169   6.485  71.897  1.00  0.00    -0.247 OA 
HETATM   31  C   UNL     1     -10.703   7.212  70.799  1.00  0.00    -0.231 C  
HETATM   32  C   UNL     1     -10.661   5.232  72.125  1.00  0.00    -0.221 A  
HETATM   33  O   UNL     1      -9.237   4.651  68.981  1.00  0.00    -0.111 OA 
HETATM   34  H   UNL     1      -7.675   3.546  70.146  1.00  0.00     0.000 HD 
HETATM   35  C   UNL     1     -11.125   4.484  73.206  1.00  0.00    -0.389 A  
HETATM   36  C   UNL     1      -9.518   5.306  69.977  1.00  0.00    -0.160 C  
HETATM   37  C   UNL     1     -10.547   3.237  73.475  1.00  0.00    -0.195 A  
HETATM   38  C   UNL     1      -9.676   4.680  71.282  1.00  0.00    -0.251 A  
HETATM   39  O   UNL     1      -7.972   3.052  70.901  1.00  0.00    -0.052 OA 
HETATM   40  C   UNL     1      -9.474   2.760  72.730  1.00  0.00    -0.148 A  
HETATM   41  O   UNL     1     -11.002   2.427  74.476  1.00  0.00    -0.075 OA 
HETATM   42  H   UNL     1     -10.610   1.582  74.658  1.00  0.00     0.000 HD 
HETATM   43  C   UNL     1      -9.040   3.481  71.627  1.00  0.00    -0.113 A  
BRANCH  31  44
HETATM   44  C   UNL     1     -11.258   8.566  70.662  1.00  0.00    -0.278 A  
HETATM   45  O   UNL     1     -12.304  12.581  70.737  1.00  0.00    -0.377 OA 
HETATM   46  H   UNL     1     -13.893  11.753  72.292  1.00  0.00     0.000 HD 
HETATM   47  C   UNL     1     -10.599   9.492  69.830  1.00  0.00    -0.257 A  
HETATM   48  H   UNL     1     -11.837  13.204  70.195  1.00  0.00     0.000 HD 
HETATM   49  O   UNL     1     -13.660  10.832  72.285  1.00  0.00    -0.244 OA 
HETATM   50  C   UNL     1     -11.991  11.252  70.674  1.00  0.00    -0.336 A  
HETATM   51  C   UNL     1     -12.678  10.337  71.469  1.00  0.00    -0.452 A  
HETATM   52  C   UNL     1     -12.335   8.987  71.458  1.00  0.00    -0.397 A  
HETATM   53  C   UNL     1     -10.965  10.840  69.838  1.00  0.00    -0.304 A  
ENDBRANCH  31  44
ENDBRANCH  28  29
ENDBRANCH  17  28
ENDBRANCH  15  16
ENDBRANCH  14  15
ENDBRANCH   4  14
TORSDOF 6
ENDMDL
MODEL       27
REMARK 921   NORMALIZED FREE ENERGY PREDICTED BY IDOCK:   -7.55 KCAL/MOL
REMARK 922        TOTAL FREE ENERGY PREDICTED BY IDOCK:  -11.67 KCAL/MOL
REMARK 923 INTER-LIGAND FREE ENERGY PREDICTED BY IDOCK:   -9.38 KCAL/MOL
REMARK 924 INTRA-LIGAND FREE ENERGY PREDICTED BY IDOCK:   -2.29 KCAL/MOL
REMARK 927      BINDING AFFINITY PREDICTED BY RF-SCORE:    0.00 PKD
ROOT
HETATM    1  C   UNL     1      -9.422   3.526  72.530  1.00  0.00    -0.179 C  
HETATM    2  C   UNL     1      -8.504   4.013  71.405  1.00  0.00    -0.085 C  
HETATM    3  O   UNL     1      -9.292   4.973  70.701  1.00  0.00    -0.146 OA 
HETATM    4  C   UNL     1      -8.966   5.337  69.367  1.00  0.00    -0.100 C  
HETATM    5  H   UNL     1      -6.204   1.813  68.926  1.00  0.00     0.000 HD 
HETATM    6  C   UNL     1      -8.455   4.171  68.507  1.00  0.00    -0.091 C  
HETATM    7  C   UNL     1      -7.384   3.374  69.265  1.00  0.00    -0.049 C  
HETATM    8  O   UNL     1      -7.071   2.044  71.327  1.00  0.00    -0.031 OA 
HETATM    9  O   UNL     1      -9.544   3.295  68.156  1.00  0.00    -0.177 OA 
HETATM   10  H   UNL     1      -9.228   2.574  67.624  1.00  0.00     0.000 HD 
HETATM   11  H   UNL     1      -6.760   1.312  70.807  1.00  0.00     0.000 HD 
HETATM   12  O   UNL     1      -6.866   2.306  68.457  1.00  0.00    -0.038 OA 
HETATM   13  C   UNL     1      -8.001   2.826  70.561  1.00  0.00    -0.042 C  
ENDROOT
BRANCH   4  14
HETATM   14  O   UNL     1      -8.074   6.446  69.237  1.00  0.00    -0.108 OA 
BRANCH  14  15
HETATM   15  C   UNL     1      -8.751   7.713  69.172  1.00  0.00    -0.139 C  
BRANCH  15  16
HETATM   16  C   UNL     1      -9.309   7.900  67.756  1.00  0.00    -0.140 C  
HETATM   17  C   UNL     1     -10.720   9.923  67.853  1.00  0.00    -0.265 C  
HETATM   18  O   UNL     1     -10.635   8.484  67.780  1.00  0.00    -0.232 OA 
HETATM   19  H   UNL     1      -6.811  10.391  67.876  1.00  0.00     0.000 HD 
HETATM   20  C   UNL     1      -9.925  10.465  66.642  1.00  0.00    -0.210 C  
HETATM   21  H   UNL     1      -7.829   8.346  64.899  1.00  0.00     0.000 HD 
HETATM   22  O   UNL     1     -10.470   9.950  65.401  1.00  0.00    -0.126 OA 
HETATM   23  C   UNL     1      -8.442  10.068  66.726  1.00  0.00    -0.125 C  
HETATM   24  H   UNL     1      -9.982  10.283  64.658  1.00  0.00     0.000 HD 
HETATM   25  O   UNL     1      -8.454   7.948  65.493  1.00  0.00    -0.141 OA 
HETATM   26  O   UNL     1      -7.727  10.637  67.825  1.00  0.00    -0.098 OA 
HETATM   27  C   UNL     1      -8.294   8.546  66.793  1.00  0.00    -0.109 C  
BRANCH  17  28
HETATM   28  O   UNL     1     -10.332  10.401  69.150  1.00  0.00    -0.196 OA 
BRANCH  28  29
HETATM   29  C   UNL     1     -11.262  11.165  69.856  1.00  0.00    -0.217 C  
HETATM   30  O   UNL     1     -12.667  11.513  71.828  1.00  0.00    -0.332 OA 
HETATM   31  C   UNL     1     -11.943  10.715  70.939  1.00  0.00    -0.363 C  
HETATM   32  C   UNL     1     -12.840  12.842  71.533  1.00  0.00    -0.270 A  
HETATM   33  O   UNL     1     -10.346  13.180  69.101  1.00  0.00    -0.025 OA 
HETATM   34  H   UNL     1     -11.778  14.625  68.161  1.00  0.00     0.000 HD 
HETATM   35  C   UNL     1     -13.544  13.659  72.415  1.00  0.00    -0.703 A  
HETATM   36  C   UNL     1     -11.276  12.632  69.679  1.00  0.00    -0.007 C  
HETATM   37  C   UNL     1     -13.782  14.995  72.070  1.00  0.00    -0.446 A  
HETATM   38  C   UNL     1     -12.316  13.400  70.351  1.00  0.00    -0.382 A  
HETATM   39  O   UNL     1     -12.284  15.171  68.751  1.00  0.00    -0.204 OA 
HETATM   40  C   UNL     1     -13.391  15.505  70.837  1.00  0.00    -0.414 A  
HETATM   41  O   UNL     1     -14.405  15.864  72.919  1.00  0.00    -0.495 OA 
HETATM   42  H   UNL     1     -14.566  16.770  72.685  1.00  0.00     0.000 HD 
HETATM   43  C   UNL     1     -12.651  14.707  69.976  1.00  0.00    -0.230 A  
BRANCH  31  44
HETATM   44  C   UNL     1     -11.854   9.293  71.304  1.00  0.00    -0.415 A  
HETATM   45  O   UNL     1     -12.049   5.458  72.876  1.00  0.00    -0.513 OA 
HETATM   46  H   UNL     1      -9.995   6.151  73.839  1.00  0.00     0.000 HD 
HETATM   47  C   UNL     1     -12.918   8.434  70.964  1.00  0.00     0.050 A  
HETATM   48  H   UNL     1     -12.784   4.894  72.665  1.00  0.00     0.000 HD 
HETATM   49  O   UNL     1      -9.942   7.032  73.487  1.00  0.00    -0.220 OA 
HETATM   50  C   UNL     1     -11.962   6.702  72.317  1.00  0.00    -0.222 A  
HETATM   51  C   UNL     1     -10.884   7.529  72.626  1.00  0.00    -0.315 A  
HETATM   52  C   UNL     1     -10.807   8.820  72.110  1.00  0.00    -0.400 A  
HETATM   53  C   UNL     1     -12.974   7.136  71.474  1.00  0.00    -0.431 A  
ENDBRANCH  31  44
ENDBRANCH  28  29
ENDBRANCH  17  28
ENDBRANCH  15  16
ENDBRANCH  14  15
ENDBRANCH   4  14
TORSDOF 6
ENDMDL
MODEL       28
REMARK 921   NORMALIZED FREE ENERGY PREDICTED BY IDOCK:   -7.51 KCAL/MOL
REMARK 922        TOTAL FREE ENERGY PREDICTED BY IDOCK:  -11.62 KCAL/MOL
REMARK 923 INTER-LIGAND FREE ENERGY PREDICTED BY IDOCK:  -11.26 KCAL/MOL
REMARK 924 INTRA-LIGAND FREE ENERGY PREDICTED BY IDOCK:   -0.37 KCAL/MOL
REMARK 927      BINDING AFFINITY PREDICTED BY RF-SCORE:    0.00 PKD
ROOT
HETATM    1  C   UNL     1     -12.874   7.327  71.553  1.00  0.00    -0.430 C  
HETATM    2  C   UNL     1     -11.392   6.944  71.498  1.00  0.00    -0.266 C  
HETATM    3  O   UNL     1     -11.304   6.042  70.394  1.00  0.00    -0.338 OA 
HETATM    4  C   UNL     1     -10.204   5.151  70.277  1.00  0.00    -0.271 C  
HETATM    5  H   UNL     1      -8.971   5.874  74.543  1.00  0.00     0.000 HD 
HETATM    6  C   UNL     1      -9.716   4.577  71.615  1.00  0.00    -0.175 C  
HETATM    7  C   UNL     1      -9.562   5.696  72.655  1.00  0.00    -0.150 C  
HETATM    8  O   UNL     1     -10.881   7.429  73.830  1.00  0.00    -0.499 OA 
HETATM    9  O   UNL     1     -10.647   3.593  72.106  1.00  0.00    -0.020 OA 
HETATM   10  H   UNL     1     -10.346   3.238  72.934  1.00  0.00     0.000 HD 
HETATM   11  H   UNL     1     -10.593   7.080  74.665  1.00  0.00     0.000 HD 
HETATM   12  O   UNL     1      -9.066   5.182  73.900  1.00  0.00    -0.119 OA 
HETATM   13  C   UNL     1     -10.925   6.377  72.853  1.00  0.00    -0.250 C  
ENDROOT
BRANCH   4  14
HETATM   14  O   UNL     1      -9.086   5.654  69.543  1.00  0.00    -0.123 OA 
BRANCH  14  15
HETATM   15  C   UNL     1      -9.222   7.039  69.179  1.00  0.00    -0.138 C  
BRANCH  15  16
HETATM   16  C   UNL     1      -7.832   7.687  69.183  1.00  0.00    -0.118 C  
HETATM   17  C   UNL     1      -8.209  10.086  68.746  1.00  0.00    -0.115 C  
HETATM   18  O   UNL     1      -7.762   8.802  68.261  1.00  0.00    -0.098 OA 
HETATM   19  H   UNL     1      -9.101   8.694  72.319  1.00  0.00     0.000 HD 
HETATM   20  C   UNL     1      -7.367  10.389  70.007  1.00  0.00    -0.111 C  
HETATM   21  H   UNL     1      -5.541   7.856  71.480  1.00  0.00     0.000 HD 
HETATM   22  O   UNL     1      -5.952  10.389  69.689  1.00  0.00    -0.042 OA 
HETATM   23  C   UNL     1      -7.618   9.347  71.109  1.00  0.00     0.084 C  
HETATM   24  H   UNL     1      -5.435  10.576  70.464  1.00  0.00     0.000 HD 
HETATM   25  O   UNL     1      -5.874   7.700  70.604  1.00  0.00    -0.030 OA 
HETATM   26  O   UNL     1      -8.946   9.338  71.638  1.00  0.00    -0.311 OA 
HETATM   27  C   UNL     1      -7.293   7.939  70.604  1.00  0.00    -0.061 C  
BRANCH  17  28
HETATM   28  O   UNL     1      -9.637  10.117  68.897  1.00  0.00    -0.166 OA 
BRANCH  28  29
HETATM   29  C   UNL     1     -10.376  10.724  67.882  1.00  0.00    -0.185 C  
HETATM   30  O   UNL     1     -11.939  12.449  67.131  1.00  0.00    -0.528 OA 
HETATM   31  C   UNL     1     -11.366  11.623  68.102  1.00  0.00    -0.292 C  
HETATM   32  C   UNL     1     -11.595  12.261  65.817  1.00  0.00    -0.388 A  
HETATM   33  O   UNL     1      -8.707  10.340  66.287  1.00  0.00    -0.141 OA 
HETATM   34  H   UNL     1      -9.358   9.316  64.404  1.00  0.00     0.000 HD 
HETATM   35  C   UNL     1     -12.143  13.086  64.835  1.00  0.00    -0.459 A  
HETATM   36  C   UNL     1      -9.862  10.693  66.496  1.00  0.00    -0.204 C  
HETATM   37  C   UNL     1     -11.846  12.838  63.489  1.00  0.00    -0.546 A  
HETATM   38  C   UNL     1     -10.693  11.248  65.436  1.00  0.00    -0.291 A  
HETATM   39  O   UNL     1      -9.757   9.860  63.736  1.00  0.00    -0.162 OA 
HETATM   40  C   UNL     1     -11.073  11.746  63.107  1.00  0.00    -0.251 A  
HETATM   41  O   UNL     1     -12.294  13.649  62.486  1.00  0.00    -0.632 OA 
HETATM   42  H   UNL     1     -12.092  13.481  61.573  1.00  0.00     0.000 HD 
HETATM   43  C   UNL     1     -10.490  10.952  64.083  1.00  0.00    -0.327 A  
BRANCH  31  44
HETATM   44  C   UNL     1     -11.833  11.857  69.476  1.00  0.00    -0.395 A  
HETATM   45  O   UNL     1     -13.812  12.443  73.077  1.00  0.00    -0.340 OA 
HETATM   46  H   UNL     1     -13.402  14.708  72.503  1.00  0.00     0.000 HD 
HETATM   47  C   UNL     1     -12.250  10.756  70.250  1.00  0.00    -0.431 A  
HETATM   48  H   UNL     1     -14.116  11.697  73.579  1.00  0.00     0.000 HD 
HETATM   49  O   UNL     1     -12.952  14.585  71.676  1.00  0.00    -0.306 OA 
HETATM   50  C   UNL     1     -13.116  12.246  71.916  1.00  0.00    -0.363 A  
HETATM   51  C   UNL     1     -12.670  13.340  71.180  1.00  0.00    -0.320 A  
HETATM   52  C   UNL     1     -12.008  13.160  69.967  1.00  0.00    -0.391 A  
HETATM   53  C   UNL     1     -12.897  10.951  71.472  1.00  0.00    -0.560 A  
ENDBRANCH  31  44
ENDBRANCH  28  29
ENDBRANCH  17  28
ENDBRANCH  15  16
ENDBRANCH  14  15
ENDBRANCH   4  14
TORSDOF 6
ENDMDL
MODEL       29
REMARK 921   NORMALIZED FREE ENERGY PREDICTED BY IDOCK:   -7.51 KCAL/MOL
REMARK 922        TOTAL FREE ENERGY PREDICTED BY IDOCK:  -11.62 KCAL/MOL
REMARK 923 INTER-LIGAND FREE ENERGY PREDICTED BY IDOCK:  -10.02 KCAL/MOL
REMARK 924 INTRA-LIGAND FREE ENERGY PREDICTED BY IDOCK:   -1.60 KCAL/MOL
REMARK 927      BINDING AFFINITY PREDICTED BY RF-SCORE:    0.00 PKD
ROOT
HETATM    1  C   UNL     1     -12.213  13.342  63.373  1.00  0.00    -0.476 C  
HETATM    2  C   UNL     1     -11.119  13.685  64.389  1.00  0.00    -0.364 C  
HETATM    3  O   UNL     1     -11.114  12.575  65.287  1.00  0.00    -0.283 OA 
HETATM    4  C   UNL     1     -10.550  12.700  66.585  1.00  0.00    -0.248 C  
HETATM    5  H   UNL     1     -10.479  17.188  66.286  1.00  0.00     0.000 HD 
HETATM    6  C   UNL     1     -10.800  14.062  67.250  1.00  0.00    -0.284 C  
HETATM    7  C   UNL     1     -10.485  15.202  66.271  1.00  0.00    -0.307 C  
HETATM    8  O   UNL     1     -11.178  16.100  64.072  1.00  0.00    -1.164 OA 
HETATM    9  O   UNL     1     -12.172  14.165  67.678  1.00  0.00    -0.550 OA 
HETATM   10  H   UNL     1     -12.326  15.007  68.089  1.00  0.00     0.000 HD 
HETATM   11  H   UNL     1     -11.344  16.946  64.471  1.00  0.00     0.000 HD 
HETATM   12  O   UNL     1     -10.673  16.483  66.891  1.00  0.00    -0.279 OA 
HETATM   13  C   UNL     1     -11.389  15.058  65.037  1.00  0.00    -0.394 C  
ENDROOT
BRANCH   4  14
HETATM   14  O   UNL     1      -9.162  12.375  66.681  1.00  0.00    -0.214 OA 
BRANCH  14  15
HETATM   15  C   UNL     1      -8.909  11.190  67.457  1.00  0.00    -0.139 C  
BRANCH  15  16
HETATM   16  C   UNL     1      -7.602  10.553  66.968  1.00  0.00    -0.107 C  
HETATM   17  C   UNL     1      -7.969   8.114  67.061  1.00  0.00    -0.104 C  
HETATM   18  O   UNL     1      -7.348   9.288  67.627  1.00  0.00    -0.083 OA 
HETATM   19  H   UNL     1      -9.697  10.136  64.158  1.00  0.00     0.000 HD 
HETATM   20  C   UNL     1      -7.503   8.046  65.588  1.00  0.00    -0.081 C  
HETATM   21  H   UNL     1      -6.005  10.805  64.151  1.00  0.00     0.000 HD 
HETATM   22  O   UNL     1      -6.056   7.987  65.513  1.00  0.00    -0.038 OA 
HETATM   23  C   UNL     1      -7.983   9.272  64.795  1.00  0.00    -0.123 C  
HETATM   24  H   UNL     1      -5.770   7.945  64.608  1.00  0.00     0.000 HD 
HETATM   25  O   UNL     1      -6.088  10.799  65.097  1.00  0.00    -0.085 OA 
HETATM   26  O   UNL     1      -9.401   9.378  64.649  1.00  0.00    -0.201 OA 
HETATM   27  C   UNL     1      -7.467  10.564  65.433  1.00  0.00    -0.089 C  
BRANCH  17  28
HETATM   28  O   UNL     1      -9.386   8.113  67.294  1.00  0.00    -0.134 OA 
BRANCH  28  29
HETATM   29  C   UNL     1      -9.857   7.373  68.378  1.00  0.00    -0.158 C  
HETATM   30  O   UNL     1     -10.128   5.235  69.535  1.00  0.00    -0.207 OA 
HETATM   31  C   UNL     1      -9.926   6.019  68.397  1.00  0.00    -0.145 C  
HETATM   32  C   UNL     1     -10.424   5.856  70.722  1.00  0.00    -0.248 A  
HETATM   33  O   UNL     1      -9.424   9.105  69.890  1.00  0.00    -0.166 OA 
HETATM   34  H   UNL     1     -11.132   9.722  71.201  1.00  0.00     0.000 HD 
HETATM   35  C   UNL     1     -10.611   5.093  71.874  1.00  0.00    -0.256 A  
HETATM   36  C   UNL     1      -9.956   8.017  69.705  1.00  0.00    -0.188 C  
HETATM   37  C   UNL     1     -10.987   5.728  73.063  1.00  0.00    -0.278 A  
HETATM   38  C   UNL     1     -10.539   7.258  70.802  1.00  0.00    -0.237 A  
HETATM   39  O   UNL     1     -11.289   9.196  71.976  1.00  0.00    -0.366 OA 
HETATM   40  C   UNL     1     -11.244   7.095  73.104  1.00  0.00    -0.228 A  
HETATM   41  O   UNL     1     -11.120   5.048  74.239  1.00  0.00    -0.389 OA 
HETATM   42  H   UNL     1     -11.375   5.479  75.046  1.00  0.00     0.000 HD 
HETATM   43  C   UNL     1     -11.015   7.863  71.972  1.00  0.00    -0.274 A  
BRANCH  31  44
HETATM   44  C   UNL     1      -9.671   5.269  67.158  1.00  0.00    -0.165 A  
HETATM   45  O   UNL     1      -9.331   2.628  63.975  1.00  0.00    -0.111 OA 
HETATM   46  H   UNL     1      -7.231   2.238  65.009  1.00  0.00     0.000 HD 
HETATM   47  C   UNL     1     -10.694   5.175  66.195  1.00  0.00    -0.247 A  
HETATM   48  H   UNL     1     -10.037   2.548  63.346  1.00  0.00     0.000 HD 
HETATM   49  O   UNL     1      -7.300   2.837  65.743  1.00  0.00    -0.068 OA 
HETATM   50  C   UNL     1      -9.424   3.535  64.994  1.00  0.00    -0.159 A  
HETATM   51  C   UNL     1      -8.387   3.652  65.917  1.00  0.00    -0.106 A  
HETATM   52  C   UNL     1      -8.489   4.530  66.993  1.00  0.00    -0.104 A  
HETATM   53  C   UNL     1     -10.572   4.302  65.111  1.00  0.00    -0.169 A  
ENDBRANCH  31  44
ENDBRANCH  28  29
ENDBRANCH  17  28
ENDBRANCH  15  16
ENDBRANCH  14  15
ENDBRANCH   4  14
TORSDOF 6
ENDMDL
MODEL       30
REMARK 921   NORMALIZED FREE ENERGY PREDICTED BY IDOCK:   -7.50 KCAL/MOL
REMARK 922        TOTAL FREE ENERGY PREDICTED BY IDOCK:  -11.61 KCAL/MOL
REMARK 923 INTER-LIGAND FREE ENERGY PREDICTED BY IDOCK:  -10.38 KCAL/MOL
REMARK 924 INTRA-LIGAND FREE ENERGY PREDICTED BY IDOCK:   -1.23 KCAL/MOL
REMARK 927      BINDING AFFINITY PREDICTED BY RF-SCORE:    0.00 PKD
ROOT
HETATM    1  C   UNL     1      -8.708  19.237  69.204  1.00  0.00    -0.156 C  
HETATM    2  C   UNL     1      -9.252  17.959  68.559  1.00  0.00    -0.284 C  
HETATM    3  O   UNL     1      -8.158  17.043  68.620  1.00  0.00    -0.237 OA 
HETATM    4  C   UNL     1      -8.117  15.911  67.765  1.00  0.00    -0.143 C  
HETATM    5  H   UNL     1     -11.367  17.586  65.144  1.00  0.00     0.000 HD 
HETATM    6  C   UNL     1      -8.655  16.173  66.350  1.00  0.00    -0.330 C  
HETATM    7  C   UNL     1      -9.999  16.913  66.417  1.00  0.00    -0.309 C  
HETATM    8  O   UNL     1     -10.999  19.023  67.235  1.00  0.00    -0.459 OA 
HETATM    9  O   UNL     1      -7.714  16.959  65.595  1.00  0.00    -0.128 OA 
HETATM   10  H   UNL     1      -8.047  17.122  64.720  1.00  0.00     0.000 HD 
HETATM   11  H   UNL     1     -11.331  19.202  66.364  1.00  0.00     0.000 HD 
HETATM   12  O   UNL     1     -10.537  17.128  65.103  1.00  0.00    -0.695 OA 
HETATM   13  C   UNL     1      -9.792  18.249  67.145  1.00  0.00    -0.324 C  
ENDROOT
BRANCH   4  14
HETATM   14  O   UNL     1      -8.722  14.726  68.288  1.00  0.00    -0.157 OA 
BRANCH  14  15
HETATM   15  C   UNL     1      -8.583  13.587  67.421  1.00  0.00    -0.208 C  
BRANCH  15  16
HETATM   16  C   UNL     1      -7.297  12.840  67.795  1.00  0.00    -0.130 C  
HETATM   17  C   UNL     1      -8.027  10.802  68.982  1.00  0.00    -0.137 C  
HETATM   18  O   UNL     1      -7.444  12.121  69.045  1.00  0.00    -0.070 OA 
HETATM   19  H   UNL     1      -8.471  10.925  65.072  1.00  0.00     0.000 HD 
HETATM   20  C   UNL     1      -7.148   9.988  68.004  1.00  0.00    -0.081 C  
HETATM   21  H   UNL     1      -4.897  11.634  65.969  1.00  0.00     0.000 HD 
HETATM   22  O   UNL     1      -5.773   9.954  68.461  1.00  0.00    -0.042 OA 
HETATM   23  C   UNL     1      -7.178  10.593  66.592  1.00  0.00    -0.128 C  
HETATM   24  H   UNL     1      -5.233   9.453  67.860  1.00  0.00     0.000 HD 
HETATM   25  O   UNL     1      -5.265  12.123  66.695  1.00  0.00    -0.333 OA 
HETATM   26  O   UNL     1      -8.453  10.551  65.945  1.00  0.00    -0.150 OA 
HETATM   27  C   UNL     1      -6.700  12.047  66.617  1.00  0.00     0.167 C  
BRANCH  17  28
HETATM   28  O   UNL     1      -9.431  10.868  68.691  1.00  0.00    -0.177 OA 
BRANCH  28  29
HETATM   29  C   UNL     1     -10.297  10.195  69.553  1.00  0.00    -0.240 C  
HETATM   30  O   UNL     1     -12.506   9.933  70.570  1.00  0.00    -0.222 OA 
HETATM   31  C   UNL     1     -11.504  10.676  69.940  1.00  0.00    -0.317 C  
HETATM   32  C   UNL     1     -12.226   8.652  70.971  1.00  0.00    -0.179 A  
HETATM   33  O   UNL     1      -9.331   8.118  69.078  1.00  0.00    -0.148 OA 
HETATM   34  H   UNL     1      -8.674   6.907  70.845  1.00  0.00     0.000 HD 
HETATM   35  C   UNL     1     -13.217   7.888  71.586  1.00  0.00    -0.367 A  
HETATM   36  C   UNL     1     -10.098   8.750  69.794  1.00  0.00    -0.196 C  
HETATM   37  C   UNL     1     -12.902   6.610  72.061  1.00  0.00    -0.111 A  
HETATM   38  C   UNL     1     -10.951   8.087  70.771  1.00  0.00    -0.259 A  
HETATM   39  O   UNL     1      -9.344   6.401  71.291  1.00  0.00    -0.156 OA 
HETATM   40  C   UNL     1     -11.604   6.112  71.993  1.00  0.00    -0.364 A  
HETATM   41  O   UNL     1     -13.842   5.787  72.610  1.00  0.00    -0.401 OA 
HETATM   42  H   UNL     1     -13.628   4.919  72.932  1.00  0.00     0.000 HD 
HETATM   43  C   UNL     1     -10.627   6.850  71.342  1.00  0.00    -0.219 A  
BRANCH  31  44
HETATM   44  C   UNL     1     -11.872  12.057  69.595  1.00  0.00    -0.401 A  
HETATM   45  O   UNL     1     -12.200  16.055  68.533  1.00  0.00    -0.355 OA 
HETATM   46  H   UNL     1     -12.328  16.284  70.891  1.00  0.00     0.000 HD 
HETATM   47  C   UNL     1     -11.896  12.437  68.238  1.00  0.00    -0.364 A  
HETATM   48  H   UNL     1     -12.186  16.307  67.618  1.00  0.00     0.000 HD 
HETATM   49  O   UNL     1     -12.251  15.372  71.145  1.00  0.00    -0.309 OA 
HETATM   50  C   UNL     1     -12.142  14.734  68.878  1.00  0.00    -0.205 A  
HETATM   51  C   UNL     1     -12.162  14.365  70.222  1.00  0.00    -0.334 A  
HETATM   52  C   UNL     1     -12.048  13.027  70.594  1.00  0.00    -0.333 A  
HETATM   53  C   UNL     1     -12.028  13.779  67.879  1.00  0.00    -0.391 A  
ENDBRANCH  31  44
ENDBRANCH  28  29
ENDBRANCH  17  28
ENDBRANCH  15  16
ENDBRANCH  14  15
ENDBRANCH   4  14
TORSDOF 6
ENDMDL
MODEL       31
REMARK 921   NORMALIZED FREE ENERGY PREDICTED BY IDOCK:   -7.48 KCAL/MOL
REMARK 922        TOTAL FREE ENERGY PREDICTED BY IDOCK:  -11.58 KCAL/MOL
REMARK 923 INTER-LIGAND FREE ENERGY PREDICTED BY IDOCK:  -11.14 KCAL/MOL
REMARK 924 INTRA-LIGAND FREE ENERGY PREDICTED BY IDOCK:   -0.44 KCAL/MOL
REMARK 927      BINDING AFFINITY PREDICTED BY RF-SCORE:    0.00 PKD
ROOT
HETATM    1  C   UNL     1      -9.894  19.439  68.545  1.00  0.00    -0.509 C  
HETATM    2  C   UNL     1      -9.306  18.742  67.314  1.00  0.00    -0.290 C  
HETATM    3  O   UNL     1      -9.212  17.370  67.700  1.00  0.00    -0.231 OA 
HETATM    4  C   UNL     1      -8.342  16.485  67.009  1.00  0.00    -0.190 C  
HETATM    5  H   UNL     1      -6.190  19.905  65.031  1.00  0.00     0.000 HD 
HETATM    6  C   UNL     1      -7.013  17.122  66.576  1.00  0.00    -0.261 C  
HETATM    7  C   UNL     1      -7.264  18.478  65.898  1.00  0.00    -0.230 C  
HETATM    8  O   UNL     1      -8.236  20.707  66.352  1.00  0.00    -0.525 OA 
HETATM    9  O   UNL     1      -6.153  17.310  67.716  1.00  0.00    -0.134 OA 
HETATM   10  H   UNL     1      -5.332  17.705  67.448  1.00  0.00     0.000 HD 
HETATM   11  H   UNL     1      -7.418  21.115  66.094  1.00  0.00     0.000 HD 
HETATM   12  O   UNL     1      -6.035  19.067  65.449  1.00  0.00    -0.185 OA 
HETATM   13  C   UNL     1      -7.979  19.403  66.895  1.00  0.00    -0.266 C  
ENDROOT
BRANCH   4  14
HETATM   14  O   UNL     1      -8.923  15.801  65.897  1.00  0.00    -0.321 OA 
BRANCH  14  15
HETATM   15  C   UNL     1     -10.361  15.836  65.897  1.00  0.00    -0.354 C  
BRANCH  15  16
HETATM   16  C   UNL     1     -10.873  14.939  64.763  1.00  0.00    -0.363 C  
HETATM   17  C   UNL     1     -10.535  12.620  65.537  1.00  0.00    -0.281 C  
HETATM   18  O   UNL     1     -10.120  13.704  64.680  1.00  0.00    -0.357 OA 
HETATM   19  H   UNL     1     -13.493  14.686  67.115  1.00  0.00     0.000 HD 
HETATM   20  C   UNL     1     -12.023  12.355  65.208  1.00  0.00    -0.404 C  
HETATM   21  H   UNL     1     -13.798  14.681  63.375  1.00  0.00     0.000 HD 
HETATM   22  O   UNL     1     -12.186  12.033  63.804  1.00  0.00    -0.475 OA 
HETATM   23  C   UNL     1     -12.892  13.582  65.531  1.00  0.00    -0.350 C  
HETATM   24  H   UNL     1     -13.100  11.870  63.603  1.00  0.00     0.000 HD 
HETATM   25  O   UNL     1     -12.852  14.763  63.383  1.00  0.00    -0.304 OA 
HETATM   26  O   UNL     1     -12.955  13.928  66.916  1.00  0.00     0.238 OA 
HETATM   27  C   UNL     1     -12.408  14.807  64.751  1.00  0.00    -0.293 C  
BRANCH  17  28
HETATM   28  O   UNL     1     -10.213  12.890  66.910  1.00  0.00    -0.237 OA 
BRANCH  28  29
HETATM   29  C   UNL     1     -10.119  11.798  67.773  1.00  0.00    -0.188 C  
HETATM   30  O   UNL     1     -10.887  10.579  69.750  1.00  0.00    -0.256 OA 
HETATM   31  C   UNL     1     -10.728  11.736  68.984  1.00  0.00    -0.169 C  
HETATM   32  C   UNL     1     -10.266   9.425  69.343  1.00  0.00    -0.207 A  
HETATM   33  O   UNL     1      -9.567  10.333  66.035  1.00  0.00    -0.183 OA 
HETATM   34  H   UNL     1      -7.717   9.104  66.331  1.00  0.00     0.000 HD 
HETATM   35  C   UNL     1     -10.426   8.256  70.085  1.00  0.00    -0.225 A  
HETATM   36  C   UNL     1      -9.652  10.499  67.246  1.00  0.00    -0.163 C  
HETATM   37  C   UNL     1      -9.729   7.103  69.704  1.00  0.00    -0.158 A  
HETATM   38  C   UNL     1      -9.469   9.397  68.182  1.00  0.00    -0.146 A  
HETATM   39  O   UNL     1      -7.804   8.317  66.856  1.00  0.00    -0.094 OA 
HETATM   40  C   UNL     1      -8.828   7.118  68.645  1.00  0.00    -0.126 A  
HETATM   41  O   UNL     1      -9.895   5.910  70.347  1.00  0.00    -0.172 OA 
HETATM   42  H   UNL     1      -9.422   5.128  70.089  1.00  0.00     0.000 HD 
HETATM   43  C   UNL     1      -8.701   8.266  67.877  1.00  0.00    -0.135 A  
BRANCH  31  44
HETATM   44  C   UNL     1     -11.379  12.939  69.523  1.00  0.00    -0.221 A  
HETATM   45  O   UNL     1     -12.697  16.315  71.544  1.00  0.00    -0.475 OA 
HETATM   46  H   UNL     1     -14.178  14.717  72.483  1.00  0.00     0.000 HD 
HETATM   47  C   UNL     1     -10.811  14.200  69.255  1.00  0.00    -0.219 A  
HETATM   48  H   UNL     1     -12.290  17.157  71.380  1.00  0.00     0.000 HD 
HETATM   49  O   UNL     1     -13.882  13.937  72.028  1.00  0.00    -0.428 OA 
HETATM   50  C   UNL     1     -12.295  15.214  70.841  1.00  0.00    -0.354 A  
HETATM   51  C   UNL     1     -12.893  13.979  71.082  1.00  0.00    -0.357 A  
HETATM   52  C   UNL     1     -12.458  12.836  70.415  1.00  0.00    -0.231 A  
HETATM   53  C   UNL     1     -11.268  15.340  69.918  1.00  0.00    -0.305 A  
ENDBRANCH  31  44
ENDBRANCH  28  29
ENDBRANCH  17  28
ENDBRANCH  15  16
ENDBRANCH  14  15
ENDBRANCH   4  14
TORSDOF 6
ENDMDL
MODEL       32
REMARK 921   NORMALIZED FREE ENERGY PREDICTED BY IDOCK:   -7.42 KCAL/MOL
REMARK 922        TOTAL FREE ENERGY PREDICTED BY IDOCK:  -11.51 KCAL/MOL
REMARK 923 INTER-LIGAND FREE ENERGY PREDICTED BY IDOCK:  -12.07 KCAL/MOL
REMARK 924 INTRA-LIGAND FREE ENERGY PREDICTED BY IDOCK:    0.57 KCAL/MOL
REMARK 927      BINDING AFFINITY PREDICTED BY RF-SCORE:    0.00 PKD
ROOT
HETATM    1  C   UNL     1     -10.886  19.215  67.382  1.00  0.00    -0.533 C  
HETATM    2  C   UNL     1      -9.710  18.428  66.797  1.00  0.00    -0.326 C  
HETATM    3  O   UNL     1      -9.753  17.174  67.479  1.00  0.00    -0.248 OA 
HETATM    4  C   UNL     1      -8.605  16.340  67.530  1.00  0.00    -0.177 C  
HETATM    5  H   UNL     1      -5.931  19.687  66.155  1.00  0.00     0.000 HD 
HETATM    6  C   UNL     1      -7.280  17.105  67.677  1.00  0.00    -0.157 C  
HETATM    7  C   UNL     1      -7.219  18.269  66.677  1.00  0.00    -0.216 C  
HETATM    8  O   UNL     1      -8.406  20.353  66.072  1.00  0.00    -0.548 OA 
HETATM    9  O   UNL     1      -7.146  17.619  69.017  1.00  0.00    -0.250 OA 
HETATM   10  H   UNL     1      -6.328  18.092  69.108  1.00  0.00     0.000 HD 
HETATM   11  H   UNL     1      -7.595  20.841  66.166  1.00  0.00     0.000 HD 
HETATM   12  O   UNL     1      -5.969  18.967  66.773  1.00  0.00    -0.166 OA 
HETATM   13  C   UNL     1      -8.396  19.218  66.951  1.00  0.00    -0.283 C  
ENDROOT
BRANCH   4  14
HETATM   14  O   UNL     1      -8.488  15.394  66.465  1.00  0.00    -0.274 OA 
BRANCH  14  15
HETATM   15  C   UNL     1      -9.589  14.472  66.402  1.00  0.00    -0.303 C  
BRANCH  15  16
HETATM   16  C   UNL     1     -10.242  14.581  65.019  1.00  0.00    -0.365 C  
HETATM   17  C   UNL     1     -11.116  12.329  64.511  1.00  0.00    -0.321 C  
HETATM   18  O   UNL     1     -10.118  13.344  64.274  1.00  0.00    -0.330 OA 
HETATM   19  H   UNL     1     -13.064  14.521  67.138  1.00  0.00     0.000 HD 
HETATM   20  C   UNL     1     -12.483  12.989  64.216  1.00  0.00    -0.315 C  
HETATM   21  H   UNL     1     -12.683  16.424  63.927  1.00  0.00     0.000 HD 
HETATM   22  O   UNL     1     -12.526  13.487  62.855  1.00  0.00    -0.891 OA 
HETATM   23  C   UNL     1     -12.754  14.161  65.173  1.00  0.00    -0.364 C  
HETATM   24  H   UNL     1     -13.365  13.893  62.673  1.00  0.00     0.000 HD 
HETATM   25  O   UNL     1     -11.817  16.034  63.898  1.00  0.00    -0.810 OA 
HETATM   26  O   UNL     1     -12.896  13.796  66.547  1.00  0.00    -0.171 OA 
HETATM   27  C   UNL     1     -11.646  15.212  65.066  1.00  0.00    -0.294 C  
BRANCH  17  28
HETATM   28  O   UNL     1     -10.951  11.731  65.806  1.00  0.00    -0.295 OA 
BRANCH  28  29
HETATM   29  C   UNL     1     -10.034  10.685  65.917  1.00  0.00    -0.255 C  
HETATM   30  O   UNL     1      -9.271   8.636  67.012  1.00  0.00    -0.141 OA 
HETATM   31  C   UNL     1      -9.974   9.842  66.977  1.00  0.00    -0.203 C  
HETATM   32  C   UNL     1      -8.450   8.318  65.959  1.00  0.00    -0.139 A  
HETATM   33  O   UNL     1      -9.699  10.587  63.604  1.00  0.00    -0.291 OA 
HETATM   34  H   UNL     1      -7.572  10.685  62.909  1.00  0.00     0.000 HD 
HETATM   35  C   UNL     1      -7.753   7.111  65.966  1.00  0.00    -0.099 A  
HETATM   36  C   UNL     1      -9.323  10.216  64.710  1.00  0.00    -0.268 C  
HETATM   37  C   UNL     1      -6.861   6.829  64.924  1.00  0.00    -0.050 A  
HETATM   38  C   UNL     1      -8.300   9.190  64.863  1.00  0.00    -0.169 A  
HETATM   39  O   UNL     1      -7.075   9.876  62.933  1.00  0.00    -0.113 OA 
HETATM   40  C   UNL     1      -6.604   7.757  63.920  1.00  0.00    -0.061 A  
HETATM   41  O   UNL     1      -6.200   5.638  64.837  1.00  0.00    -0.030 OA 
HETATM   42  H   UNL     1      -5.594   5.447  64.131  1.00  0.00     0.000 HD 
HETATM   43  C   UNL     1      -7.330   8.938  63.885  1.00  0.00    -0.098 A  
BRANCH  31  44
HETATM   44  C   UNL     1     -10.784  10.128  68.171  1.00  0.00    -0.285 A  
HETATM   45  O   UNL     1     -12.573  11.442  71.677  1.00  0.00    -0.320 OA 
HETATM   46  H   UNL     1     -11.431   9.545  72.529  1.00  0.00     0.000 HD 
HETATM   47  C   UNL     1     -11.640  11.248  68.161  1.00  0.00    -0.359 A  
HETATM   48  H   UNL     1     -13.125  12.214  71.668  1.00  0.00     0.000 HD 
HETATM   49  O   UNL     1     -11.014   9.238  71.733  1.00  0.00    -0.369 OA 
HETATM   50  C   UNL     1     -12.025  10.983  70.512  1.00  0.00    -0.379 A  
HETATM   51  C   UNL     1     -11.215   9.850  70.524  1.00  0.00    -0.330 A  
HETATM   52  C   UNL     1     -10.604   9.399  69.357  1.00  0.00    -0.235 A  
HETATM   53  C   UNL     1     -12.260  11.678  69.335  1.00  0.00    -0.246 A  
ENDBRANCH  31  44
ENDBRANCH  28  29
ENDBRANCH  17  28
ENDBRANCH  15  16
ENDBRANCH  14  15
ENDBRANCH   4  14
TORSDOF 6
ENDMDL
MODEL       33
REMARK 921   NORMALIZED FREE ENERGY PREDICTED BY IDOCK:   -7.42 KCAL/MOL
REMARK 922        TOTAL FREE ENERGY PREDICTED BY IDOCK:  -11.50 KCAL/MOL
REMARK 923 INTER-LIGAND FREE ENERGY PREDICTED BY IDOCK:  -10.55 KCAL/MOL
REMARK 924 INTRA-LIGAND FREE ENERGY PREDICTED BY IDOCK:   -0.96 KCAL/MOL
REMARK 927      BINDING AFFINITY PREDICTED BY RF-SCORE:    0.00 PKD
ROOT
HETATM    1  C   UNL     1      -7.664   4.430  72.471  1.00  0.00    -0.084 C  
HETATM    2  C   UNL     1      -8.690   5.386  71.856  1.00  0.00    -0.135 C  
HETATM    3  O   UNL     1      -7.903   6.291  71.080  1.00  0.00    -0.106 OA 
HETATM    4  C   UNL     1      -8.424   7.557  70.702  1.00  0.00    -0.132 C  
HETATM    5  H   UNL     1     -11.795   7.222  73.662  1.00  0.00     0.000 HD 
HETATM    6  C   UNL     1      -9.295   8.224  71.777  1.00  0.00    -0.202 C  
HETATM    7  C   UNL     1     -10.315   7.222  72.339  1.00  0.00    -0.208 C  
HETATM    8  O   UNL     1     -10.433   5.054  73.525  1.00  0.00    -0.188 OA 
HETATM    9  O   UNL     1      -8.472   8.720  72.850  1.00  0.00    -0.409 OA 
HETATM   10  H   UNL     1      -9.011   9.132  73.516  1.00  0.00     0.000 HD 
HETATM   11  H   UNL     1     -10.966   5.455  74.202  1.00  0.00     0.000 HD 
HETATM   12  O   UNL     1     -11.165   7.841  73.315  1.00  0.00    -0.350 OA 
HETATM   13  C   UNL     1      -9.555   6.036  72.953  1.00  0.00    -0.154 C  
ENDROOT
BRANCH   4  14
HETATM   14  O   UNL     1      -9.114   7.586  69.451  1.00  0.00    -0.143 OA 
BRANCH  14  15
HETATM   15  C   UNL     1      -9.371   8.919  68.974  1.00  0.00    -0.144 C  
BRANCH  15  16
HETATM   16  C   UNL     1      -9.803   8.840  67.505  1.00  0.00    -0.179 C  
HETATM   17  C   UNL     1     -10.538  11.117  66.900  1.00  0.00    -0.258 C  
HETATM   18  O   UNL     1     -10.890   9.755  67.221  1.00  0.00    -0.265 OA 
HETATM   19  H   UNL     1      -6.673  10.451  67.245  1.00  0.00     0.000 HD 
HETATM   20  C   UNL     1      -9.580  11.042  65.688  1.00  0.00    -0.226 C  
HETATM   21  H   UNL     1      -8.172   8.011  64.821  1.00  0.00     0.000 HD 
HETATM   22  O   UNL     1     -10.218  10.367  64.574  1.00  0.00    -0.342 OA 
HETATM   23  C   UNL     1      -8.291  10.284  66.043  1.00  0.00    -0.142 C  
HETATM   24  H   UNL     1      -9.629  10.321  63.830  1.00  0.00     0.000 HD 
HETATM   25  O   UNL     1      -8.906   7.993  65.424  1.00  0.00    -0.126 OA 
HETATM   26  O   UNL     1      -7.470  10.919  67.026  1.00  0.00    -0.109 OA 
HETATM   27  C   UNL     1      -8.612   8.868  66.528  1.00  0.00    -0.124 C  
BRANCH  17  28
HETATM   28  O   UNL     1     -10.062  11.818  68.059  1.00  0.00    -0.181 OA 
BRANCH  28  29
HETATM   29  C   UNL     1     -10.429  13.158  68.193  1.00  0.00    -0.248 C  
HETATM   30  O   UNL     1     -11.472  14.958  69.479  1.00  0.00    -0.264 OA 
HETATM   31  C   UNL     1     -11.289  13.616  69.135  1.00  0.00    -0.285 C  
HETATM   32  C   UNL     1     -10.854  15.924  68.725  1.00  0.00    -0.284 A  
HETATM   33  O   UNL     1      -8.506  13.907  67.091  1.00  0.00    -0.203 OA 
HETATM   34  H   UNL     1      -8.835  15.310  65.375  1.00  0.00     0.000 HD 
HETATM   35  C   UNL     1     -11.011  17.268  69.061  1.00  0.00     0.098 A  
HETATM   36  C   UNL     1      -9.606  14.200  67.543  1.00  0.00    -0.223 C  
HETATM   37  C   UNL     1     -10.440  18.249  68.242  1.00  0.00    -0.301 A  
HETATM   38  C   UNL     1     -10.058  15.583  67.614  1.00  0.00    -0.243 A  
HETATM   39  O   UNL     1      -8.969  16.226  65.590  1.00  0.00    -0.403 OA 
HETATM   40  C   UNL     1      -9.779  17.916  67.064  1.00  0.00    -0.298 A  
HETATM   41  O   UNL     1     -10.499  19.577  68.553  1.00  0.00    -0.476 OA 
HETATM   42  H   UNL     1     -10.111  20.243  67.997  1.00  0.00     0.000 HD 
HETATM   43  C   UNL     1      -9.583  16.579  66.751  1.00  0.00    -0.254 A  
BRANCH  31  44
HETATM   44  C   UNL     1     -12.031  12.652  69.960  1.00  0.00    -0.377 A  
HETATM   45  O   UNL     1     -13.543   9.940  72.714  1.00  0.00    -0.595 OA 
HETATM   46  H   UNL     1     -12.788   8.413  71.062  1.00  0.00     0.000 HD 
HETATM   47  C   UNL     1     -12.657  13.104  71.139  1.00  0.00    -0.403 A  
HETATM   48  H   UNL     1     -13.937  10.251  73.520  1.00  0.00     0.000 HD 
HETATM   49  O   UNL     1     -12.435   9.025  70.427  1.00  0.00     0.158 OA 
HETATM   50  C   UNL     1     -13.091  10.837  71.786  1.00  0.00    -0.468 A  
HETATM   51  C   UNL     1     -12.513  10.381  70.603  1.00  0.00    -0.348 A  
HETATM   52  C   UNL     1     -11.997  11.279  69.672  1.00  0.00    -0.423 A  
HETATM   53  C   UNL     1     -13.185  12.193  72.057  1.00  0.00    -0.496 A  
ENDBRANCH  31  44
ENDBRANCH  28  29
ENDBRANCH  17  28
ENDBRANCH  15  16
ENDBRANCH  14  15
ENDBRANCH   4  14
TORSDOF 6
ENDMDL
MODEL       34
REMARK 921   NORMALIZED FREE ENERGY PREDICTED BY IDOCK:   -7.36 KCAL/MOL
REMARK 922        TOTAL FREE ENERGY PREDICTED BY IDOCK:  -11.42 KCAL/MOL
REMARK 923 INTER-LIGAND FREE ENERGY PREDICTED BY IDOCK:   -9.64 KCAL/MOL
REMARK 924 INTRA-LIGAND FREE ENERGY PREDICTED BY IDOCK:   -1.78 KCAL/MOL
REMARK 927      BINDING AFFINITY PREDICTED BY RF-SCORE:    0.00 PKD
ROOT
HETATM    1  C   UNL     1     -11.326  15.034  67.419  1.00  0.00    -0.338 C  
HETATM    2  C   UNL     1     -11.501  13.637  66.815  1.00  0.00    -0.346 C  
HETATM    3  O   UNL     1     -10.177  13.104  66.777  1.00  0.00    -0.245 OA 
HETATM    4  C   UNL     1      -9.860  12.021  65.914  1.00  0.00    -0.238 C  
HETATM    5  H   UNL     1     -13.675  12.561  63.591  1.00  0.00     0.000 HD 
HETATM    6  C   UNL     1     -10.569  12.076  64.552  1.00  0.00    -0.313 C  
HETATM    7  C   UNL     1     -12.065  12.368  64.738  1.00  0.00    -0.416 C  
HETATM    8  O   UNL     1     -13.594  14.085  65.651  1.00  0.00    -0.659 OA 
HETATM    9  O   UNL     1      -9.982  13.098  63.724  1.00  0.00    -0.741 OA 
HETATM   10  H   UNL     1     -10.420  13.133  62.882  1.00  0.00     0.000 HD 
HETATM   11  H   UNL     1     -14.038  14.135  64.812  1.00  0.00     0.000 HD 
HETATM   12  O   UNL     1     -12.750  12.380  63.476  1.00  0.00    -0.727 OA 
HETATM   13  C   UNL     1     -12.220  13.719  65.454  1.00  0.00    -0.440 C  
ENDROOT
BRANCH   4  14
HETATM   14  O   UNL     1     -10.025  10.720  66.480  1.00  0.00    -0.199 OA 
BRANCH  14  15
HETATM   15  C   UNL     1      -9.724  10.670  67.886  1.00  0.00    -0.161 C  
BRANCH  15  16
HETATM   16  C   UNL     1     -10.972  10.191  68.638  1.00  0.00    -0.230 C  
HETATM   17  C   UNL     1     -10.600   7.794  69.094  1.00  0.00    -0.183 C  
HETATM   18  O   UNL     1     -11.282   8.810  68.328  1.00  0.00     0.203 OA 
HETATM   19  H   UNL     1      -8.605  10.418  71.247  1.00  0.00     0.000 HD 
HETATM   20  C   UNL     1     -10.917   8.086  70.579  1.00  0.00    -0.247 C  
HETATM   21  H   UNL     1     -12.282  11.134  71.456  1.00  0.00     0.000 HD 
HETATM   22  O   UNL     1     -12.349   8.072  70.808  1.00  0.00    -0.502 OA 
HETATM   23  C   UNL     1     -10.369   9.458  71.007  1.00  0.00    -0.312 C  
HETATM   24  H   UNL     1     -12.543   8.252  71.721  1.00  0.00     0.000 HD 
HETATM   25  O   UNL     1     -12.294  10.901  70.536  1.00  0.00    -0.318 OA 
HETATM   26  O   UNL     1      -8.944   9.570  70.983  1.00  0.00    -0.241 OA 
HETATM   27  C   UNL     1     -10.953  10.569  70.132  1.00  0.00    -0.270 C  
BRANCH  17  28
HETATM   28  O   UNL     1      -9.213   7.712  68.731  1.00  0.00    -0.143 OA 
BRANCH  28  29
HETATM   29  C   UNL     1      -8.817   6.622  67.957  1.00  0.00    -0.115 C  
HETATM   30  O   UNL     1      -8.554   4.208  67.662  1.00  0.00    -0.098 OA 
HETATM   31  C   UNL     1      -8.680   5.362  68.439  1.00  0.00    -0.098 C  
HETATM   32  C   UNL     1      -8.411   4.337  66.304  1.00  0.00    -0.112 A  
HETATM   33  O   UNL     1      -9.487   7.651  65.966  1.00  0.00    -0.099 OA 
HETATM   34  H   UNL     1      -7.953   7.742  64.336  1.00  0.00     0.000 HD 
HETATM   35  C   UNL     1      -8.301   3.197  65.509  1.00  0.00    -0.100 A  
HETATM   36  C   UNL     1      -8.884   6.718  66.484  1.00  0.00    -0.143 C  
HETATM   37  C   UNL     1      -8.080   3.340  64.134  1.00  0.00    -0.082 A  
HETATM   38  C   UNL     1      -8.376   5.606  65.692  1.00  0.00    -0.135 A  
HETATM   39  O   UNL     1      -7.848   6.963  63.802  1.00  0.00    -0.121 OA 
HETATM   40  C   UNL     1      -7.898   4.592  63.556  1.00  0.00    -0.079 A  
HETATM   41  O   UNL     1      -8.031   2.267  63.292  1.00  0.00    -0.069 OA 
HETATM   42  H   UNL     1      -7.881   2.364  62.359  1.00  0.00     0.000 HD 
HETATM   43  C   UNL     1      -8.052   5.729  64.336  1.00  0.00    -0.133 A  
BRANCH  31  44
HETATM   44  C   UNL     1      -8.771   5.133  69.889  1.00  0.00    -0.119 A  
HETATM   45  O   UNL     1      -9.507   5.030  73.972  1.00  0.00    -0.123 OA 
HETATM   46  H   UNL     1      -7.502   6.297  73.987  1.00  0.00     0.000 HD 
HETATM   47  C   UNL     1      -9.875   4.422  70.398  1.00  0.00    -0.286 A  
HETATM   48  H   UNL     1     -10.270   4.573  74.306  1.00  0.00     0.000 HD 
HETATM   49  O   UNL     1      -7.326   6.330  73.054  1.00  0.00    -0.090 OA 
HETATM   50  C   UNL     1      -9.240   5.020  72.631  1.00  0.00    -0.131 A  
HETATM   51  C   UNL     1      -8.121   5.690  72.141  1.00  0.00    -0.108 A  
HETATM   52  C   UNL     1      -7.864   5.738  70.773  1.00  0.00    -0.101 A  
HETATM   53  C   UNL     1     -10.112   4.368  71.773  1.00  0.00    -0.238 A  
ENDBRANCH  31  44
ENDBRANCH  28  29
ENDBRANCH  17  28
ENDBRANCH  15  16
ENDBRANCH  14  15
ENDBRANCH   4  14
TORSDOF 6
ENDMDL
MODEL       35
REMARK 921   NORMALIZED FREE ENERGY PREDICTED BY IDOCK:   -7.35 KCAL/MOL
REMARK 922        TOTAL FREE ENERGY PREDICTED BY IDOCK:  -11.40 KCAL/MOL
REMARK 923 INTER-LIGAND FREE ENERGY PREDICTED BY IDOCK:   -9.56 KCAL/MOL
REMARK 924 INTRA-LIGAND FREE ENERGY PREDICTED BY IDOCK:   -1.84 KCAL/MOL
REMARK 927      BINDING AFFINITY PREDICTED BY RF-SCORE:    0.00 PKD
ROOT
HETATM    1  C   UNL     1     -10.817  15.977  65.480  1.00  0.00    -0.301 C  
HETATM    2  C   UNL     1     -11.008  14.462  65.598  1.00  0.00    -0.314 C  
HETATM    3  O   UNL     1      -9.791  13.916  65.087  1.00  0.00    -0.245 OA 
HETATM    4  C   UNL     1      -9.738  12.569  64.639  1.00  0.00     0.060 C  
HETATM    5  H   UNL     1     -14.225  12.258  64.566  1.00  0.00     0.000 HD 
HETATM    6  C   UNL     1     -11.007  12.098  63.914  1.00  0.00    -0.402 C  
HETATM    7  C   UNL     1     -12.258  12.488  64.715  1.00  0.00    -0.465 C  
HETATM    8  O   UNL     1     -13.444  14.475  65.590  1.00  0.00    -0.496 OA 
HETATM    9  O   UNL     1     -11.079  12.685  62.600  1.00  0.00    -0.283 OA 
HETATM   10  H   UNL     1     -11.864  12.394  62.152  1.00  0.00     0.000 HD 
HETATM   11  H   UNL     1     -14.234  14.200  65.141  1.00  0.00     0.000 HD 
HETATM   12  O   UNL     1     -13.452  12.017  64.071  1.00  0.00    -0.655 OA 
HETATM   13  C   UNL     1     -12.290  14.016  64.869  1.00  0.00    -0.427 C  
ENDROOT
BRANCH   4  14
HETATM   14  O   UNL     1      -9.378  11.608  65.634  1.00  0.00    -0.225 OA 
BRANCH  14  15
HETATM   15  C   UNL     1      -8.441  10.625  65.160  1.00  0.00    -0.144 C  
BRANCH  15  16
HETATM   16  C   UNL     1      -7.224  10.616  66.095  1.00  0.00    -0.138 C  
HETATM   17  C   UNL     1      -8.140  10.513  68.385  1.00  0.00    -0.119 C  
HETATM   18  O   UNL     1      -7.510  11.291  67.345  1.00  0.00    -0.104 OA 
HETATM   19  H   UNL     1      -8.235   7.236  66.204  1.00  0.00     0.000 HD 
HETATM   20  C   UNL     1      -7.214   9.300  68.638  1.00  0.00    -0.075 C  
HETATM   21  H   UNL     1      -4.727   8.558  66.362  1.00  0.00     0.000 HD 
HETATM   22  O   UNL     1      -5.886   9.742  69.017  1.00  0.00    -0.036 OA 
HETATM   23  C   UNL     1      -7.095   8.418  67.384  1.00  0.00    -0.080 C  
HETATM   24  H   UNL     1      -5.318   8.997  69.172  1.00  0.00     0.000 HD 
HETATM   25  O   UNL     1      -5.136   9.412  66.295  1.00  0.00    -0.038 OA 
HETATM   26  O   UNL     1      -8.309   7.781  66.979  1.00  0.00    -0.114 OA 
HETATM   27  C   UNL     1      -6.561   9.230  66.202  1.00  0.00    -0.070 C  
BRANCH  17  28
HETATM   28  O   UNL     1      -9.510  10.226  68.062  1.00  0.00    -0.144 OA 
BRANCH  28  29
HETATM   29  C   UNL     1     -10.488  10.722  68.925  1.00  0.00    -0.205 C  
HETATM   30  O   UNL     1     -11.772  10.557  71.000  1.00  0.00    -0.338 OA 
HETATM   31  C   UNL     1     -11.006  10.020  69.963  1.00  0.00    -0.300 C  
HETATM   32  C   UNL     1     -12.170  11.868  70.918  1.00  0.00    -0.249 A  
HETATM   33  O   UNL     1      -9.953  12.945  68.433  1.00  0.00    -0.227 OA 
HETATM   34  H   UNL     1     -11.657  14.255  67.801  1.00  0.00     0.000 HD 
HETATM   35  C   UNL     1     -12.920  12.429  71.951  1.00  0.00    -0.407 A  
HETATM   36  C   UNL     1     -10.740  12.177  68.972  1.00  0.00    -0.121 C  
HETATM   37  C   UNL     1     -13.385  13.743  71.824  1.00  0.00    -0.383 A  
HETATM   38  C   UNL     1     -11.830  12.665  69.807  1.00  0.00    -0.379 A  
HETATM   39  O   UNL     1     -12.194  14.623  68.493  1.00  0.00    -0.230 OA 
HETATM   40  C   UNL     1     -13.173  14.477  70.662  1.00  0.00    -0.228 A  
HETATM   41  O   UNL     1     -14.065  14.371  72.827  1.00  0.00    -0.544 OA 
HETATM   42  H   UNL     1     -14.381  15.263  72.741  1.00  0.00     0.000 HD 
HETATM   43  C   UNL     1     -12.389  13.939  69.652  1.00  0.00    -0.249 A  
BRANCH  31  44
HETATM   44  C   UNL     1     -10.673   8.595  70.105  1.00  0.00    -0.244 A  
HETATM   45  O   UNL     1      -9.138   4.739  70.129  1.00  0.00    -0.095 OA 
HETATM   46  H   UNL     1     -10.674   4.518  68.335  1.00  0.00     0.000 HD 
HETATM   47  C   UNL     1      -9.720   8.211  71.069  1.00  0.00    -0.193 A  
HETATM   48  H   UNL     1      -8.475   4.496  70.763  1.00  0.00     0.000 HD 
HETATM   49  O   UNL     1     -11.030   5.399  68.318  1.00  0.00    -0.006 OA 
HETATM   50  C   UNL     1      -9.678   5.995  70.155  1.00  0.00    -0.167 A  
HETATM   51  C   UNL     1     -10.652   6.353  69.225  1.00  0.00    -0.259 A  
HETATM   52  C   UNL     1     -11.173   7.644  69.201  1.00  0.00     0.233 A  
HETATM   53  C   UNL     1      -9.219   6.908  71.092  1.00  0.00    -0.154 A  
ENDBRANCH  31  44
ENDBRANCH  28  29
ENDBRANCH  17  28
ENDBRANCH  15  16
ENDBRANCH  14  15
ENDBRANCH   4  14
TORSDOF 6
ENDMDL
MODEL       36
REMARK 921   NORMALIZED FREE ENERGY PREDICTED BY IDOCK:   -7.35 KCAL/MOL
REMARK 922        TOTAL FREE ENERGY PREDICTED BY IDOCK:  -11.40 KCAL/MOL
REMARK 923 INTER-LIGAND FREE ENERGY PREDICTED BY IDOCK:   -9.26 KCAL/MOL
REMARK 924 INTRA-LIGAND FREE ENERGY PREDICTED BY IDOCK:   -2.14 KCAL/MOL
REMARK 927      BINDING AFFINITY PREDICTED BY RF-SCORE:    0.00 PKD
ROOT
HETATM    1  C   UNL     1     -12.157   6.499  70.996  1.00  0.00    -0.304 C  
HETATM    2  C   UNL     1     -11.266   7.744  71.050  1.00  0.00    -0.266 C  
HETATM    3  O   UNL     1     -10.570   7.731  69.803  1.00  0.00    -0.235 OA 
HETATM    4  C   UNL     1      -9.364   8.464  69.642  1.00  0.00    -0.161 C  
HETATM    5  H   UNL     1      -8.938   9.025  74.085  1.00  0.00     0.000 HD 
HETATM    6  C   UNL     1      -8.458   8.461  70.882  1.00  0.00    -0.140 C  
HETATM    7  C   UNL     1      -9.274   8.783  72.143  1.00  0.00    -0.178 C  
HETATM    8  O   UNL     1     -11.175   7.931  73.477  1.00  0.00    -0.421 OA 
HETATM    9  O   UNL     1      -7.827   7.175  71.037  1.00  0.00    -0.093 OA 
HETATM   10  H   UNL     1      -7.267   7.174  71.804  1.00  0.00     0.000 HD 
HETATM   11  H   UNL     1     -10.625   7.917  74.251  1.00  0.00     0.000 HD 
HETATM   12  O   UNL     1      -8.433   8.826  73.305  1.00  0.00    -0.366 OA 
HETATM   13  C   UNL     1     -10.372   7.721  72.305  1.00  0.00    -0.237 C  
ENDROOT
BRANCH   4  14
HETATM   14  O   UNL     1      -9.522   9.805  69.175  1.00  0.00    -0.169 OA 
BRANCH  14  15
HETATM   15  C   UNL     1      -8.342  10.609  69.348  1.00  0.00    -0.060 C  
BRANCH  15  16
HETATM   16  C   UNL     1      -7.450  10.443  68.111  1.00  0.00    -0.090 C  
HETATM   17  C   UNL     1      -7.273  12.691  67.107  1.00  0.00    -0.033 C  
HETATM   18  O   UNL     1      -7.830  11.361  67.055  1.00  0.00    -0.143 OA 
HETATM   19  H   UNL     1      -5.231  11.967  70.394  1.00  0.00     0.000 HD 
HETATM   20  C   UNL     1      -5.737  12.517  67.128  1.00  0.00    -0.008 C  
HETATM   21  H   UNL     1      -4.390   9.406  67.784  1.00  0.00     0.000 HD 
HETATM   22  O   UNL     1      -5.290  11.784  65.959  1.00  0.00    -0.487 OA 
HETATM   23  C   UNL     1      -5.279  11.756  68.384  1.00  0.00    -0.042 C  
HETATM   24  H   UNL     1      -4.346  11.677  65.973  1.00  0.00     0.000 HD 
HETATM   25  O   UNL     1      -5.315   9.443  67.571  1.00  0.00    -0.037 OA 
HETATM   26  O   UNL     1      -5.514  12.437  69.619  1.00  0.00    -0.074 OA 
HETATM   27  C   UNL     1      -5.950  10.382  68.457  1.00  0.00    -0.043 C  
BRANCH  17  28
HETATM   28  O   UNL     1      -7.853  13.456  68.175  1.00  0.00    -0.123 OA 
BRANCH  28  29
HETATM   29  C   UNL     1      -8.420  14.688  67.846  1.00  0.00    -0.158 C  
HETATM   30  O   UNL     1     -10.313  16.236  67.890  1.00  0.00    -0.267 OA 
HETATM   31  C   UNL     1      -9.744  14.961  67.944  1.00  0.00    -0.206 C  
HETATM   32  C   UNL     1      -9.513  17.304  67.572  1.00  0.00    -0.245 A  
HETATM   33  O   UNL     1      -6.392  15.820  68.127  1.00  0.00    -0.108 OA 
HETATM   34  H   UNL     1      -5.732  17.104  66.414  1.00  0.00     0.000 HD 
HETATM   35  C   UNL     1     -10.058  18.587  67.529  1.00  0.00    -0.383 A  
HETATM   36  C   UNL     1      -7.548  15.876  67.726  1.00  0.00    -0.140 C  
HETATM   37  C   UNL     1      -9.252  19.660  67.130  1.00  0.00    -0.332 A  
HETATM   38  C   UNL     1      -8.144  17.131  67.288  1.00  0.00    -0.206 A  
HETATM   39  O   UNL     1      -6.114  17.972  66.357  1.00  0.00    -0.156 OA 
HETATM   40  C   UNL     1      -7.941  19.464  66.708  1.00  0.00    -0.290 A  
HETATM   41  O   UNL     1      -9.705  20.948  67.132  1.00  0.00    -0.654 OA 
HETATM   42  H   UNL     1      -9.159  21.676  66.861  1.00  0.00     0.000 HD 
HETATM   43  C   UNL     1      -7.383  18.197  66.793  1.00  0.00    -0.209 A  
BRANCH  31  44
HETATM   44  C   UNL     1     -10.684  13.869  68.237  1.00  0.00    -0.261 A  
HETATM   45  O   UNL     1     -12.768  10.465  69.374  1.00  0.00    -0.658 OA 
HETATM   46  H   UNL     1     -12.329   9.896  67.113  1.00  0.00     0.000 HD 
HETATM   47  C   UNL     1     -11.215  13.757  69.536  1.00  0.00    -0.221 A  
HETATM   48  H   UNL     1     -13.098  10.384  70.260  1.00  0.00     0.000 HD 
HETATM   49  O   UNL     1     -11.848  10.669  66.843  1.00  0.00     0.123 OA 
HETATM   50  C   UNL     1     -12.125  11.608  68.987  1.00  0.00    -0.225 A  
HETATM   51  C   UNL     1     -11.640  11.728  67.687  1.00  0.00    -0.294 A  
HETATM   52  C   UNL     1     -10.935  12.861  67.292  1.00  0.00    -0.289 A  
HETATM   53  C   UNL     1     -11.936  12.622  69.914  1.00  0.00    -0.365 A  
ENDBRANCH  31  44
ENDBRANCH  28  29
ENDBRANCH  17  28
ENDBRANCH  15  16
ENDBRANCH  14  15
ENDBRANCH   4  14
TORSDOF 6
ENDMDL
MODEL       37
REMARK 921   NORMALIZED FREE ENERGY PREDICTED BY IDOCK:   -7.33 KCAL/MOL
REMARK 922        TOTAL FREE ENERGY PREDICTED BY IDOCK:  -11.38 KCAL/MOL
REMARK 923 INTER-LIGAND FREE ENERGY PREDICTED BY IDOCK:  -10.13 KCAL/MOL
REMARK 924 INTRA-LIGAND FREE ENERGY PREDICTED BY IDOCK:   -1.25 KCAL/MOL
REMARK 927      BINDING AFFINITY PREDICTED BY RF-SCORE:    0.00 PKD
ROOT
HETATM    1  C   UNL     1      -5.506  20.029  65.032  1.00  0.00    -0.198 C  
HETATM    2  C   UNL     1      -6.488  19.421  66.039  1.00  0.00    -0.207 C  
HETATM    3  O   UNL     1      -7.173  18.413  65.294  1.00  0.00    -0.504 OA 
HETATM    4  C   UNL     1      -8.429  17.920  65.735  1.00  0.00     0.316 C  
HETATM    5  H   UNL     1      -8.924  21.334  68.623  1.00  0.00     0.000 HD 
HETATM    6  C   UNL     1      -9.340  18.989  66.357  1.00  0.00    -0.336 C  
HETATM    7  C   UNL     1      -8.559  19.834  67.374  1.00  0.00    -0.322 C  
HETATM    8  O   UNL     1      -6.607  21.346  67.526  1.00  0.00    -0.527 OA 
HETATM    9  O   UNL     1      -9.874  19.849  65.331  1.00  0.00    -0.252 OA 
HETATM   10  H   UNL     1     -10.437  20.510  65.716  1.00  0.00     0.000 HD 
HETATM   11  H   UNL     1      -7.159  22.020  67.905  1.00  0.00     0.000 HD 
HETATM   12  O   UNL     1      -9.407  20.811  67.995  1.00  0.00    -0.036 OA 
HETATM   13  C   UNL     1      -7.384  20.513  66.652  1.00  0.00    -0.233 C  
ENDROOT
BRANCH   4  14
HETATM   14  O   UNL     1      -8.370  16.787  66.604  1.00  0.00    -0.209 OA 
BRANCH  14  15
HETATM   15  C   UNL     1      -9.482  15.888  66.441  1.00  0.00    -0.295 C  
BRANCH  15  16
HETATM   16  C   UNL     1     -10.379  15.988  67.681  1.00  0.00    -0.284 C  
HETATM   17  C   UNL     1     -10.548  13.693  68.573  1.00  0.00    -0.250 C  
HETATM   18  O   UNL     1     -11.168  14.787  67.864  1.00  0.00    -0.281 OA 
HETATM   19  H   UNL     1      -7.181  15.654  69.138  1.00  0.00     0.000 HD 
HETATM   20  C   UNL     1     -10.117  14.257  69.947  1.00  0.00     0.628 C  
HETATM   21  H   UNL     1     -10.063  17.674  70.439  1.00  0.00     0.000 HD 
HETATM   22  O   UNL     1     -11.260  14.791  70.662  1.00  0.00    -0.432 OA 
HETATM   23  C   UNL     1      -9.076  15.377  69.788  1.00  0.00    -0.064 C  
HETATM   24  H   UNL     1     -10.995  15.137  71.506  1.00  0.00     0.000 HD 
HETATM   25  O   UNL     1     -10.524  17.352  69.674  1.00  0.00    -0.176 OA 
HETATM   26  O   UNL     1      -7.825  14.962  69.235  1.00  0.00    -0.168 OA 
HETATM   27  C   UNL     1      -9.631  16.511  68.922  1.00  0.00    -0.261 C  
BRANCH  17  28
HETATM   28  O   UNL     1      -9.526  13.071  67.778  1.00  0.00    -0.195 OA 
BRANCH  28  29
HETATM   29  C   UNL     1      -9.451  11.679  67.807  1.00  0.00    -0.178 C  
HETATM   30  O   UNL     1      -9.638   9.517  66.678  1.00  0.00    -0.164 OA 
HETATM   31  C   UNL     1      -9.928  10.876  66.823  1.00  0.00    -0.205 C  
HETATM   32  C   UNL     1      -8.935   8.880  67.670  1.00  0.00    -0.134 A  
HETATM   33  O   UNL     1      -7.664  11.696  69.315  1.00  0.00     0.003 OA 
HETATM   34  H   UNL     1      -7.915  10.448  71.159  1.00  0.00     0.000 HD 
HETATM   35  C   UNL     1      -8.621   7.529  67.536  1.00  0.00    -0.122 A  
HETATM   36  C   UNL     1      -8.513  11.024  68.743  1.00  0.00    -0.144 C  
HETATM   37  C   UNL     1      -7.971   6.870  68.585  1.00  0.00    -0.120 A  
HETATM   38  C   UNL     1      -8.519   9.570  68.826  1.00  0.00    -0.122 A  
HETATM   39  O   UNL     1      -7.730   9.520  71.077  1.00  0.00    -0.319 OA 
HETATM   40  C   UNL     1      -7.693   7.516  69.785  1.00  0.00    -0.095 A  
HETATM   41  O   UNL     1      -7.576   5.566  68.490  1.00  0.00    -0.082 OA 
HETATM   42  H   UNL     1      -7.134   5.119  69.202  1.00  0.00     0.000 HD 
HETATM   43  C   UNL     1      -7.963   8.871  69.904  1.00  0.00    -0.108 A  
BRANCH  31  44
HETATM   44  C   UNL     1     -10.732  11.463  65.742  1.00  0.00    -0.309 A  
HETATM   45  O   UNL     1     -12.496  13.636  62.678  1.00  0.00    -0.733 OA 
HETATM   46  H   UNL     1     -13.797  14.431  64.496  1.00  0.00     0.000 HD 
HETATM   47  C   UNL     1     -10.313  11.288  64.409  1.00  0.00    -0.388 A  
HETATM   48  H   UNL     1     -12.189  13.534  61.786  1.00  0.00     0.000 HD 
HETATM   49  O   UNL     1     -13.399  13.941  65.205  1.00  0.00    -0.732 OA 
HETATM   50  C   UNL     1     -11.947  12.882  63.678  1.00  0.00    -0.541 A  
HETATM   51  C   UNL     1     -12.398  13.031  64.988  1.00  0.00    -0.473 A  
HETATM   52  C   UNL     1     -11.813  12.313  66.027  1.00  0.00    -0.409 A  
HETATM   53  C   UNL     1     -10.920  12.002  63.374  1.00  0.00    -0.475 A  
ENDBRANCH  31  44
ENDBRANCH  28  29
ENDBRANCH  17  28
ENDBRANCH  15  16
ENDBRANCH  14  15
ENDBRANCH   4  14
TORSDOF 6
ENDMDL
MODEL       38
REMARK 921   NORMALIZED FREE ENERGY PREDICTED BY IDOCK:   -7.33 KCAL/MOL
REMARK 922        TOTAL FREE ENERGY PREDICTED BY IDOCK:  -11.38 KCAL/MOL
REMARK 923 INTER-LIGAND FREE ENERGY PREDICTED BY IDOCK:  -10.92 KCAL/MOL
REMARK 924 INTRA-LIGAND FREE ENERGY PREDICTED BY IDOCK:   -0.46 KCAL/MOL
REMARK 927      BINDING AFFINITY PREDICTED BY RF-SCORE:    0.00 PKD
ROOT
HETATM    1  C   UNL     1     -12.237   5.843  71.881  1.00  0.00     0.114 C  
HETATM    2  C   UNL     1     -11.631   7.249  71.832  1.00  0.00    -0.277 C  
HETATM    3  O   UNL     1     -11.349   7.460  70.448  1.00  0.00    -0.276 OA 
HETATM    4  C   UNL     1     -10.412   8.449  70.046  1.00  0.00    -0.224 C  
HETATM    5  H   UNL     1      -8.802   8.838  74.229  1.00  0.00     0.000 HD 
HETATM    6  C   UNL     1      -9.196   8.576  70.976  1.00  0.00    -0.182 C  
HETATM    7  C   UNL     1      -9.646   8.638  72.443  1.00  0.00    -0.235 C  
HETATM    8  O   UNL     1     -10.862   7.313  74.142  1.00  0.00    -0.536 OA 
HETATM    9  O   UNL     1      -8.309   7.455  70.795  1.00  0.00    -0.116 OA 
HETATM   10  H   UNL     1      -7.558   7.533  71.370  1.00  0.00     0.000 HD 
HETATM   11  H   UNL     1     -10.114   7.377  74.725  1.00  0.00     0.000 HD 
HETATM   12  O   UNL     1      -8.523   8.800  73.322  1.00  0.00    -0.366 OA 
HETATM   13  C   UNL     1     -10.418   7.352  72.777  1.00  0.00    -0.275 C  
ENDROOT
BRANCH   4  14
HETATM   14  O   UNL     1     -10.959   9.747  69.804  1.00  0.00    -0.237 OA 
BRANCH  14  15
HETATM   15  C   UNL     1      -9.965  10.726  69.454  1.00  0.00    -0.110 C  
BRANCH  15  16
HETATM   16  C   UNL     1      -9.255  10.269  68.174  1.00  0.00    -0.136 C  
HETATM   17  C   UNL     1      -9.326  12.202  66.641  1.00  0.00    -0.226 C  
HETATM   18  O   UNL     1      -9.825  10.896  66.998  1.00  0.00    -0.177 OA 
HETATM   19  H   UNL     1      -6.799  12.324  69.659  1.00  0.00     0.000 HD 
HETATM   20  C   UNL     1      -7.796  12.050  66.472  1.00  0.00     0.132 C  
HETATM   21  H   UNL     1      -6.232   9.207  67.649  1.00  0.00     0.000 HD 
HETATM   22  O   UNL     1      -7.491  11.056  65.461  1.00  0.00    -0.362 OA 
HETATM   23  C   UNL     1      -7.129  11.625  67.790  1.00  0.00    -0.092 C  
HETATM   24  H   UNL     1      -6.552  10.963  65.357  1.00  0.00     0.000 HD 
HETATM   25  O   UNL     1      -7.178   9.183  67.575  1.00  0.00    -0.079 OA 
HETATM   26  O   UNL     1      -7.212  12.586  68.844  1.00  0.00    -0.102 OA 
HETATM   27  C   UNL     1      -7.720  10.306  68.294  1.00  0.00    -0.092 C  
BRANCH  17  28
HETATM   28  O   UNL     1      -9.779  13.202  67.568  1.00  0.00    -0.205 OA 
BRANCH  28  29
HETATM   29  C   UNL     1      -9.673  14.536  67.173  1.00  0.00    -0.240 C  
HETATM   30  O   UNL     1     -10.439  16.416  65.809  1.00  0.00    -0.354 OA 
HETATM   31  C   UNL     1     -10.295  15.054  66.086  1.00  0.00    -0.299 C  
HETATM   32  C   UNL     1      -9.790  17.325  66.605  1.00  0.00    -0.295 A  
HETATM   33  O   UNL     1      -9.067  15.238  69.321  1.00  0.00    -0.227 OA 
HETATM   34  H   UNL     1      -7.196  16.461  69.469  1.00  0.00     0.000 HD 
HETATM   35  C   UNL     1      -9.935  18.689  66.357  1.00  0.00    -0.415 A  
HETATM   36  C   UNL     1      -9.171  15.537  68.138  1.00  0.00    -0.189 C  
HETATM   37  C   UNL     1      -9.209  19.606  67.126  1.00  0.00    -0.332 A  
HETATM   38  C   UNL     1      -8.977  16.906  67.677  1.00  0.00    -0.219 A  
HETATM   39  O   UNL     1      -7.273  17.388  69.277  1.00  0.00    -0.213 OA 
HETATM   40  C   UNL     1      -8.295  19.183  68.086  1.00  0.00    -0.351 A  
HETATM   41  O   UNL     1      -9.357  20.955  66.979  1.00  0.00    -0.651 OA 
HETATM   42  H   UNL     1      -8.864  21.577  67.501  1.00  0.00     0.000 HD 
HETATM   43  C   UNL     1      -8.182  17.830  68.366  1.00  0.00    -0.298 A  
BRANCH  31  44
HETATM   44  C   UNL     1     -10.978  14.150  65.150  1.00  0.00    -0.361 A  
HETATM   45  O   UNL     1     -12.867  11.114  63.043  1.00  0.00    -0.507 OA 
HETATM   46  H   UNL     1     -10.680  10.881  62.153  1.00  0.00     0.000 HD 
HETATM   47  C   UNL     1     -12.359  13.921  65.309  1.00  0.00    -0.485 A  
HETATM   48  H   UNL     1     -13.792  10.946  63.177  1.00  0.00     0.000 HD 
HETATM   49  O   UNL     1     -10.237  11.571  62.632  1.00  0.00    -0.084 OA 
HETATM   50  C   UNL     1     -12.258  12.146  63.701  1.00  0.00    -0.562 A  
HETATM   51  C   UNL     1     -10.902  12.393  63.504  1.00  0.00    -0.438 A  
HETATM   52  C   UNL     1     -10.253  13.405  64.207  1.00  0.00    -0.137 A  
HETATM   53  C   UNL     1     -13.001  12.914  64.585  1.00  0.00    -0.204 A  
ENDBRANCH  31  44
ENDBRANCH  28  29
ENDBRANCH  17  28
ENDBRANCH  15  16
ENDBRANCH  14  15
ENDBRANCH   4  14
TORSDOF 6
ENDMDL
MODEL       39
REMARK 921   NORMALIZED FREE ENERGY PREDICTED BY IDOCK:   -7.30 KCAL/MOL
REMARK 922        TOTAL FREE ENERGY PREDICTED BY IDOCK:  -11.34 KCAL/MOL
REMARK 923 INTER-LIGAND FREE ENERGY PREDICTED BY IDOCK:   -9.21 KCAL/MOL
REMARK 924 INTRA-LIGAND FREE ENERGY PREDICTED BY IDOCK:   -2.13 KCAL/MOL
REMARK 927      BINDING AFFINITY PREDICTED BY RF-SCORE:    0.00 PKD
ROOT
HETATM    1  C   UNL     1     -12.398  15.015  64.510  1.00  0.00    -0.276 C  
HETATM    2  C   UNL     1     -11.143  14.177  64.774  1.00  0.00    -0.387 C  
HETATM    3  O   UNL     1     -11.439  12.909  64.186  1.00  0.00    -0.350 OA 
HETATM    4  C   UNL     1     -10.721  11.748  64.576  1.00  0.00    -0.315 C  
HETATM    5  H   UNL     1      -9.051  13.819  68.204  1.00  0.00     0.000 HD 
HETATM    6  C   UNL     1     -10.376  11.696  66.073  1.00  0.00    -0.243 C  
HETATM    7  C   UNL     1      -9.784  13.036  66.533  1.00  0.00    -0.266 C  
HETATM    8  O   UNL     1     -10.353  15.438  66.702  1.00  0.00    -0.267 OA 
HETATM    9  O   UNL     1     -11.556  11.405  66.847  1.00  0.00    -0.492 OA 
HETATM   10  H   UNL     1     -11.343  11.373  67.772  1.00  0.00     0.000 HD 
HETATM   11  H   UNL     1     -10.151  15.419  67.630  1.00  0.00     0.000 HD 
HETATM   12  O   UNL     1      -9.417  12.990  67.920  1.00  0.00    -0.203 OA 
HETATM   13  C   UNL     1     -10.816  14.146  66.279  1.00  0.00    -0.300 C  
ENDROOT
BRANCH   4  14
HETATM   14  O   UNL     1      -9.546  11.470  63.812  1.00  0.00    -0.245 OA 
BRANCH  14  15
HETATM   15  C   UNL     1      -9.204  10.073  63.785  1.00  0.00    -0.271 C  
BRANCH  15  16
HETATM   16  C   UNL     1      -7.736   9.919  64.204  1.00  0.00    -0.138 C  
HETATM   17  C   UNL     1      -7.752   8.412  66.159  1.00  0.00    -0.097 C  
HETATM   18  O   UNL     1      -7.608   9.751  65.637  1.00  0.00    -0.101 OA 
HETATM   19  H   UNL     1      -8.350   6.835  62.601  1.00  0.00     0.000 HD 
HETATM   20  C   UNL     1      -6.698   7.548  65.428  1.00  0.00    -0.045 C  
HETATM   21  H   UNL     1      -5.146   8.789  62.604  1.00  0.00     0.000 HD 
HETATM   22  O   UNL     1      -5.365   8.076  65.644  1.00  0.00    -0.028 OA 
HETATM   23  C   UNL     1      -6.965   7.505  63.914  1.00  0.00    -0.058 C  
HETATM   24  H   UNL     1      -4.718   7.545  65.195  1.00  0.00     0.000 HD 
HETATM   25  O   UNL     1      -5.623   9.406  63.145  1.00  0.00    -0.078 OA 
HETATM   26  O   UNL     1      -8.185   6.862  63.536  1.00  0.00    -0.039 OA 
HETATM   27  C   UNL     1      -6.964   8.917  63.325  1.00  0.00    -0.089 C  
BRANCH  17  28
HETATM   28  O   UNL     1      -9.116   7.970  66.086  1.00  0.00    -0.176 OA 
BRANCH  28  29
HETATM   29  C   UNL     1      -9.758   7.672  67.288  1.00  0.00    -0.169 C  
HETATM   30  O   UNL     1     -10.359   6.071  69.037  1.00  0.00    -0.182 OA 
HETATM   31  C   UNL     1      -9.974   6.411  67.737  1.00  0.00    -0.128 C  
HETATM   32  C   UNL     1     -10.690   7.073  69.913  1.00  0.00    -0.240 A  
HETATM   33  O   UNL     1      -9.276   9.775  68.194  1.00  0.00    -0.129 OA 
HETATM   34  H   UNL     1     -11.017  10.917  69.020  1.00  0.00     0.000 HD 
HETATM   35  C   UNL     1     -11.059   6.756  71.219  1.00  0.00    -0.303 A  
HETATM   36  C   UNL     1      -9.904   8.729  68.311  1.00  0.00    -0.165 C  
HETATM   37  C   UNL     1     -11.468   7.778  72.083  1.00  0.00    -0.310 A  
HETATM   38  C   UNL     1     -10.660   8.425  69.518  1.00  0.00    -0.217 A  
HETATM   39  O   UNL     1     -11.298  10.693  69.900  1.00  0.00    -0.266 OA 
HETATM   40  C   UNL     1     -11.580   9.094  71.646  1.00  0.00    -0.449 A  
HETATM   41  O   UNL     1     -11.777   7.542  73.391  1.00  0.00    -0.574 OA 
HETATM   42  H   UNL     1     -12.055   8.236  73.978  1.00  0.00     0.000 HD 
HETATM   43  C   UNL     1     -11.170   9.420  70.362  1.00  0.00    -0.262 A  
BRANCH  31  44
HETATM   44  C   UNL     1      -9.692   5.274  66.850  1.00  0.00    -0.170 A  
HETATM   45  O   UNL     1      -8.584   2.555  63.917  1.00  0.00    -0.085 OA 
HETATM   46  H   UNL     1     -10.848   2.882  63.287  1.00  0.00     0.000 HD 
HETATM   47  C   UNL     1      -8.394   4.725  66.837  1.00  0.00    -0.106 A  
HETATM   48  H   UNL     1      -7.700   2.212  63.897  1.00  0.00     0.000 HD 
HETATM   49  O   UNL     1     -11.111   3.507  63.951  1.00  0.00    -0.312 OA 
HETATM   50  C   UNL     1      -8.961   3.412  64.913  1.00  0.00    -0.133 A  
HETATM   51  C   UNL     1     -10.259   3.916  64.943  1.00  0.00    -0.164 A  
HETATM   52  C   UNL     1     -10.645   4.832  65.918  1.00  0.00    -0.290 A  
HETATM   53  C   UNL     1      -8.026   3.794  65.863  1.00  0.00    -0.093 A  
ENDBRANCH  31  44
ENDBRANCH  28  29
ENDBRANCH  17  28
ENDBRANCH  15  16
ENDBRANCH  14  15
ENDBRANCH   4  14
TORSDOF 6
ENDMDL
MODEL       40
REMARK 921   NORMALIZED FREE ENERGY PREDICTED BY IDOCK:   -7.29 KCAL/MOL
REMARK 922        TOTAL FREE ENERGY PREDICTED BY IDOCK:  -11.32 KCAL/MOL
REMARK 923 INTER-LIGAND FREE ENERGY PREDICTED BY IDOCK:   -9.66 KCAL/MOL
REMARK 924 INTRA-LIGAND FREE ENERGY PREDICTED BY IDOCK:   -1.66 KCAL/MOL
REMARK 927      BINDING AFFINITY PREDICTED BY RF-SCORE:    0.00 PKD
ROOT
HETATM    1  C   UNL     1     -13.859   9.404  71.932  1.00  0.00    -0.380 C  
HETATM    2  C   UNL     1     -12.546  10.045  71.474  1.00  0.00    -0.425 C  
HETATM    3  O   UNL     1     -12.897  10.748  70.282  1.00  0.00    -0.299 OA 
HETATM    4  C   UNL     1     -11.898  11.115  69.341  1.00  0.00    -0.345 C  
HETATM    5  H   UNL     1      -8.890   8.357  71.233  1.00  0.00     0.000 HD 
HETATM    6  C   UNL     1     -10.786  10.070  69.166  1.00  0.00    -0.222 C  
HETATM    7  C   UNL     1     -10.275   9.596  70.534  1.00  0.00    -0.287 C  
HETATM    8  O   UNL     1     -11.053   8.485  72.603  1.00  0.00    -0.323 OA 
HETATM    9  O   UNL     1     -11.278   8.938  68.422  1.00  0.00    -0.412 OA 
HETATM   10  H   UNL     1     -10.591   8.291  68.314  1.00  0.00     0.000 HD 
HETATM   11  H   UNL     1     -10.375   7.827  72.503  1.00  0.00     0.000 HD 
HETATM   12  O   UNL     1      -9.206   8.650  70.387  1.00  0.00    -0.156 OA 
HETATM   13  C   UNL     1     -11.446   8.978  71.312  1.00  0.00    -0.320 C  
ENDROOT
BRANCH   4  14
HETATM   14  O   UNL     1     -11.309  12.401  69.545  1.00  0.00    -0.245 OA 
BRANCH  14  15
HETATM   15  C   UNL     1     -10.488  12.830  68.444  1.00  0.00    -0.243 C  
BRANCH  15  16
HETATM   16  C   UNL     1      -9.228  13.502  69.005  1.00  0.00     0.357 C  
HETATM   17  C   UNL     1      -7.388  12.833  67.501  1.00  0.00    -0.153 C  
HETATM   18  O   UNL     1      -8.048  12.692  68.777  1.00  0.00    -0.043 OA 
HETATM   19  H   UNL     1      -9.942  15.538  66.211  1.00  0.00     0.000 HD 
HETATM   20  C   UNL     1      -7.035  14.333  67.361  1.00  0.00    -0.051 C  
HETATM   21  H   UNL     1      -8.488  16.626  69.494  1.00  0.00     0.000 HD 
HETATM   22  O   UNL     1      -6.194  14.764  68.461  1.00  0.00    -0.080 OA 
HETATM   23  C   UNL     1      -8.302  15.204  67.345  1.00  0.00    -0.186 C  
HETATM   24  H   UNL     1      -5.978  15.685  68.374  1.00  0.00     0.000 HD 
HETATM   25  O   UNL     1      -8.555  15.709  69.731  1.00  0.00    -0.184 OA 
HETATM   26  O   UNL     1      -9.160  14.999  66.221  1.00  0.00    -0.286 OA 
HETATM   27  C   UNL     1      -9.121  14.990  68.620  1.00  0.00    -0.191 C  
BRANCH  17  28
HETATM   28  O   UNL     1      -8.167  12.250  66.445  1.00  0.00     0.031 OA 
BRANCH  28  29
HETATM   29  C   UNL     1      -8.423  10.880  66.520  1.00  0.00    -0.159 C  
HETATM   30  O   UNL     1      -9.529   8.875  65.660  1.00  0.00    -0.229 OA 
HETATM   31  C   UNL     1      -9.408  10.257  65.828  1.00  0.00    -0.186 C  
HETATM   32  C   UNL     1      -8.683   8.048  66.355  1.00  0.00    -0.151 A  
HETATM   33  O   UNL     1      -6.255  10.403  67.258  1.00  0.00    -0.056 OA 
HETATM   34  H   UNL     1      -6.095   9.182  69.130  1.00  0.00     0.000 HD 
HETATM   35  C   UNL     1      -8.775   6.667  66.189  1.00  0.00    -0.154 A  
HETATM   36  C   UNL     1      -7.391   9.981  67.078  1.00  0.00    -0.091 C  
HETATM   37  C   UNL     1      -7.959   5.829  66.959  1.00  0.00    -0.102 A  
HETATM   38  C   UNL     1      -7.714   8.569  67.236  1.00  0.00    -0.097 A  
HETATM   39  O   UNL     1      -6.182   8.241  69.036  1.00  0.00    -0.041 OA 
HETATM   40  C   UNL     1      -7.110   6.341  67.933  1.00  0.00    -0.085 A  
HETATM   41  O   UNL     1      -7.953   4.474  66.795  1.00  0.00    -0.101 OA 
HETATM   42  H   UNL     1      -7.400   3.905  67.317  1.00  0.00     0.000 HD 
HETATM   43  C   UNL     1      -6.982   7.715  68.069  1.00  0.00    -0.079 A  
BRANCH  31  44
HETATM   44  C   UNL     1     -10.391  11.064  65.090  1.00  0.00    -0.346 A  
HETATM   45  O   UNL     1     -12.646  13.848  62.997  1.00  0.00    -1.030 OA 
HETATM   46  H   UNL     1     -13.504  14.235  65.174  1.00  0.00     0.000 HD 
HETATM   47  C   UNL     1     -10.265  11.180  63.692  1.00  0.00    -0.444 A  
HETATM   48  H   UNL     1     -12.535  13.941  62.058  1.00  0.00     0.000 HD 
HETATM   49  O   UNL     1     -12.991  13.603  65.664  1.00  0.00    -0.538 OA 
HETATM   50  C   UNL     1     -11.938  12.896  63.676  1.00  0.00    -0.541 A  
HETATM   51  C   UNL     1     -12.101  12.760  65.053  1.00  0.00    -0.441 A  
HETATM   52  C   UNL     1     -11.348  11.834  65.770  1.00  0.00    -0.309 A  
HETATM   53  C   UNL     1     -11.039  12.101  62.983  1.00  0.00    -0.036 A  
ENDBRANCH  31  44
ENDBRANCH  28  29
ENDBRANCH  17  28
ENDBRANCH  15  16
ENDBRANCH  14  15
ENDBRANCH   4  14
TORSDOF 6
ENDMDL
MODEL       41
REMARK 921   NORMALIZED FREE ENERGY PREDICTED BY IDOCK:   -7.24 KCAL/MOL
REMARK 922        TOTAL FREE ENERGY PREDICTED BY IDOCK:  -11.25 KCAL/MOL
REMARK 923 INTER-LIGAND FREE ENERGY PREDICTED BY IDOCK:   -9.44 KCAL/MOL
REMARK 924 INTRA-LIGAND FREE ENERGY PREDICTED BY IDOCK:   -1.81 KCAL/MOL
REMARK 927      BINDING AFFINITY PREDICTED BY RF-SCORE:    0.00 PKD
ROOT
HETATM    1  C   UNL     1     -10.660   5.738  66.746  1.00  0.00    -0.373 C  
HETATM    2  C   UNL     1      -9.453   6.678  66.659  1.00  0.00    -0.164 C  
HETATM    3  O   UNL     1     -10.018   7.941  66.306  1.00  0.00    -0.166 OA 
HETATM    4  C   UNL     1      -9.211   8.955  65.726  1.00  0.00    -0.221 C  
HETATM    5  H   UNL     1      -5.906   6.032  64.850  1.00  0.00     0.000 HD 
HETATM    6  C   UNL     1      -8.151   8.430  64.746  1.00  0.00    -0.155 C  
HETATM    7  C   UNL     1      -7.395   7.242  65.359  1.00  0.00    -0.079 C  
HETATM    8  O   UNL     1      -7.779   4.960  66.234  1.00  0.00    -0.090 OA 
HETATM    9  O   UNL     1      -8.772   8.017  63.513  1.00  0.00    -0.377 OA 
HETATM   10  H   UNL     1      -8.117   7.692  62.907  1.00  0.00     0.000 HD 
HETATM   11  H   UNL     1      -7.131   4.620  65.628  1.00  0.00     0.000 HD 
HETATM   12  O   UNL     1      -6.373   6.767  64.471  1.00  0.00    -0.037 OA 
HETATM   13  C   UNL     1      -8.403   6.126  65.675  1.00  0.00    -0.146 C  
ENDROOT
BRANCH   4  14
HETATM   14  O   UNL     1      -8.593   9.850  66.654  1.00  0.00    -0.124 OA 
BRANCH  14  15
HETATM   15  C   UNL     1      -9.129  11.184  66.599  1.00  0.00    -0.170 C  
BRANCH  15  16
HETATM   16  C   UNL     1     -10.040  11.397  67.814  1.00  0.00    -0.181 C  
HETATM   17  C   UNL     1      -9.908  13.806  68.335  1.00  0.00    -0.227 C  
HETATM   18  O   UNL     1      -9.541  12.452  68.673  1.00  0.00    -0.147 OA 
HETATM   19  H   UNL     1     -12.016  12.705  65.198  1.00  0.00     0.000 HD 
HETATM   20  C   UNL     1     -11.454  13.840  68.300  1.00  0.00    -0.312 C  
HETATM   21  H   UNL     1     -13.216  10.871  68.243  1.00  0.00     0.000 HD 
HETATM   22  O   UNL     1     -12.003  13.430  69.577  1.00  0.00    -0.308 OA 
HETATM   23  C   UNL     1     -12.007  12.907  67.210  1.00  0.00    -0.309 C  
HETATM   24  H   UNL     1     -12.953  13.450  69.555  1.00  0.00     0.000 HD 
HETATM   25  O   UNL     1     -12.296  10.827  68.474  1.00  0.00    -0.417 OA 
HETATM   26  O   UNL     1     -11.674  13.282  65.871  1.00  0.00    -0.334 OA 
HETATM   27  C   UNL     1     -11.532  11.470  67.438  1.00  0.00    -0.274 C  
BRANCH  17  28
HETATM   28  O   UNL     1      -9.223  14.251  67.154  1.00  0.00    -0.204 OA 
BRANCH  28  29
HETATM   29  C   UNL     1      -8.575  15.485  67.216  1.00  0.00    -0.193 C  
HETATM   30  O   UNL     1      -6.530  16.800  67.482  1.00  0.00    -0.129 OA 
HETATM   31  C   UNL     1      -7.303  15.649  67.655  1.00  0.00    -0.167 C  
HETATM   32  C   UNL     1      -7.122  17.921  66.957  1.00  0.00    -0.184 A  
HETATM   33  O   UNL     1      -9.989  16.432  65.611  1.00  0.00    -0.469 OA 
HETATM   34  H   UNL     1     -10.979  18.359  66.182  1.00  0.00     0.000 HD 
HETATM   35  C   UNL     1      -6.364  19.075  66.760  1.00  0.00    -0.197 A  
HETATM   36  C   UNL     1      -9.121  16.627  66.453  1.00  0.00    -0.292 C  
HETATM   37  C   UNL     1      -6.992  20.236  66.294  1.00  0.00    -0.257 A  
HETATM   38  C   UNL     1      -8.486  17.929  66.606  1.00  0.00    -0.281 A  
HETATM   39  O   UNL     1     -10.466  19.152  66.078  1.00  0.00    -0.456 OA 
HETATM   40  C   UNL     1      -8.367  20.283  66.090  1.00  0.00    -0.144 A  
HETATM   41  O   UNL     1      -6.295  21.376  66.017  1.00  0.00    -0.457 OA 
HETATM   42  H   UNL     1      -6.722  22.164  65.701  1.00  0.00     0.000 HD 
HETATM   43  C   UNL     1      -9.116  19.125  66.241  1.00  0.00    -0.310 A  
BRANCH  31  44
HETATM   44  C   UNL     1      -6.604  14.515  68.277  1.00  0.00    -0.119 A  
HETATM   45  O   UNL     1      -5.286  11.003  70.052  1.00  0.00    -0.047 OA 
HETATM   46  H   UNL     1      -5.444  12.364  71.989  1.00  0.00     0.000 HD 
HETATM   47  C   UNL     1      -6.310  13.383  67.491  1.00  0.00    -0.112 A  
HETATM   48  H   UNL     1      -5.118  10.235  69.520  1.00  0.00     0.000 HD 
HETATM   49  O   UNL     1      -5.750  13.171  71.594  1.00  0.00    -0.392 OA 
HETATM   50  C   UNL     1      -5.673  12.173  69.459  1.00  0.00    -0.087 A  
HETATM   51  C   UNL     1      -5.920  13.299  70.241  1.00  0.00    -0.134 A  
HETATM   52  C   UNL     1      -6.367  14.483  69.660  1.00  0.00    -0.141 A  
HETATM   53  C   UNL     1      -5.846  12.207  68.084  1.00  0.00    -0.056 A  
ENDBRANCH  31  44
ENDBRANCH  28  29
ENDBRANCH  17  28
ENDBRANCH  15  16
ENDBRANCH  14  15
ENDBRANCH   4  14
TORSDOF 6
ENDMDL
MODEL       42
REMARK 921   NORMALIZED FREE ENERGY PREDICTED BY IDOCK:   -7.22 KCAL/MOL
REMARK 922        TOTAL FREE ENERGY PREDICTED BY IDOCK:  -11.23 KCAL/MOL
REMARK 923 INTER-LIGAND FREE ENERGY PREDICTED BY IDOCK:   -9.36 KCAL/MOL
REMARK 924 INTRA-LIGAND FREE ENERGY PREDICTED BY IDOCK:   -1.87 KCAL/MOL
REMARK 927      BINDING AFFINITY PREDICTED BY RF-SCORE:    0.00 PKD
ROOT
HETATM    1  C   UNL     1     -10.609   3.593  72.904  1.00  0.00    -0.225 C  
HETATM    2  C   UNL     1     -10.057   4.842  72.210  1.00  0.00    -0.191 C  
HETATM    3  O   UNL     1     -10.351   4.634  70.829  1.00  0.00    -0.177 OA 
HETATM    4  C   UNL     1      -9.642   5.347  69.825  1.00  0.00    -0.168 C  
HETATM    5  H   UNL     1      -6.485   6.636  72.759  1.00  0.00     0.000 HD 
HETATM    6  C   UNL     1      -8.154   5.560  70.139  1.00  0.00    -0.098 C  
HETATM    7  C   UNL     1      -7.977   6.073  71.576  1.00  0.00    -0.113 C  
HETATM    8  O   UNL     1      -8.425   5.427  73.922  1.00  0.00    -0.113 OA 
HETATM    9  O   UNL     1      -7.428   4.326  69.980  1.00  0.00    -0.048 OA 
HETATM   10  H   UNL     1      -6.507   4.458  70.175  1.00  0.00     0.000 HD 
HETATM   11  H   UNL     1      -7.505   5.547  74.129  1.00  0.00     0.000 HD 
HETATM   12  O   UNL     1      -6.595   6.318  71.871  1.00  0.00    -0.059 OA 
HETATM   13  C   UNL     1      -8.566   5.038  72.546  1.00  0.00    -0.120 C  
ENDROOT
BRANCH   4  14
HETATM   14  O   UNL     1     -10.225   6.591  69.432  1.00  0.00    -0.169 OA 
BRANCH  14  15
HETATM   15  C   UNL     1      -9.297   7.469  68.771  1.00  0.00    -0.147 C  
BRANCH  15  16
HETATM   16  C   UNL     1      -9.606   7.468  67.269  1.00  0.00    -0.156 C  
HETATM   17  C   UNL     1     -10.069   9.819  66.678  1.00  0.00    -0.237 C  
HETATM   18  O   UNL     1     -10.574   8.490  66.925  1.00  0.00    -0.298 OA 
HETATM   19  H   UNL     1      -6.328   8.776  67.325  1.00  0.00     0.000 HD 
HETATM   20  C   UNL     1      -9.021   9.682  65.549  1.00  0.00    -0.183 C  
HETATM   21  H   UNL     1      -7.834   6.551  64.706  1.00  0.00     0.000 HD 
HETATM   22  O   UNL     1      -9.620   9.099  64.365  1.00  0.00    -0.291 OA 
HETATM   23  C   UNL     1      -7.844   8.795  65.987  1.00  0.00    -0.105 C  
HETATM   24  H   UNL     1      -8.976   9.014  63.671  1.00  0.00     0.000 HD 
HETATM   25  O   UNL     1      -8.616   6.590  65.244  1.00  0.00    -0.123 OA 
HETATM   26  O   UNL     1      -7.056   9.324  67.055  1.00  0.00    -0.084 OA 
HETATM   27  C   UNL     1      -8.338   7.405  66.397  1.00  0.00    -0.127 C  
BRANCH  17  28
HETATM   28  O   UNL     1      -9.632  10.443  67.896  1.00  0.00    -0.141 OA 
BRANCH  28  29
HETATM   29  C   UNL     1     -10.114  11.723  68.169  1.00  0.00    -0.192 C  
HETATM   30  O   UNL     1     -11.210  13.304  69.680  1.00  0.00    -0.162 OA 
HETATM   31  C   UNL     1     -10.927  12.018  69.214  1.00  0.00    -0.131 C  
HETATM   32  C   UNL     1     -10.761  14.382  68.961  1.00  0.00    -0.250 A  
HETATM   33  O   UNL     1      -8.382  12.750  66.979  1.00  0.00    -0.178 OA 
HETATM   34  H   UNL     1      -8.999  14.234  65.418  1.00  0.00     0.000 HD 
HETATM   35  C   UNL     1     -11.018  15.674  69.419  1.00  0.00    -0.283 A  
HETATM   36  C   UNL     1      -9.460  12.891  67.543  1.00  0.00    -0.198 C  
HETATM   37  C   UNL     1     -10.622  16.768  68.640  1.00  0.00    -0.353 A  
HETATM   38  C   UNL     1     -10.038  14.210  67.764  1.00  0.00    -0.239 A  
HETATM   39  O   UNL     1      -9.203  15.112  65.718  1.00  0.00    -0.264 OA 
HETATM   40  C   UNL     1     -10.041  16.593  67.388  1.00  0.00    -0.274 A  
HETATM   41  O   UNL     1     -10.783  18.055  69.063  1.00  0.00    -0.330 OA 
HETATM   42  H   UNL     1     -10.515  18.798  68.535  1.00  0.00     0.000 HD 
HETATM   43  C   UNL     1      -9.742  15.311  66.951  1.00  0.00    -0.233 A  
BRANCH  31  44
HETATM   44  C   UNL     1     -11.494  10.923  70.014  1.00  0.00    -0.411 A  
HETATM   45  O   UNL     1     -13.137   8.323  72.801  1.00  0.00    -0.601 OA 
HETATM   46  H   UNL     1     -10.854   7.718  73.027  1.00  0.00     0.000 HD 
HETATM   47  C   UNL     1     -12.888  10.874  70.212  1.00  0.00    -0.209 A  
HETATM   48  H   UNL     1     -14.074   8.316  72.950  1.00  0.00     0.000 HD 
HETATM   49  O   UNL     1     -10.467   8.312  72.394  1.00  0.00    -0.289 OA 
HETATM   50  C   UNL     1     -12.604   9.145  71.847  1.00  0.00    -0.388 A  
HETATM   51  C   UNL     1     -11.228   9.154  71.628  1.00  0.00    -0.377 A  
HETATM   52  C   UNL     1     -10.662  10.024  70.700  1.00  0.00    -0.325 A  
HETATM   53  C   UNL     1     -13.445   9.985  71.134  1.00  0.00    -0.299 A  
ENDBRANCH  31  44
ENDBRANCH  28  29
ENDBRANCH  17  28
ENDBRANCH  15  16
ENDBRANCH  14  15
ENDBRANCH   4  14
TORSDOF 6
ENDMDL
MODEL       43
REMARK 921   NORMALIZED FREE ENERGY PREDICTED BY IDOCK:   -7.18 KCAL/MOL
REMARK 922        TOTAL FREE ENERGY PREDICTED BY IDOCK:  -11.17 KCAL/MOL
REMARK 923 INTER-LIGAND FREE ENERGY PREDICTED BY IDOCK:   -8.93 KCAL/MOL
REMARK 924 INTRA-LIGAND FREE ENERGY PREDICTED BY IDOCK:   -2.24 KCAL/MOL
REMARK 927      BINDING AFFINITY PREDICTED BY RF-SCORE:    0.00 PKD
ROOT
HETATM    1  C   UNL     1     -10.583   5.011  66.148  1.00  0.00    -0.321 C  
HETATM    2  C   UNL     1      -9.831   4.730  67.453  1.00  0.00    -0.175 C  
HETATM    3  O   UNL     1      -9.251   5.987  67.801  1.00  0.00    -0.111 OA 
HETATM    4  C   UNL     1      -8.150   6.051  68.695  1.00  0.00    -0.107 C  
HETATM    5  H   UNL     1      -7.394   1.632  68.314  1.00  0.00     0.000 HD 
HETATM    6  C   UNL     1      -7.142   4.902  68.533  1.00  0.00    -0.057 C  
HETATM    7  C   UNL     1      -7.873   3.553  68.465  1.00  0.00    -0.055 C  
HETATM    8  O   UNL     1      -9.546   2.334  67.111  1.00  0.00    -0.399 OA 
HETATM    9  O   UNL     1      -6.365   5.085  67.334  1.00  0.00    -0.037 OA 
HETATM   10  H   UNL     1      -5.742   4.375  67.233  1.00  0.00     0.000 HD 
HETATM   11  H   UNL     1      -8.931   1.620  66.996  1.00  0.00     0.000 HD 
HETATM   12  O   UNL     1      -6.942   2.466  68.356  1.00  0.00    -0.043 OA 
HETATM   13  C   UNL     1      -8.832   3.571  67.265  1.00  0.00    -0.131 C  
ENDROOT
BRANCH   4  14
HETATM   14  O   UNL     1      -8.491   6.187  70.076  1.00  0.00    -0.125 OA 
BRANCH  14  15
HETATM   15  C   UNL     1      -8.656   7.556  70.488  1.00  0.00    -0.138 C  
BRANCH  15  16
HETATM   16  C   UNL     1      -9.572   7.592  71.718  1.00  0.00    -0.152 C  
HETATM   17  C   UNL     1     -11.244   9.347  71.255  1.00  0.00    -0.367 C  
HETATM   18  O   UNL     1     -10.064   8.930  71.974  1.00  0.00    -0.332 OA 
HETATM   19  H   UNL     1     -11.597   5.911  69.365  1.00  0.00     0.000 HD 
HETATM   20  C   UNL     1     -12.341   8.308  71.585  1.00  0.00    -0.315 C  
HETATM   21  H   UNL     1     -11.456   5.318  73.067  1.00  0.00     0.000 HD 
HETATM   22  O   UNL     1     -12.569   8.243  73.016  1.00  0.00    -0.680 OA 
HETATM   23  C   UNL     1     -11.948   6.906  71.090  1.00  0.00    -0.366 C  
HETATM   24  H   UNL     1     -13.243   7.604  73.218  1.00  0.00     0.000 HD 
HETATM   25  O   UNL     1     -10.808   6.012  73.068  1.00  0.00    -0.237 OA 
HETATM   26  O   UNL     1     -11.839   6.778  69.671  1.00  0.00    -0.182 OA 
HETATM   27  C   UNL     1     -10.622   6.465  71.715  1.00  0.00    -0.220 C  
BRANCH  17  28
HETATM   28  O   UNL     1     -10.956   9.566  69.866  1.00  0.00    -0.231 OA 
BRANCH  28  29
HETATM   29  C   UNL     1     -10.719  10.880  69.460  1.00  0.00    -0.206 C  
HETATM   30  O   UNL     1      -9.801  12.473  67.847  1.00  0.00    -0.195 OA 
HETATM   31  C   UNL     1      -9.866  11.220  68.462  1.00  0.00    -0.197 C  
HETATM   32  C   UNL     1     -10.544  13.504  68.365  1.00  0.00    -0.248 A  
HETATM   33  O   UNL     1     -12.754  11.634  70.333  1.00  0.00    -0.153 OA 
HETATM   34  H   UNL     1     -12.643  13.390  71.720  1.00  0.00     0.000 HD 
HETATM   35  C   UNL     1     -10.506  14.757  67.755  1.00  0.00    -0.254 A  
HETATM   36  C   UNL     1     -11.668  11.941  69.855  1.00  0.00    -0.308 C  
HETATM   37  C   UNL     1     -11.208  15.821  68.334  1.00  0.00    -0.362 A  
HETATM   38  C   UNL     1     -11.352  13.319  69.504  1.00  0.00    -0.236 A  
HETATM   39  O   UNL     1     -12.591  14.250  71.319  1.00  0.00    -0.322 OA 
HETATM   40  C   UNL     1     -11.885  15.672  69.540  1.00  0.00    -0.387 A  
HETATM   41  O   UNL     1     -11.266  17.054  67.750  1.00  0.00    -0.186 OA 
HETATM   42  H   UNL     1     -11.742  17.776  68.143  1.00  0.00     0.000 HD 
HETATM   43  C   UNL     1     -11.962  14.417  70.124  1.00  0.00    -0.322 A  
BRANCH  31  44
HETATM   44  C   UNL     1      -8.995  10.190  67.878  1.00  0.00    -0.128 A  
HETATM   45  O   UNL     1      -6.234   7.831  65.870  1.00  0.00    -0.041 OA 
HETATM   46  H   UNL     1      -8.120   7.465  64.478  1.00  0.00     0.000 HD 
HETATM   47  C   UNL     1      -7.685  10.044  68.374  1.00  0.00    -0.084 A  
HETATM   48  H   UNL     1      -5.345   7.760  66.194  1.00  0.00     0.000 HD 
HETATM   49  O   UNL     1      -8.759   8.005  64.927  1.00  0.00    -0.042 OA 
HETATM   50  C   UNL     1      -7.155   8.568  66.561  1.00  0.00    -0.079 A  
HETATM   51  C   UNL     1      -8.460   8.672  66.086  1.00  0.00    -0.133 A  
HETATM   52  C   UNL     1      -9.397   9.464  66.746  1.00  0.00    -0.202 A  
HETATM   53  C   UNL     1      -6.761   9.233  67.712  1.00  0.00    -0.068 A  
ENDBRANCH  31  44
ENDBRANCH  28  29
ENDBRANCH  17  28
ENDBRANCH  15  16
ENDBRANCH  14  15
ENDBRANCH   4  14
TORSDOF 6
ENDMDL
MODEL       44
REMARK 921   NORMALIZED FREE ENERGY PREDICTED BY IDOCK:   -7.17 KCAL/MOL
REMARK 922        TOTAL FREE ENERGY PREDICTED BY IDOCK:  -11.16 KCAL/MOL
REMARK 923 INTER-LIGAND FREE ENERGY PREDICTED BY IDOCK:  -10.00 KCAL/MOL
REMARK 924 INTRA-LIGAND FREE ENERGY PREDICTED BY IDOCK:   -1.16 KCAL/MOL
REMARK 927      BINDING AFFINITY PREDICTED BY RF-SCORE:    0.00 PKD
ROOT
HETATM    1  C   UNL     1      -6.697  18.519  65.482  1.00  0.00    -0.270 C  
HETATM    2  C   UNL     1      -7.857  17.955  66.309  1.00  0.00    -0.261 C  
HETATM    3  O   UNL     1      -8.256  16.783  65.596  1.00  0.00    -0.279 OA 
HETATM    4  C   UNL     1      -9.545  16.221  65.797  1.00  0.00    -0.231 C  
HETATM    5  H   UNL     1     -11.001  19.932  67.883  1.00  0.00     0.000 HD 
HETATM    6  C   UNL     1     -10.658  17.260  65.998  1.00  0.00    -0.217 C  
HETATM    7  C   UNL     1     -10.224  18.321  67.020  1.00  0.00    -0.378 C  
HETATM    8  O   UNL     1      -8.488  20.045  67.388  1.00  0.00    -0.314 OA 
HETATM    9  O   UNL     1     -10.973  17.903  64.748  1.00  0.00    -0.783 OA 
HETATM   10  H   UNL     1     -11.661  18.546  64.872  1.00  0.00     0.000 HD 
HETATM   11  H   UNL     1      -9.166  20.700  67.507  1.00  0.00     0.000 HD 
HETATM   12  O   UNL     1     -11.270  19.276  67.251  1.00  0.00    -0.340 OA 
HETATM   13  C   UNL     1      -8.956  19.017  66.501  1.00  0.00    -0.330 C  
ENDROOT
BRANCH   4  14
HETATM   14  O   UNL     1      -9.628  15.235  66.828  1.00  0.00    -0.223 OA 
BRANCH  14  15
HETATM   15  C   UNL     1     -10.692  14.289  66.624  1.00  0.00    -0.290 C  
BRANCH  15  16
HETATM   16  C   UNL     1     -11.790  14.555  67.662  1.00  0.00    -0.364 C  
HETATM   17  C   UNL     1     -11.909  12.515  69.048  1.00  0.00    -0.296 C  
HETATM   18  O   UNL     1     -12.493  13.337  68.015  1.00  0.00    -0.012 OA 
HETATM   19  H   UNL     1      -8.864  14.951  69.597  1.00  0.00     0.000 HD 
HETATM   20  C   UNL     1     -11.764  13.422  70.292  1.00  0.00    -0.159 C  
HETATM   21  H   UNL     1     -12.086  16.843  69.948  1.00  0.00     0.000 HD 
HETATM   22  O   UNL     1     -13.052  13.959  70.686  1.00  0.00    -0.224 OA 
HETATM   23  C   UNL     1     -10.810  14.597  70.018  1.00  0.00    -0.060 C  
HETATM   24  H   UNL     1     -12.962  14.516  71.451  1.00  0.00     0.000 HD 
HETATM   25  O   UNL     1     -12.383  16.303  69.225  1.00  0.00     0.012 OA 
HETATM   26  O   UNL     1      -9.453  14.225  69.766  1.00  0.00     0.503 OA 
HETATM   27  C   UNL     1     -11.307  15.430  68.834  1.00  0.00    -0.314 C  
BRANCH  17  28
HETATM   28  O   UNL     1     -10.719  11.861  68.581  1.00  0.00    -0.220 OA 
BRANCH  28  29
HETATM   29  C   UNL     1     -10.717  10.466  68.570  1.00  0.00    -0.221 C  
HETATM   30  O   UNL     1     -10.027   8.349  67.558  1.00  0.00    -0.171 OA 
HETATM   31  C   UNL     1     -10.301   9.718  67.518  1.00  0.00    -0.237 C  
HETATM   32  C   UNL     1     -10.328   7.647  68.697  1.00  0.00    -0.200 A  
HETATM   33  O   UNL     1     -10.687  10.339  70.906  1.00  0.00    -0.153 OA 
HETATM   34  H   UNL     1     -12.269   9.060  71.846  1.00  0.00     0.000 HD 
HETATM   35  C   UNL     1     -10.047   6.283  68.763  1.00  0.00    -0.191 A  
HETATM   36  C   UNL     1     -10.823   9.733  69.850  1.00  0.00    -0.272 C  
HETATM   37  C   UNL     1     -10.426   5.560  69.900  1.00  0.00    -0.316 A  
HETATM   38  C   UNL     1     -10.917   8.280  69.810  1.00  0.00    -0.132 A  
HETATM   39  O   UNL     1     -12.103   8.125  71.875  1.00  0.00    -0.290 OA 
HETATM   40  C   UNL     1     -11.139   6.157  70.934  1.00  0.00    -0.371 A  
HETATM   41  O   UNL     1     -10.120   4.238  70.055  1.00  0.00    -0.196 OA 
HETATM   42  H   UNL     1     -10.378   3.748  70.827  1.00  0.00     0.000 HD 
HETATM   43  C   UNL     1     -11.381   7.522  70.892  1.00  0.00    -0.277 A  
BRANCH  31  44
HETATM   44  C   UNL     1      -9.999  10.380  66.241  1.00  0.00    -0.283 A  
HETATM   45  O   UNL     1      -9.495  11.691  62.336  1.00  0.00    -0.395 OA 
HETATM   46  H   UNL     1      -7.373  10.683  62.668  1.00  0.00     0.000 HD 
HETATM   47  C   UNL     1     -11.017  11.110  65.595  1.00  0.00    -0.149 A  
HETATM   48  H   UNL     1     -10.196  12.157  61.896  1.00  0.00     0.000 HD 
HETATM   49  O   UNL     1      -7.479  10.376  63.560  1.00  0.00    -0.126 OA 
HETATM   50  C   UNL     1      -9.645  11.304  63.638  1.00  0.00    -0.274 A  
HETATM   51  C   UNL     1      -8.616  10.621  64.283  1.00  0.00    -0.101 A  
HETATM   52  C   UNL     1      -8.772  10.171  65.592  1.00  0.00    -0.173 A  
HETATM   53  C   UNL     1     -10.840  11.570  64.288  1.00  0.00    -0.421 A  
ENDBRANCH  31  44
ENDBRANCH  28  29
ENDBRANCH  17  28
ENDBRANCH  15  16
ENDBRANCH  14  15
ENDBRANCH   4  14
TORSDOF 6
ENDMDL
MODEL       45
REMARK 921   NORMALIZED FREE ENERGY PREDICTED BY IDOCK:   -7.17 KCAL/MOL
REMARK 922        TOTAL FREE ENERGY PREDICTED BY IDOCK:  -11.16 KCAL/MOL
REMARK 923 INTER-LIGAND FREE ENERGY PREDICTED BY IDOCK:   -9.45 KCAL/MOL
REMARK 924 INTRA-LIGAND FREE ENERGY PREDICTED BY IDOCK:   -1.71 KCAL/MOL
REMARK 927      BINDING AFFINITY PREDICTED BY RF-SCORE:    0.00 PKD
ROOT
HETATM    1  C   UNL     1      -9.565   3.394  68.917  1.00  0.00    -0.121 C  
HETATM    2  C   UNL     1      -8.983   3.951  70.219  1.00  0.00    -0.098 C  
HETATM    3  O   UNL     1      -8.355   5.172  69.828  1.00  0.00    -0.090 OA 
HETATM    4  C   UNL     1      -7.357   5.765  70.647  1.00  0.00    -0.084 C  
HETATM    5  H   UNL     1      -6.886   1.996  73.058  1.00  0.00     0.000 HD 
HETATM    6  C   UNL     1      -6.424   4.754  71.330  1.00  0.00    -0.019 C  
HETATM    7  C   UNL     1      -7.238   3.625  71.978  1.00  0.00    -0.054 C  
HETATM    8  O   UNL     1      -8.836   1.826  71.402  1.00  0.00    -0.057 OA 
HETATM    9  O   UNL     1      -5.508   4.192  70.370  1.00  0.00    -0.011 OA 
HETATM   10  H   UNL     1      -4.931   3.566  70.792  1.00  0.00     0.000 HD 
HETATM   11  H   UNL     1      -8.265   1.189  71.815  1.00  0.00     0.000 HD 
HETATM   12  O   UNL     1      -6.382   2.694  72.657  1.00  0.00    -0.012 OA 
HETATM   13  C   UNL     1      -8.056   2.917  70.887  1.00  0.00    -0.053 C  
ENDROOT
BRANCH   4  14
HETATM   14  O   UNL     1      -7.838   6.695  71.620  1.00  0.00    -0.100 OA 
BRANCH  14  15
HETATM   15  C   UNL     1      -8.624   7.757  71.050  1.00  0.00    -0.127 C  
BRANCH  15  16
HETATM   16  C   UNL     1      -9.636   8.235  72.099  1.00  0.00    -0.268 C  
HETATM   17  C   UNL     1     -11.526   9.181  70.824  1.00  0.00    -0.282 C  
HETATM   18  O   UNL     1     -10.360   9.405  71.644  1.00  0.00    -0.309 OA 
HETATM   19  H   UNL     1     -11.151   5.263  70.946  1.00  0.00     0.000 HD 
HETATM   20  C   UNL     1     -12.463   8.265  71.647  1.00  0.00    -0.320 C  
HETATM   21  H   UNL     1     -11.234   6.642  74.434  1.00  0.00     0.000 HD 
HETATM   22  O   UNL     1     -12.799   8.885  72.914  1.00  0.00    -0.536 OA 
HETATM   23  C   UNL     1     -11.806   6.904  71.929  1.00  0.00    -0.315 C  
HETATM   24  H   UNL     1     -13.375   8.323  73.419  1.00  0.00     0.000 HD 
HETATM   25  O   UNL     1     -10.710   7.349  74.077  1.00  0.00    -0.254 OA 
HETATM   26  O   UNL     1     -11.557   6.104  70.771  1.00  0.00    -0.316 OA 
HETATM   27  C   UNL     1     -10.485   7.088  72.679  1.00  0.00    -0.226 C  
BRANCH  17  28
HETATM   28  O   UNL     1     -11.160   8.722  69.513  1.00  0.00    -0.132 OA 
BRANCH  28  29
HETATM   29  C   UNL     1     -10.986   9.689  68.522  1.00  0.00    -0.108 C  
HETATM   30  O   UNL     1     -10.510  10.289  66.200  1.00  0.00    -0.210 OA 
HETATM   31  C   UNL     1     -10.454   9.433  67.302  1.00  0.00    -0.264 C  
HETATM   32  C   UNL     1     -11.011  11.555  66.370  1.00  0.00    -0.284 A  
HETATM   33  O   UNL     1     -12.627  11.082  69.439  1.00  0.00    -0.331 OA 
HETATM   34  H   UNL     1     -12.017  13.203  69.827  1.00  0.00     0.000 HD 
HETATM   35  C   UNL     1     -11.092  12.419  65.279  1.00  0.00    -0.342 A  
HETATM   36  C   UNL     1     -11.719  10.968  68.624  1.00  0.00    -0.296 C  
HETATM   37  C   UNL     1     -11.533  13.733  65.478  1.00  0.00    -0.311 A  
HETATM   38  C   UNL     1     -11.451  12.001  67.632  1.00  0.00    -0.392 A  
HETATM   39  O   UNL     1     -12.042  13.798  69.087  1.00  0.00    -0.346 OA 
HETATM   40  C   UNL     1     -11.827  14.215  66.749  1.00  0.00    -0.449 A  
HETATM   41  O   UNL     1     -11.699  14.607  64.442  1.00  0.00    -0.545 OA 
HETATM   42  H   UNL     1     -11.999  15.498  64.576  1.00  0.00     0.000 HD 
HETATM   43  C   UNL     1     -11.791  13.345  67.829  1.00  0.00    -0.358 A  
BRANCH  31  44
HETATM   44  C   UNL     1      -9.851   8.117  67.042  1.00  0.00    -0.299 A  
HETATM   45  O   UNL     1      -8.068   4.646  65.633  1.00  0.00    -0.104 OA 
HETATM   46  H   UNL     1     -10.339   3.971  65.516  1.00  0.00     0.000 HD 
HETATM   47  C   UNL     1      -8.448   8.012  66.971  1.00  0.00    -0.120 A  
HETATM   48  H   UNL     1      -7.123   4.592  65.561  1.00  0.00     0.000 HD 
HETATM   49  O   UNL     1     -10.758   4.762  65.834  1.00  0.00    -0.318 OA 
HETATM   50  C   UNL     1      -8.650   5.772  66.144  1.00  0.00    -0.135 A  
HETATM   51  C   UNL     1     -10.037   5.850  66.251  1.00  0.00    -0.046 A  
HETATM   52  C   UNL     1     -10.650   7.010  66.717  1.00  0.00    -0.297 A  
HETATM   53  C   UNL     1      -7.846   6.837  66.518  1.00  0.00    -0.104 A  
ENDBRANCH  31  44
ENDBRANCH  28  29
ENDBRANCH  17  28
ENDBRANCH  15  16
ENDBRANCH  14  15
ENDBRANCH   4  14
TORSDOF 6
ENDMDL
MODEL       46
REMARK 921   NORMALIZED FREE ENERGY PREDICTED BY IDOCK:   -7.16 KCAL/MOL
REMARK 922        TOTAL FREE ENERGY PREDICTED BY IDOCK:  -11.14 KCAL/MOL
REMARK 923 INTER-LIGAND FREE ENERGY PREDICTED BY IDOCK:   -9.40 KCAL/MOL
REMARK 924 INTRA-LIGAND FREE ENERGY PREDICTED BY IDOCK:   -1.74 KCAL/MOL
REMARK 927      BINDING AFFINITY PREDICTED BY RF-SCORE:    0.00 PKD
ROOT
HETATM    1  C   UNL     1     -12.363  14.373  68.342  1.00  0.00    -0.028 C  
HETATM    2  C   UNL     1     -11.664  13.137  68.916  1.00  0.00    -0.326 C  
HETATM    3  O   UNL     1     -11.798  12.152  67.891  1.00  0.00    -0.422 OA 
HETATM    4  C   UNL     1     -11.660  10.771  68.195  1.00  0.00    -0.197 C  
HETATM    5  H   UNL     1     -12.018  11.555  72.610  1.00  0.00     0.000 HD 
HETATM    6  C   UNL     1     -12.249  10.366  69.554  1.00  0.00     0.003 C  
HETATM    7  C   UNL     1     -11.792  11.342  70.649  1.00  0.00    -0.267 C  
HETATM    8  O   UNL     1     -11.902  13.735  71.265  1.00  0.00    -0.422 OA 
HETATM    9  O   UNL     1     -13.688  10.358  69.493  1.00  0.00     0.292 OA 
HETATM   10  H   UNL     1     -14.053  10.108  70.333  1.00  0.00     0.000 HD 
HETATM   11  H   UNL     1     -12.275  13.500  72.107  1.00  0.00     0.000 HD 
HETATM   12  O   UNL     1     -12.300  10.952  71.933  1.00  0.00    -0.144 OA 
HETATM   13  C   UNL     1     -12.268  12.755  70.281  1.00  0.00    -0.277 C  
ENDROOT
BRANCH   4  14
HETATM   14  O   UNL     1     -10.334  10.250  68.080  1.00  0.00    -0.160 OA 
BRANCH  14  15
HETATM   15  C   UNL     1      -9.885  10.134  66.719  1.00  0.00    -0.196 C  
BRANCH  15  16
HETATM   16  C   UNL     1      -8.352  10.120  66.707  1.00  0.00    -0.122 C  
HETATM   17  C   UNL     1      -7.660  12.490  66.711  1.00  0.00     0.210 C  
HETATM   18  O   UNL     1      -7.815  11.254  65.982  1.00  0.00    -0.085 OA 
HETATM   19  H   UNL     1      -9.035  10.958  70.068  1.00  0.00     0.000 HD 
HETATM   20  C   UNL     1      -6.759  12.165  67.925  1.00  0.00    -0.085 C  
HETATM   21  H   UNL     1      -6.193   8.869  68.786  1.00  0.00     0.000 HD 
HETATM   22  O   UNL     1      -5.486  11.627  67.487  1.00  0.00    -0.052 OA 
HETATM   23  C   UNL     1      -7.426  11.139  68.856  1.00  0.00    -0.125 C  
HETATM   24  H   UNL     1      -4.932  11.428  68.233  1.00  0.00     0.000 HD 
HETATM   25  O   UNL     1      -6.568   9.037  67.930  1.00  0.00    -0.059 OA 
HETATM   26  O   UNL     1      -8.623  11.592  69.492  1.00  0.00     0.449 OA 
HETATM   27  C   UNL     1      -7.744   9.848  68.097  1.00  0.00    -0.082 C  
BRANCH  17  28
HETATM   28  O   UNL     1      -8.933  13.091  66.992  1.00  0.00    -0.214 OA 
BRANCH  28  29
HETATM   29  C   UNL     1      -9.062  14.460  66.753  1.00  0.00    -0.257 C  
HETATM   30  O   UNL     1     -10.262  16.337  65.743  1.00  0.00    -0.345 OA 
HETATM   31  C   UNL     1      -9.902  14.990  65.829  1.00  0.00    -0.353 C  
HETATM   32  C   UNL     1      -9.625  17.245  66.551  1.00  0.00    -0.273 A  
HETATM   33  O   UNL     1      -8.240  15.019  68.870  1.00  0.00    -0.157 OA 
HETATM   34  H   UNL     1      -6.544  16.481  68.916  1.00  0.00     0.000 HD 
HETATM   35  C   UNL     1      -9.982  18.591  66.492  1.00  0.00    -0.401 A  
HETATM   36  C   UNL     1      -8.558  15.420  67.757  1.00  0.00    -0.157 C  
HETATM   37  C   UNL     1      -9.276  19.521  67.264  1.00  0.00    -0.315 A  
HETATM   38  C   UNL     1      -8.615  16.842  67.445  1.00  0.00    -0.206 A  
HETATM   39  O   UNL     1      -6.769  17.402  68.851  1.00  0.00    -0.205 OA 
HETATM   40  C   UNL     1      -8.182  19.141  68.034  1.00  0.00    -0.339 A  
HETATM   41  O   UNL     1      -9.619  20.842  67.303  1.00  0.00    -0.566 OA 
HETATM   42  H   UNL     1      -9.140  21.473  67.827  1.00  0.00     0.000 HD 
HETATM   43  C   UNL     1      -7.853  17.797  68.130  1.00  0.00    -0.264 A  
BRANCH  31  44
HETATM   44  C   UNL     1     -10.593  14.095  64.889  1.00  0.00    -0.449 A  
HETATM   45  O   UNL     1     -12.759  11.218  62.828  1.00  0.00    -0.876 OA 
HETATM   46  H   UNL     1     -10.589  10.288  62.597  1.00  0.00     0.000 HD 
HETATM   47  C   UNL     1     -11.983  14.240  64.708  1.00  0.00    -0.449 A  
HETATM   48  H   UNL     1     -13.700  11.307  62.734  1.00  0.00     0.000 HD 
HETATM   49  O   UNL     1     -10.085  10.939  63.069  1.00  0.00    -0.310 OA 
HETATM   50  C   UNL     1     -12.042  12.192  63.464  1.00  0.00    -0.550 A  
HETATM   51  C   UNL     1     -10.662  12.061  63.601  1.00  0.00    -0.449 A  
HETATM   52  C   UNL     1      -9.922  13.016  64.294  1.00  0.00    -0.085 A  
HETATM   53  C   UNL     1     -12.710  13.284  63.996  1.00  0.00    -0.092 A  
ENDBRANCH  31  44
ENDBRANCH  28  29
ENDBRANCH  17  28
ENDBRANCH  15  16
ENDBRANCH  14  15
ENDBRANCH   4  14
TORSDOF 6
ENDMDL
MODEL       47
REMARK 921   NORMALIZED FREE ENERGY PREDICTED BY IDOCK:   -7.15 KCAL/MOL
REMARK 922        TOTAL FREE ENERGY PREDICTED BY IDOCK:  -11.14 KCAL/MOL
REMARK 923 INTER-LIGAND FREE ENERGY PREDICTED BY IDOCK:  -10.87 KCAL/MOL
REMARK 924 INTRA-LIGAND FREE ENERGY PREDICTED BY IDOCK:   -0.26 KCAL/MOL
REMARK 927      BINDING AFFINITY PREDICTED BY RF-SCORE:    0.00 PKD
ROOT
HETATM    1  C   UNL     1     -10.916  16.011  65.362  1.00  0.00    -0.261 C  
HETATM    2  C   UNL     1     -11.067  14.497  65.536  1.00  0.00    -0.339 C  
HETATM    3  O   UNL     1      -9.894  13.956  64.927  1.00  0.00    -0.219 OA 
HETATM    4  C   UNL     1      -9.858  12.599  64.510  1.00  0.00    -0.042 C  
HETATM    5  H   UNL     1     -14.326  12.216  64.865  1.00  0.00     0.000 HD 
HETATM    6  C   UNL     1     -11.180  12.088  63.919  1.00  0.00    -0.417 C  
HETATM    7  C   UNL     1     -12.358  12.480  64.823  1.00  0.00    -0.474 C  
HETATM    8  O   UNL     1     -13.493  14.471  65.756  1.00  0.00    -0.427 OA 
HETATM    9  O   UNL     1     -11.385  12.639  62.603  1.00  0.00    -0.392 OA 
HETATM   10  H   UNL     1     -12.203  12.324  62.238  1.00  0.00     0.000 HD 
HETATM   11  H   UNL     1     -14.317  14.172  65.389  1.00  0.00     0.000 HD 
HETATM   12  O   UNL     1     -13.598  11.973  64.306  1.00  0.00    -0.527 OA 
HETATM   13  C   UNL     1     -12.403  14.011  64.941  1.00  0.00    -0.427 C  
ENDROOT
BRANCH   4  14
HETATM   14  O   UNL     1      -9.389  11.670  65.490  1.00  0.00    -0.222 OA 
BRANCH  14  15
HETATM   15  C   UNL     1      -9.328  12.227  66.815  1.00  0.00    -0.218 C  
BRANCH  15  16
HETATM   16  C   UNL     1      -7.894  12.084  67.342  1.00  0.00    -0.162 C  
HETATM   17  C   UNL     1      -8.028  10.503  69.232  1.00  0.00    -0.154 C  
HETATM   18  O   UNL     1      -7.873  11.863  68.773  1.00  0.00    -0.122 OA 
HETATM   19  H   UNL     1      -8.316   9.053  65.583  1.00  0.00     0.000 HD 
HETATM   20  C   UNL     1      -6.903   9.687  68.554  1.00  0.00    -0.057 C  
HETATM   21  H   UNL     1      -5.165  11.063  65.908  1.00  0.00     0.000 HD 
HETATM   22  O   UNL     1      -5.603  10.231  68.893  1.00  0.00    -0.042 OA 
HETATM   23  C   UNL     1      -7.052   9.697  67.024  1.00  0.00    -0.086 C  
HETATM   24  H   UNL     1      -4.912   9.729  68.476  1.00  0.00     0.000 HD 
HETATM   25  O   UNL     1      -5.695  11.651  66.433  1.00  0.00    -0.211 OA 
HETATM   26  O   UNL     1      -8.225   9.047  66.529  1.00  0.00    -0.112 OA 
HETATM   27  C   UNL     1      -7.035  11.131  66.489  1.00  0.00    -0.126 C  
BRANCH  17  28
HETATM   28  O   UNL     1      -9.373  10.039  69.037  1.00  0.00    -0.161 OA 
BRANCH  28  29
HETATM   29  C   UNL     1      -9.909   9.198  70.013  1.00  0.00    -0.193 C  
HETATM   30  O   UNL     1     -11.763   8.537  71.464  1.00  0.00    -0.269 OA 
HETATM   31  C   UNL     1     -11.054   9.459  70.690  1.00  0.00    -0.289 C  
HETATM   32  C   UNL     1     -11.210   7.303  71.695  1.00  0.00    -0.245 A  
HETATM   33  O   UNL     1      -8.776   7.328  69.180  1.00  0.00    -0.135 OA 
HETATM   34  H   UNL     1      -7.560   6.169  70.662  1.00  0.00     0.000 HD 
HETATM   35  C   UNL     1     -11.910   6.363  72.450  1.00  0.00    -0.255 A  
HETATM   36  C   UNL     1      -9.445   7.797  70.093  1.00  0.00    -0.160 C  
HETATM   37  C   UNL     1     -11.306   5.134  72.744  1.00  0.00    -0.239 A  
HETATM   38  C   UNL     1      -9.945   6.963  71.178  1.00  0.00    -0.187 A  
HETATM   39  O   UNL     1      -8.027   5.542  71.203  1.00  0.00    -0.105 OA 
HETATM   40  C   UNL     1      -9.998   4.859  72.357  1.00  0.00    -0.228 A  
HETATM   41  O   UNL     1     -11.962   4.147  73.420  1.00  0.00    -0.057 OA 
HETATM   42  H   UNL     1     -11.552   3.313  73.620  1.00  0.00     0.000 HD 
HETATM   43  C   UNL     1      -9.317   5.773  71.567  1.00  0.00    -0.146 A  
BRANCH  31  44
HETATM   44  C   UNL     1     -11.694  10.774  70.541  1.00  0.00    -0.449 A  
HETATM   45  O   UNL     1     -12.887  14.746  70.403  1.00  0.00    -0.476 OA 
HETATM   46  H   UNL     1     -13.984  14.097  72.404  1.00  0.00     0.000 HD 
HETATM   47  C   UNL     1     -11.316  11.597  69.461  1.00  0.00    -0.328 A  
HETATM   48  H   UNL     1     -12.605  15.303  69.687  1.00  0.00     0.000 HD 
HETATM   49  O   UNL     1     -13.714  13.187  72.447  1.00  0.00    -0.581 OA 
HETATM   50  C   UNL     1     -12.534  13.426  70.420  1.00  0.00    -0.252 A  
HETATM   51  C   UNL     1     -12.948  12.609  71.469  1.00  0.00    -0.282 A  
HETATM   52  C   UNL     1     -12.552  11.275  71.532  1.00  0.00    -0.418 A  
HETATM   53  C   UNL     1     -11.735  12.928  69.402  1.00  0.00    -0.382 A  
ENDBRANCH  31  44
ENDBRANCH  28  29
ENDBRANCH  17  28
ENDBRANCH  15  16
ENDBRANCH  14  15
ENDBRANCH   4  14
TORSDOF 6
ENDMDL
MODEL       48
REMARK 921   NORMALIZED FREE ENERGY PREDICTED BY IDOCK:   -7.14 KCAL/MOL
REMARK 922        TOTAL FREE ENERGY PREDICTED BY IDOCK:  -11.12 KCAL/MOL
REMARK 923 INTER-LIGAND FREE ENERGY PREDICTED BY IDOCK:   -8.98 KCAL/MOL
REMARK 924 INTRA-LIGAND FREE ENERGY PREDICTED BY IDOCK:   -2.14 KCAL/MOL
REMARK 927      BINDING AFFINITY PREDICTED BY RF-SCORE:    0.00 PKD
ROOT
HETATM    1  C   UNL     1      -7.213   6.473  64.300  1.00  0.00    -0.069 C  
HETATM    2  C   UNL     1      -8.460   5.647  64.633  1.00  0.00    -0.085 C  
HETATM    3  O   UNL     1      -8.452   5.560  66.058  1.00  0.00    -0.117 OA 
HETATM    4  C   UNL     1      -9.188   4.543  66.723  1.00  0.00    -0.132 C  
HETATM    5  H   UNL     1      -9.733   2.233  62.901  1.00  0.00     0.000 HD 
HETATM    6  C   UNL     1      -9.182   3.189  65.998  1.00  0.00    -0.134 C  
HETATM    7  C   UNL     1      -9.498   3.377  64.507  1.00  0.00    -0.149 C  
HETATM    8  O   UNL     1      -8.637   4.513  62.484  1.00  0.00    -0.089 OA 
HETATM    9  O   UNL     1      -7.897   2.553  66.138  1.00  0.00    -0.078 OA 
HETATM   10  H   UNL     1      -7.893   1.716  65.689  1.00  0.00     0.000 HD 
HETATM   11  H   UNL     1      -8.621   3.681  62.025  1.00  0.00     0.000 HD 
HETATM   12  O   UNL     1      -9.538   2.116  63.823  1.00  0.00    -0.115 OA 
HETATM   13  C   UNL     1      -8.433   4.297  63.889  1.00  0.00    -0.108 C  
ENDROOT
BRANCH   4  14
HETATM   14  O   UNL     1     -10.531   4.888  67.069  1.00  0.00    -0.194 OA 
BRANCH  14  15
HETATM   15  C   UNL     1     -10.626   6.097  67.842  1.00  0.00    -0.263 C  
BRANCH  15  16
HETATM   16  C   UNL     1      -9.717   5.968  69.071  1.00  0.00    -0.133 C  
HETATM   17  C   UNL     1      -9.721   8.190  70.144  1.00  0.00    -0.175 C  
HETATM   18  O   UNL     1      -9.022   7.208  69.351  1.00  0.00    -0.136 OA 
HETATM   19  H   UNL     1     -12.925   5.937  70.544  1.00  0.00     0.000 HD 
HETATM   20  C   UNL     1     -10.101   7.486  71.468  1.00  0.00    -0.181 C  
HETATM   21  H   UNL     1      -9.890   4.047  71.683  1.00  0.00     0.000 HD 
HETATM   22  O   UNL     1      -8.917   6.986  72.139  1.00  0.00    -0.131 OA 
HETATM   23  C   UNL     1     -11.054   6.306  71.218  1.00  0.00    -0.289 C  
HETATM   24  H   UNL     1      -9.151   6.554  72.952  1.00  0.00     0.000 HD 
HETATM   25  O   UNL     1      -9.459   4.464  70.947  1.00  0.00    -0.144 OA 
HETATM   26  O   UNL     1     -12.336   6.666  70.698  1.00  0.00    -0.340 OA 
HETATM   27  C   UNL     1     -10.418   5.291  70.264  1.00  0.00    -0.261 C  
BRANCH  17  28
HETATM   28  O   UNL     1     -10.791   8.793  69.400  1.00  0.00    -0.205 OA 
BRANCH  28  29
HETATM   29  C   UNL     1     -10.975  10.169  69.544  1.00  0.00    -0.256 C  
HETATM   30  O   UNL     1     -10.794  12.441  68.657  1.00  0.00    -0.227 OA 
HETATM   31  C   UNL     1     -10.426  11.095  68.720  1.00  0.00    -0.203 C  
HETATM   32  C   UNL     1     -11.678  12.929  69.586  1.00  0.00    -0.299 A  
HETATM   33  O   UNL     1     -12.955   9.888  70.759  1.00  0.00    -0.301 OA 
HETATM   34  H   UNL     1     -13.066  10.956  72.725  1.00  0.00     0.000 HD 
HETATM   35  C   UNL     1     -12.072  14.265  69.529  1.00  0.00    -0.376 A  
HETATM   36  C   UNL     1     -12.085  10.665  70.384  1.00  0.00    -0.341 C  
HETATM   37  C   UNL     1     -12.915  14.773  70.525  1.00  0.00    -0.286 A  
HETATM   38  C   UNL     1     -12.202  12.102  70.598  1.00  0.00    -0.392 A  
HETATM   39  O   UNL     1     -13.308  11.874  72.701  1.00  0.00    -0.074 OA 
HETATM   40  C   UNL     1     -13.312  13.992  71.606  1.00  0.00    -0.442 A  
HETATM   41  O   UNL     1     -13.390  16.052  70.490  1.00  0.00    -0.626 OA 
HETATM   42  H   UNL     1     -13.962  16.397  71.166  1.00  0.00     0.000 HD 
HETATM   43  C   UNL     1     -12.959  12.651  71.640  1.00  0.00    -0.299 A  
BRANCH  31  44
HETATM   44  C   UNL     1      -9.432  10.671  67.723  1.00  0.00    -0.165 A  
HETATM   45  O   UNL     1      -6.602  10.172  64.729  1.00  0.00    -0.123 OA 
HETATM   46  H   UNL     1      -8.541   9.535  63.519  1.00  0.00     0.000 HD 
HETATM   47  C   UNL     1      -8.065  10.890  67.987  1.00  0.00    -0.119 A  
HETATM   48  H   UNL     1      -5.687  10.350  64.906  1.00  0.00     0.000 HD 
HETATM   49  O   UNL     1      -9.198   9.650  64.196  1.00  0.00    -0.248 OA 
HETATM   50  C   UNL     1      -7.526  10.289  65.730  1.00  0.00    -0.144 A  
HETATM   51  C   UNL     1      -8.869  10.028  65.471  1.00  0.00    -0.165 A  
HETATM   52  C   UNL     1      -9.831  10.195  66.464  1.00  0.00    -0.268 A  
HETATM   53  C   UNL     1      -7.110  10.702  66.987  1.00  0.00    -0.100 A  
ENDBRANCH  31  44
ENDBRANCH  28  29
ENDBRANCH  17  28
ENDBRANCH  15  16
ENDBRANCH  14  15
ENDBRANCH   4  14
TORSDOF 6
ENDMDL
MODEL       49
REMARK 921   NORMALIZED FREE ENERGY PREDICTED BY IDOCK:   -7.11 KCAL/MOL
REMARK 922        TOTAL FREE ENERGY PREDICTED BY IDOCK:  -11.09 KCAL/MOL
REMARK 923 INTER-LIGAND FREE ENERGY PREDICTED BY IDOCK:   -9.59 KCAL/MOL
REMARK 924 INTRA-LIGAND FREE ENERGY PREDICTED BY IDOCK:   -1.49 KCAL/MOL
REMARK 927      BINDING AFFINITY PREDICTED BY RF-SCORE:    0.00 PKD
ROOT
HETATM    1  C   UNL     1     -12.847  13.788  65.051  1.00  0.00    -0.319 C  
HETATM    2  C   UNL     1     -11.380  14.211  65.173  1.00  0.00    -0.336 C  
HETATM    3  O   UNL     1     -10.928  13.565  66.364  1.00  0.00    -0.291 OA 
HETATM    4  C   UNL     1      -9.770  14.031  67.043  1.00  0.00    -0.256 C  
HETATM    5  H   UNL     1      -9.793  17.894  64.736  1.00  0.00     0.000 HD 
HETATM    6  C   UNL     1      -9.617  15.560  67.044  1.00  0.00    -0.224 C  
HETATM    7  C   UNL     1      -9.838  16.122  65.632  1.00  0.00    -0.255 C  
HETATM    8  O   UNL     1     -11.556  16.253  63.857  1.00  0.00    -1.489 OA 
HETATM    9  O   UNL     1     -10.567  16.156  67.950  1.00  0.00    -0.290 OA 
HETATM   10  H   UNL     1     -10.472  17.101  67.950  1.00  0.00     0.000 HD 
HETATM   11  H   UNL     1     -11.477  17.200  63.852  1.00  0.00     0.000 HD 
HETATM   12  O   UNL     1      -9.656  17.546  65.609  1.00  0.00    -0.510 OA 
HETATM   13  C   UNL     1     -11.253  15.746  65.166  1.00  0.00    -0.248 C  
ENDROOT
BRANCH   4  14
HETATM   14  O   UNL     1      -8.539  13.434  66.632  1.00  0.00    -0.092 OA 
BRANCH  14  15
HETATM   15  C   UNL     1      -8.379  12.083  67.100  1.00  0.00    -0.181 C  
BRANCH  15  16
HETATM   16  C   UNL     1      -7.928  12.121  68.565  1.00  0.00    -0.119 C  
HETATM   17  C   UNL     1      -7.295   9.803  69.131  1.00  0.00    -0.079 C  
HETATM   18  O   UNL     1      -8.244  10.884  69.251  1.00  0.00    -0.130 OA 
HETATM   19  H   UNL     1      -4.840  11.892  66.870  1.00  0.00     0.000 HD 
HETATM   20  C   UNL     1      -5.943  10.357  69.637  1.00  0.00    -0.048 C  
HETATM   21  H   UNL     1      -5.548  13.762  70.044  1.00  0.00     0.000 HD 
HETATM   22  O   UNL     1      -6.062  10.828  71.003  1.00  0.00    -0.343 OA 
HETATM   23  C   UNL     1      -5.455  11.522  68.760  1.00  0.00    -0.042 C  
HETATM   24  H   UNL     1      -5.231  11.168  71.313  1.00  0.00     0.000 HD 
HETATM   25  O   UNL     1      -6.434  13.437  69.938  1.00  0.00    -0.095 OA 
HETATM   26  O   UNL     1      -5.142  11.171  67.411  1.00  0.00    -0.038 OA 
HETATM   27  C   UNL     1      -6.491  12.649  68.736  1.00  0.00    -0.085 C  
BRANCH  17  28
HETATM   28  O   UNL     1      -7.312   9.240  67.810  1.00  0.00    -0.083 OA 
BRANCH  28  29
HETATM   29  C   UNL     1      -7.979   8.027  67.638  1.00  0.00    -0.123 C  
HETATM   30  O   UNL     1      -8.925   6.310  66.176  1.00  0.00    -0.153 OA 
HETATM   31  C   UNL     1      -8.498   7.610  66.457  1.00  0.00    -0.133 C  
HETATM   32  C   UNL     1      -8.968   5.393  67.195  1.00  0.00    -0.112 A  
HETATM   33  O   UNL     1      -6.955   7.074  69.513  1.00  0.00    -0.059 OA 
HETATM   34  H   UNL     1      -8.327   6.155  71.027  1.00  0.00     0.000 HD 
HETATM   35  C   UNL     1      -9.374   4.086  66.931  1.00  0.00    -0.200 A  
HETATM   36  C   UNL     1      -7.825   6.968  68.658  1.00  0.00    -0.119 C  
HETATM   37  C   UNL     1      -9.488   3.177  67.990  1.00  0.00    -0.160 A  
HETATM   38  C   UNL     1      -8.605   5.746  68.510  1.00  0.00    -0.109 A  
HETATM   39  O   UNL     1      -8.634   5.273  70.849  1.00  0.00    -0.123 OA 
HETATM   40  C   UNL     1      -9.271   3.569  69.307  1.00  0.00    -0.230 A  
HETATM   41  O   UNL     1      -9.815   1.867  67.790  1.00  0.00    -0.385 OA 
HETATM   42  H   UNL     1      -9.892   1.250  68.509  1.00  0.00     0.000 HD 
HETATM   43  C   UNL     1      -8.823   4.855  69.568  1.00  0.00    -0.090 A  
BRANCH  31  44
HETATM   44  C   UNL     1      -8.537   8.542  65.320  1.00  0.00    -0.192 A  
HETATM   45  O   UNL     1      -8.305  11.627  62.555  1.00  0.00    -0.644 OA 
HETATM   46  H   UNL     1     -10.530  11.965  63.304  1.00  0.00     0.000 HD 
HETATM   47  C   UNL     1      -7.372   8.724  64.549  1.00  0.00    -0.102 A  
HETATM   48  H   UNL     1      -7.506  11.762  62.059  1.00  0.00     0.000 HD 
HETATM   49  O   UNL     1     -10.593  11.264  63.942  1.00  0.00    -0.348 OA 
HETATM   50  C   UNL     1      -8.396  10.580  63.429  1.00  0.00    -0.123 A  
HETATM   51  C   UNL     1      -9.568  10.381  64.156  1.00  0.00    -0.322 A  
HETATM   52  C   UNL     1      -9.659   9.353  65.090  1.00  0.00    -0.195 A  
HETATM   53  C   UNL     1      -7.300   9.748  63.603  1.00  0.00    -0.121 A  
ENDBRANCH  31  44
ENDBRANCH  28  29
ENDBRANCH  17  28
ENDBRANCH  15  16
ENDBRANCH  14  15
ENDBRANCH   4  14
TORSDOF 6
ENDMDL
MODEL       50
REMARK 921   NORMALIZED FREE ENERGY PREDICTED BY IDOCK:   -7.11 KCAL/MOL
REMARK 922        TOTAL FREE ENERGY PREDICTED BY IDOCK:  -11.08 KCAL/MOL
REMARK 923 INTER-LIGAND FREE ENERGY PREDICTED BY IDOCK:  -10.79 KCAL/MOL
REMARK 924 INTRA-LIGAND FREE ENERGY PREDICTED BY IDOCK:   -0.28 KCAL/MOL
REMARK 927      BINDING AFFINITY PREDICTED BY RF-SCORE:    0.00 PKD
ROOT
HETATM    1  C   UNL     1      -5.172  15.057  68.232  1.00  0.00    -0.114 C  
HETATM    2  C   UNL     1      -6.653  15.443  68.297  1.00  0.00    -0.121 C  
HETATM    3  O   UNL     1      -7.204  14.926  67.085  1.00  0.00    -0.165 OA 
HETATM    4  C   UNL     1      -8.430  15.431  66.577  1.00  0.00    -0.213 C  
HETATM    5  H   UNL     1      -8.268  18.998  69.314  1.00  0.00     0.000 HD 
HETATM    6  C   UNL     1      -8.614  16.943  66.771  1.00  0.00    -0.225 C  
HETATM    7  C   UNL     1      -8.272  17.345  68.213  1.00  0.00    -0.247 C  
HETATM    8  O   UNL     1      -6.395  17.323  69.825  1.00  0.00    -0.235 OA 
HETATM    9  O   UNL     1      -7.769  17.671  65.859  1.00  0.00    -0.508 OA 
HETATM   10  H   UNL     1      -7.883  18.606  65.979  1.00  0.00     0.000 HD 
HETATM   11  H   UNL     1      -6.493  18.260  69.950  1.00  0.00     0.000 HD 
HETATM   12  O   UNL     1      -8.480  18.749  68.422  1.00  0.00    -0.321 OA 
HETATM   13  C   UNL     1      -6.811  16.963  68.499  1.00  0.00    -0.172 C  
ENDROOT
BRANCH   4  14
HETATM   14  O   UNL     1      -9.604  14.751  67.026  1.00  0.00    -0.227 OA 
BRANCH  14  15
HETATM   15  C   UNL     1     -10.776  15.076  66.258  1.00  0.00    -0.322 C  
BRANCH  15  16
HETATM   16  C   UNL     1     -10.777  14.228  64.980  1.00  0.00    -0.420 C  
HETATM   17  C   UNL     1     -10.962  11.884  65.730  1.00  0.00    -0.311 C  
HETATM   18  O   UNL     1     -10.142  12.943  65.194  1.00  0.00    -0.278 OA 
HETATM   19  H   UNL     1     -14.184  14.141  65.898  1.00  0.00     0.000 HD 
HETATM   20  C   UNL     1     -12.156  11.728  64.760  1.00  0.00     0.034 C  
HETATM   21  H   UNL     1     -12.776  14.191  62.421  1.00  0.00     0.000 HD 
HETATM   22  O   UNL     1     -11.690  11.431  63.420  1.00  0.00    -0.754 OA 
HETATM   23  C   UNL     1     -13.003  13.011  64.708  1.00  0.00    -0.131 C  
HETATM   24  H   UNL     1     -12.423  11.335  62.824  1.00  0.00     0.000 HD 
HETATM   25  O   UNL     1     -11.931  14.205  62.854  1.00  0.00     0.279 OA 
HETATM   26  O   UNL     1     -13.661  13.348  65.931  1.00  0.00     0.134 OA 
HETATM   27  C   UNL     1     -12.147  14.205  64.277  1.00  0.00    -0.444 C  
BRANCH  17  28
HETATM   28  O   UNL     1     -11.276  12.118  67.112  1.00  0.00    -0.275 OA 
BRANCH  28  29
HETATM   29  C   UNL     1     -10.785  11.204  68.045  1.00  0.00    -0.211 C  
HETATM   30  O   UNL     1     -10.861  10.188  70.268  1.00  0.00    -0.282 OA 
HETATM   31  C   UNL     1     -11.104  11.224  69.362  1.00  0.00    -0.257 C  
HETATM   32  C   UNL     1     -10.117   9.111  69.858  1.00  0.00    -0.202 A  
HETATM   33  O   UNL     1     -10.318   9.609  66.399  1.00  0.00    -0.237 OA 
HETATM   34  H   UNL     1      -8.236   8.780  66.389  1.00  0.00     0.000 HD 
HETATM   35  C   UNL     1      -9.879   8.059  70.741  1.00  0.00    -0.197 A  
HETATM   36  C   UNL     1     -10.182   9.941  67.570  1.00  0.00    -0.216 C  
HETATM   37  C   UNL     1      -9.056   7.000  70.338  1.00  0.00    -0.156 A  
HETATM   38  C   UNL     1      -9.589   9.044  68.553  1.00  0.00    -0.161 A  
HETATM   39  O   UNL     1      -8.051   8.080  67.004  1.00  0.00    -0.113 OA 
HETATM   40  C   UNL     1      -8.416   7.009  69.103  1.00  0.00    -0.129 A  
HETATM   41  O   UNL     1      -8.838   5.909  71.130  1.00  0.00    -0.134 OA 
HETATM   42  H   UNL     1      -8.280   5.191  70.857  1.00  0.00     0.000 HD 
HETATM   43  C   UNL     1      -8.688   8.031  68.206  1.00  0.00    -0.130 A  
BRANCH  31  44
HETATM   44  C   UNL     1     -11.860  12.363  69.902  1.00  0.00    -0.376 A  
HETATM   45  O   UNL     1     -13.386  15.734  71.781  1.00  0.00    -0.481 OA 
HETATM   46  H   UNL     1     -14.258  14.072  73.232  1.00  0.00     0.000 HD 
HETATM   47  C   UNL     1     -11.641  13.645  69.360  1.00  0.00    -0.368 A  
HETATM   48  H   UNL     1     -13.210  16.597  71.426  1.00  0.00     0.000 HD 
HETATM   49  O   UNL     1     -13.911  13.294  72.811  1.00  0.00    -0.690 OA 
HETATM   50  C   UNL     1     -12.924  14.622  71.133  1.00  0.00    -0.350 A  
HETATM   51  C   UNL     1     -13.182  13.356  71.653  1.00  0.00    -0.364 A  
HETATM   52  C   UNL     1     -12.673  12.216  71.037  1.00  0.00    -0.322 A  
HETATM   53  C   UNL     1     -12.172  14.778  69.978  1.00  0.00    -0.383 A  
ENDBRANCH  31  44
ENDBRANCH  28  29
ENDBRANCH  17  28
ENDBRANCH  15  16
ENDBRANCH  14  15
ENDBRANCH   4  14
TORSDOF 6
ENDMDL
MODEL       51
REMARK 921   NORMALIZED FREE ENERGY PREDICTED BY IDOCK:   -7.11 KCAL/MOL
REMARK 922        TOTAL FREE ENERGY PREDICTED BY IDOCK:  -11.08 KCAL/MOL
REMARK 923 INTER-LIGAND FREE ENERGY PREDICTED BY IDOCK:   -9.31 KCAL/MOL
REMARK 924 INTRA-LIGAND FREE ENERGY PREDICTED BY IDOCK:   -1.76 KCAL/MOL
REMARK 927      BINDING AFFINITY PREDICTED BY RF-SCORE:    0.00 PKD
ROOT
HETATM    1  C   UNL     1     -11.146   6.142  69.292  1.00  0.00    -0.463 C  
HETATM    2  C   UNL     1     -10.572   7.558  69.180  1.00  0.00    -0.197 C  
HETATM    3  O   UNL     1     -10.002   7.602  67.871  1.00  0.00    -0.155 OA 
HETATM    4  C   UNL     1      -9.021   8.575  67.544  1.00  0.00    -0.135 C  
HETATM    5  H   UNL     1      -8.358   9.579  71.879  1.00  0.00     0.000 HD 
HETATM    6  C   UNL     1      -8.037   8.881  68.683  1.00  0.00    -0.111 C  
HETATM    7  C   UNL     1      -8.794   9.110  70.000  1.00  0.00    -0.182 C  
HETATM    8  O   UNL     1     -10.320   7.958  71.570  1.00  0.00    -0.197 OA 
HETATM    9  O   UNL     1      -7.110   7.790  68.848  1.00  0.00    -0.071 OA 
HETATM   10  H   UNL     1      -6.501   7.979  69.553  1.00  0.00     0.000 HD 
HETATM   11  H   UNL     1      -9.717   8.133  72.283  1.00  0.00     0.000 HD 
HETATM   12  O   UNL     1      -7.890   9.438  71.065  1.00  0.00    -0.289 OA 
HETATM   13  C   UNL     1      -9.594   7.842  70.336  1.00  0.00    -0.175 C  
ENDROOT
BRANCH   4  14
HETATM   14  O   UNL     1      -9.529   9.803  67.018  1.00  0.00    -0.149 OA 
BRANCH  14  15
HETATM   15  C   UNL     1      -9.076  10.961  67.740  1.00  0.00    -0.149 C  
BRANCH  15  16
HETATM   16  C   UNL     1     -10.263  11.559  68.504  1.00  0.00    -0.213 C  
HETATM   17  C   UNL     1     -10.081  14.004  68.221  1.00  0.00    -0.246 C  
HETATM   18  O   UNL     1      -9.933  12.850  69.074  1.00  0.00     0.038 OA 
HETATM   19  H   UNL     1     -11.336  11.874  65.156  1.00  0.00     0.000 HD 
HETATM   20  C   UNL     1     -11.550  14.000  67.738  1.00  0.00    -0.345 C  
HETATM   21  H   UNL     1     -13.468  11.160  68.160  1.00  0.00     0.000 HD 
HETATM   22  O   UNL     1     -12.459  14.037  68.867  1.00  0.00    -0.501 OA 
HETATM   23  C   UNL     1     -11.859  12.745  66.905  1.00  0.00    -0.371 C  
HETATM   24  H   UNL     1     -13.361  14.034  68.570  1.00  0.00     0.000 HD 
HETATM   25  O   UNL     1     -12.653  11.210  68.645  1.00  0.00    -0.318 OA 
HETATM   26  O   UNL     1     -11.145  12.650  65.671  1.00  0.00    -0.279 OA 
HETATM   27  C   UNL     1     -11.585  11.477  67.718  1.00  0.00    -0.267 C  
BRANCH  17  28
HETATM   28  O   UNL     1      -9.065  14.034  67.206  1.00  0.00    -0.201 OA 
BRANCH  28  29
HETATM   29  C   UNL     1      -8.254  15.167  67.144  1.00  0.00    -0.221 C  
HETATM   30  O   UNL     1      -6.035  16.196  67.172  1.00  0.00    -0.273 OA 
HETATM   31  C   UNL     1      -6.938  15.173  67.472  1.00  0.00    -0.192 C  
HETATM   32  C   UNL     1      -6.513  17.362  66.631  1.00  0.00    -0.225 A  
HETATM   33  O   UNL     1      -9.661  16.226  65.605  1.00  0.00    -0.466 OA 
HETATM   34  H   UNL     1     -10.329  18.296  66.139  1.00  0.00     0.000 HD 
HETATM   35  C   UNL     1      -5.626  18.389  66.308  1.00  0.00    -0.193 A  
HETATM   36  C   UNL     1      -8.704  16.337  66.362  1.00  0.00    -0.319 C  
HETATM   37  C   UNL     1      -6.130  19.603  65.827  1.00  0.00    -0.188 A  
HETATM   38  C   UNL     1      -7.889  17.544  66.389  1.00  0.00    -0.329 A  
HETATM   39  O   UNL     1      -9.725  19.005  65.949  1.00  0.00    -0.467 OA 
HETATM   40  C   UNL     1      -7.499  19.832  65.730  1.00  0.00    -0.325 A  
HETATM   41  O   UNL     1      -5.313  20.622  65.430  1.00  0.00    -0.172 OA 
HETATM   42  H   UNL     1      -5.655  21.446  65.104  1.00  0.00     0.000 HD 
HETATM   43  C   UNL     1      -8.381  18.798  66.006  1.00  0.00    -0.061 A  
BRANCH  31  44
HETATM   44  C   UNL     1      -6.348  13.982  68.100  1.00  0.00    -0.128 A  
HETATM   45  O   UNL     1      -5.353  10.353  69.849  1.00  0.00    -0.037 OA 
HETATM   46  H   UNL     1      -5.547  11.671  71.812  1.00  0.00     0.000 HD 
HETATM   47  C   UNL     1      -6.074  12.854  67.301  1.00  0.00     0.008 A  
HETATM   48  H   UNL     1      -5.199   9.590  69.306  1.00  0.00     0.000 HD 
HETATM   49  O   UNL     1      -5.779  12.506  71.422  1.00  0.00    -0.386 OA 
HETATM   50  C   UNL     1      -5.632  11.558  69.268  1.00  0.00    -0.049 A  
HETATM   51  C   UNL     1      -5.858  12.678  70.066  1.00  0.00    -0.151 A  
HETATM   52  C   UNL     1      -6.198  13.902  69.494  1.00  0.00    -0.115 A  
HETATM   53  C   UNL     1      -5.718  11.638  67.887  1.00  0.00    -0.047 A  
ENDBRANCH  31  44
ENDBRANCH  28  29
ENDBRANCH  17  28
ENDBRANCH  15  16
ENDBRANCH  14  15
ENDBRANCH   4  14
TORSDOF 6
ENDMDL
MODEL       52
REMARK 921   NORMALIZED FREE ENERGY PREDICTED BY IDOCK:   -7.07 KCAL/MOL
REMARK 922        TOTAL FREE ENERGY PREDICTED BY IDOCK:  -11.02 KCAL/MOL
REMARK 923 INTER-LIGAND FREE ENERGY PREDICTED BY IDOCK:   -9.32 KCAL/MOL
REMARK 924 INTRA-LIGAND FREE ENERGY PREDICTED BY IDOCK:   -1.70 KCAL/MOL
REMARK 927      BINDING AFFINITY PREDICTED BY RF-SCORE:    0.00 PKD
ROOT
HETATM    1  C   UNL     1     -12.846  12.558  64.568  1.00  0.00    -0.352 C  
HETATM    2  C   UNL     1     -11.689  12.867  65.523  1.00  0.00    -0.383 C  
HETATM    3  O   UNL     1     -11.919  12.010  66.641  1.00  0.00    -0.614 OA 
HETATM    4  C   UNL     1     -11.323  12.290  67.900  1.00  0.00    -0.298 C  
HETATM    5  H   UNL     1     -10.256  16.472  66.631  1.00  0.00     0.000 HD 
HETATM    6  C   UNL     1     -11.253  13.786  68.242  1.00  0.00    -0.273 C  
HETATM    7  C   UNL     1     -10.706  14.584  67.050  1.00  0.00    -0.291 C  
HETATM    8  O   UNL     1     -11.212  15.104  64.684  1.00  0.00    -0.535 OA 
HETATM    9  O   UNL     1     -12.561  14.280  68.588  1.00  0.00    -0.506 OA 
HETATM   10  H   UNL     1     -12.518  15.205  68.799  1.00  0.00     0.000 HD 
HETATM   11  H   UNL     1     -11.179  16.033  64.883  1.00  0.00     0.000 HD 
HETATM   12  O   UNL     1     -10.595  15.979  67.368  1.00  0.00    -0.307 OA 
HETATM   13  C   UNL     1     -11.637  14.373  65.846  1.00  0.00    -0.361 C  
ENDROOT
BRANCH   4  14
HETATM   14  O   UNL     1     -10.040  11.696  68.114  1.00  0.00    -0.183 OA 
BRANCH  14  15
HETATM   15  C   UNL     1     -10.090  10.523  68.945  1.00  0.00    -0.202 C  
BRANCH  15  16
HETATM   16  C   UNL     1      -8.702  10.296  69.558  1.00  0.00    -0.139 C  
HETATM   17  C   UNL     1      -7.997   8.053  68.807  1.00  0.00    -0.119 C  
HETATM   18  O   UNL     1      -8.481   8.899  69.871  1.00  0.00    -0.121 OA 
HETATM   19  H   UNL     1      -7.895  10.996  66.193  1.00  0.00     0.000 HD 
HETATM   20  C   UNL     1      -6.682   8.697  68.307  1.00  0.00    -0.065 C  
HETATM   21  H   UNL     1      -5.914  11.931  69.240  1.00  0.00     0.000 HD 
HETATM   22  O   UNL     1      -5.726   8.811  69.391  1.00  0.00    -0.034 OA 
HETATM   23  C   UNL     1      -6.933  10.099  67.729  1.00  0.00    -0.084 C  
HETATM   24  H   UNL     1      -4.918   9.206  69.084  1.00  0.00     0.000 HD 
HETATM   25  O   UNL     1      -6.606  11.493  69.720  1.00  0.00    -0.130 OA 
HETATM   26  O   UNL     1      -7.740  10.129  66.551  1.00  0.00    -0.104 OA 
HETATM   27  C   UNL     1      -7.580  11.008  68.778  1.00  0.00    -0.127 C  
BRANCH  17  28
HETATM   28  O   UNL     1      -9.017   7.818  67.824  1.00  0.00    -0.128 OA 
BRANCH  28  29
HETATM   29  C   UNL     1      -9.036   6.567  67.207  1.00  0.00    -0.117 C  
HETATM   30  O   UNL     1      -9.978   4.321  66.984  1.00  0.00    -0.206 OA 
HETATM   31  C   UNL     1      -9.708   5.494  67.692  1.00  0.00    -0.129 C  
HETATM   32  C   UNL     1      -9.411   4.150  65.747  1.00  0.00    -0.177 A  
HETATM   33  O   UNL     1      -8.487   7.467  65.118  1.00  0.00    -0.120 OA 
HETATM   34  H   UNL     1      -6.735   6.541  64.074  1.00  0.00     0.000 HD 
HETATM   35  C   UNL     1      -9.682   2.994  65.016  1.00  0.00    -0.011 A  
HETATM   36  C   UNL     1      -8.624   6.453  65.792  1.00  0.00    -0.148 C  
HETATM   37  C   UNL     1      -9.039   2.793  63.788  1.00  0.00    -0.098 A  
HETATM   38  C   UNL     1      -8.558   5.126  65.194  1.00  0.00    -0.150 A  
HETATM   39  O   UNL     1      -6.898   5.738  63.593  1.00  0.00    -0.039 OA 
HETATM   40  C   UNL     1      -8.086   3.689  63.315  1.00  0.00    -0.084 A  
HETATM   41  O   UNL     1      -9.312   1.717  62.994  1.00  0.00    -0.089 OA 
HETATM   42  H   UNL     1      -8.876   1.581  62.161  1.00  0.00     0.000 HD 
HETATM   43  C   UNL     1      -7.848   4.861  64.017  1.00  0.00    -0.089 A  
BRANCH  31  44
HETATM   44  C   UNL     1     -10.311   5.570  69.031  1.00  0.00    -0.304 A  
HETATM   45  O   UNL     1     -11.639   6.398  72.875  1.00  0.00    -0.475 OA 
HETATM   46  H   UNL     1      -9.911   4.860  73.401  1.00  0.00     0.000 HD 
HETATM   47  C   UNL     1     -11.405   6.432  69.239  1.00  0.00    -0.405 A  
HETATM   48  H   UNL     1     -12.359   7.003  73.009  1.00  0.00     0.000 HD 
HETATM   49  O   UNL     1      -9.597   4.666  72.526  1.00  0.00    -0.134 OA 
HETATM   50  C   UNL     1     -11.236   6.089  71.605  1.00  0.00    -0.268 A  
HETATM   51  C   UNL     1     -10.181   5.201  71.408  1.00  0.00    -0.213 A  
HETATM   52  C   UNL     1      -9.721   4.916  70.125  1.00  0.00    -0.283 A  
HETATM   53  C   UNL     1     -11.867   6.695  70.530  1.00  0.00    -0.430 A  
ENDBRANCH  31  44
ENDBRANCH  28  29
ENDBRANCH  17  28
ENDBRANCH  15  16
ENDBRANCH  14  15
ENDBRANCH   4  14
TORSDOF 6
ENDMDL
MODEL       53
REMARK 921   NORMALIZED FREE ENERGY PREDICTED BY IDOCK:   -7.07 KCAL/MOL
REMARK 922        TOTAL FREE ENERGY PREDICTED BY IDOCK:  -11.02 KCAL/MOL
REMARK 923 INTER-LIGAND FREE ENERGY PREDICTED BY IDOCK:   -9.81 KCAL/MOL
REMARK 924 INTRA-LIGAND FREE ENERGY PREDICTED BY IDOCK:   -1.21 KCAL/MOL
REMARK 927      BINDING AFFINITY PREDICTED BY RF-SCORE:    0.00 PKD
ROOT
HETATM    1  C   UNL     1      -7.350   4.364  72.033  1.00  0.00    -0.066 C  
HETATM    2  C   UNL     1      -8.453   5.388  71.749  1.00  0.00    -0.127 C  
HETATM    3  O   UNL     1      -7.965   6.598  72.327  1.00  0.00    -0.100 OA 
HETATM    4  C   UNL     1      -8.857   7.657  72.644  1.00  0.00    -0.149 C  
HETATM    5  H   UNL     1     -12.437   4.967  72.221  1.00  0.00     0.000 HD 
HETATM    6  C   UNL     1     -10.217   7.191  73.185  1.00  0.00    -0.276 C  
HETATM    7  C   UNL     1     -10.791   6.075  72.300  1.00  0.00    -0.245 C  
HETATM    8  O   UNL     1     -10.275   3.789  71.505  1.00  0.00    -0.108 OA 
HETATM    9  O   UNL     1     -10.080   6.708  74.535  1.00  0.00    -0.387 OA 
HETATM   10  H   UNL     1     -10.921   6.420  74.869  1.00  0.00     0.000 HD 
HETATM   11  H   UNL     1     -11.110   3.485  71.841  1.00  0.00     0.000 HD 
HETATM   12  O   UNL     1     -12.082   5.657  72.768  1.00  0.00    -0.181 OA 
HETATM   13  C   UNL     1      -9.807   4.894  72.294  1.00  0.00    -0.169 C  
ENDROOT
BRANCH   4  14
HETATM   14  O   UNL     1      -9.065   8.614  71.603  1.00  0.00    -0.204 OA 
BRANCH  14  15
HETATM   15  C   UNL     1      -7.849   9.010  70.945  1.00  0.00    -0.146 C  
BRANCH  15  16
HETATM   16  C   UNL     1      -7.545   8.002  69.829  1.00  0.00    -0.092 C  
HETATM   17  C   UNL     1      -8.793   8.795  67.852  1.00  0.00    -0.136 C  
HETATM   18  O   UNL     1      -8.673   7.846  68.933  1.00  0.00    -0.134 OA 
HETATM   19  H   UNL     1      -5.532  10.744  68.886  1.00  0.00     0.000 HD 
HETATM   20  C   UNL     1      -7.470   8.714  67.056  1.00  0.00    -0.084 C  
HETATM   21  H   UNL     1      -4.750   7.102  68.442  1.00  0.00     0.000 HD 
HETATM   22  O   UNL     1      -7.247   7.365  66.573  1.00  0.00    -0.075 OA 
HETATM   23  C   UNL     1      -6.270   9.125  67.925  1.00  0.00    -0.051 C  
HETATM   24  H   UNL     1      -6.434   7.315  66.084  1.00  0.00     0.000 HD 
HETATM   25  O   UNL     1      -5.595   6.957  68.850  1.00  0.00    -0.016 OA 
HETATM   26  O   UNL     1      -6.274  10.490  68.349  1.00  0.00    -0.050 OA 
HETATM   27  C   UNL     1      -6.173   8.236  69.167  1.00  0.00    -0.039 C  
BRANCH  17  28
HETATM   28  O   UNL     1      -9.178  10.090  68.339  1.00  0.00    -0.128 OA 
BRANCH  28  29
HETATM   29  C   UNL     1     -10.106  10.808  67.585  1.00  0.00    -0.176 C  
HETATM   30  O   UNL     1     -12.104  12.213  67.449  1.00  0.00    -0.553 OA 
HETATM   31  C   UNL     1     -11.282  11.273  68.075  1.00  0.00    -0.287 C  
HETATM   32  C   UNL     1     -11.799  12.613  66.173  1.00  0.00    -0.418 A  
HETATM   33  O   UNL     1      -8.489  11.482  66.034  1.00  0.00    -0.124 OA 
HETATM   34  H   UNL     1      -8.958  11.079  63.880  1.00  0.00     0.000 HD 
HETATM   35  C   UNL     1     -12.597  13.563  65.537  1.00  0.00    -0.531 A  
HETATM   36  C   UNL     1      -9.682  11.419  66.307  1.00  0.00    -0.212 C  
HETATM   37  C   UNL     1     -12.323  13.909  64.208  1.00  0.00    -0.348 A  
HETATM   38  C   UNL     1     -10.688  12.082  65.488  1.00  0.00    -0.318 A  
HETATM   39  O   UNL     1      -9.522  11.704  63.440  1.00  0.00    -0.277 OA 
HETATM   40  C   UNL     1     -11.316  13.274  63.488  1.00  0.00    -0.100 A  
HETATM   41  O   UNL     1     -13.023  14.880  63.552  1.00  0.00    -0.334 OA 
HETATM   42  H   UNL     1     -12.837  15.114  62.651  1.00  0.00     0.000 HD 
HETATM   43  C   UNL     1     -10.493  12.362  64.130  1.00  0.00    -0.389 A  
BRANCH  31  44
HETATM   44  C   UNL     1     -11.714  10.859  69.418  1.00  0.00    -0.397 A  
HETATM   45  O   UNL     1     -13.562   9.540  72.891  1.00  0.00    -0.650 OA 
HETATM   46  H   UNL     1     -13.845  11.877  73.183  1.00  0.00     0.000 HD 
HETATM   47  C   UNL     1     -11.756   9.486  69.728  1.00  0.00     0.127 A  
HETATM   48  H   UNL     1     -13.612   8.610  73.079  1.00  0.00     0.000 HD 
HETATM   49  O   UNL     1     -13.428  12.189  72.390  1.00  0.00    -0.425 OA 
HETATM   50  C   UNL     1     -12.909   9.974  71.772  1.00  0.00    -0.446 A  
HETATM   51  C   UNL     1     -12.835  11.338  71.496  1.00  0.00    -0.414 A  
HETATM   52  C   UNL     1     -12.222  11.796  70.332  1.00  0.00    -0.416 A  
HETATM   53  C   UNL     1     -12.358   9.041  70.907  1.00  0.00    -0.159 A  
ENDBRANCH  31  44
ENDBRANCH  28  29
ENDBRANCH  17  28
ENDBRANCH  15  16
ENDBRANCH  14  15
ENDBRANCH   4  14
TORSDOF 6
ENDMDL
MODEL       54
REMARK 921   NORMALIZED FREE ENERGY PREDICTED BY IDOCK:   -7.05 KCAL/MOL
REMARK 922        TOTAL FREE ENERGY PREDICTED BY IDOCK:  -11.00 KCAL/MOL
REMARK 923 INTER-LIGAND FREE ENERGY PREDICTED BY IDOCK:  -10.44 KCAL/MOL
REMARK 924 INTRA-LIGAND FREE ENERGY PREDICTED BY IDOCK:   -0.55 KCAL/MOL
REMARK 927      BINDING AFFINITY PREDICTED BY RF-SCORE:    0.00 PKD
ROOT
HETATM    1  C   UNL     1      -6.163   9.526  66.005  1.00  0.00    -0.064 C  
HETATM    2  C   UNL     1      -6.958   9.954  67.242  1.00  0.00    -0.084 C  
HETATM    3  O   UNL     1      -6.955  11.380  67.184  1.00  0.00    -0.108 OA 
HETATM    4  C   UNL     1      -7.215  12.150  68.349  1.00  0.00    -0.097 C  
HETATM    5  H   UNL     1      -6.637   8.576  71.020  1.00  0.00     0.000 HD 
HETATM    6  C   UNL     1      -6.623  11.559  69.637  1.00  0.00    -0.112 C  
HETATM    7  C   UNL     1      -6.947  10.061  69.738  1.00  0.00    -0.107 C  
HETATM    8  O   UNL     1      -6.586   7.926  68.541  1.00  0.00    -0.057 OA 
HETATM    9  O   UNL     1      -5.194  11.741  69.660  1.00  0.00    -0.063 OA 
HETATM   10  H   UNL     1      -4.828  11.375  70.456  1.00  0.00     0.000 HD 
HETATM   11  H   UNL     1      -6.210   7.550  69.328  1.00  0.00     0.000 HD 
HETATM   12  O   UNL     1      -6.437   9.502  70.958  1.00  0.00    -0.088 OA 
HETATM   13  C   UNL     1      -6.349   9.343  68.519  1.00  0.00    -0.052 C  
ENDROOT
BRANCH   4  14
HETATM   14  O   UNL     1      -8.588  12.481  68.569  1.00  0.00    -0.146 OA 
BRANCH  14  15
HETATM   15  C   UNL     1      -9.017  13.640  67.834  1.00  0.00    -0.195 C  
BRANCH  15  16
HETATM   16  C   UNL     1      -9.519  13.191  66.456  1.00  0.00    -0.243 C  
HETATM   17  C   UNL     1     -11.456  11.725  66.894  1.00  0.00    -0.293 C  
HETATM   18  O   UNL     1     -10.073  11.852  66.503  1.00  0.00    -0.199 OA 
HETATM   19  H   UNL     1     -11.934  15.607  67.344  1.00  0.00     0.000 HD 
HETATM   20  C   UNL     1     -12.266  12.598  65.908  1.00  0.00    -0.307 C  
HETATM   21  H   UNL     1     -10.616  14.878  63.908  1.00  0.00     0.000 HD 
HETATM   22  O   UNL     1     -12.044  12.166  64.542  1.00  0.00    -0.376 OA 
HETATM   23  C   UNL     1     -11.871  14.080  66.020  1.00  0.00    -0.388 C  
HETATM   24  H   UNL     1     -12.542  12.702  63.936  1.00  0.00     0.000 HD 
HETATM   25  O   UNL     1     -10.089  14.218  64.342  1.00  0.00    -0.162 OA 
HETATM   26  O   UNL     1     -12.178  14.691  67.275  1.00  0.00    -0.294 OA 
HETATM   27  C   UNL     1     -10.375  14.261  65.752  1.00  0.00    -0.327 C  
BRANCH  17  28
HETATM   28  O   UNL     1     -11.628  11.998  68.293  1.00  0.00    -0.289 OA 
BRANCH  28  29
HETATM   29  C   UNL     1     -11.379  10.955  69.185  1.00  0.00    -0.283 C  
HETATM   30  O   UNL     1     -11.778   9.853  71.332  1.00  0.00    -0.369 OA 
HETATM   31  C   UNL     1     -11.761  10.964  70.486  1.00  0.00    -0.342 C  
HETATM   32  C   UNL     1     -11.236   8.674  70.886  1.00  0.00    -0.267 A  
HETATM   33  O   UNL     1     -11.141   9.391  67.461  1.00  0.00    -0.137 OA 
HETATM   34  H   UNL     1      -9.264   8.168  67.490  1.00  0.00     0.000 HD 
HETATM   35  C   UNL     1     -11.258   7.548  71.708  1.00  0.00    -0.281 A  
HETATM   36  C   UNL     1     -11.009   9.625  68.657  1.00  0.00    -0.111 C  
HETATM   37  C   UNL     1     -10.637   6.371  71.274  1.00  0.00    -0.230 A  
HETATM   38  C   UNL     1     -10.659   8.575  69.605  1.00  0.00    -0.221 A  
HETATM   39  O   UNL     1      -9.254   7.412  68.066  1.00  0.00    -0.133 OA 
HETATM   40  C   UNL     1      -9.940   6.321  70.072  1.00  0.00    -0.208 A  
HETATM   41  O   UNL     1     -10.682   5.217  72.002  1.00  0.00    -0.218 OA 
HETATM   42  H   UNL     1     -10.260   4.418  71.707  1.00  0.00     0.000 HD 
HETATM   43  C   UNL     1      -9.955   7.424  69.232  1.00  0.00    -0.173 A  
BRANCH  31  44
HETATM   44  C   UNL     1     -12.309  12.199  71.065  1.00  0.00    -0.331 A  
HETATM   45  O   UNL     1     -14.405  15.583  72.240  1.00  0.00    -0.562 OA 
HETATM   46  H   UNL     1     -12.856  16.600  70.758  1.00  0.00     0.000 HD 
HETATM   47  C   UNL     1     -13.343  12.105  72.018  1.00  0.00    -0.470 A  
HETATM   48  H   UNL     1     -15.120  15.508  72.861  1.00  0.00     0.000 HD 
HETATM   49  O   UNL     1     -12.372  15.831  70.480  1.00  0.00    -0.402 OA 
HETATM   50  C   UNL     1     -13.684  14.475  71.893  1.00  0.00    -0.428 A  
HETATM   51  C   UNL     1     -12.635  14.585  70.982  1.00  0.00    -0.340 A  
HETATM   52  C   UNL     1     -11.926  13.458  70.575  1.00  0.00    -0.332 A  
HETATM   53  C   UNL     1     -14.035  13.246  72.430  1.00  0.00    -0.557 A  
ENDBRANCH  31  44
ENDBRANCH  28  29
ENDBRANCH  17  28
ENDBRANCH  15  16
ENDBRANCH  14  15
ENDBRANCH   4  14
TORSDOF 6
ENDMDL
MODEL       55
REMARK 921   NORMALIZED FREE ENERGY PREDICTED BY IDOCK:   -6.99 KCAL/MOL
REMARK 922        TOTAL FREE ENERGY PREDICTED BY IDOCK:  -10.92 KCAL/MOL
REMARK 923 INTER-LIGAND FREE ENERGY PREDICTED BY IDOCK:  -10.89 KCAL/MOL
REMARK 924 INTRA-LIGAND FREE ENERGY PREDICTED BY IDOCK:   -0.02 KCAL/MOL
REMARK 927      BINDING AFFINITY PREDICTED BY RF-SCORE:    0.00 PKD
ROOT
HETATM    1  C   UNL     1     -13.166   7.167  71.667  1.00  0.00    -0.403 C  
HETATM    2  C   UNL     1     -11.642   7.074  71.546  1.00  0.00    -0.287 C  
HETATM    3  O   UNL     1     -11.431   6.340  70.339  1.00  0.00    -0.364 OA 
HETATM    4  C   UNL     1     -10.192   5.689  70.099  1.00  0.00    -0.250 C  
HETATM    5  H   UNL     1      -8.959   6.122  74.404  1.00  0.00     0.000 HD 
HETATM    6  C   UNL     1      -9.559   5.062  71.350  1.00  0.00    -0.164 C  
HETATM    7  C   UNL     1      -9.575   6.061  72.517  1.00  0.00    -0.153 C  
HETATM    8  O   UNL     1     -11.145   7.368  73.912  1.00  0.00    -0.488 OA 
HETATM    9  O   UNL     1     -10.277   3.872  71.730  1.00  0.00    -0.149 OA 
HETATM   10  H   UNL     1      -9.886   3.484  72.504  1.00  0.00     0.000 HD 
HETATM   11  H   UNL     1     -10.768   6.983  74.695  1.00  0.00     0.000 HD 
HETATM   12  O   UNL     1      -8.949   5.504  73.682  1.00  0.00    -0.125 OA 
HETATM   13  C   UNL     1     -11.032   6.449  72.815  1.00  0.00    -0.257 C  
ENDROOT
BRANCH   4  14
HETATM   14  O   UNL     1      -9.211   6.474  69.417  1.00  0.00    -0.143 OA 
BRANCH  14  15
HETATM   15  C   UNL     1      -9.783   7.470  68.550  1.00  0.00    -0.156 C  
BRANCH  15  16
HETATM   16  C   UNL     1      -9.710   6.963  67.104  1.00  0.00    -0.154 C  
HETATM   17  C   UNL     1      -9.361   8.968  65.709  1.00  0.00    -0.236 C  
HETATM   18  O   UNL     1     -10.252   7.932  66.174  1.00  0.00     0.011 OA 
HETATM   19  H   UNL     1      -6.313   7.621  67.805  1.00  0.00     0.000 HD 
HETATM   20  C   UNL     1      -8.151   8.245  65.074  1.00  0.00    -0.148 C  
HETATM   21  H   UNL     1      -7.692   4.873  65.654  1.00  0.00     0.000 HD 
HETATM   22  O   UNL     1      -8.583   7.375  63.998  1.00  0.00    -0.347 OA 
HETATM   23  C   UNL     1      -7.399   7.398  66.114  1.00  0.00    -0.082 C  
HETATM   24  H   UNL     1      -7.839   6.931  63.608  1.00  0.00     0.000 HD 
HETATM   25  O   UNL     1      -8.539   5.241  65.874  1.00  0.00    -0.119 OA 
HETATM   26  O   UNL     1      -6.778   8.144  67.163  1.00  0.00    -0.063 OA 
HETATM   27  C   UNL     1      -8.335   6.366  66.748  1.00  0.00    -0.111 C  
BRANCH  17  28
HETATM   28  O   UNL     1      -9.077   9.916  66.750  1.00  0.00    -0.140 OA 
BRANCH  28  29
HETATM   29  C   UNL     1      -9.494  11.232  66.549  1.00  0.00    -0.193 C  
HETATM   30  O   UNL     1      -9.091  13.638  66.720  1.00  0.00    -0.247 OA 
HETATM   31  C   UNL     1      -8.885  12.310  67.101  1.00  0.00    -0.194 C  
HETATM   32  C   UNL     1     -10.085  13.921  65.818  1.00  0.00    -0.320 A  
HETATM   33  O   UNL     1     -10.595  10.696  64.556  1.00  0.00    -0.304 OA 
HETATM   34  H   UNL     1     -12.736  11.341  64.406  1.00  0.00     0.000 HD 
HETATM   35  C   UNL     1     -10.295  15.238  65.411  1.00  0.00    -0.421 A  
HETATM   36  C   UNL     1     -10.400  11.540  65.423  1.00  0.00    -0.273 C  
HETATM   37  C   UNL     1     -11.360  15.527  64.549  1.00  0.00    -0.314 A  
HETATM   38  C   UNL     1     -10.900  12.901  65.288  1.00  0.00    -0.316 A  
HETATM   39  O   UNL     1     -12.895  12.243  64.156  1.00  0.00    -0.678 OA 
HETATM   40  C   UNL     1     -12.253  14.539  64.145  1.00  0.00    -0.372 A  
HETATM   41  O   UNL     1     -11.578  16.783  64.061  1.00  0.00    -1.441 OA 
HETATM   42  H   UNL     1     -12.301  16.979  63.476  1.00  0.00     0.000 HD 
HETATM   43  C   UNL     1     -12.020  13.222  64.511  1.00  0.00    -0.400 A  
BRANCH  31  44
HETATM   44  C   UNL     1      -7.839  12.105  68.113  1.00  0.00    -0.147 A  
HETATM   45  O   UNL     1      -5.402  11.687  71.447  1.00  0.00    -0.312 OA 
HETATM   46  H   UNL     1      -4.779  13.883  70.803  1.00  0.00     0.000 HD 
HETATM   47  C   UNL     1      -7.819  10.896  68.838  1.00  0.00    -0.142 A  
HETATM   48  H   UNL     1      -5.416  10.880  71.947  1.00  0.00     0.000 HD 
HETATM   49  O   UNL     1      -5.335  13.991  70.040  1.00  0.00    -0.093 OA 
HETATM   50  C   UNL     1      -6.169  11.804  70.321  1.00  0.00    -0.046 A  
HETATM   51  C   UNL     1      -6.149  12.987  69.586  1.00  0.00    -0.122 A  
HETATM   52  C   UNL     1      -6.964  13.144  68.468  1.00  0.00    -0.103 A  
HETATM   53  C   UNL     1      -6.984  10.746  69.947  1.00  0.00    -0.127 A  
ENDBRANCH  31  44
ENDBRANCH  28  29
ENDBRANCH  17  28
ENDBRANCH  15  16
ENDBRANCH  14  15
ENDBRANCH   4  14
TORSDOF 6
ENDMDL
MODEL       56
REMARK 921   NORMALIZED FREE ENERGY PREDICTED BY IDOCK:   -6.98 KCAL/MOL
REMARK 922        TOTAL FREE ENERGY PREDICTED BY IDOCK:  -10.90 KCAL/MOL
REMARK 923 INTER-LIGAND FREE ENERGY PREDICTED BY IDOCK:   -9.32 KCAL/MOL
REMARK 924 INTRA-LIGAND FREE ENERGY PREDICTED BY IDOCK:   -1.59 KCAL/MOL
REMARK 927      BINDING AFFINITY PREDICTED BY RF-SCORE:    0.00 PKD
ROOT
HETATM    1  C   UNL     1      -5.802   2.216  68.817  1.00  0.00    -0.023 C  
HETATM    2  C   UNL     1      -6.321   3.436  68.048  1.00  0.00    -0.036 C  
HETATM    3  O   UNL     1      -7.228   4.061  68.956  1.00  0.00    -0.053 OA 
HETATM    4  C   UNL     1      -8.217   4.963  68.481  1.00  0.00    -0.084 C  
HETATM    5  H   UNL     1      -7.608   3.623  64.230  1.00  0.00     0.000 HD 
HETATM    6  C   UNL     1      -8.833   4.564  67.131  1.00  0.00    -0.109 C  
HETATM    7  C   UNL     1      -7.731   4.190  66.129  1.00  0.00    -0.090 C  
HETATM    8  O   UNL     1      -5.883   2.576  65.811  1.00  0.00    -0.017 OA 
HETATM    9  O   UNL     1      -9.726   3.446  67.300  1.00  0.00    -0.333 OA 
HETATM   10  H   UNL     1     -10.106   3.199  66.466  1.00  0.00     0.000 HD 
HETATM   11  H   UNL     1      -6.257   2.314  64.978  1.00  0.00     0.000 HD 
HETATM   12  O   UNL     1      -8.289   3.855  64.849  1.00  0.00    -0.102 OA 
HETATM   13  C   UNL     1      -6.927   3.010  66.697  1.00  0.00    -0.053 C  
ENDROOT
BRANCH   4  14
HETATM   14  O   UNL     1      -7.820   6.335  68.432  1.00  0.00    -0.102 OA 
BRANCH  14  15
HETATM   15  C   UNL     1      -8.917   7.250  68.609  1.00  0.00    -0.128 C  
BRANCH  15  16
HETATM   16  C   UNL     1      -9.450   7.649  67.227  1.00  0.00    -0.148 C  
HETATM   17  C   UNL     1     -10.780   9.696  67.589  1.00  0.00    -0.262 C  
HETATM   18  O   UNL     1     -10.752   8.278  67.322  1.00  0.00    -0.289 OA 
HETATM   19  H   UNL     1      -6.856   9.996  67.699  1.00  0.00     0.000 HD 
HETATM   20  C   UNL     1      -9.951  10.365  66.468  1.00  0.00    -0.217 C  
HETATM   21  H   UNL     1      -7.921   8.416  64.467  1.00  0.00     0.000 HD 
HETATM   22  O   UNL     1     -10.501  10.044  65.165  1.00  0.00    -0.145 OA 
HETATM   23  C   UNL     1      -8.486   9.899  66.506  1.00  0.00    -0.125 C  
HETATM   24  H   UNL     1      -9.991  10.455  64.477  1.00  0.00     0.000 HD 
HETATM   25  O   UNL     1      -8.568   7.967  64.997  1.00  0.00    -0.119 OA 
HETATM   26  O   UNL     1      -7.761  10.284  67.676  1.00  0.00    -0.090 OA 
HETATM   27  C   UNL     1      -8.400   8.377  66.367  1.00  0.00    -0.116 C  
BRANCH  17  28
HETATM   28  O   UNL     1     -10.388   9.979  68.942  1.00  0.00    -0.182 OA 
BRANCH  28  29
HETATM   29  C   UNL     1     -11.218  10.816  69.688  1.00  0.00    -0.291 C  
HETATM   30  O   UNL     1     -12.417  11.324  71.758  1.00  0.00    -0.213 OA 
HETATM   31  C   UNL     1     -11.811  10.451  70.851  1.00  0.00    -0.377 C  
HETATM   32  C   UNL     1     -12.566  12.642  71.408  1.00  0.00    -0.202 A  
HETATM   33  O   UNL     1     -10.300  12.750  68.743  1.00  0.00    -0.208 OA 
HETATM   34  H   UNL     1     -11.757  14.206  67.862  1.00  0.00     0.000 HD 
HETATM   35  C   UNL     1     -13.152  13.533  72.306  1.00  0.00    -0.488 A  
HETATM   36  C   UNL     1     -11.192  12.272  69.433  1.00  0.00    -0.176 C  
HETATM   37  C   UNL     1     -13.370  14.859  71.912  1.00  0.00    -0.363 A  
HETATM   38  C   UNL     1     -12.134  13.118  70.155  1.00  0.00    -0.392 A  
HETATM   39  O   UNL     1     -12.184  14.802  68.465  1.00  0.00    -0.215 OA 
HETATM   40  C   UNL     1     -13.077  15.288  70.622  1.00  0.00    -0.407 A  
HETATM   41  O   UNL     1     -13.876  15.796  72.766  1.00  0.00    -0.581 OA 
HETATM   42  H   UNL     1     -14.023  16.696  72.499  1.00  0.00     0.000 HD 
HETATM   43  C   UNL     1     -12.452  14.417  69.742  1.00  0.00    -0.217 A  
BRANCH  31  44
HETATM   44  C   UNL     1     -11.743   9.048  71.283  1.00  0.00    -0.382 A  
HETATM   45  O   UNL     1     -11.973   5.299  73.049  1.00  0.00    -0.526 OA 
HETATM   46  H   UNL     1      -9.870   5.987  73.906  1.00  0.00     0.000 HD 
HETATM   47  C   UNL     1     -12.838   8.200  71.022  1.00  0.00     0.003 A  
HETATM   48  H   UNL     1     -12.728   4.745  72.892  1.00  0.00     0.000 HD 
HETATM   49  O   UNL     1      -9.809   6.848  73.510  1.00  0.00    -0.192 OA 
HETATM   50  C   UNL     1     -11.876   6.513  72.427  1.00  0.00    -0.197 A  
HETATM   51  C   UNL     1     -10.769   7.326  72.657  1.00  0.00    -0.278 A  
HETATM   52  C   UNL     1     -10.680   8.588  72.076  1.00  0.00    -0.410 A  
HETATM   53  C   UNL     1     -12.907   6.930  71.598  1.00  0.00    -0.383 A  
ENDBRANCH  31  44
ENDBRANCH  28  29
ENDBRANCH  17  28
ENDBRANCH  15  16
ENDBRANCH  14  15
ENDBRANCH   4  14
TORSDOF 6
ENDMDL
MODEL       57
REMARK 921   NORMALIZED FREE ENERGY PREDICTED BY IDOCK:   -6.96 KCAL/MOL
REMARK 922        TOTAL FREE ENERGY PREDICTED BY IDOCK:  -10.87 KCAL/MOL
REMARK 923 INTER-LIGAND FREE ENERGY PREDICTED BY IDOCK:  -11.28 KCAL/MOL
REMARK 924 INTRA-LIGAND FREE ENERGY PREDICTED BY IDOCK:    0.40 KCAL/MOL
REMARK 927      BINDING AFFINITY PREDICTED BY RF-SCORE:    0.00 PKD
ROOT
HETATM    1  C   UNL     1     -12.211  13.570  64.084  1.00  0.00    -0.449 C  
HETATM    2  C   UNL     1     -11.082  14.272  64.845  1.00  0.00    -0.390 C  
HETATM    3  O   UNL     1     -10.961  13.527  66.057  1.00  0.00    -0.276 OA 
HETATM    4  C   UNL     1     -10.332  14.098  67.195  1.00  0.00    -0.265 C  
HETATM    5  H   UNL     1     -10.538  18.227  65.421  1.00  0.00     0.000 HD 
HETATM    6  C   UNL     1     -10.622  15.595  67.387  1.00  0.00    -0.301 C  
HETATM    7  C   UNL     1     -10.430  16.352  66.065  1.00  0.00    -0.323 C  
HETATM    8  O   UNL     1     -11.298  16.437  63.750  1.00  0.00    -1.487 OA 
HETATM    9  O   UNL     1     -11.970  15.786  67.857  1.00  0.00    -0.232 OA 
HETATM   10  H   UNL     1     -12.150  16.711  67.975  1.00  0.00     0.000 HD 
HETATM   11  H   UNL     1     -11.490  17.362  63.857  1.00  0.00     0.000 HD 
HETATM   12  O   UNL     1     -10.656  17.759  66.238  1.00  0.00    -0.318 OA 
HETATM   13  C   UNL     1     -11.393  15.771  65.019  1.00  0.00    -0.220 C  
ENDROOT
BRANCH   4  14
HETATM   14  O   UNL     1      -8.924  13.874  67.292  1.00  0.00    -0.200 OA 
BRANCH  14  15
HETATM   15  C   UNL     1      -8.549  13.114  68.454  1.00  0.00    -0.124 C  
BRANCH  15  16
HETATM   16  C   UNL     1      -7.340  12.238  68.099  1.00  0.00    -0.105 C  
HETATM   17  C   UNL     1      -7.793  10.031  69.106  1.00  0.00    -0.112 C  
HETATM   18  O   UNL     1      -7.059  11.273  69.142  1.00  0.00    -0.107 OA 
HETATM   19  H   UNL     1      -9.785  11.027  65.860  1.00  0.00     0.000 HD 
HETATM   20  C   UNL     1      -7.518   9.406  67.719  1.00  0.00    -0.087 C  
HETATM   21  H   UNL     1      -6.099  11.340  65.236  1.00  0.00     0.000 HD 
HETATM   22  O   UNL     1      -6.096   9.203  67.523  1.00  0.00    -0.049 OA 
HETATM   23  C   UNL     1      -8.042  10.306  66.588  1.00  0.00    -0.119 C  
HETATM   24  H   UNL     1      -5.927   8.819  66.671  1.00  0.00     0.000 HD 
HETATM   25  O   UNL     1      -6.063  11.676  66.123  1.00  0.00    -0.081 OA 
HETATM   26  O   UNL     1      -9.462  10.471  66.559  1.00  0.00    -0.160 OA 
HETATM   27  C   UNL     1      -7.398  11.693  66.659  1.00  0.00    -0.028 C  
BRANCH  17  28
HETATM   28  O   UNL     1      -9.169  10.230  69.466  1.00  0.00    -0.208 OA 
BRANCH  28  29
HETATM   29  C   UNL     1      -9.741   9.312  70.347  1.00  0.00    -0.244 C  
HETATM   30  O   UNL     1     -11.692   8.436  71.533  1.00  0.00    -0.267 OA 
HETATM   31  C   UNL     1     -10.982   9.444  70.876  1.00  0.00    -0.320 C  
HETATM   32  C   UNL     1     -11.057   7.251  71.808  1.00  0.00    -0.235 A  
HETATM   33  O   UNL     1      -8.338   7.583  69.629  1.00  0.00    -0.128 OA 
HETATM   34  H   UNL     1      -7.214   6.493  71.231  1.00  0.00     0.000 HD 
HETATM   35  C   UNL     1     -11.752   6.226  72.448  1.00  0.00    -0.301 A  
HETATM   36  C   UNL     1      -9.159   7.958  70.457  1.00  0.00    -0.154 C  
HETATM   37  C   UNL     1     -11.076   5.050  72.792  1.00  0.00    -0.241 A  
HETATM   38  C   UNL     1      -9.709   7.046  71.452  1.00  0.00    -0.169 A  
HETATM   39  O   UNL     1      -7.683   5.809  71.694  1.00  0.00    -0.097 OA 
HETATM   40  C   UNL     1      -9.709   4.909  72.571  1.00  0.00    -0.189 A  
HETATM   41  O   UNL     1     -11.714   3.984  73.357  1.00  0.00    -0.158 OA 
HETATM   42  H   UNL     1     -11.255   3.186  73.590  1.00  0.00     0.000 HD 
HETATM   43  C   UNL     1      -9.025   5.907  71.894  1.00  0.00    -0.138 A  
BRANCH  31  44
HETATM   44  C   UNL     1     -11.721  10.698  70.673  1.00  0.00    -0.454 A  
HETATM   45  O   UNL     1     -13.210  14.559  70.356  1.00  0.00    -0.519 OA 
HETATM   46  H   UNL     1     -14.223  13.936  72.409  1.00  0.00     0.000 HD 
HETATM   47  C   UNL     1     -11.423  11.489  69.546  1.00  0.00    -0.378 A  
HETATM   48  H   UNL     1     -12.982  15.096  69.608  1.00  0.00     0.000 HD 
HETATM   49  O   UNL     1     -13.884  13.052  72.494  1.00  0.00    -0.625 OA 
HETATM   50  C   UNL     1     -12.759  13.270  70.434  1.00  0.00    -0.033 A  
HETATM   51  C   UNL     1     -13.094  12.482  71.532  1.00  0.00    -0.277 A  
HETATM   52  C   UNL     1     -12.598  11.186  71.654  1.00  0.00    -0.386 A  
HETATM   53  C   UNL     1     -11.941  12.780  69.427  1.00  0.00    -0.321 A  
ENDBRANCH  31  44
ENDBRANCH  28  29
ENDBRANCH  17  28
ENDBRANCH  15  16
ENDBRANCH  14  15
ENDBRANCH   4  14
TORSDOF 6
ENDMDL
MODEL       58
REMARK 921   NORMALIZED FREE ENERGY PREDICTED BY IDOCK:   -6.95 KCAL/MOL
REMARK 922        TOTAL FREE ENERGY PREDICTED BY IDOCK:  -10.86 KCAL/MOL
REMARK 923 INTER-LIGAND FREE ENERGY PREDICTED BY IDOCK:   -8.92 KCAL/MOL
REMARK 924 INTRA-LIGAND FREE ENERGY PREDICTED BY IDOCK:   -1.94 KCAL/MOL
REMARK 927      BINDING AFFINITY PREDICTED BY RF-SCORE:    0.00 PKD
ROOT
HETATM    1  C   UNL     1     -10.414  16.083  65.355  1.00  0.00    -0.415 C  
HETATM    2  C   UNL     1     -11.288  14.930  65.856  1.00  0.00    -0.306 C  
HETATM    3  O   UNL     1     -10.416  14.165  66.689  1.00  0.00    -0.274 OA 
HETATM    4  C   UNL     1     -10.716  12.811  66.996  1.00  0.00    -0.253 C  
HETATM    5  H   UNL     1     -13.808  12.599  63.735  1.00  0.00     0.000 HD 
HETATM    6  C   UNL     1     -11.342  12.027  65.833  1.00  0.00    -0.337 C  
HETATM    7  C   UNL     1     -12.480  12.836  65.193  1.00  0.00    -0.501 C  
HETATM    8  O   UNL     1     -12.905  14.980  64.034  1.00  0.00    -0.676 OA 
HETATM    9  O   UNL     1     -10.346  11.732  64.835  1.00  0.00    -0.264 OA 
HETATM   10  H   UNL     1     -10.733  11.248  64.116  1.00  0.00     0.000 HD 
HETATM   11  H   UNL     1     -13.288  14.508  63.304  1.00  0.00     0.000 HD 
HETATM   12  O   UNL     1     -13.104  12.099  64.131  1.00  0.00    -0.694 OA 
HETATM   13  C   UNL     1     -11.910  14.164  64.672  1.00  0.00    -0.431 C  
ENDROOT
BRANCH   4  14
HETATM   14  O   UNL     1     -11.497  12.611  68.176  1.00  0.00    -0.269 OA 
BRANCH  14  15
HETATM   15  C   UNL     1     -10.840  11.792  69.159  1.00  0.00    -0.172 C  
BRANCH  15  16
HETATM   16  C   UNL     1     -11.785  10.651  69.557  1.00  0.00    -0.284 C  
HETATM   17  C   UNL     1     -10.612   8.567  68.944  1.00  0.00    -0.144 C  
HETATM   18  O   UNL     1     -11.659   9.520  68.660  1.00  0.00     0.258 OA 
HETATM   19  H   UNL     1      -9.374  10.516  72.132  1.00  0.00     0.000 HD 
HETATM   20  C   UNL     1     -10.859   8.071  70.388  1.00  0.00    -0.247 C  
HETATM   21  H   UNL     1     -13.045   9.799  72.426  1.00  0.00     0.000 HD 
HETATM   22  O   UNL     1     -12.178   7.483  70.507  1.00  0.00    -0.518 OA 
HETATM   23  C   UNL     1     -10.745   9.223  71.399  1.00  0.00    -0.362 C  
HETATM   24  H   UNL     1     -12.329   7.178  71.395  1.00  0.00     0.000 HD 
HETATM   25  O   UNL     1     -13.071   9.993  71.497  1.00  0.00    -0.374 OA 
HETATM   26  O   UNL     1      -9.444   9.805  71.507  1.00  0.00     0.140 OA 
HETATM   27  C   UNL     1     -11.742  10.336  71.065  1.00  0.00    -0.370 C  
BRANCH  17  28
HETATM   28  O   UNL     1      -9.317   9.118  68.660  1.00  0.00    -0.136 OA 
BRANCH  28  29
HETATM   29  C   UNL     1      -8.542   8.470  67.697  1.00  0.00    -0.133 C  
HETATM   30  O   UNL     1      -7.100   6.610  67.029  1.00  0.00    -0.072 OA 
HETATM   31  C   UNL     1      -7.682   7.459  67.974  1.00  0.00    -0.116 C  
HETATM   32  C   UNL     1      -7.279   6.883  65.696  1.00  0.00    -0.073 A  
HETATM   33  O   UNL     1      -9.980   9.094  65.961  1.00  0.00    -0.291 OA 
HETATM   34  H   UNL     1      -9.026  10.108  64.205  1.00  0.00     0.000 HD 
HETATM   35  C   UNL     1      -6.721   6.039  64.737  1.00  0.00    -0.046 A  
HETATM   36  C   UNL     1      -8.899   8.608  66.269  1.00  0.00    -0.157 C  
HETATM   37  C   UNL     1      -6.844   6.367  63.382  1.00  0.00    -0.045 A  
HETATM   38  C   UNL     1      -8.022   8.003  65.275  1.00  0.00    -0.124 A  
HETATM   39  O   UNL     1      -8.619   9.547  63.556  1.00  0.00    -0.187 OA 
HETATM   40  C   UNL     1      -7.451   7.551  62.975  1.00  0.00    -0.107 A  
HETATM   41  O   UNL     1      -6.380   5.549  62.392  1.00  0.00    -0.021 OA 
HETATM   42  H   UNL     1      -6.464   5.772  61.473  1.00  0.00     0.000 HD 
HETATM   43  C   UNL     1      -8.047   8.369  63.923  1.00  0.00    -0.143 A  
BRANCH  31  44
HETATM   44  C   UNL     1      -7.393   7.125  69.376  1.00  0.00    -0.090 A  
HETATM   45  O   UNL     1      -7.285   6.278  73.437  1.00  0.00    -0.086 OA 
HETATM   46  H   UNL     1      -6.588   8.544  73.511  1.00  0.00     0.000 HD 
HETATM   47  C   UNL     1      -7.693   5.831  69.845  1.00  0.00    -0.087 A  
HETATM   48  H   UNL     1      -7.516   5.411  73.748  1.00  0.00     0.000 HD 
HETATM   49  O   UNL     1      -6.613   8.750  72.584  1.00  0.00    -0.225 OA 
HETATM   50  C   UNL     1      -7.273   6.540  72.096  1.00  0.00    -0.086 A  
HETATM   51  C   UNL     1      -6.933   7.811  71.639  1.00  0.00    -0.063 A  
HETATM   52  C   UNL     1      -6.969   8.112  70.280  1.00  0.00    -0.040 A  
HETATM   53  C   UNL     1      -7.636   5.538  71.209  1.00  0.00    -0.099 A  
ENDBRANCH  31  44
ENDBRANCH  28  29
ENDBRANCH  17  28
ENDBRANCH  15  16
ENDBRANCH  14  15
ENDBRANCH   4  14
TORSDOF 6
ENDMDL
MODEL       59
REMARK 921   NORMALIZED FREE ENERGY PREDICTED BY IDOCK:   -6.95 KCAL/MOL
REMARK 922        TOTAL FREE ENERGY PREDICTED BY IDOCK:  -10.86 KCAL/MOL
REMARK 923 INTER-LIGAND FREE ENERGY PREDICTED BY IDOCK:  -10.94 KCAL/MOL
REMARK 924 INTRA-LIGAND FREE ENERGY PREDICTED BY IDOCK:    0.08 KCAL/MOL
REMARK 927      BINDING AFFINITY PREDICTED BY RF-SCORE:    0.00 PKD
ROOT
HETATM    1  C   UNL     1      -5.634  18.367  66.966  1.00  0.00    -0.153 C  
HETATM    2  C   UNL     1      -6.994  18.007  67.573  1.00  0.00    -0.192 C  
HETATM    3  O   UNL     1      -7.608  17.175  66.587  1.00  0.00    -0.208 OA 
HETATM    4  C   UNL     1      -9.015  16.984  66.579  1.00  0.00    -0.269 C  
HETATM    5  H   UNL     1      -9.650  20.445  69.383  1.00  0.00     0.000 HD 
HETATM    6  C   UNL     1      -9.821  18.238  66.953  1.00  0.00    -0.331 C  
HETATM    7  C   UNL     1      -9.241  18.892  68.216  1.00  0.00    -0.330 C  
HETATM    8  O   UNL     1      -7.160  19.921  69.070  1.00  0.00    -0.325 OA 
HETATM    9  O   UNL     1      -9.797  19.188  65.869  1.00  0.00    -0.453 OA 
HETATM   10  H   UNL     1     -10.295  19.963  66.100  1.00  0.00     0.000 HD 
HETATM   11  H   UNL     1      -7.643  20.706  69.299  1.00  0.00     0.000 HD 
HETATM   12  O   UNL     1     -10.008  20.041  68.602  1.00  0.00    -0.391 OA 
HETATM   13  C   UNL     1      -7.779  19.280  67.944  1.00  0.00    -0.283 C  
ENDROOT
BRANCH   4  14
HETATM   14  O   UNL     1      -9.486  15.875  67.347  1.00  0.00    -0.216 OA 
BRANCH  14  15
HETATM   15  C   UNL     1     -10.806  15.444  66.973  1.00  0.00    -0.320 C  
BRANCH  15  16
HETATM   16  C   UNL     1     -10.839  15.224  65.455  1.00  0.00    -0.372 C  
HETATM   17  C   UNL     1     -10.538  12.797  65.123  1.00  0.00    -0.302 C  
HETATM   18  O   UNL     1      -9.980  14.127  65.059  1.00  0.00    -0.336 OA 
HETATM   19  H   UNL     1     -14.033  14.069  66.415  1.00  0.00     0.000 HD 
HETATM   20  C   UNL     1     -11.809  12.819  64.243  1.00  0.00    -0.396 C  
HETATM   21  H   UNL     1     -13.128  15.847  63.237  1.00  0.00     0.000 HD 
HETATM   22  O   UNL     1     -11.483  13.207  62.885  1.00  0.00    -0.594 OA 
HETATM   23  C   UNL     1     -12.853  13.804  64.794  1.00  0.00    -0.113 C  
HETATM   24  H   UNL     1     -12.264  13.220  62.344  1.00  0.00     0.000 HD 
HETATM   25  O   UNL     1     -12.246  15.852  63.591  1.00  0.00    -0.681 OA 
HETATM   26  O   UNL     1     -13.388  13.461  66.074  1.00  0.00     0.018 OA 
HETATM   27  C   UNL     1     -12.269  15.216  64.881  1.00  0.00    -0.053 C  
BRANCH  17  28
HETATM   28  O   UNL     1     -10.699  12.366  66.484  1.00  0.00    -0.230 OA 
BRANCH  28  29
HETATM   29  C   UNL     1      -9.950  11.266  66.900  1.00  0.00    -0.207 C  
HETATM   30  O   UNL     1      -9.657   9.322  68.356  1.00  0.00    -0.145 OA 
HETATM   31  C   UNL     1     -10.195  10.572  68.039  1.00  0.00    -0.166 C  
HETATM   32  C   UNL     1      -8.692   8.791  67.538  1.00  0.00    -0.134 A  
HETATM   33  O   UNL     1      -9.188  10.825  64.733  1.00  0.00    -0.199 OA 
HETATM   34  H   UNL     1      -6.970  10.633  64.486  1.00  0.00     0.000 HD 
HETATM   35  C   UNL     1      -8.155   7.537  67.826  1.00  0.00    -0.119 A  
HETATM   36  C   UNL     1      -9.078  10.575  65.927  1.00  0.00    -0.168 C  
HETATM   37  C   UNL     1      -7.117   7.037  67.031  1.00  0.00    -0.079 A  
HETATM   38  C   UNL     1      -8.232   9.489  66.404  1.00  0.00    -0.115 A  
HETATM   39  O   UNL     1      -6.585   9.792  64.703  1.00  0.00    -0.099 OA 
HETATM   40  C   UNL     1      -6.565   7.793  66.002  1.00  0.00    -0.049 A  
HETATM   41  O   UNL     1      -6.596   5.789  67.219  1.00  0.00    -0.052 OA 
HETATM   42  H   UNL     1      -5.892   5.450  66.678  1.00  0.00     0.000 HD 
HETATM   43  C   UNL     1      -7.127   9.020  65.684  1.00  0.00    -0.081 A  
BRANCH  31  44
HETATM   44  C   UNL     1     -11.180  11.090  68.999  1.00  0.00    -0.320 A  
HETATM   45  O   UNL     1     -13.389  12.810  72.063  1.00  0.00    -0.488 OA 
HETATM   46  H   UNL     1     -13.348  10.570  72.845  1.00  0.00     0.000 HD 
HETATM   47  C   UNL     1     -11.522  12.456  68.955  1.00  0.00    -0.355 A  
HETATM   48  H   UNL     1     -13.591  13.737  72.040  1.00  0.00     0.000 HD 
HETATM   49  O   UNL     1     -12.840  10.167  72.150  1.00  0.00    -0.383 OA 
HETATM   50  C   UNL     1     -12.704  12.236  71.028  1.00  0.00    -0.225 A  
HETATM   51  C   UNL     1     -12.409  10.875  71.060  1.00  0.00    -0.393 A  
HETATM   52  C   UNL     1     -11.665  10.285  70.041  1.00  0.00    -0.330 A  
HETATM   53  C   UNL     1     -12.283  13.032  69.974  1.00  0.00    -0.306 A  
ENDBRANCH  31  44
ENDBRANCH  28  29
ENDBRANCH  17  28
ENDBRANCH  15  16
ENDBRANCH  14  15
ENDBRANCH   4  14
TORSDOF 6
ENDMDL
MODEL       60
REMARK 921   NORMALIZED FREE ENERGY PREDICTED BY IDOCK:   -6.91 KCAL/MOL
REMARK 922        TOTAL FREE ENERGY PREDICTED BY IDOCK:  -10.81 KCAL/MOL
REMARK 923 INTER-LIGAND FREE ENERGY PREDICTED BY IDOCK:   -9.00 KCAL/MOL
REMARK 924 INTRA-LIGAND FREE ENERGY PREDICTED BY IDOCK:   -1.81 KCAL/MOL
REMARK 927      BINDING AFFINITY PREDICTED BY RF-SCORE:    0.00 PKD
ROOT
HETATM    1  C   UNL     1     -12.421  13.897  65.064  1.00  0.00    -0.447 C  
HETATM    2  C   UNL     1     -11.996  12.460  65.384  1.00  0.00    -0.398 C  
HETATM    3  O   UNL     1     -11.468  12.538  66.709  1.00  0.00    -0.319 OA 
HETATM    4  C   UNL     1     -10.599  11.528  67.199  1.00  0.00    -0.237 C  
HETATM    5  H   UNL     1      -9.930   9.887  63.064  1.00  0.00     0.000 HD 
HETATM    6  C   UNL     1      -9.621  10.977  66.150  1.00  0.00    -0.207 C  
HETATM    7  C   UNL     1     -10.364  10.647  64.847  1.00  0.00    -0.277 C  
HETATM    8  O   UNL     1     -11.724  11.718  63.080  1.00  0.00    -0.771 OA 
HETATM    9  O   UNL     1      -8.585  11.940  65.878  1.00  0.00    -0.393 OA 
HETATM   10  H   UNL     1      -7.981  11.600  65.229  1.00  0.00     0.000 HD 
HETATM   11  H   UNL     1     -11.124  11.390  62.420  1.00  0.00     0.000 HD 
HETATM   12  O   UNL     1      -9.471  10.091  63.870  1.00  0.00    -0.276 OA 
HETATM   13  C   UNL     1     -11.022  11.929  64.315  1.00  0.00    -0.353 C  
ENDROOT
BRANCH   4  14
HETATM   14  O   UNL     1     -11.242  10.438  67.863  1.00  0.00    -0.305 OA 
BRANCH  14  15
HETATM   15  C   UNL     1     -10.570  10.031  69.068  1.00  0.00    -0.214 C  
BRANCH  15  16
HETATM   16  C   UNL     1     -11.574   9.299  69.967  1.00  0.00     0.025 C  
HETATM   17  C   UNL     1     -10.680   7.016  70.249  1.00  0.00    -0.241 C  
HETATM   18  O   UNL     1     -11.652   7.890  69.638  1.00  0.00     0.195 OA 
HETATM   19  H   UNL     1      -8.934   9.943  72.220  1.00  0.00     0.000 HD 
HETATM   20  C   UNL     1     -10.822   7.211  71.776  1.00  0.00    -0.225 C  
HETATM   21  H   UNL     1     -12.607   9.908  72.985  1.00  0.00     0.000 HD 
HETATM   22  O   UNL     1     -12.173   6.907  72.206  1.00  0.00    -0.466 OA 
HETATM   23  C   UNL     1     -10.493   8.655  72.187  1.00  0.00    -0.340 C  
HETATM   24  H   UNL     1     -12.260   7.027  73.145  1.00  0.00     0.000 HD 
HETATM   25  O   UNL     1     -12.710   9.695  72.065  1.00  0.00    -0.383 OA 
HETATM   26  O   UNL     1      -9.137   9.050  71.966  1.00  0.00    -0.375 OA 
HETATM   27  C   UNL     1     -11.406   9.645  71.459  1.00  0.00    -0.350 C  
BRANCH  17  28
HETATM   28  O   UNL     1      -9.373   7.219  69.688  1.00  0.00    -0.153 OA 
BRANCH  28  29
HETATM   29  C   UNL     1      -8.918   6.276  68.767  1.00  0.00    -0.125 C  
HETATM   30  O   UNL     1      -8.433   3.956  68.163  1.00  0.00    -0.090 OA 
HETATM   31  C   UNL     1      -8.626   4.990  69.082  1.00  0.00    -0.091 C  
HETATM   32  C   UNL     1      -8.387   4.260  66.826  1.00  0.00    -0.101 A  
HETATM   33  O   UNL     1      -9.809   7.456  66.953  1.00  0.00    -0.184 OA 
HETATM   34  H   UNL     1      -8.394   7.902  65.275  1.00  0.00     0.000 HD 
HETATM   35  C   UNL     1      -8.213   3.240  65.891  1.00  0.00    -0.094 A  
HETATM   36  C   UNL     1      -9.085   6.538  67.322  1.00  0.00    -0.117 C  
HETATM   37  C   UNL     1      -8.092   3.567  64.535  1.00  0.00    -0.086 A  
HETATM   38  C   UNL     1      -8.517   5.588  66.375  1.00  0.00    -0.119 A  
HETATM   39  O   UNL     1      -8.245   7.208  64.644  1.00  0.00    -0.112 OA 
HETATM   40  C   UNL     1      -8.072   4.891  64.109  1.00  0.00    -0.115 A  
HETATM   41  O   UNL     1      -7.987   2.612  63.565  1.00  0.00    -0.071 OA 
HETATM   42  H   UNL     1      -7.905   2.834  62.645  1.00  0.00     0.000 HD 
HETATM   43  C   UNL     1      -8.291   5.904  65.030  1.00  0.00    -0.131 A  
BRANCH  31  44
HETATM   44  C   UNL     1      -8.605   4.584  70.495  1.00  0.00    -0.111 A  
HETATM   45  O   UNL     1      -9.073   3.924  74.565  1.00  0.00    -0.095 OA 
HETATM   46  H   UNL     1      -7.198   5.376  74.636  1.00  0.00     0.000 HD 
HETATM   47  C   UNL     1      -9.604   3.710  70.967  1.00  0.00    -0.246 A  
HETATM   48  H   UNL     1      -9.767   3.356  74.878  1.00  0.00     0.000 HD 
HETATM   49  O   UNL     1      -7.085   5.536  73.707  1.00  0.00    -0.083 OA 
HETATM   50  C   UNL     1      -8.890   4.100  73.222  1.00  0.00    -0.098 A  
HETATM   51  C   UNL     1      -7.872   4.932  72.763  1.00  0.00    -0.094 A  
HETATM   52  C   UNL     1      -7.705   5.167  71.400  1.00  0.00    -0.105 A  
HETATM   53  C   UNL     1      -9.749   3.470  72.335  1.00  0.00    -0.217 A  
ENDBRANCH  31  44
ENDBRANCH  28  29
ENDBRANCH  17  28
ENDBRANCH  15  16
ENDBRANCH  14  15
ENDBRANCH   4  14
TORSDOF 6
ENDMDL
MODEL       61
REMARK 921   NORMALIZED FREE ENERGY PREDICTED BY IDOCK:   -6.87 KCAL/MOL
REMARK 922        TOTAL FREE ENERGY PREDICTED BY IDOCK:  -10.76 KCAL/MOL
REMARK 923 INTER-LIGAND FREE ENERGY PREDICTED BY IDOCK:  -10.26 KCAL/MOL
REMARK 924 INTRA-LIGAND FREE ENERGY PREDICTED BY IDOCK:   -0.50 KCAL/MOL
REMARK 927      BINDING AFFINITY PREDICTED BY RF-SCORE:    0.00 PKD
ROOT
HETATM    1  C   UNL     1      -8.203   4.361  65.899  1.00  0.00    -0.109 C  
HETATM    2  C   UNL     1      -8.999   4.831  67.120  1.00  0.00    -0.112 C  
HETATM    3  O   UNL     1      -8.359   6.047  67.508  1.00  0.00    -0.109 OA 
HETATM    4  C   UNL     1      -8.525   6.562  68.821  1.00  0.00    -0.122 C  
HETATM    5  H   UNL     1     -10.218   2.664  70.297  1.00  0.00     0.000 HD 
HETATM    6  C   UNL     1      -8.575   5.486  69.916  1.00  0.00    -0.120 C  
HETATM    7  C   UNL     1      -9.535   4.356  69.514  1.00  0.00    -0.181 C  
HETATM    8  O   UNL     1      -9.870   2.647  67.757  1.00  0.00    -0.291 OA 
HETATM    9  O   UNL     1      -7.261   4.940  70.140  1.00  0.00    -0.048 OA 
HETATM   10  H   UNL     1      -7.292   4.274  70.816  1.00  0.00     0.000 HD 
HETATM   11  H   UNL     1      -9.895   1.969  68.423  1.00  0.00     0.000 HD 
HETATM   12  O   UNL     1      -9.625   3.363  70.546  1.00  0.00    -0.173 OA 
HETATM   13  C   UNL     1      -9.040   3.733  68.200  1.00  0.00    -0.144 C  
ENDROOT
BRANCH   4  14
HETATM   14  O   UNL     1      -9.624   7.460  68.991  1.00  0.00    -0.148 OA 
BRANCH  14  15
HETATM   15  C   UNL     1      -9.346   8.792  68.524  1.00  0.00    -0.141 C  
BRANCH  15  16
HETATM   16  C   UNL     1      -9.808   8.906  67.066  1.00  0.00    -0.214 C  
HETATM   17  C   UNL     1     -10.597  11.229  66.793  1.00  0.00    -0.260 C  
HETATM   18  O   UNL     1     -10.917   9.829  66.930  1.00  0.00    -0.117 OA 
HETATM   19  H   UNL     1      -6.714  10.604  66.973  1.00  0.00     0.000 HD 
HETATM   20  C   UNL     1      -9.663  11.341  65.565  1.00  0.00    -0.229 C  
HETATM   21  H   UNL     1      -8.218   8.488  64.265  1.00  0.00     0.000 HD 
HETATM   22  O   UNL     1     -10.311  10.812  64.381  1.00  0.00    -0.353 OA 
HETATM   23  C   UNL     1      -8.353  10.569  65.789  1.00  0.00    -0.166 C  
HETATM   24  H   UNL     1      -9.738  10.881  63.627  1.00  0.00     0.000 HD 
HETATM   25  O   UNL     1      -8.939   8.372  64.872  1.00  0.00    -0.016 OA 
HETATM   26  O   UNL     1      -7.524  11.081  66.835  1.00  0.00    -0.119 OA 
HETATM   27  C   UNL     1      -8.638   9.094  66.080  1.00  0.00    -0.136 C  
BRANCH  17  28
HETATM   28  O   UNL     1     -10.110  11.775  68.029  1.00  0.00    -0.181 OA 
BRANCH  28  29
HETATM   29  C   UNL     1     -10.401  13.112  68.297  1.00  0.00    -0.252 C  
HETATM   30  O   UNL     1     -11.290  14.837  69.786  1.00  0.00    -0.261 OA 
HETATM   31  C   UNL     1     -11.192  13.524  69.319  1.00  0.00    -0.231 C  
HETATM   32  C   UNL     1     -10.659  15.836  69.090  1.00  0.00    -0.242 A  
HETATM   33  O   UNL     1      -8.495  13.867  67.170  1.00  0.00    -0.203 OA 
HETATM   34  H   UNL     1      -8.829  15.432  65.603  1.00  0.00     0.000 HD 
HETATM   35  C   UNL     1     -10.731  17.150  69.550  1.00  0.00    -0.017 A  
HETATM   36  C   UNL     1      -9.556  14.169  67.701  1.00  0.00    -0.216 C  
HETATM   37  C   UNL     1     -10.148  18.174  68.793  1.00  0.00    -0.376 A  
HETATM   38  C   UNL     1      -9.934  15.560  67.915  1.00  0.00    -0.218 A  
HETATM   39  O   UNL     1      -8.906  16.330  65.903  1.00  0.00    -0.392 OA 
HETATM   40  C   UNL     1      -9.561  17.916  67.559  1.00  0.00    -0.269 A  
HETATM   41  O   UNL     1     -10.125  19.470  69.221  1.00  0.00    -0.585 OA 
HETATM   42  H   UNL     1      -9.729  20.164  68.707  1.00  0.00     0.000 HD 
HETATM   43  C   UNL     1      -9.448  16.606  67.120  1.00  0.00    -0.230 A  
BRANCH  31  44
HETATM   44  C   UNL     1     -11.945  12.526  70.092  1.00  0.00    -0.377 A  
HETATM   45  O   UNL     1     -13.566   9.815  72.783  1.00  0.00    -0.636 OA 
HETATM   46  H   UNL     1     -12.385   8.299  71.393  1.00  0.00     0.000 HD 
HETATM   47  C   UNL     1     -12.800  12.965  71.122  1.00  0.00    -0.326 A  
HETATM   48  H   UNL     1     -14.119  10.121  73.492  1.00  0.00     0.000 HD 
HETATM   49  O   UNL     1     -12.006   8.911  70.774  1.00  0.00    -0.253 OA 
HETATM   50  C   UNL     1     -13.074  10.704  71.869  1.00  0.00    -0.458 A  
HETATM   51  C   UNL     1     -12.264  10.255  70.829  1.00  0.00    -0.350 A  
HETATM   52  C   UNL     1     -11.708  11.153  69.921  1.00  0.00    -0.433 A  
HETATM   53  C   UNL     1     -13.364  12.052  72.015  1.00  0.00    -0.447 A  
ENDBRANCH  31  44
ENDBRANCH  28  29
ENDBRANCH  17  28
ENDBRANCH  15  16
ENDBRANCH  14  15
ENDBRANCH   4  14
TORSDOF 6
ENDMDL
MODEL       62
REMARK 921   NORMALIZED FREE ENERGY PREDICTED BY IDOCK:   -6.87 KCAL/MOL
REMARK 922        TOTAL FREE ENERGY PREDICTED BY IDOCK:  -10.76 KCAL/MOL
REMARK 923 INTER-LIGAND FREE ENERGY PREDICTED BY IDOCK:  -10.22 KCAL/MOL
REMARK 924 INTRA-LIGAND FREE ENERGY PREDICTED BY IDOCK:   -0.54 KCAL/MOL
REMARK 927      BINDING AFFINITY PREDICTED BY RF-SCORE:    0.00 PKD
ROOT
HETATM    1  C   UNL     1      -5.285  11.343  71.229  1.00  0.00    -0.058 C  
HETATM    2  C   UNL     1      -6.335  10.925  70.195  1.00  0.00    -0.149 C  
HETATM    3  O   UNL     1      -6.265   9.499  70.182  1.00  0.00    -0.049 OA 
HETATM    4  C   UNL     1      -6.767   8.763  69.076  1.00  0.00    -0.052 C  
HETATM    5  H   UNL     1      -6.972  12.458  66.518  1.00  0.00     0.000 HD 
HETATM    6  C   UNL     1      -6.520   9.430  67.714  1.00  0.00    -0.059 C  
HETATM    7  C   UNL     1      -6.914  10.913  67.765  1.00  0.00    -0.077 C  
HETATM    8  O   UNL     1      -6.357  13.015  68.944  1.00  0.00    -0.081 OA 
HETATM    9  O   UNL     1      -5.132   9.316  67.347  1.00  0.00    -0.036 OA 
HETATM   10  H   UNL     1      -4.979   9.729  66.505  1.00  0.00     0.000 HD 
HETATM   11  H   UNL     1      -6.194  13.439  68.110  1.00  0.00     0.000 HD 
HETATM   12  O   UNL     1      -6.729  11.541  66.487  1.00  0.00    -0.112 OA 
HETATM   13  C   UNL     1      -6.070  11.612  68.842  1.00  0.00    -0.053 C  
ENDROOT
BRANCH   4  14
HETATM   14  O   UNL     1      -8.139   8.376  69.171  1.00  0.00    -0.114 OA 
BRANCH  14  15
HETATM   15  C   UNL     1      -8.401   7.472  70.258  1.00  0.00    -0.133 C  
BRANCH  15  16
HETATM   16  C   UNL     1      -9.242   8.203  71.312  1.00  0.00    -0.156 C  
HETATM   17  C   UNL     1     -10.887   9.540  70.048  1.00  0.00    -0.252 C  
HETATM   18  O   UNL     1      -9.679   9.500  70.837  1.00  0.00    -0.259 OA 
HETATM   19  H   UNL     1     -11.449   5.650  70.279  1.00  0.00     0.000 HD 
HETATM   20  C   UNL     1     -11.992   8.894  70.915  1.00  0.00    -0.213 C  
HETATM   21  H   UNL     1     -11.110   7.093  73.726  1.00  0.00     0.000 HD 
HETATM   22  O   UNL     1     -12.138   9.607  72.170  1.00  0.00    -0.291 OA 
HETATM   23  C   UNL     1     -11.670   7.423  71.225  1.00  0.00    -0.289 C  
HETATM   24  H   UNL     1     -12.817   9.210  72.703  1.00  0.00     0.000 HD 
HETATM   25  O   UNL     1     -10.443   7.646  73.336  1.00  0.00    -0.351 OA 
HETATM   26  O   UNL     1     -11.648   6.559  70.087  1.00  0.00    -0.396 OA 
HETATM   27  C   UNL     1     -10.323   7.305  71.944  1.00  0.00    -0.188 C  
BRANCH  17  28
HETATM   28  O   UNL     1     -10.674   8.976  68.744  1.00  0.00    -0.195 OA 
BRANCH  28  29
HETATM   29  C   UNL     1     -10.695   9.850  67.657  1.00  0.00    -0.281 C  
HETATM   30  O   UNL     1     -10.501  10.257  65.253  1.00  0.00    -0.222 OA 
HETATM   31  C   UNL     1     -10.254   9.525  66.417  1.00  0.00    -0.232 C  
HETATM   32  C   UNL     1     -11.114  11.480  65.358  1.00  0.00    -0.186 A  
HETATM   33  O   UNL     1     -12.380  11.166  68.606  1.00  0.00    -0.549 OA 
HETATM   34  H   UNL     1     -11.963  13.363  68.736  1.00  0.00     0.000 HD 
HETATM   35  C   UNL     1     -11.385  12.218  64.207  1.00  0.00    -0.415 A  
HETATM   36  C   UNL     1     -11.545  11.058  67.717  1.00  0.00    -0.194 C  
HETATM   37  C   UNL     1     -11.941  13.497  64.330  1.00  0.00    -0.432 A  
HETATM   38  C   UNL     1     -11.479  12.006  66.613  1.00  0.00    -0.411 A  
HETATM   39  O   UNL     1     -12.118  13.876  67.951  1.00  0.00    -0.366 OA 
HETATM   40  C   UNL     1     -12.164  14.074  65.576  1.00  0.00    -0.455 A  
HETATM   41  O   UNL     1     -12.292  14.242  63.241  1.00  0.00    -1.118 OA 
HETATM   42  H   UNL     1     -12.670  15.110  63.324  1.00  0.00     0.000 HD 
HETATM   43  C   UNL     1     -11.938  13.325  66.721  1.00  0.00    -0.382 A  
BRANCH  31  44
HETATM   44  C   UNL     1      -9.544   8.253  66.217  1.00  0.00    -0.266 A  
HETATM   45  O   UNL     1      -7.949   4.600  65.063  1.00  0.00    -0.092 OA 
HETATM   46  H   UNL     1      -9.502   3.833  66.683  1.00  0.00     0.000 HD 
HETATM   47  C   UNL     1      -8.504   8.195  65.268  1.00  0.00    -0.157 A  
HETATM   48  H   UNL     1      -7.268   4.566  64.401  1.00  0.00     0.000 HD 
HETATM   49  O   UNL     1      -9.876   4.663  66.953  1.00  0.00    -0.183 OA 
HETATM   50  C   UNL     1      -8.437   5.808  65.477  1.00  0.00    -0.150 A  
HETATM   51  C   UNL     1      -9.435   5.858  66.448  1.00  0.00    -0.155 A  
HETATM   52  C   UNL     1      -9.983   7.075  66.842  1.00  0.00    -0.283 A  
HETATM   53  C   UNL     1      -7.951   6.968  64.894  1.00  0.00    -0.127 A  
ENDBRANCH  31  44
ENDBRANCH  28  29
ENDBRANCH  17  28
ENDBRANCH  15  16
ENDBRANCH  14  15
ENDBRANCH   4  14
TORSDOF 6
ENDMDL
MODEL       63
REMARK 921   NORMALIZED FREE ENERGY PREDICTED BY IDOCK:   -6.86 KCAL/MOL
REMARK 922        TOTAL FREE ENERGY PREDICTED BY IDOCK:  -10.75 KCAL/MOL
REMARK 923 INTER-LIGAND FREE ENERGY PREDICTED BY IDOCK:  -11.02 KCAL/MOL
REMARK 924 INTRA-LIGAND FREE ENERGY PREDICTED BY IDOCK:    0.28 KCAL/MOL
REMARK 927      BINDING AFFINITY PREDICTED BY RF-SCORE:    0.00 PKD
ROOT
HETATM    1  C   UNL     1      -5.325  16.584  67.140  1.00  0.00    -0.129 C  
HETATM    2  C   UNL     1      -5.915  15.445  67.978  1.00  0.00    -0.142 C  
HETATM    3  O   UNL     1      -5.586  14.264  67.245  1.00  0.00    -0.290 OA 
HETATM    4  C   UNL     1      -6.304  13.058  67.461  1.00  0.00    -0.149 C  
HETATM    5  H   UNL     1      -9.568  15.223  69.674  1.00  0.00     0.000 HD 
HETATM    6  C   UNL     1      -7.806  13.259  67.714  1.00  0.00    -0.157 C  
HETATM    7  C   UNL     1      -8.031  14.367  68.753  1.00  0.00    -0.133 C  
HETATM    8  O   UNL     1      -7.603  16.775  69.125  1.00  0.00    -0.240 OA 
HETATM    9  O   UNL     1      -8.477  13.609  66.488  1.00  0.00    -0.428 OA 
HETATM   10  H   UNL     1      -9.405  13.734  66.645  1.00  0.00     0.000 HD 
HETATM   11  H   UNL     1      -8.530  16.915  69.277  1.00  0.00     0.000 HD 
HETATM   12  O   UNL     1      -9.429  14.537  69.032  1.00  0.00    -0.179 OA 
HETATM   13  C   UNL     1      -7.419  15.673  68.223  1.00  0.00    -0.115 C  
ENDROOT
BRANCH   4  14
HETATM   14  O   UNL     1      -5.766  12.198  68.468  1.00  0.00    -0.052 OA 
BRANCH  14  15
HETATM   15  C   UNL     1      -6.462  10.944  68.574  1.00  0.00    -0.054 C  
BRANCH  15  16
HETATM   16  C   UNL     1      -6.887  10.740  70.033  1.00  0.00    -0.122 C  
HETATM   17  C   UNL     1      -9.058   9.569  69.942  1.00  0.00    -0.216 C  
HETATM   18  O   UNL     1      -8.328  10.791  70.179  1.00  0.00     0.410 OA 
HETATM   19  H   UNL     1      -5.805   7.500  69.144  1.00  0.00     0.000 HD 
HETATM   20  C   UNL     1      -8.466   8.517  70.908  1.00  0.00    -0.152 C  
HETATM   21  H   UNL     1      -5.466   9.163  72.491  1.00  0.00     0.000 HD 
HETATM   22  O   UNL     1      -8.583   8.963  72.283  1.00  0.00    -0.397 OA 
HETATM   23  C   UNL     1      -6.981   8.255  70.605  1.00  0.00    -0.038 C  
HETATM   24  H   UNL     1      -8.219   8.316  72.876  1.00  0.00     0.000 HD 
HETATM   25  O   UNL     1      -5.906   9.895  72.076  1.00  0.00    -0.290 OA 
HETATM   26  O   UNL     1      -6.722   7.662  69.331  1.00  0.00    -0.039 OA 
HETATM   27  C   UNL     1      -6.173   9.552  70.705  1.00  0.00    -0.078 C  
BRANCH  17  28
HETATM   28  O   UNL     1      -9.069   9.233  68.545  1.00  0.00    -0.132 OA 
BRANCH  28  29
HETATM   29  C   UNL     1      -9.939   9.948  67.722  1.00  0.00    -0.165 C  
HETATM   30  O   UNL     1     -11.836  11.466  67.443  1.00  0.00    -0.609 OA 
HETATM   31  C   UNL     1     -11.086  10.527  68.155  1.00  0.00    -0.287 C  
HETATM   32  C   UNL     1     -11.491  11.741  66.144  1.00  0.00    -0.220 A  
HETATM   33  O   UNL     1      -8.264  10.386  66.148  1.00  0.00    -0.132 OA 
HETATM   34  H   UNL     1      -8.736   9.844  64.026  1.00  0.00     0.000 HD 
HETATM   35  C   UNL     1     -12.216  12.688  65.422  1.00  0.00    -0.517 A  
HETATM   36  C   UNL     1      -9.461  10.424  66.407  1.00  0.00    -0.169 C  
HETATM   37  C   UNL     1     -11.906  12.907  64.074  1.00  0.00    -0.443 A  
HETATM   38  C   UNL     1     -10.412  11.084  65.521  1.00  0.00    -0.302 A  
HETATM   39  O   UNL     1      -9.252  10.467  63.529  1.00  0.00    -0.222 OA 
HETATM   40  C   UNL     1     -10.937  12.151  63.423  1.00  0.00    -0.480 A  
HETATM   41  O   UNL     1     -12.532  13.866  63.332  1.00  0.00    -1.068 OA 
HETATM   42  H   UNL     1     -12.321  14.015  62.418  1.00  0.00     0.000 HD 
HETATM   43  C   UNL     1     -10.183  11.241  64.149  1.00  0.00    -0.335 A  
BRANCH  31  44
HETATM   44  C   UNL     1     -11.559  10.253  69.519  1.00  0.00    -0.234 A  
HETATM   45  O   UNL     1     -13.519   9.308  73.053  1.00  0.00    -0.774 OA 
HETATM   46  H   UNL     1     -13.754  11.668  73.116  1.00  0.00     0.000 HD 
HETATM   47  C   UNL     1     -11.641   8.916  69.956  1.00  0.00     0.111 A  
HETATM   48  H   UNL     1     -13.596   8.402  73.327  1.00  0.00     0.000 HD 
HETATM   49  O   UNL     1     -13.311  11.895  72.307  1.00  0.00    -0.471 OA 
HETATM   50  C   UNL     1     -12.830   9.621  71.914  1.00  0.00    -0.425 A  
HETATM   51  C   UNL     1     -12.717  10.950  71.513  1.00  0.00    -0.428 A  
HETATM   52  C   UNL     1     -12.066  11.282  70.328  1.00  0.00    -0.459 A  
HETATM   53  C   UNL     1     -12.281   8.598  71.156  1.00  0.00    -0.272 A  
ENDBRANCH  31  44
ENDBRANCH  28  29
ENDBRANCH  17  28
ENDBRANCH  15  16
ENDBRANCH  14  15
ENDBRANCH   4  14
TORSDOF 6
ENDMDL
MODEL       64
REMARK 921   NORMALIZED FREE ENERGY PREDICTED BY IDOCK:   -6.85 KCAL/MOL
REMARK 922        TOTAL FREE ENERGY PREDICTED BY IDOCK:  -10.73 KCAL/MOL
REMARK 923 INTER-LIGAND FREE ENERGY PREDICTED BY IDOCK:   -9.17 KCAL/MOL
REMARK 924 INTRA-LIGAND FREE ENERGY PREDICTED BY IDOCK:   -1.56 KCAL/MOL
REMARK 927      BINDING AFFINITY PREDICTED BY RF-SCORE:    0.00 PKD
ROOT
HETATM    1  C   UNL     1     -12.103   5.977  72.239  1.00  0.00    -0.196 C  
HETATM    2  C   UNL     1     -12.109   7.144  71.248  1.00  0.00    -0.348 C  
HETATM    3  O   UNL     1     -10.864   7.025  70.559  1.00  0.00    -0.234 OA 
HETATM    4  C   UNL     1     -10.310   8.137  69.871  1.00  0.00    -0.214 C  
HETATM    5  H   UNL     1     -13.120  10.991  71.920  1.00  0.00     0.000 HD 
HETATM    6  C   UNL     1     -10.525   9.483  70.580  1.00  0.00    -0.296 C  
HETATM    7  C   UNL     1     -11.988   9.630  71.021  1.00  0.00    -0.343 C  
HETATM    8  O   UNL     1     -13.683   8.550  72.465  1.00  0.00    -0.585 OA 
HETATM    9  O   UNL     1      -9.666   9.583  71.732  1.00  0.00    -0.149 OA 
HETATM   10  H   UNL     1      -9.799  10.415  72.171  1.00  0.00     0.000 HD 
HETATM   11  H   UNL     1     -13.821   9.374  72.917  1.00  0.00     0.000 HD 
HETATM   12  O   UNL     1     -12.215  10.901  71.647  1.00  0.00    -0.228 OA 
HETATM   13  C   UNL     1     -12.332   8.481  71.982  1.00  0.00    -0.365 C  
ENDROOT
BRANCH   4  14
HETATM   14  O   UNL     1     -10.692   8.260  68.500  1.00  0.00    -0.142 OA 
BRANCH  14  15
HETATM   15  C   UNL     1     -10.211   9.466  67.882  1.00  0.00    -0.211 C  
BRANCH  15  16
HETATM   16  C   UNL     1      -8.884   9.161  67.175  1.00  0.00    -0.119 C  
HETATM   17  C   UNL     1      -7.743  11.335  66.924  1.00  0.00    -0.152 C  
HETATM   18  O   UNL     1      -8.478  10.253  66.314  1.00  0.00    -0.130 OA 
HETATM   19  H   UNL     1      -7.820   9.688  70.499  1.00  0.00     0.000 HD 
HETATM   20  C   UNL     1      -6.502  10.695  67.588  1.00  0.00    -0.057 C  
HETATM   21  H   UNL     1      -6.381   7.271  68.016  1.00  0.00     0.000 HD 
HETATM   22  O   UNL     1      -5.708   9.983  66.606  1.00  0.00    -0.048 OA 
HETATM   23  C   UNL     1      -6.909   9.708  68.694  1.00  0.00    -0.056 C  
HETATM   24  H   UNL     1      -4.945   9.590  67.014  1.00  0.00     0.000 HD 
HETATM   25  O   UNL     1      -7.043   7.613  67.428  1.00  0.00    -0.081 OA 
HETATM   26  O   UNL     1      -7.569  10.298  69.816  1.00  0.00    -0.151 OA 
HETATM   27  C   UNL     1      -7.810   8.607  68.131  1.00  0.00    -0.103 C  
BRANCH  17  28
HETATM   28  O   UNL     1      -8.592  12.129  67.767  1.00  0.00    -0.147 OA 
BRANCH  28  29
HETATM   29  C   UNL     1      -8.413  13.512  67.737  1.00  0.00    -0.184 C  
HETATM   30  O   UNL     1      -9.242  15.752  67.212  1.00  0.00    -0.202 OA 
HETATM   31  C   UNL     1      -9.217  14.364  67.054  1.00  0.00    -0.234 C  
HETATM   32  C   UNL     1      -8.294  16.346  68.006  1.00  0.00    -0.178 A  
HETATM   33  O   UNL     1      -7.189  13.507  69.731  1.00  0.00     0.251 OA 
HETATM   34  H   UNL     1      -5.195  14.527  69.668  1.00  0.00     0.000 HD 
HETATM   35  C   UNL     1      -8.313  17.728  68.190  1.00  0.00    -0.264 A  
HETATM   36  C   UNL     1      -7.551  14.151  68.753  1.00  0.00    -0.125 C  
HETATM   37  C   UNL     1      -7.298  18.333  68.940  1.00  0.00    -0.253 A  
HETATM   38  C   UNL     1      -7.299  15.583  68.647  1.00  0.00    -0.125 A  
HETATM   39  O   UNL     1      -5.193  15.472  69.765  1.00  0.00    -0.097 OA 
HETATM   40  C   UNL     1      -6.234  17.594  69.448  1.00  0.00    -0.249 A  
HETATM   41  O   UNL     1      -7.296  19.670  69.213  1.00  0.00    -0.356 OA 
HETATM   42  H   UNL     1      -6.608  20.081  69.723  1.00  0.00     0.000 HD 
HETATM   43  C   UNL     1      -6.237  16.214  69.306  1.00  0.00    -0.163 A  
BRANCH  31  44
HETATM   44  C   UNL     1     -10.232  13.819  66.142  1.00  0.00    -0.305 A  
HETATM   45  O   UNL     1     -12.963  12.865  63.166  1.00  0.00    -0.415 OA 
HETATM   46  H   UNL     1     -14.452  13.822  64.746  1.00  0.00     0.000 HD 
HETATM   47  C   UNL     1      -9.812  13.159  64.970  1.00  0.00    -0.064 A  
HETATM   48  H   UNL     1     -12.668  12.446  62.367  1.00  0.00     0.000 HD 
HETATM   49  O   UNL     1     -13.835  14.048  65.432  1.00  0.00    -0.084 OA 
HETATM   50  C   UNL     1     -12.069  13.133  64.166  1.00  0.00    -0.430 A  
HETATM   51  C   UNL     1     -12.502  13.747  65.339  1.00  0.00    -0.500 A  
HETATM   52  C   UNL     1     -11.597  14.077  66.344  1.00  0.00    -0.381 A  
HETATM   53  C   UNL     1     -10.732  12.818  63.978  1.00  0.00    -0.457 A  
ENDBRANCH  31  44
ENDBRANCH  28  29
ENDBRANCH  17  28
ENDBRANCH  15  16
ENDBRANCH  14  15
ENDBRANCH   4  14
TORSDOF 6
ENDMDL
MODEL       65
REMARK 921   NORMALIZED FREE ENERGY PREDICTED BY IDOCK:   -6.81 KCAL/MOL
REMARK 922        TOTAL FREE ENERGY PREDICTED BY IDOCK:  -10.68 KCAL/MOL
REMARK 923 INTER-LIGAND FREE ENERGY PREDICTED BY IDOCK:  -10.09 KCAL/MOL
REMARK 924 INTRA-LIGAND FREE ENERGY PREDICTED BY IDOCK:   -0.59 KCAL/MOL
REMARK 927      BINDING AFFINITY PREDICTED BY RF-SCORE:    0.00 PKD
ROOT
HETATM    1  C   UNL     1      -5.132  10.660  66.242  1.00  0.00    -0.071 C  
HETATM    2  C   UNL     1      -6.179  10.994  67.308  1.00  0.00    -0.068 C  
HETATM    3  O   UNL     1      -6.695  12.264  66.907  1.00  0.00    -0.091 OA 
HETATM    4  C   UNL     1      -7.367  13.097  67.840  1.00  0.00    -0.131 C  
HETATM    5  H   UNL     1      -5.856  10.675  71.317  1.00  0.00     0.000 HD 
HETATM    6  C   UNL     1      -6.768  13.066  69.254  1.00  0.00    -0.062 C  
HETATM    7  C   UNL     1      -6.526  11.618  69.703  1.00  0.00    -0.124 C  
HETATM    8  O   UNL     1      -5.253   9.592  69.072  1.00  0.00    -0.037 OA 
HETATM    9  O   UNL     1      -5.522  13.790  69.284  1.00  0.00    -0.077 OA 
HETATM   10  H   UNL     1      -5.151  13.771  70.158  1.00  0.00     0.000 HD 
HETATM   11  H   UNL     1      -4.868   9.565  69.941  1.00  0.00     0.000 HD 
HETATM   12  O   UNL     1      -6.005  11.571  71.039  1.00  0.00    -0.379 OA 
HETATM   13  C   UNL     1      -5.555  10.950  68.716  1.00  0.00    -0.040 C  
ENDROOT
BRANCH   4  14
HETATM   14  O   UNL     1      -8.781  12.906  67.923  1.00  0.00    -0.166 OA 
BRANCH  14  15
HETATM   15  C   UNL     1      -9.531  14.107  67.672  1.00  0.00    -0.213 C  
BRANCH  15  16
HETATM   16  C   UNL     1      -9.790  14.219  66.164  1.00  0.00    -0.316 C  
HETATM   17  C   UNL     1     -11.040  12.182  65.546  1.00  0.00    -0.316 C  
HETATM   18  O   UNL     1      -9.797  12.916  65.528  1.00  0.00    -0.239 OA 
HETATM   19  H   UNL     1     -12.961  15.013  67.494  1.00  0.00     0.000 HD 
HETATM   20  C   UNL     1     -12.094  13.100  64.884  1.00  0.00    -0.402 C  
HETATM   21  H   UNL     1     -11.376  16.443  64.408  1.00  0.00     0.000 HD 
HETATM   22  O   UNL     1     -11.689  13.454  63.537  1.00  0.00    -0.673 OA 
HETATM   23  C   UNL     1     -12.290  14.395  65.689  1.00  0.00    -0.337 C  
HETATM   24  H   UNL     1     -12.337  14.017  63.130  1.00  0.00     0.000 HD 
HETATM   25  O   UNL     1     -10.650  15.868  64.618  1.00  0.00    -0.525 OA 
HETATM   26  O   UNL     1     -12.839  14.213  66.996  1.00  0.00     0.157 OA 
HETATM   27  C   UNL     1     -10.967  15.152  65.825  1.00  0.00    -0.349 C  
BRANCH  17  28
HETATM   28  O   UNL     1     -11.339  11.698  66.864  1.00  0.00    -0.320 OA 
BRANCH  28  29
HETATM   29  C   UNL     1     -10.675  10.547  67.290  1.00  0.00    -0.277 C  
HETATM   30  O   UNL     1     -10.461   8.668  68.841  1.00  0.00    -0.215 OA 
HETATM   31  C   UNL     1     -10.890   9.950  68.488  1.00  0.00    -0.217 C  
HETATM   32  C   UNL     1      -9.634   7.988  67.984  1.00  0.00    -0.152 A  
HETATM   33  O   UNL     1     -10.160   9.902  65.101  1.00  0.00    -0.309 OA 
HETATM   34  H   UNL     1      -8.005   9.452  64.686  1.00  0.00     0.000 HD 
HETATM   35  C   UNL     1      -9.209   6.701  68.310  1.00  0.00    -0.121 A  
HETATM   36  C   UNL     1      -9.972   9.709  66.296  1.00  0.00    -0.264 C  
HETATM   37  C   UNL     1      -8.305   6.044  67.466  1.00  0.00    -0.108 A  
HETATM   38  C   UNL     1      -9.205   8.565  66.773  1.00  0.00    -0.215 A  
HETATM   39  O   UNL     1      -7.693   8.587  64.926  1.00  0.00    -0.093 OA 
HETATM   40  C   UNL     1      -7.769   6.674  66.348  1.00  0.00    -0.102 A  
HETATM   41  O   UNL     1      -7.903   4.759  67.692  1.00  0.00    -0.089 OA 
HETATM   42  H   UNL     1      -7.290   4.314  67.120  1.00  0.00     0.000 HD 
HETATM   43  C   UNL     1      -8.224   7.936  65.996  1.00  0.00    -0.122 A  
BRANCH  31  44
HETATM   44  C   UNL     1     -11.727  10.628  69.489  1.00  0.00    -0.356 A  
HETATM   45  O   UNL     1     -13.473  12.614  72.687  1.00  0.00    -0.574 OA 
HETATM   46  H   UNL     1     -14.017  10.386  73.291  1.00  0.00     0.000 HD 
HETATM   47  C   UNL     1     -11.707  12.035  69.553  1.00  0.00    -0.408 A  
HETATM   48  H   UNL     1     -13.431  13.562  72.738  1.00  0.00     0.000 HD 
HETATM   49  O   UNL     1     -13.618   9.921  72.565  1.00  0.00    -0.317 OA 
HETATM   50  C   UNL     1     -12.941  11.966  71.607  1.00  0.00    -0.342 A  
HETATM   51  C   UNL     1     -13.003  10.576  71.532  1.00  0.00    -0.460 A  
HETATM   52  C   UNL     1     -12.417   9.895  70.467  1.00  0.00    -0.191 A  
HETATM   53  C   UNL     1     -12.313  12.706  70.617  1.00  0.00    -0.375 A  
ENDBRANCH  31  44
ENDBRANCH  28  29
ENDBRANCH  17  28
ENDBRANCH  15  16
ENDBRANCH  14  15
ENDBRANCH   4  14
TORSDOF 6
ENDMDL
MODEL       66
REMARK 921   NORMALIZED FREE ENERGY PREDICTED BY IDOCK:   -6.79 KCAL/MOL
REMARK 922        TOTAL FREE ENERGY PREDICTED BY IDOCK:  -10.65 KCAL/MOL
REMARK 923 INTER-LIGAND FREE ENERGY PREDICTED BY IDOCK:   -8.96 KCAL/MOL
REMARK 924 INTRA-LIGAND FREE ENERGY PREDICTED BY IDOCK:   -1.69 KCAL/MOL
REMARK 927      BINDING AFFINITY PREDICTED BY RF-SCORE:    0.00 PKD
ROOT
HETATM    1  C   UNL     1     -12.512  13.767  63.771  1.00  0.00    -0.219 C  
HETATM    2  C   UNL     1     -11.392  14.146  64.745  1.00  0.00    -0.371 C  
HETATM    3  O   UNL     1     -11.538  13.222  65.824  1.00  0.00    -0.317 OA 
HETATM    4  C   UNL     1     -10.974  13.504  67.097  1.00  0.00    -0.291 C  
HETATM    5  H   UNL     1     -10.323  17.823  66.016  1.00  0.00     0.000 HD 
HETATM    6  C   UNL     1     -11.053  14.984  67.504  1.00  0.00    -0.317 C  
HETATM    7  C   UNL     1     -10.585  15.883  66.350  1.00  0.00    -0.297 C  
HETATM    8  O   UNL     1     -11.136  16.453  64.006  1.00  0.00    -1.236 OA 
HETATM    9  O   UNL     1     -12.404  15.332  67.863  1.00  0.00    -0.355 OA 
HETATM   10  H   UNL     1     -12.452  16.247  68.114  1.00  0.00     0.000 HD 
HETATM   11  H   UNL     1     -11.195  17.371  64.245  1.00  0.00     0.000 HD 
HETATM   12  O   UNL     1     -10.612  17.267  66.729  1.00  0.00    -0.286 OA 
HETATM   13  C   UNL     1     -11.489  15.634  65.132  1.00  0.00    -0.099 C  
ENDROOT
BRANCH   4  14
HETATM   14  O   UNL     1      -9.641  13.031  67.293  1.00  0.00    -0.213 OA 
BRANCH  14  15
HETATM   15  C   UNL     1      -9.546  11.997  68.289  1.00  0.00    -0.204 C  
BRANCH  15  16
HETATM   16  C   UNL     1      -8.074  11.830  68.685  1.00  0.00    -0.104 C  
HETATM   17  C   UNL     1      -7.592   9.419  68.475  1.00  0.00    -0.081 C  
HETATM   18  O   UNL     1      -7.838  10.555  69.331  1.00  0.00    -0.145 OA 
HETATM   19  H   UNL     1      -7.908  11.536  65.171  1.00  0.00     0.000 HD 
HETATM   20  C   UNL     1      -6.380   9.796  67.592  1.00  0.00    -0.060 C  
HETATM   21  H   UNL     1      -5.352  13.088  67.437  1.00  0.00     0.000 HD 
HETATM   22  O   UNL     1      -5.230  10.117  68.415  1.00  0.00    -0.036 OA 
HETATM   23  C   UNL     1      -6.695  11.008  66.701  1.00  0.00    -0.134 C  
HETATM   24  H   UNL     1      -4.485  10.349  67.872  1.00  0.00     0.000 HD 
HETATM   25  O   UNL     1      -5.951  12.852  68.135  1.00  0.00    -0.068 OA 
HETATM   26  O   UNL     1      -7.713  10.787  65.722  1.00  0.00    -0.152 OA 
HETATM   27  C   UNL     1      -7.101  12.214  67.553  1.00  0.00    -0.135 C  
BRANCH  17  28
HETATM   28  O   UNL     1      -8.789   9.013  67.793  1.00  0.00    -0.125 OA 
BRANCH  28  29
HETATM   29  C   UNL     1      -8.922   7.660  67.481  1.00  0.00    -0.126 C  
HETATM   30  O   UNL     1      -9.944   5.475  67.888  1.00  0.00    -0.132 OA 
HETATM   31  C   UNL     1      -9.553   6.759  68.275  1.00  0.00    -0.127 C  
HETATM   32  C   UNL     1      -9.548   5.004  66.662  1.00  0.00    -0.158 A  
HETATM   33  O   UNL     1      -8.627   8.045  65.193  1.00  0.00    -0.139 OA 
HETATM   34  H   UNL     1      -7.052   6.816  64.179  1.00  0.00     0.000 HD 
HETATM   35  C   UNL     1      -9.942   3.732  66.250  1.00  0.00     0.023 A  
HETATM   36  C   UNL     1      -8.701   7.214  66.089  1.00  0.00    -0.151 C  
HETATM   37  C   UNL     1      -9.471   3.230  65.031  1.00  0.00    -0.145 A  
HETATM   38  C   UNL     1      -8.750   5.786  65.804  1.00  0.00    -0.152 A  
HETATM   39  O   UNL     1      -7.298   5.937  63.916  1.00  0.00    -0.053 OA 
HETATM   40  C   UNL     1      -8.565   3.945  64.255  1.00  0.00    -0.104 A  
HETATM   41  O   UNL     1      -9.874   2.022  64.540  1.00  0.00    -0.302 OA 
HETATM   42  H   UNL     1      -9.554   1.681  63.712  1.00  0.00     0.000 HD 
HETATM   43  C   UNL     1      -8.207   5.229  64.639  1.00  0.00    -0.134 A  
BRANCH  31  44
HETATM   44  C   UNL     1      -9.972   7.161  69.625  1.00  0.00    -0.176 A  
HETATM   45  O   UNL     1     -11.242   7.588  73.553  1.00  0.00    -0.603 OA 
HETATM   46  H   UNL     1     -13.292   8.041  72.447  1.00  0.00     0.000 HD 
HETATM   47  C   UNL     1      -9.060   7.028  70.690  1.00  0.00    -0.158 A  
HETATM   48  H   UNL     1     -10.628   7.469  74.267  1.00  0.00     0.000 HD 
HETATM   49  O   UNL     1     -13.012   7.942  71.545  1.00  0.00    -0.323 OA 
HETATM   50  C   UNL     1     -10.811   7.496  72.259  1.00  0.00    -0.258 A  
HETATM   51  C   UNL     1     -11.712   7.672  71.211  1.00  0.00    -0.284 A  
HETATM   52  C   UNL     1     -11.302   7.527  69.889  1.00  0.00    -0.054 A  
HETATM   53  C   UNL     1      -9.480   7.193  72.011  1.00  0.00    -0.151 A  
ENDBRANCH  31  44
ENDBRANCH  28  29
ENDBRANCH  17  28
ENDBRANCH  15  16
ENDBRANCH  14  15
ENDBRANCH   4  14
TORSDOF 6
ENDMDL
MODEL       67
REMARK 921   NORMALIZED FREE ENERGY PREDICTED BY IDOCK:   -6.77 KCAL/MOL
REMARK 922        TOTAL FREE ENERGY PREDICTED BY IDOCK:  -10.63 KCAL/MOL
REMARK 923 INTER-LIGAND FREE ENERGY PREDICTED BY IDOCK:   -9.69 KCAL/MOL
REMARK 924 INTRA-LIGAND FREE ENERGY PREDICTED BY IDOCK:   -0.94 KCAL/MOL
REMARK 927      BINDING AFFINITY PREDICTED BY RF-SCORE:    0.00 PKD
ROOT
HETATM    1  C   UNL     1     -10.767   4.303  73.254  1.00  0.00    -0.299 C  
HETATM    2  C   UNL     1      -9.595   4.557  72.300  1.00  0.00    -0.153 C  
HETATM    3  O   UNL     1     -10.216   4.758  71.029  1.00  0.00    -0.214 OA 
HETATM    4  C   UNL     1      -9.470   4.604  69.830  1.00  0.00    -0.167 C  
HETATM    5  H   UNL     1      -6.126   2.520  72.002  1.00  0.00     0.000 HD 
HETATM    6  C   UNL     1      -8.446   3.460  69.871  1.00  0.00    -0.053 C  
HETATM    7  C   UNL     1      -7.624   3.521  71.167  1.00  0.00    -0.044 C  
HETATM    8  O   UNL     1      -7.892   3.425  73.624  1.00  0.00    -0.064 OA 
HETATM    9  O   UNL     1      -9.116   2.186  69.789  1.00  0.00    -0.086 OA 
HETATM   10  H   UNL     1      -8.482   1.479  69.815  1.00  0.00     0.000 HD 
HETATM   11  H   UNL     1      -7.266   2.712  73.664  1.00  0.00     0.000 HD 
HETATM   12  O   UNL     1      -6.633   2.483  71.200  1.00  0.00    -0.022 OA 
HETATM   13  C   UNL     1      -8.580   3.400  72.364  1.00  0.00    -0.084 C  
ENDROOT
BRANCH   4  14
HETATM   14  O   UNL     1      -8.834   5.790  69.349  1.00  0.00    -0.115 OA 
BRANCH  14  15
HETATM   15  C   UNL     1      -9.763   6.773  68.859  1.00  0.00    -0.137 C  
BRANCH  15  16
HETATM   16  C   UNL     1      -9.730   6.758  67.326  1.00  0.00    -0.140 C  
HETATM   17  C   UNL     1      -9.993   9.110  66.627  1.00  0.00    -0.273 C  
HETATM   18  O   UNL     1     -10.572   7.795  66.766  1.00  0.00    -0.331 OA 
HETATM   19  H   UNL     1      -6.516   7.996  68.099  1.00  0.00     0.000 HD 
HETATM   20  C   UNL     1      -8.724   8.935  65.760  1.00  0.00    -0.176 C  
HETATM   21  H   UNL     1      -7.455   5.768  65.230  1.00  0.00     0.000 HD 
HETATM   22  O   UNL     1      -9.059   8.348  64.477  1.00  0.00    -0.342 OA 
HETATM   23  C   UNL     1      -7.695   8.029  66.457  1.00  0.00    -0.093 C  
HETATM   24  H   UNL     1      -8.279   8.240  63.945  1.00  0.00     0.000 HD 
HETATM   25  O   UNL     1      -8.335   5.830  65.580  1.00  0.00    -0.125 OA 
HETATM   26  O   UNL     1      -7.152   8.556  67.669  1.00  0.00    -0.077 OA 
HETATM   27  C   UNL     1      -8.301   6.656  66.758  1.00  0.00    -0.115 C  
BRANCH  17  28
HETATM   28  O   UNL     1      -9.823   9.741  67.905  1.00  0.00    -0.143 OA 
BRANCH  28  29
HETATM   29  C   UNL     1     -10.314  11.039  68.050  1.00  0.00    -0.185 C  
HETATM   30  O   UNL     1     -11.193  12.834  69.460  1.00  0.00    -0.188 OA 
HETATM   31  C   UNL     1     -10.934  11.493  69.167  1.00  0.00    -0.224 C  
HETATM   32  C   UNL     1     -10.943  13.781  68.499  1.00  0.00    -0.262 A  
HETATM   33  O   UNL     1      -8.889  11.880  66.396  1.00  0.00    -0.197 OA 
HETATM   34  H   UNL     1      -9.864  13.058  64.758  1.00  0.00     0.000 HD 
HETATM   35  C   UNL     1     -11.179  15.126  68.777  1.00  0.00    -0.293 A  
HETATM   36  C   UNL     1      -9.851  12.094  67.125  1.00  0.00    -0.197 C  
HETATM   37  C   UNL     1     -10.994  16.077  67.766  1.00  0.00    -0.307 A  
HETATM   38  C   UNL     1     -10.447  13.419  67.231  1.00  0.00    -0.248 A  
HETATM   39  O   UNL     1     -10.055  13.970  64.942  1.00  0.00    -0.380 OA 
HETATM   40  C   UNL     1     -10.646  15.701  66.473  1.00  0.00    -0.307 A  
HETATM   41  O   UNL     1     -11.142  17.415  67.992  1.00  0.00    -0.259 OA 
HETATM   42  H   UNL     1     -11.016  18.060  67.306  1.00  0.00     0.000 HD 
HETATM   43  C   UNL     1     -10.366  14.369  66.205  1.00  0.00    -0.295 A  
BRANCH  31  44
HETATM   44  C   UNL     1     -11.283  10.541  70.232  1.00  0.00    -0.391 A  
HETATM   45  O   UNL     1     -12.273   7.363  72.709  1.00  0.00    -0.529 OA 
HETATM   46  H   UNL     1     -14.440   8.275  72.390  1.00  0.00     0.000 HD 
HETATM   47  C   UNL     1     -10.280   9.698  70.749  1.00  0.00    -0.330 A  
HETATM   48  H   UNL     1     -11.595   6.781  73.031  1.00  0.00     0.000 HD 
HETATM   49  O   UNL     1     -14.224   9.003  71.819  1.00  0.00    -0.339 OA 
HETATM   50  C   UNL     1     -11.939   8.438  71.934  1.00  0.00    -0.338 A  
HETATM   51  C   UNL     1     -12.934   9.291  71.463  1.00  0.00    -0.359 A  
HETATM   52  C   UNL     1     -12.618  10.359  70.627  1.00  0.00    -0.435 A  
HETATM   53  C   UNL     1     -10.609   8.641  71.600  1.00  0.00    -0.374 A  
ENDBRANCH  31  44
ENDBRANCH  28  29
ENDBRANCH  17  28
ENDBRANCH  15  16
ENDBRANCH  14  15
ENDBRANCH   4  14
TORSDOF 6
ENDMDL
MODEL       68
REMARK 921   NORMALIZED FREE ENERGY PREDICTED BY IDOCK:   -6.75 KCAL/MOL
REMARK 922        TOTAL FREE ENERGY PREDICTED BY IDOCK:  -10.59 KCAL/MOL
REMARK 923 INTER-LIGAND FREE ENERGY PREDICTED BY IDOCK:  -11.68 KCAL/MOL
REMARK 924 INTRA-LIGAND FREE ENERGY PREDICTED BY IDOCK:    1.09 KCAL/MOL
REMARK 927      BINDING AFFINITY PREDICTED BY RF-SCORE:    0.00 PKD
ROOT
HETATM    1  C   UNL     1      -9.838  19.504  69.296  1.00  0.00    -0.347 C  
HETATM    2  C   UNL     1      -9.996  18.225  68.468  1.00  0.00    -0.393 C  
HETATM    3  O   UNL     1     -10.887  17.417  69.237  1.00  0.00    -0.117 OA 
HETATM    4  C   UNL     1     -10.950  16.013  69.028  1.00  0.00    -0.296 C  
HETATM    5  H   UNL     1      -7.121  16.042  66.666  1.00  0.00     0.000 HD 
HETATM    6  C   UNL     1      -9.593  15.362  68.724  1.00  0.00    -0.209 C  
HETATM    7  C   UNL     1      -8.840  16.165  67.653  1.00  0.00    -0.186 C  
HETATM    8  O   UNL     1      -7.902  18.417  67.239  1.00  0.00    -0.226 OA 
HETATM    9  O   UNL     1      -8.793  15.294  69.920  1.00  0.00    -0.399 OA 
HETATM   10  H   UNL     1      -7.953  14.892  69.733  1.00  0.00     0.000 HD 
HETATM   11  H   UNL     1      -7.054  18.028  67.056  1.00  0.00     0.000 HD 
HETATM   12  O   UNL     1      -7.587  15.546  67.328  1.00  0.00    -0.181 OA 
HETATM   13  C   UNL     1      -8.622  17.595  68.171  1.00  0.00    -0.261 C  
ENDROOT
BRANCH   4  14
HETATM   14  O   UNL     1     -11.908  15.583  68.058  1.00  0.00    -0.277 OA 
BRANCH  14  15
HETATM   15  C   UNL     1     -11.693  14.233  67.609  1.00  0.00    -0.389 C  
BRANCH  15  16
HETATM   16  C   UNL     1     -10.800  14.268  66.362  1.00  0.00    -0.307 C  
HETATM   17  C   UNL     1     -10.420  11.908  65.746  1.00  0.00    -0.256 C  
HETATM   18  O   UNL     1      -9.905  13.129  66.318  1.00  0.00    -0.275 OA 
HETATM   19  H   UNL     1     -13.946  13.478  64.969  1.00  0.00     0.000 HD 
HETATM   20  C   UNL     1     -10.891  12.265  64.317  1.00  0.00    -0.348 C  
HETATM   21  H   UNL     1     -11.249  15.582  63.426  1.00  0.00     0.000 HD 
HETATM   22  O   UNL     1      -9.796  12.812  63.539  1.00  0.00    -0.682 OA 
HETATM   23  C   UNL     1     -12.030  13.298  64.347  1.00  0.00    -0.406 C  
HETATM   24  H   UNL     1     -10.086  13.032  62.662  1.00  0.00     0.000 HD 
HETATM   25  O   UNL     1     -10.766  15.395  64.222  1.00  0.00    -0.025 OA 
HETATM   26  O   UNL     1     -13.242  12.840  64.950  1.00  0.00    -0.808 OA 
HETATM   27  C   UNL     1     -11.585  14.571  65.071  1.00  0.00    -0.382 C  
BRANCH  17  28
HETATM   28  O   UNL     1     -11.386  11.294  66.612  1.00  0.00    -0.338 OA 
BRANCH  28  29
HETATM   29  C   UNL     1     -10.901  10.513  67.662  1.00  0.00    -0.300 C  
HETATM   30  O   UNL     1      -9.058   9.342  68.763  1.00  0.00    -0.134 OA 
HETATM   31  C   UNL     1      -9.693   9.897  67.650  1.00  0.00    -0.155 C  
HETATM   32  C   UNL     1      -9.745   9.269  69.949  1.00  0.00    -0.201 A  
HETATM   33  O   UNL     1     -12.305  11.543  69.224  1.00  0.00    -0.242 OA 
HETATM   34  H   UNL     1     -13.564  10.174  70.474  1.00  0.00     0.000 HD 
HETATM   35  C   UNL     1      -9.123   8.734  71.076  1.00  0.00    -0.272 A  
HETATM   36  C   UNL     1     -11.529  10.623  68.995  1.00  0.00    -0.274 C  
HETATM   37  C   UNL     1      -9.856   8.594  72.260  1.00  0.00    -0.289 A  
HETATM   38  C   UNL     1     -11.072   9.730  70.052  1.00  0.00    -0.311 A  
HETATM   39  O   UNL     1     -13.146   9.781  71.231  1.00  0.00    -0.360 OA 
HETATM   40  C   UNL     1     -11.209   8.913  72.317  1.00  0.00    -0.269 A  
HETATM   41  O   UNL     1      -9.287   8.141  73.416  1.00  0.00    -0.262 OA 
HETATM   42  H   UNL     1      -9.785   8.046  74.220  1.00  0.00     0.000 HD 
HETATM   43  C   UNL     1     -11.817   9.488  71.212  1.00  0.00    -0.373 A  
BRANCH  31  44
HETATM   44  C   UNL     1      -8.906   9.884  66.408  1.00  0.00    -0.159 A  
HETATM   45  O   UNL     1      -6.422   9.218  63.151  1.00  0.00    -0.090 OA 
HETATM   46  H   UNL     1      -5.042  10.711  64.374  1.00  0.00     0.000 HD 
HETATM   47  C   UNL     1      -9.328   9.065  65.342  1.00  0.00    -0.213 A  
HETATM   48  H   UNL     1      -6.701   8.642  62.450  1.00  0.00     0.000 HD 
HETATM   49  O   UNL     1      -5.601  10.868  65.125  1.00  0.00    -0.124 OA 
HETATM   50  C   UNL     1      -7.262   9.475  64.199  1.00  0.00    -0.115 A  
HETATM   51  C   UNL     1      -6.852  10.320  65.227  1.00  0.00    -0.131 A  
HETATM   52  C   UNL     1      -7.672  10.549  66.329  1.00  0.00    -0.135 A  
HETATM   53  C   UNL     1      -8.503   8.857  64.236  1.00  0.00    -0.165 A  
ENDBRANCH  31  44
ENDBRANCH  28  29
ENDBRANCH  17  28
ENDBRANCH  15  16
ENDBRANCH  14  15
ENDBRANCH   4  14
TORSDOF 6
ENDMDL
MODEL       69
REMARK 921   NORMALIZED FREE ENERGY PREDICTED BY IDOCK:   -6.73 KCAL/MOL
REMARK 922        TOTAL FREE ENERGY PREDICTED BY IDOCK:  -10.56 KCAL/MOL
REMARK 923 INTER-LIGAND FREE ENERGY PREDICTED BY IDOCK:  -10.68 KCAL/MOL
REMARK 924 INTRA-LIGAND FREE ENERGY PREDICTED BY IDOCK:    0.12 KCAL/MOL
REMARK 927      BINDING AFFINITY PREDICTED BY RF-SCORE:    0.00 PKD
ROOT
HETATM    1  C   UNL     1     -11.050  16.431  64.607  1.00  0.00    -0.202 C  
HETATM    2  C   UNL     1     -11.230  15.029  65.197  1.00  0.00    -0.388 C  
HETATM    3  O   UNL     1      -9.946  14.420  65.049  1.00  0.00    -0.336 OA 
HETATM    4  C   UNL     1      -9.811  13.006  65.084  1.00  0.00    -0.059 C  
HETATM    5  H   UNL     1     -14.241  12.419  64.568  1.00  0.00     0.000 HD 
HETATM    6  C   UNL     1     -10.962  12.248  64.407  1.00  0.00    -0.329 C  
HETATM    7  C   UNL     1     -12.317  12.802  64.872  1.00  0.00    -0.490 C  
HETATM    8  O   UNL     1     -13.642  14.891  64.886  1.00  0.00     0.456 OA 
HETATM    9  O   UNL     1     -10.864  12.368  62.974  1.00  0.00    -0.640 OA 
HETATM   10  H   UNL     1     -11.577  11.900  62.555  1.00  0.00     0.000 HD 
HETATM   11  H   UNL     1     -14.360  14.438  64.460  1.00  0.00     0.000 HD 
HETATM   12  O   UNL     1     -13.404  12.076  64.280  1.00  0.00    -0.709 OA 
HETATM   13  C   UNL     1     -12.393  14.292  64.505  1.00  0.00    -0.410 C  
ENDROOT
BRANCH   4  14
HETATM   14  O   UNL     1      -9.574  12.446  66.378  1.00  0.00    -0.237 OA 
BRANCH  14  15
HETATM   15  C   UNL     1      -9.011  11.124  66.329  1.00  0.00    -0.193 C  
BRANCH  15  16
HETATM   16  C   UNL     1      -7.531  11.205  66.724  1.00  0.00    -0.146 C  
HETATM   17  C   UNL     1      -7.363  13.093  68.305  1.00  0.00    -0.116 C  
HETATM   18  O   UNL     1      -7.124  12.572  66.981  1.00  0.00    -0.094 OA 
HETATM   19  H   UNL     1      -8.958   9.733  69.598  1.00  0.00     0.000 HD 
HETATM   20  C   UNL     1      -6.643  12.135  69.283  1.00  0.00    -0.104 C  
HETATM   21  H   UNL     1      -5.562   9.056  68.155  1.00  0.00     0.000 HD 
HETATM   22  O   UNL     1      -5.228  12.058  68.974  1.00  0.00    -0.054 OA 
HETATM   23  C   UNL     1      -7.235  10.717  69.211  1.00  0.00    -0.122 C  
HETATM   24  H   UNL     1      -4.786  11.469  69.575  1.00  0.00     0.000 HD 
HETATM   25  O   UNL     1      -5.805   9.698  67.499  1.00  0.00    -0.047 OA 
HETATM   26  O   UNL     1      -8.593  10.609  69.642  1.00  0.00    -0.052 OA 
HETATM   27  C   UNL     1      -7.136  10.163  67.788  1.00  0.00    -0.086 C  
BRANCH  17  28
HETATM   28  O   UNL     1      -8.763  13.317  68.531  1.00  0.00    -0.151 OA 
BRANCH  28  29
HETATM   29  C   UNL     1      -9.243  14.613  68.339  1.00  0.00    -0.197 C  
HETATM   30  O   UNL     1     -10.765  16.428  68.950  1.00  0.00    -0.277 OA 
HETATM   31  C   UNL     1     -10.390  15.084  68.889  1.00  0.00    -0.244 C  
HETATM   32  C   UNL     1     -10.005  17.357  68.285  1.00  0.00    -0.320 A  
HETATM   33  O   UNL     1      -7.124  15.434  67.783  1.00  0.00    -0.133 OA 
HETATM   34  H   UNL     1      -6.979  16.569  65.857  1.00  0.00     0.000 HD 
HETATM   35  C   UNL     1     -10.353  18.706  68.347  1.00  0.00    -0.356 A  
HETATM   36  C   UNL     1      -8.329  15.654  67.824  1.00  0.00    -0.148 C  
HETATM   37  C   UNL     1      -9.617  19.638  67.605  1.00  0.00    -0.346 A  
HETATM   38  C   UNL     1      -8.873  16.975  67.539  1.00  0.00    -0.214 A  
HETATM   39  O   UNL     1      -7.237  17.483  65.877  1.00  0.00    -0.371 OA 
HETATM   40  C   UNL     1      -8.592  19.238  66.754  1.00  0.00    -0.326 A  
HETATM   41  O   UNL     1      -9.864  20.978  67.675  1.00  0.00    -0.313 OA 
HETATM   42  H   UNL     1      -9.365  21.611  67.172  1.00  0.00     0.000 HD 
HETATM   43  C   UNL     1      -8.215  17.904  66.724  1.00  0.00    -0.250 A  
BRANCH  31  44
HETATM   44  C   UNL     1     -11.291  14.151  69.582  1.00  0.00    -0.289 A  
HETATM   45  O   UNL     1     -13.273  11.404  71.979  1.00  0.00    -0.503 OA 
HETATM   46  H   UNL     1     -12.649   9.964  70.200  1.00  0.00     0.000 HD 
HETATM   47  C   UNL     1     -11.906  14.561  70.781  1.00  0.00    -0.367 A  
HETATM   48  H   UNL     1     -13.661  11.682  72.800  1.00  0.00     0.000 HD 
HETATM   49  O   UNL     1     -12.190  10.584  69.646  1.00  0.00    -0.244 OA 
HETATM   50  C   UNL     1     -12.664  12.321  71.167  1.00  0.00    -0.243 A  
HETATM   51  C   UNL     1     -12.096  11.913  69.963  1.00  0.00    -0.291 A  
HETATM   52  C   UNL     1     -11.424  12.822  69.150  1.00  0.00    -0.361 A  
HETATM   53  C   UNL     1     -12.592  13.643  71.578  1.00  0.00    -0.385 A  
ENDBRANCH  31  44
ENDBRANCH  28  29
ENDBRANCH  17  28
ENDBRANCH  15  16
ENDBRANCH  14  15
ENDBRANCH   4  14
TORSDOF 6
ENDMDL
MODEL       70
REMARK 921   NORMALIZED FREE ENERGY PREDICTED BY IDOCK:   -6.71 KCAL/MOL
REMARK 922        TOTAL FREE ENERGY PREDICTED BY IDOCK:  -10.54 KCAL/MOL
REMARK 923 INTER-LIGAND FREE ENERGY PREDICTED BY IDOCK:   -9.02 KCAL/MOL
REMARK 924 INTRA-LIGAND FREE ENERGY PREDICTED BY IDOCK:   -1.52 KCAL/MOL
REMARK 927      BINDING AFFINITY PREDICTED BY RF-SCORE:    0.00 PKD
ROOT
HETATM    1  C   UNL     1     -10.812  16.190  66.596  1.00  0.00    -0.149 C  
HETATM    2  C   UNL     1     -10.676  15.490  67.952  1.00  0.00    -0.294 C  
HETATM    3  O   UNL     1     -11.600  14.404  67.879  1.00  0.00    -0.309 OA 
HETATM    4  C   UNL     1     -12.074  13.780  69.064  1.00  0.00    -0.322 C  
HETATM    5  H   UNL     1     -10.559  17.155  71.625  1.00  0.00     0.000 HD 
HETATM    6  C   UNL     1     -12.314  14.750  70.231  1.00  0.00    -0.345 C  
HETATM    7  C   UNL     1     -11.111  15.689  70.404  1.00  0.00    -0.352 C  
HETATM    8  O   UNL     1      -9.819  17.410  69.183  1.00  0.00    -0.247 OA 
HETATM    9  O   UNL     1     -13.501  15.532  69.994  1.00  0.00    -0.494 OA 
HETATM   10  H   UNL     1     -13.649  16.132  70.715  1.00  0.00     0.000 HD 
HETATM   11  H   UNL     1      -9.966  18.023  69.894  1.00  0.00     0.000 HD 
HETATM   12  O   UNL     1     -11.302  16.574  71.518  1.00  0.00    -0.257 OA 
HETATM   13  C   UNL     1     -10.915  16.485  69.104  1.00  0.00    -0.303 C  
ENDROOT
BRANCH   4  14
HETATM   14  O   UNL     1     -11.298  12.672  69.524  1.00  0.00    -0.232 OA 
BRANCH  14  15
HETATM   15  C   UNL     1     -10.726  11.897  68.455  1.00  0.00    -0.224 C  
BRANCH  15  16
HETATM   16  C   UNL     1      -9.203  12.075  68.481  1.00  0.00    -0.114 C  
HETATM   17  C   UNL     1      -8.260   9.798  68.345  1.00  0.00    -0.105 C  
HETATM   18  O   UNL     1      -8.549  10.964  69.144  1.00  0.00    -0.138 OA 
HETATM   19  H   UNL     1      -9.783  11.369  65.072  1.00  0.00     0.000 HD 
HETATM   20  C   UNL     1      -7.396  10.289  67.160  1.00  0.00    -0.091 C  
HETATM   21  H   UNL     1      -7.186  13.671  66.498  1.00  0.00     0.000 HD 
HETATM   22  O   UNL     1      -6.189  10.933  67.641  1.00  0.00    -0.050 OA 
HETATM   23  C   UNL     1      -8.167  11.290  66.285  1.00  0.00    -0.126 C  
HETATM   24  H   UNL     1      -5.658  11.234  66.913  1.00  0.00     0.000 HD 
HETATM   25  O   UNL     1      -7.543  13.414  67.340  1.00  0.00    -0.162 OA 
HETATM   26  O   UNL     1      -9.306  10.750  65.613  1.00  0.00    -0.189 OA 
HETATM   27  C   UNL     1      -8.625  12.492  67.115  1.00  0.00    -0.200 C  
BRANCH  17  28
HETATM   28  O   UNL     1      -9.460   9.081  68.018  1.00  0.00    -0.140 OA 
BRANCH  28  29
HETATM   29  C   UNL     1      -9.390   7.688  68.003  1.00  0.00    -0.140 C  
HETATM   30  O   UNL     1     -10.234   5.509  68.728  1.00  0.00    -0.175 OA 
HETATM   31  C   UNL     1     -10.057   6.887  68.871  1.00  0.00    -0.170 C  
HETATM   32  C   UNL     1      -9.573   4.859  67.716  1.00  0.00    -0.148 A  
HETATM   33  O   UNL     1      -8.726   7.636  65.760  1.00  0.00    -0.156 OA 
HETATM   34  H   UNL     1      -6.871   6.463  65.307  1.00  0.00     0.000 HD 
HETATM   35  C   UNL     1      -9.750   3.487  67.545  1.00  0.00    -0.067 A  
HETATM   36  C   UNL     1      -8.874   7.003  66.799  1.00  0.00    -0.126 C  
HETATM   37  C   UNL     1      -9.014   2.819  66.558  1.00  0.00    -0.148 A  
HETATM   38  C   UNL     1      -8.719   5.555  66.838  1.00  0.00    -0.112 A  
HETATM   39  O   UNL     1      -6.971   5.523  65.213  1.00  0.00    -0.057 OA 
HETATM   40  C   UNL     1      -8.062   3.483  65.792  1.00  0.00    -0.093 A  
HETATM   41  O   UNL     1      -9.190   1.491  66.296  1.00  0.00    -0.274 OA 
HETATM   42  H   UNL     1      -8.691   1.039  65.626  1.00  0.00     0.000 HD 
HETATM   43  C   UNL     1      -7.917   4.855  65.928  1.00  0.00    -0.107 A  
BRANCH  31  44
HETATM   44  C   UNL     1     -10.756   7.492  70.014  1.00  0.00    -0.248 A  
HETATM   45  O   UNL     1     -13.254   8.729  73.088  1.00  0.00    -0.866 OA 
HETATM   46  H   UNL     1     -13.771  10.406  71.491  1.00  0.00     0.000 HD 
HETATM   47  C   UNL     1     -10.766   6.809  71.246  1.00  0.00    -0.257 A  
HETATM   48  H   UNL     1     -13.277   8.246  73.905  1.00  0.00     0.000 HD 
HETATM   49  O   UNL     1     -13.205  10.129  70.780  1.00  0.00    -0.379 OA 
HETATM   50  C   UNL     1     -12.394   8.349  72.096  1.00  0.00    -0.370 A  
HETATM   51  C   UNL     1     -12.360   9.058  70.897  1.00  0.00    -0.113 A  
HETATM   52  C   UNL     1     -11.530   8.653  69.855  1.00  0.00     0.144 A  
HETATM   53  C   UNL     1     -11.590   7.236  72.289  1.00  0.00    -0.315 A  
ENDBRANCH  31  44
ENDBRANCH  28  29
ENDBRANCH  17  28
ENDBRANCH  15  16
ENDBRANCH  14  15
ENDBRANCH   4  14
TORSDOF 6
ENDMDL
MODEL       71
REMARK 921   NORMALIZED FREE ENERGY PREDICTED BY IDOCK:   -6.66 KCAL/MOL
REMARK 922        TOTAL FREE ENERGY PREDICTED BY IDOCK:  -10.47 KCAL/MOL
REMARK 923 INTER-LIGAND FREE ENERGY PREDICTED BY IDOCK:   -9.26 KCAL/MOL
REMARK 924 INTRA-LIGAND FREE ENERGY PREDICTED BY IDOCK:   -1.22 KCAL/MOL
REMARK 927      BINDING AFFINITY PREDICTED BY RF-SCORE:    0.00 PKD
ROOT
HETATM    1  C   UNL     1      -5.831   2.721  69.749  1.00  0.00    -0.022 C  
HETATM    2  C   UNL     1      -7.253   3.276  69.618  1.00  0.00    -0.041 C  
HETATM    3  O   UNL     1      -7.062   4.659  69.318  1.00  0.00    -0.050 OA 
HETATM    4  C   UNL     1      -8.108   5.595  69.536  1.00  0.00    -0.103 C  
HETATM    5  H   UNL     1     -10.411   2.661  72.052  1.00  0.00     0.000 HD 
HETATM    6  C   UNL     1      -8.943   5.321  70.796  1.00  0.00    -0.136 C  
HETATM    7  C   UNL     1      -9.346   3.840  70.861  1.00  0.00    -0.145 C  
HETATM    8  O   UNL     1      -8.353   1.577  70.974  1.00  0.00    -0.045 OA 
HETATM    9  O   UNL     1      -8.193   5.664  71.977  1.00  0.00    -0.113 OA 
HETATM   10  H   UNL     1      -8.709   5.494  72.756  1.00  0.00     0.000 HD 
HETATM   11  H   UNL     1      -8.857   1.396  71.759  1.00  0.00     0.000 HD 
HETATM   12  O   UNL     1     -10.162   3.576  72.011  1.00  0.00    -0.152 OA 
HETATM   13  C   UNL     1      -8.071   2.983  70.891  1.00  0.00    -0.053 C  
ENDROOT
BRANCH   4  14
HETATM   14  O   UNL     1      -8.984   5.803  68.426  1.00  0.00    -0.113 OA 
BRANCH  14  15
HETATM   15  C   UNL     1      -9.226   7.193  68.146  1.00  0.00    -0.131 C  
BRANCH  15  16
HETATM   16  C   UNL     1      -9.415   7.364  66.634  1.00  0.00    -0.187 C  
HETATM   17  C   UNL     1     -10.076   9.719  66.303  1.00  0.00    -0.243 C  
HETATM   18  O   UNL     1     -10.456   8.327  66.334  1.00  0.00    -0.168 OA 
HETATM   19  H   UNL     1      -6.307   8.956  67.150  1.00  0.00     0.000 HD 
HETATM   20  C   UNL     1      -8.935   9.833  65.265  1.00  0.00    -0.193 C  
HETATM   21  H   UNL     1      -7.364   6.969  64.147  1.00  0.00     0.000 HD 
HETATM   22  O   UNL     1      -9.376   9.359  63.968  1.00  0.00    -0.421 OA 
HETATM   23  C   UNL     1      -7.709   9.010  65.693  1.00  0.00    -0.091 C  
HETATM   24  H   UNL     1      -8.676   9.430  63.330  1.00  0.00     0.000 HD 
HETATM   25  O   UNL     1      -8.185   6.861  64.613  1.00  0.00    -0.111 OA 
HETATM   26  O   UNL     1      -7.066   9.464  66.886  1.00  0.00    -0.084 OA 
HETATM   27  C   UNL     1      -8.084   7.538  65.879  1.00  0.00    -0.127 C  
BRANCH  17  28
HETATM   28  O   UNL     1      -9.803  10.213  67.624  1.00  0.00    -0.164 OA 
BRANCH  28  29
HETATM   29  C   UNL     1     -10.241  11.501  67.930  1.00  0.00    -0.184 C  
HETATM   30  O   UNL     1     -11.111  13.124  69.540  1.00  0.00    -0.142 OA 
HETATM   31  C   UNL     1     -10.897  11.825  69.071  1.00  0.00    -0.195 C  
HETATM   32  C   UNL     1     -10.769  14.182  68.736  1.00  0.00    -0.256 A  
HETATM   33  O   UNL     1      -8.696  12.491  66.479  1.00  0.00    -0.150 OA 
HETATM   34  H   UNL     1      -9.529  13.936  64.984  1.00  0.00     0.000 HD 
HETATM   35  C   UNL     1     -10.958  15.485  69.192  1.00  0.00    -0.259 A  
HETATM   36  C   UNL     1      -9.683  12.650  67.187  1.00  0.00    -0.211 C  
HETATM   37  C   UNL     1     -10.677  16.558  68.337  1.00  0.00    -0.339 A  
HETATM   38  C   UNL     1     -10.223  13.977  67.454  1.00  0.00    -0.248 A  
HETATM   39  O   UNL     1      -9.688  14.822  65.287  1.00  0.00    -0.274 OA 
HETATM   40  C   UNL     1     -10.279  16.349  67.021  1.00  0.00    -0.282 A  
HETATM   41  O   UNL     1     -10.776  17.857  68.745  1.00  0.00    -0.332 OA 
HETATM   42  H   UNL     1     -10.585  18.584  68.165  1.00  0.00     0.000 HD 
HETATM   43  C   UNL     1     -10.046  15.055  66.579  1.00  0.00    -0.276 A  
BRANCH  31  44
HETATM   44  C   UNL     1     -11.345  10.753  69.972  1.00  0.00    -0.397 A  
HETATM   45  O   UNL     1     -12.590   8.236  73.027  1.00  0.00    -0.680 OA 
HETATM   46  H   UNL     1     -10.289   7.661  72.986  1.00  0.00     0.000 HD 
HETATM   47  C   UNL     1     -12.702  10.698  70.345  1.00  0.00    -0.340 A  
HETATM   48  H   UNL     1     -13.502   8.226  73.293  1.00  0.00     0.000 HD 
HETATM   49  O   UNL     1      -9.993   8.236  72.290  1.00  0.00    -0.238 OA 
HETATM   50  C   UNL     1     -12.192   9.029  71.988  1.00  0.00    -0.375 A  
HETATM   51  C   UNL     1     -10.855   9.044  71.598  1.00  0.00    -0.366 A  
HETATM   52  C   UNL     1     -10.421   9.887  70.578  1.00  0.00    -0.330 A  
HETATM   53  C   UNL     1     -13.127   9.836  71.358  1.00  0.00    -0.489 A  
ENDBRANCH  31  44
ENDBRANCH  28  29
ENDBRANCH  17  28
ENDBRANCH  15  16
ENDBRANCH  14  15
ENDBRANCH   4  14
TORSDOF 6
ENDMDL
MODEL       72
REMARK 921   NORMALIZED FREE ENERGY PREDICTED BY IDOCK:   -6.65 KCAL/MOL
REMARK 922        TOTAL FREE ENERGY PREDICTED BY IDOCK:  -10.45 KCAL/MOL
REMARK 923 INTER-LIGAND FREE ENERGY PREDICTED BY IDOCK:   -8.34 KCAL/MOL
REMARK 924 INTRA-LIGAND FREE ENERGY PREDICTED BY IDOCK:   -2.12 KCAL/MOL
REMARK 927      BINDING AFFINITY PREDICTED BY RF-SCORE:    0.00 PKD
ROOT
HETATM    1  C   UNL     1     -13.020  14.654  70.445  1.00  0.00    -0.249 C  
HETATM    2  C   UNL     1     -12.301  13.360  70.839  1.00  0.00    -0.353 C  
HETATM    3  O   UNL     1     -11.778  12.861  69.607  1.00  0.00    -0.300 OA 
HETATM    4  C   UNL     1     -11.417  11.494  69.478  1.00  0.00    -0.311 C  
HETATM    5  H   UNL     1     -13.613  10.404  73.250  1.00  0.00     0.000 HD 
HETATM    6  C   UNL     1     -12.354  10.525  70.216  1.00  0.00    -0.298 C  
HETATM    7  C   UNL     1     -12.613  11.017  71.648  1.00  0.00    -0.297 C  
HETATM    8  O   UNL     1     -13.558  12.941  72.883  1.00  0.00    -0.677 OA 
HETATM    9  O   UNL     1     -13.608  10.411  69.516  1.00  0.00     0.077 OA 
HETATM   10  H   UNL     1     -14.187   9.813  69.972  1.00  0.00     0.000 HD 
HETATM   11  H   UNL     1     -14.148  12.355  73.342  1.00  0.00     0.000 HD 
HETATM   12  O   UNL     1     -13.453  10.100  72.365  1.00  0.00    -0.338 OA 
HETATM   13  C   UNL     1     -13.259  12.409  71.583  1.00  0.00    -0.269 C  
ENDROOT
BRANCH   4  14
HETATM   14  O   UNL     1     -10.062  11.185  69.809  1.00  0.00     0.132 OA 
BRANCH  14  15
HETATM   15  C   UNL     1      -9.815   9.773  69.932  1.00  0.00    -0.243 C  
BRANCH  15  16
HETATM   16  C   UNL     1      -8.341   9.563  70.300  1.00  0.00    -0.195 C  
HETATM   17  C   UNL     1      -7.482   7.895  68.695  1.00  0.00    -0.099 C  
HETATM   18  O   UNL     1      -7.917   8.202  70.037  1.00  0.00    -0.100 OA 
HETATM   19  H   UNL     1      -8.078  11.568  67.407  1.00  0.00     0.000 HD 
HETATM   20  C   UNL     1      -6.331   8.879  68.378  1.00  0.00    -0.055 C  
HETATM   21  H   UNL     1      -5.834  11.624  70.413  1.00  0.00     0.000 HD 
HETATM   22  O   UNL     1      -5.259   8.739  69.344  1.00  0.00    -0.034 OA 
HETATM   23  C   UNL     1      -6.821  10.336  68.402  1.00  0.00    -0.061 C  
HETATM   24  H   UNL     1      -4.552   9.343  69.149  1.00  0.00     0.000 HD 
HETATM   25  O   UNL     1      -6.399  10.935  70.742  1.00  0.00    -0.346 OA 
HETATM   26  O   UNL     1      -7.776  10.667  67.392  1.00  0.00    -0.103 OA 
HETATM   27  C   UNL     1      -7.425  10.680  69.766  1.00  0.00    -0.079 C  
BRANCH  17  28
HETATM   28  O   UNL     1      -8.589   7.877  67.781  1.00  0.00    -0.127 OA 
BRANCH  28  29
HETATM   29  C   UNL     1      -8.866   6.673  67.133  1.00  0.00    -0.115 C  
HETATM   30  O   UNL     1     -10.167   4.611  66.947  1.00  0.00    -0.213 OA 
HETATM   31  C   UNL     1      -9.647   5.696  67.656  1.00  0.00    -0.118 C  
HETATM   32  C   UNL     1      -9.759   4.410  65.652  1.00  0.00    -0.207 A  
HETATM   33  O   UNL     1      -8.392   7.570  65.026  1.00  0.00    -0.131 OA 
HETATM   34  H   UNL     1      -6.919   6.433  63.777  1.00  0.00     0.000 HD 
HETATM   35  C   UNL     1     -10.279   3.343  64.921  1.00  0.00     0.078 A  
HETATM   36  C   UNL     1      -8.619   6.560  65.680  1.00  0.00    -0.126 C  
HETATM   37  C   UNL     1      -9.801   3.101  63.628  1.00  0.00    -0.146 A  
HETATM   38  C   UNL     1      -8.822   5.267  65.042  1.00  0.00    -0.111 A  
HETATM   39  O   UNL     1      -7.254   5.687  63.293  1.00  0.00    -0.047 OA 
HETATM   40  C   UNL     1      -8.770   3.859  63.083  1.00  0.00    -0.101 A  
HETATM   41  O   UNL     1     -10.317   2.115  62.836  1.00  0.00    -0.106 OA 
HETATM   42  H   UNL     1      -9.993   1.951  61.959  1.00  0.00     0.000 HD 
HETATM   43  C   UNL     1      -8.283   4.949  63.789  1.00  0.00    -0.122 A  
BRANCH  31  44
HETATM   44  C   UNL     1     -10.094   5.803  69.052  1.00  0.00    -0.249 A  
HETATM   45  O   UNL     1     -11.719   5.495  72.859  1.00  0.00    -0.480 OA 
HETATM   46  H   UNL     1     -13.241   7.058  71.928  1.00  0.00     0.000 HD 
HETATM   47  C   UNL     1      -9.481   4.992  70.028  1.00  0.00    -0.231 A  
HETATM   48  H   UNL     1     -11.317   4.925  73.502  1.00  0.00     0.000 HD 
HETATM   49  O   UNL     1     -12.880   7.134  71.053  1.00  0.00    -0.341 OA 
HETATM   50  C   UNL     1     -11.153   5.633  71.622  1.00  0.00    -0.181 A  
HETATM   51  C   UNL     1     -11.742   6.471  70.677  1.00  0.00    -0.374 A  
HETATM   52  C   UNL     1     -11.211   6.581  69.395  1.00  0.00    -0.418 A  
HETATM   53  C   UNL     1     -10.014   4.904  71.316  1.00  0.00    -0.271 A  
ENDBRANCH  31  44
ENDBRANCH  28  29
ENDBRANCH  17  28
ENDBRANCH  15  16
ENDBRANCH  14  15
ENDBRANCH   4  14
TORSDOF 6
ENDMDL
MODEL       73
REMARK 921   NORMALIZED FREE ENERGY PREDICTED BY IDOCK:   -6.61 KCAL/MOL
REMARK 922        TOTAL FREE ENERGY PREDICTED BY IDOCK:  -10.41 KCAL/MOL
REMARK 923 INTER-LIGAND FREE ENERGY PREDICTED BY IDOCK:   -8.64 KCAL/MOL
REMARK 924 INTRA-LIGAND FREE ENERGY PREDICTED BY IDOCK:   -1.77 KCAL/MOL
REMARK 927      BINDING AFFINITY PREDICTED BY RF-SCORE:    0.00 PKD
ROOT
HETATM    1  C   UNL     1     -12.769   6.724  71.355  1.00  0.00    -0.317 C  
HETATM    2  C   UNL     1     -11.287   6.369  71.509  1.00  0.00    -0.294 C  
HETATM    3  O   UNL     1     -11.063   5.362  70.522  1.00  0.00    -0.139 OA 
HETATM    4  C   UNL     1      -9.948   4.489  70.623  1.00  0.00    -0.203 C  
HETATM    5  H   UNL     1      -9.224   5.667  74.904  1.00  0.00     0.000 HD 
HETATM    6  C   UNL     1      -9.612   4.064  72.061  1.00  0.00    -0.143 C  
HETATM    7  C   UNL     1      -9.591   5.286  72.990  1.00  0.00    -0.142 C  
HETATM    8  O   UNL     1     -11.054   7.099  73.822  1.00  0.00    -0.537 OA 
HETATM    9  O   UNL     1     -10.584   3.115  72.541  1.00  0.00    -0.103 OA 
HETATM   10  H   UNL     1     -10.377   2.852  73.430  1.00  0.00     0.000 HD 
HETATM   11  H   UNL     1     -10.862   6.843  74.716  1.00  0.00     0.000 HD 
HETATM   12  O   UNL     1      -9.237   4.911  74.329  1.00  0.00    -0.116 OA 
HETATM   13  C   UNL     1     -10.975   5.953  72.960  1.00  0.00    -0.268 C  
ENDROOT
BRANCH   4  14
HETATM   14  O   UNL     1      -8.757   4.939  69.974  1.00  0.00    -0.091 OA 
BRANCH  14  15
HETATM   15  C   UNL     1      -9.008   5.897  68.930  1.00  0.00    -0.118 C  
BRANCH  15  16
HETATM   16  C   UNL     1      -9.397   5.141  67.653  1.00  0.00    -0.122 C  
HETATM   17  C   UNL     1      -9.282   6.801  65.830  1.00  0.00     0.040 C  
HETATM   18  O   UNL     1     -10.092   6.001  66.717  1.00  0.00    -0.160 OA 
HETATM   19  H   UNL     1      -5.897   5.414  67.285  1.00  0.00     0.000 HD 
HETATM   20  C   UNL     1      -8.374   5.811  65.064  1.00  0.00    -0.138 C  
HETATM   21  H   UNL     1      -8.073   2.561  66.189  1.00  0.00     0.000 HD 
HETATM   22  O   UNL     1      -9.172   4.838  64.344  1.00  0.00    -0.265 OA 
HETATM   23  C   UNL     1      -7.436   5.059  66.022  1.00  0.00    -0.082 C  
HETATM   24  H   UNL     1      -8.613   4.231  63.873  1.00  0.00     0.000 HD 
HETATM   25  O   UNL     1      -8.786   3.080  66.543  1.00  0.00    -0.118 OA 
HETATM   26  O   UNL     1      -6.477   5.879  66.693  1.00  0.00    -0.043 OA 
HETATM   27  C   UNL     1      -8.241   4.299  67.080  1.00  0.00    -0.101 C  
BRANCH  17  28
HETATM   28  O   UNL     1      -8.629   7.864  66.541  1.00  0.00    -0.129 OA 
BRANCH  28  29
HETATM   29  C   UNL     1      -9.186   9.139  66.440  1.00  0.00    -0.183 C  
HETATM   30  O   UNL     1      -9.668  11.331  67.412  1.00  0.00    -0.172 OA 
HETATM   31  C   UNL     1      -9.374   9.968  67.496  1.00  0.00    -0.144 C  
HETATM   32  C   UNL     1      -9.934  11.876  66.182  1.00  0.00    -0.228 A  
HETATM   33  O   UNL     1      -8.636   9.320  64.173  1.00  0.00    -0.184 OA 
HETATM   34  H   UNL     1     -10.313   9.867  62.791  1.00  0.00     0.000 HD 
HETATM   35  C   UNL     1     -10.213  13.237  66.074  1.00  0.00    -0.291 A  
HETATM   36  C   UNL     1      -9.257   9.794  65.117  1.00  0.00    -0.240 C  
HETATM   37  C   UNL     1     -10.558  13.770  64.826  1.00  0.00    -0.428 A  
HETATM   38  C   UNL     1      -9.929  11.083  65.017  1.00  0.00    -0.340 A  
HETATM   39  O   UNL     1     -10.532  10.789  62.727  1.00  0.00     0.042 OA 
HETATM   40  C   UNL     1     -10.695  12.957  63.706  1.00  0.00    -0.320 A  
HETATM   41  O   UNL     1     -10.775  15.105  64.642  1.00  0.00    -0.589 OA 
HETATM   42  H   UNL     1     -11.009  15.466  63.795  1.00  0.00     0.000 HD 
HETATM   43  C   UNL     1     -10.375  11.611  63.799  1.00  0.00    -0.398 A  
BRANCH  31  44
HETATM   44  C   UNL     1      -9.158   9.457  68.858  1.00  0.00    -0.140 A  
HETATM   45  O   UNL     1      -8.544   8.711  72.894  1.00  0.00    -0.398 OA 
HETATM   46  H   UNL     1      -6.305   8.521  72.135  1.00  0.00     0.000 HD 
HETATM   47  C   UNL     1     -10.247   9.413  69.750  1.00  0.00    -0.238 A  
HETATM   48  H   UNL     1      -9.280   8.711  73.494  1.00  0.00     0.000 HD 
HETATM   49  O   UNL     1      -6.433   8.694  71.210  1.00  0.00    -0.050 OA 
HETATM   50  C   UNL     1      -8.755   8.907  71.557  1.00  0.00    -0.162 A  
HETATM   51  C   UNL     1      -7.677   8.906  70.676  1.00  0.00    -0.107 A  
HETATM   52  C   UNL     1      -7.866   9.159  69.320  1.00  0.00    -0.095 A  
HETATM   53  C   UNL     1     -10.045   9.140  71.105  1.00  0.00    -0.384 A  
ENDBRANCH  31  44
ENDBRANCH  28  29
ENDBRANCH  17  28
ENDBRANCH  15  16
ENDBRANCH  14  15
ENDBRANCH   4  14
TORSDOF 6
ENDMDL
MODEL       74
REMARK 921   NORMALIZED FREE ENERGY PREDICTED BY IDOCK:   -6.58 KCAL/MOL
REMARK 922        TOTAL FREE ENERGY PREDICTED BY IDOCK:  -10.36 KCAL/MOL
REMARK 923 INTER-LIGAND FREE ENERGY PREDICTED BY IDOCK:   -8.82 KCAL/MOL
REMARK 924 INTRA-LIGAND FREE ENERGY PREDICTED BY IDOCK:   -1.54 KCAL/MOL
REMARK 927      BINDING AFFINITY PREDICTED BY RF-SCORE:    0.00 PKD
ROOT
HETATM    1  C   UNL     1     -12.287  13.945  65.399  1.00  0.00    -0.494 C  
HETATM    2  C   UNL     1     -11.427  13.873  66.665  1.00  0.00    -0.355 C  
HETATM    3  O   UNL     1     -12.141  12.983  67.524  1.00  0.00    -0.333 OA 
HETATM    4  C   UNL     1     -11.901  12.984  68.923  1.00  0.00    -0.316 C  
HETATM    5  H   UNL     1      -9.708  16.905  68.696  1.00  0.00     0.000 HD 
HETATM    6  C   UNL     1     -11.643  14.378  69.515  1.00  0.00    -0.304 C  
HETATM    7  C   UNL     1     -10.622  15.143  68.660  1.00  0.00    -0.234 C  
HETATM    8  O   UNL     1     -10.293  16.009  66.366  1.00  0.00    -0.286 OA 
HETATM    9  O   UNL     1     -12.871  15.128  69.578  1.00  0.00    -0.534 OA 
HETATM   10  H   UNL     1     -12.712  15.991  69.944  1.00  0.00     0.000 HD 
HETATM   11  H   UNL     1     -10.140  16.878  66.717  1.00  0.00     0.000 HD 
HETATM   12  O   UNL     1     -10.339  16.432  69.224  1.00  0.00    -0.255 OA 
HETATM   13  C   UNL     1     -11.178  15.283  67.235  1.00  0.00    -0.306 C  
ENDROOT
BRANCH   4  14
HETATM   14  O   UNL     1     -10.882  12.086  69.370  1.00  0.00    -0.140 OA 
BRANCH  14  15
HETATM   15  C   UNL     1     -10.614  11.024  68.437  1.00  0.00    -0.193 C  
BRANCH  15  16
HETATM   16  C   UNL     1      -9.105  10.977  68.168  1.00  0.00    -0.155 C  
HETATM   17  C   UNL     1      -8.483   8.590  68.246  1.00  0.00    -0.135 C  
HETATM   18  O   UNL     1      -8.471   9.886  68.880  1.00  0.00    -0.114 OA 
HETATM   19  H   UNL     1     -10.418   9.896  65.075  1.00  0.00     0.000 HD 
HETATM   20  C   UNL     1      -7.815   8.778  66.864  1.00  0.00    -0.101 C  
HETATM   21  H   UNL     1      -7.338  11.967  65.629  1.00  0.00     0.000 HD 
HETATM   22  O   UNL     1      -6.470   9.299  67.014  1.00  0.00    -0.065 OA 
HETATM   23  C   UNL     1      -8.617   9.751  65.984  1.00  0.00    -0.135 C  
HETATM   24  H   UNL     1      -6.059   9.414  66.165  1.00  0.00     0.000 HD 
HETATM   25  O   UNL     1      -7.552  11.885  66.550  1.00  0.00    -0.022 OA 
HETATM   26  O   UNL     1      -9.922   9.295  65.619  1.00  0.00    -0.277 OA 
HETATM   27  C   UNL     1      -8.759  11.111  66.673  1.00  0.00    -0.166 C  
BRANCH  17  28
HETATM   28  O   UNL     1      -9.801   8.019  68.255  1.00  0.00    -0.161 OA 
BRANCH  28  29
HETATM   29  C   UNL     1     -10.017   6.921  69.089  1.00  0.00    -0.162 C  
HETATM   30  O   UNL     1      -9.730   4.545  69.591  1.00  0.00    -0.186 OA 
HETATM   31  C   UNL     1      -9.790   5.636  68.721  1.00  0.00    -0.146 C  
HETATM   32  C   UNL     1     -10.064   4.730  70.908  1.00  0.00    -0.205 A  
HETATM   33  O   UNL     1      -9.859   8.222  71.027  1.00  0.00    -0.178 OA 
HETATM   34  H   UNL     1     -11.558   8.045  72.477  1.00  0.00     0.000 HD 
HETATM   35  C   UNL     1      -9.995   3.657  71.796  1.00  0.00    -0.210 A  
HETATM   36  C   UNL     1     -10.154   7.135  70.545  1.00  0.00    -0.195 C  
HETATM   37  C   UNL     1     -10.410   3.837  73.121  1.00  0.00    -0.165 A  
HETATM   38  C   UNL     1     -10.475   5.990  71.386  1.00  0.00    -0.282 A  
HETATM   39  O   UNL     1     -11.538   7.304  73.071  1.00  0.00    -0.188 OA 
HETATM   40  C   UNL     1     -10.954   5.043  73.552  1.00  0.00    -0.393 A  
HETATM   41  O   UNL     1     -10.304   2.848  74.055  1.00  0.00    -0.130 OA 
HETATM   42  H   UNL     1     -10.585   2.970  74.954  1.00  0.00     0.000 HD 
HETATM   43  C   UNL     1     -10.982   6.124  72.685  1.00  0.00    -0.256 A  
BRANCH  31  44
HETATM   44  C   UNL     1      -9.471   5.336  67.318  1.00  0.00    -0.134 A  
HETATM   45  O   UNL     1      -8.717   3.805  63.535  1.00  0.00    -0.094 OA 
HETATM   46  H   UNL     1      -6.488   3.933  64.336  1.00  0.00     0.000 HD 
HETATM   47  C   UNL     1     -10.526   5.124  66.409  1.00  0.00    -0.356 A  
HETATM   48  H   UNL     1      -9.436   3.638  62.938  1.00  0.00     0.000 HD 
HETATM   49  O   UNL     1      -6.649   4.280  65.205  1.00  0.00    -0.045 OA 
HETATM   50  C   UNL     1      -8.963   4.356  64.761  1.00  0.00    -0.149 A  
HETATM   51  C   UNL     1      -7.908   4.603  65.637  1.00  0.00    -0.094 A  
HETATM   52  C   UNL     1      -8.146   5.112  66.911  1.00  0.00    -0.108 A  
HETATM   53  C   UNL     1     -10.272   4.629  65.128  1.00  0.00    -0.066 A  
ENDBRANCH  31  44
ENDBRANCH  28  29
ENDBRANCH  17  28
ENDBRANCH  15  16
ENDBRANCH  14  15
ENDBRANCH   4  14
TORSDOF 6
ENDMDL
MODEL       75
REMARK 921   NORMALIZED FREE ENERGY PREDICTED BY IDOCK:   -6.56 KCAL/MOL
REMARK 922        TOTAL FREE ENERGY PREDICTED BY IDOCK:  -10.33 KCAL/MOL
REMARK 923 INTER-LIGAND FREE ENERGY PREDICTED BY IDOCK:  -10.52 KCAL/MOL
REMARK 924 INTRA-LIGAND FREE ENERGY PREDICTED BY IDOCK:    0.18 KCAL/MOL
REMARK 927      BINDING AFFINITY PREDICTED BY RF-SCORE:    0.00 PKD
ROOT
HETATM    1  C   UNL     1     -10.484   4.969  71.042  1.00  0.00    -0.211 C  
HETATM    2  C   UNL     1      -9.417   4.710  69.974  1.00  0.00    -0.172 C  
HETATM    3  O   UNL     1     -10.134   4.770  68.741  1.00  0.00    -0.142 OA 
HETATM    4  C   UNL     1      -9.600   4.176  67.567  1.00  0.00    -0.171 C  
HETATM    5  H   UNL     1      -6.552   1.870  69.940  1.00  0.00     0.000 HD 
HETATM    6  C   UNL     1      -8.858   2.854  67.814  1.00  0.00    -0.135 C  
HETATM    7  C   UNL     1      -7.885   2.997  68.994  1.00  0.00    -0.049 C  
HETATM    8  O   UNL     1      -7.853   3.518  71.412  1.00  0.00    -0.057 OA 
HETATM    9  O   UNL     1      -9.798   1.798  68.095  1.00  0.00    -0.333 OA 
HETATM   10  H   UNL     1      -9.339   0.981  68.249  1.00  0.00     0.000 HD 
HETATM   11  H   UNL     1      -7.401   2.699  71.581  1.00  0.00     0.000 HD 
HETATM   12  O   UNL     1      -7.153   1.782  69.211  1.00  0.00    -0.036 OA 
HETATM   13  C   UNL     1      -8.684   3.383  70.248  1.00  0.00    -0.068 C  
ENDROOT
BRANCH   4  14
HETATM   14  O   UNL     1      -8.783   5.032  66.765  1.00  0.00    -0.109 OA 
BRANCH  14  15
HETATM   15  C   UNL     1      -8.929   6.425  67.093  1.00  0.00    -0.109 C  
BRANCH  15  16
HETATM   16  C   UNL     1      -7.534   7.058  67.175  1.00  0.00    -0.095 C  
HETATM   17  C   UNL     1      -7.909   9.438  67.711  1.00  0.00    -0.095 C  
HETATM   18  O   UNL     1      -7.550   8.438  66.734  1.00  0.00    -0.088 OA 
HETATM   19  H   UNL     1      -8.402   6.795  70.587  1.00  0.00     0.000 HD 
HETATM   20  C   UNL     1      -6.918   9.271  68.886  1.00  0.00    -0.064 C  
HETATM   21  H   UNL     1      -4.986   6.416  69.083  1.00  0.00     0.000 HD 
HETATM   22  O   UNL     1      -5.551   9.424  68.426  1.00  0.00    -0.037 OA 
HETATM   23  C   UNL     1      -7.059   7.887  69.541  1.00  0.00    -0.059 C  
HETATM   24  H   UNL     1      -4.942   9.320  69.148  1.00  0.00     0.000 HD 
HETATM   25  O   UNL     1      -5.422   6.589  68.258  1.00  0.00    -0.010 OA 
HETATM   26  O   UNL     1      -8.315   7.649  70.181  1.00  0.00    -0.126 OA 
HETATM   27  C   UNL     1      -6.826   6.776  68.514  1.00  0.00    -0.074 C  
BRANCH  17  28
HETATM   28  O   UNL     1      -9.308   9.375  68.029  1.00  0.00    -0.130 OA 
BRANCH  28  29
HETATM   29  C   UNL     1     -10.151  10.287  67.394  1.00  0.00    -0.202 C  
HETATM   30  O   UNL     1     -11.825  12.067  67.503  1.00  0.00    -0.526 OA 
HETATM   31  C   UNL     1     -11.145  10.963  68.022  1.00  0.00    -0.293 C  
HETATM   32  C   UNL     1     -11.594  12.435  66.202  1.00  0.00    -0.396 A  
HETATM   33  O   UNL     1      -8.620  10.667  65.667  1.00  0.00    -0.173 OA 
HETATM   34  H   UNL     1      -9.404  10.431  63.582  1.00  0.00     0.000 HD 
HETATM   35  C   UNL     1     -12.249  13.544  65.670  1.00  0.00    -0.500 A  
HETATM   36  C   UNL     1      -9.761  10.837  66.079  1.00  0.00    -0.217 C  
HETATM   37  C   UNL     1     -12.065  13.867  64.320  1.00  0.00    -0.440 A  
HETATM   38  C   UNL     1     -10.699  11.712  65.388  1.00  0.00    -0.341 A  
HETATM   39  O   UNL     1      -9.876  11.169  63.215  1.00  0.00    -0.310 OA 
HETATM   40  C   UNL     1     -11.298  13.065  63.482  1.00  0.00    -0.319 A  
HETATM   41  O   UNL     1     -12.624  14.978  63.757  1.00  0.00    -0.997 OA 
HETATM   42  H   UNL     1     -12.499  15.197  62.841  1.00  0.00     0.000 HD 
HETATM   43  C   UNL     1     -10.608  11.988  64.018  1.00  0.00    -0.377 A  
BRANCH  31  44
HETATM   44  C   UNL     1     -11.495  10.606  69.405  1.00  0.00    -0.356 A  
HETATM   45  O   UNL     1     -13.081   9.318  73.016  1.00  0.00    -0.592 OA 
HETATM   46  H   UNL     1     -13.734  11.596  73.114  1.00  0.00     0.000 HD 
HETATM   47  C   UNL     1     -11.314   9.275  69.831  1.00  0.00    -0.083 A  
HETATM   48  H   UNL     1     -12.980   8.412  73.284  1.00  0.00     0.000 HD 
HETATM   49  O   UNL     1     -13.378  11.901  72.288  1.00  0.00    -0.471 OA 
HETATM   50  C   UNL     1     -12.515   9.751  71.850  1.00  0.00    -0.366 A  
HETATM   51  C   UNL     1     -12.662  11.080  71.458  1.00  0.00    -0.415 A  
HETATM   52  C   UNL     1     -12.140  11.525  70.246  1.00  0.00    -0.444 A  
HETATM   53  C   UNL     1     -11.828   8.846  71.056  1.00  0.00    -0.324 A  
ENDBRANCH  31  44
ENDBRANCH  28  29
ENDBRANCH  17  28
ENDBRANCH  15  16
ENDBRANCH  14  15
ENDBRANCH   4  14
TORSDOF 6
ENDMDL
MODEL       76
REMARK 921   NORMALIZED FREE ENERGY PREDICTED BY IDOCK:   -6.55 KCAL/MOL
REMARK 922        TOTAL FREE ENERGY PREDICTED BY IDOCK:  -10.33 KCAL/MOL
REMARK 923 INTER-LIGAND FREE ENERGY PREDICTED BY IDOCK:   -7.89 KCAL/MOL
REMARK 924 INTRA-LIGAND FREE ENERGY PREDICTED BY IDOCK:   -2.44 KCAL/MOL
REMARK 927      BINDING AFFINITY PREDICTED BY RF-SCORE:    0.00 PKD
ROOT
HETATM    1  C   UNL     1      -7.091   5.236  64.987  1.00  0.00    -0.062 C  
HETATM    2  C   UNL     1      -8.160   4.825  66.004  1.00  0.00    -0.107 C  
HETATM    3  O   UNL     1      -7.714   5.400  67.232  1.00  0.00    -0.094 OA 
HETATM    4  C   UNL     1      -8.193   4.906  68.475  1.00  0.00    -0.084 C  
HETATM    5  H   UNL     1      -9.844   1.198  66.535  1.00  0.00     0.000 HD 
HETATM    6  C   UNL     1      -8.386   3.382  68.512  1.00  0.00    -0.077 C  
HETATM    7  C   UNL     1      -9.147   2.908  67.265  1.00  0.00    -0.174 C  
HETATM    8  O   UNL     1      -8.970   2.869  64.798  1.00  0.00    -0.117 OA 
HETATM    9  O   UNL     1      -7.109   2.718  68.574  1.00  0.00    -0.047 OA 
HETATM   10  H   UNL     1      -7.229   1.776  68.596  1.00  0.00     0.000 HD 
HETATM   11  H   UNL     1      -9.080   1.926  64.806  1.00  0.00     0.000 HD 
HETATM   12  O   UNL     1      -9.373   1.491  67.305  1.00  0.00    -0.098 OA 
HETATM   13  C   UNL     1      -8.340   3.295  66.017  1.00  0.00    -0.100 C  
ENDROOT
BRANCH   4  14
HETATM   14  O   UNL     1      -9.370   5.543  68.974  1.00  0.00    -0.116 OA 
BRANCH  14  15
HETATM   15  C   UNL     1      -9.108   6.813  69.597  1.00  0.00    -0.143 C  
BRANCH  15  16
HETATM   16  C   UNL     1      -9.349   6.678  71.106  1.00  0.00    -0.163 C  
HETATM   17  C   UNL     1     -10.681   8.654  71.750  1.00  0.00    -0.321 C  
HETATM   18  O   UNL     1      -9.408   7.974  71.752  1.00  0.00    -0.145 OA 
HETATM   19  H   UNL     1     -12.494   5.758  69.792  1.00  0.00     0.000 HD 
HETATM   20  C   UNL     1     -11.690   7.686  72.412  1.00  0.00    -0.317 C  
HETATM   21  H   UNL     1     -10.825   4.373  72.854  1.00  0.00     0.000 HD 
HETATM   22  O   UNL     1     -11.260   7.340  73.753  1.00  0.00    -0.529 OA 
HETATM   23  C   UNL     1     -11.837   6.391  71.597  1.00  0.00    -0.306 C  
HETATM   24  H   UNL     1     -11.880   6.745  74.159  1.00  0.00     0.000 HD 
HETATM   25  O   UNL     1     -10.126   4.981  72.644  1.00  0.00    -0.170 OA 
HETATM   26  O   UNL     1     -12.403   6.559  70.296  1.00  0.00    -0.178 OA 
HETATM   27  C   UNL     1     -10.483   5.692  71.446  1.00  0.00    -0.239 C  
BRANCH  17  28
HETATM   28  O   UNL     1     -11.011   9.135  70.438  1.00  0.00    -0.231 OA 
BRANCH  28  29
HETATM   29  C   UNL     1     -11.091  10.517  70.263  1.00  0.00    -0.285 C  
HETATM   30  O   UNL     1     -10.538  12.535  68.996  1.00  0.00    -0.165 OA 
HETATM   31  C   UNL     1     -10.314  11.216  69.399  1.00  0.00    -0.057 C  
HETATM   32  C   UNL     1     -11.531  13.255  69.611  1.00  0.00    -0.198 A  
HETATM   33  O   UNL     1     -13.279  10.606  71.087  1.00  0.00    -0.345 OA 
HETATM   34  H   UNL     1     -13.655  12.074  72.737  1.00  0.00     0.000 HD 
HETATM   35  C   UNL     1     -11.782  14.567  69.212  1.00  0.00    -0.350 A  
HETATM   36  C   UNL     1     -12.287  11.239  70.747  1.00  0.00    -0.398 C  
HETATM   37  C   UNL     1     -12.745  15.319  69.895  1.00  0.00    -0.095 A  
HETATM   38  C   UNL     1     -12.308  12.692  70.642  1.00  0.00    -0.375 A  
HETATM   39  O   UNL     1     -13.802  12.977  72.482  1.00  0.00    -0.625 OA 
HETATM   40  C   UNL     1     -13.406  14.809  71.008  1.00  0.00    -0.427 A  
HETATM   41  O   UNL     1     -13.085  16.584  69.511  1.00  0.00     0.379 OA 
HETATM   42  H   UNL     1     -13.738  17.094  69.975  1.00  0.00     0.000 HD 
HETATM   43  C   UNL     1     -13.192  13.490  71.379  1.00  0.00    -0.271 A  
BRANCH  31  44
HETATM   44  C   UNL     1      -9.196  10.538  68.728  1.00  0.00    -0.177 A  
HETATM   45  O   UNL     1      -6.375   8.014  67.026  1.00  0.00    -0.053 OA 
HETATM   46  H   UNL     1      -5.262   8.497  69.065  1.00  0.00     0.000 HD 
HETATM   47  C   UNL     1      -9.396  10.010  67.437  1.00  0.00    -0.167 A  
HETATM   48  H   UNL     1      -6.530   7.639  66.168  1.00  0.00     0.000 HD 
HETATM   49  O   UNL     1      -5.902   9.073  69.465  1.00  0.00    -0.033 OA 
HETATM   50  C   UNL     1      -7.283   8.885  67.563  1.00  0.00    -0.080 A  
HETATM   51  C   UNL     1      -7.056   9.436  68.822  1.00  0.00    -0.069 A  
HETATM   52  C   UNL     1      -7.995  10.281  69.408  1.00  0.00    -0.162 A  
HETATM   53  C   UNL     1      -8.438   9.178  66.854  1.00  0.00    -0.124 A  
ENDBRANCH  31  44
ENDBRANCH  28  29
ENDBRANCH  17  28
ENDBRANCH  15  16
ENDBRANCH  14  15
ENDBRANCH   4  14
TORSDOF 6
ENDMDL
MODEL       77
REMARK 921   NORMALIZED FREE ENERGY PREDICTED BY IDOCK:   -6.42 KCAL/MOL
REMARK 922        TOTAL FREE ENERGY PREDICTED BY IDOCK:  -10.15 KCAL/MOL
REMARK 923 INTER-LIGAND FREE ENERGY PREDICTED BY IDOCK:   -9.58 KCAL/MOL
REMARK 924 INTRA-LIGAND FREE ENERGY PREDICTED BY IDOCK:   -0.57 KCAL/MOL
REMARK 927      BINDING AFFINITY PREDICTED BY RF-SCORE:    0.00 PKD
ROOT
HETATM    1  C   UNL     1      -7.535   7.187  72.057  1.00  0.00    -0.085 C  
HETATM    2  C   UNL     1      -7.705   7.943  70.735  1.00  0.00    -0.083 C  
HETATM    3  O   UNL     1      -7.927   6.914  69.770  1.00  0.00    -0.119 OA 
HETATM    4  C   UNL     1      -7.712   7.163  68.388  1.00  0.00    -0.120 C  
HETATM    5  H   UNL     1      -5.457  10.955  69.270  1.00  0.00     0.000 HD 
HETATM    6  C   UNL     1      -6.508   8.071  68.094  1.00  0.00    -0.055 C  
HETATM    7  C   UNL     1      -6.536   9.310  69.001  1.00  0.00    -0.047 C  
HETATM    8  O   UNL     1      -6.489   9.949  71.391  1.00  0.00    -0.316 OA 
HETATM    9  O   UNL     1      -5.277   7.352  68.304  1.00  0.00    -0.022 OA 
HETATM   10  H   UNL     1      -4.533   7.914  68.123  1.00  0.00     0.000 HD 
HETATM   11  H   UNL     1      -5.740  10.509  71.225  1.00  0.00     0.000 HD 
HETATM   12  O   UNL     1      -5.440  10.189  68.709  1.00  0.00    -0.039 OA 
HETATM   13  C   UNL     1      -6.489   8.850  70.466  1.00  0.00    -0.046 C  
ENDROOT
BRANCH   4  14
HETATM   14  O   UNL     1      -8.851   7.642  67.669  1.00  0.00    -0.125 OA 
BRANCH  14  15
HETATM   15  C   UNL     1      -8.990   9.073  67.713  1.00  0.00    -0.127 C  
BRANCH  15  16
HETATM   16  C   UNL     1      -9.933   9.509  66.585  1.00  0.00    -0.247 C  
HETATM   17  C   UNL     1     -11.623  10.960  67.648  1.00  0.00    -0.085 C  
HETATM   18  O   UNL     1     -11.290   9.683  67.064  1.00  0.00     0.198 OA 
HETATM   19  H   UNL     1      -8.014  12.429  67.082  1.00  0.00     0.000 HD 
HETATM   20  C   UNL     1     -11.301  12.024  66.573  1.00  0.00    -0.354 C  
HETATM   21  H   UNL     1      -9.390  11.148  63.835  1.00  0.00     0.000 HD 
HETATM   22  O   UNL     1     -12.052  11.768  65.360  1.00  0.00    -0.296 OA 
HETATM   23  C   UNL     1      -9.803  12.032  66.227  1.00  0.00    -0.231 C  
HETATM   24  H   UNL     1     -11.854  12.422  64.700  1.00  0.00     0.000 HD 
HETATM   25  O   UNL     1      -9.745  10.442  64.361  1.00  0.00    -0.290 OA 
HETATM   26  O   UNL     1      -8.940  12.424  67.296  1.00  0.00    -0.175 OA 
HETATM   27  C   UNL     1      -9.357  10.654  65.731  1.00  0.00    -0.186 C  
BRANCH  17  28
HETATM   28  O   UNL     1     -10.997  11.125  68.931  1.00  0.00    -0.194 OA 
BRANCH  28  29
HETATM   29  C   UNL     1     -11.666  11.905  69.874  1.00  0.00    -0.308 C  
HETATM   30  O   UNL     1     -12.717  12.150  72.069  1.00  0.00    -0.185 OA 
HETATM   31  C   UNL     1     -12.280  11.401  70.973  1.00  0.00    -0.285 C  
HETATM   32  C   UNL     1     -12.666  13.519  71.998  1.00  0.00    -0.166 A  
HETATM   33  O   UNL     1     -10.480  13.832  69.283  1.00  0.00    -0.096 OA 
HETATM   34  H   UNL     1     -11.711  15.639  68.793  1.00  0.00     0.000 HD 
HETATM   35  C   UNL     1     -13.082  14.284  73.087  1.00  0.00    -0.411 A  
HETATM   36  C   UNL     1     -11.418  13.361  69.914  1.00  0.00    -0.111 C  
HETATM   37  C   UNL     1     -13.098  15.679  72.977  1.00  0.00    -0.536 A  
HETATM   38  C   UNL     1     -12.196  14.172  70.841  1.00  0.00    -0.434 A  
HETATM   39  O   UNL     1     -12.024  16.156  69.526  1.00  0.00    -0.242 OA 
HETATM   40  C   UNL     1     -12.774  16.316  71.784  1.00  0.00     0.136 A  
HETATM   41  O   UNL     1     -13.429  16.485  74.028  1.00  0.00    -0.834 OA 
HETATM   42  H   UNL     1     -13.440  17.432  73.954  1.00  0.00     0.000 HD 
HETATM   43  C   UNL     1     -12.317  15.561  70.714  1.00  0.00    -0.414 A  
BRANCH  31  44
HETATM   44  C   UNL     1     -12.422   9.945  71.113  1.00  0.00    -0.464 A  
HETATM   45  O   UNL     1     -12.942   5.976  72.207  1.00  0.00    -0.342 OA 
HETATM   46  H   UNL     1     -10.571   6.052  72.198  1.00  0.00     0.000 HD 
HETATM   47  C   UNL     1     -13.715   9.393  71.208  1.00  0.00    -0.248 A  
HETATM   48  H   UNL     1     -13.817   5.618  72.296  1.00  0.00     0.000 HD 
HETATM   49  O   UNL     1     -10.440   6.960  71.951  1.00  0.00    -0.201 OA 
HETATM   50  C   UNL     1     -12.772   7.269  71.798  1.00  0.00    -0.335 A  
HETATM   51  C   UNL     1     -11.489   7.794  71.666  1.00  0.00    -0.261 A  
HETATM   52  C   UNL     1     -11.299   9.125  71.304  1.00  0.00    -0.406 A  
HETATM   53  C   UNL     1     -13.891   8.052  71.554  1.00  0.00    -0.394 A  
ENDBRANCH  31  44
ENDBRANCH  28  29
ENDBRANCH  17  28
ENDBRANCH  15  16
ENDBRANCH  14  15
ENDBRANCH   4  14
TORSDOF 6
ENDMDL
MODEL       78
REMARK 921   NORMALIZED FREE ENERGY PREDICTED BY IDOCK:   -6.37 KCAL/MOL
REMARK 922        TOTAL FREE ENERGY PREDICTED BY IDOCK:  -10.09 KCAL/MOL
REMARK 923 INTER-LIGAND FREE ENERGY PREDICTED BY IDOCK:   -9.16 KCAL/MOL
REMARK 924 INTRA-LIGAND FREE ENERGY PREDICTED BY IDOCK:   -0.93 KCAL/MOL
REMARK 927      BINDING AFFINITY PREDICTED BY RF-SCORE:    0.00 PKD
ROOT
HETATM    1  C   UNL     1      -5.137  15.588  68.486  1.00  0.00    -0.096 C  
HETATM    2  C   UNL     1      -6.075  14.471  68.955  1.00  0.00    -0.086 C  
HETATM    3  O   UNL     1      -5.546  13.291  68.348  1.00  0.00    -0.072 OA 
HETATM    4  C   UNL     1      -6.355  12.135  68.193  1.00  0.00    -0.055 C  
HETATM    5  H   UNL     1     -10.108  14.466  69.044  1.00  0.00     0.000 HD 
HETATM    6  C   UNL     1      -7.819  12.437  67.839  1.00  0.00    -0.145 C  
HETATM    7  C   UNL     1      -8.381  13.528  68.763  1.00  0.00     0.067 C  
HETATM    8  O   UNL     1      -8.005  15.886  69.409  1.00  0.00    -0.232 OA 
HETATM    9  O   UNL     1      -7.923  12.871  66.469  1.00  0.00    -0.344 OA 
HETATM   10  H   UNL     1      -8.828  13.058  66.251  1.00  0.00     0.000 HD 
HETATM   11  H   UNL     1      -8.906  16.089  69.187  1.00  0.00     0.000 HD 
HETATM   12  O   UNL     1      -9.761  13.791  68.473  1.00  0.00    -0.225 OA 
HETATM   13  C   UNL     1      -7.536  14.800  68.594  1.00  0.00    -0.126 C  
ENDROOT
BRANCH   4  14
HETATM   14  O   UNL     1      -6.314  11.209  69.281  1.00  0.00    -0.060 OA 
BRANCH  14  15
HETATM   15  C   UNL     1      -7.152  10.058  69.079  1.00  0.00    -0.069 C  
BRANCH  15  16
HETATM   16  C   UNL     1      -8.120   9.942  70.263  1.00  0.00    -0.085 C  
HETATM   17  C   UNL     1     -10.272   9.210  69.300  1.00  0.00    -0.210 C  
HETATM   18  O   UNL     1      -9.477  10.269  69.874  1.00  0.00    -0.169 OA 
HETATM   19  H   UNL     1      -7.382   6.553  69.607  1.00  0.00     0.000 HD 
HETATM   20  C   UNL     1     -10.281   8.065  70.340  1.00  0.00    -0.201 C  
HETATM   21  H   UNL     1      -8.025   8.125  72.953  1.00  0.00     0.000 HD 
HETATM   22  O   UNL     1     -10.821   8.527  71.604  1.00  0.00    -0.245 OA 
HETATM   23  C   UNL     1      -8.864   7.522  70.584  1.00  0.00    -0.146 C  
HETATM   24  H   UNL     1     -10.826   7.823  72.242  1.00  0.00     0.000 HD 
HETATM   25  O   UNL     1      -8.140   8.928  72.459  1.00  0.00    -0.381 OA 
HETATM   26  O   UNL     1      -8.258   6.888  69.456  1.00  0.00    -0.127 OA 
HETATM   27  C   UNL     1      -7.933   8.639  71.064  1.00  0.00    -0.132 C  
BRANCH  17  28
HETATM   28  O   UNL     1      -9.821   8.880  67.977  1.00  0.00    -0.156 OA 
BRANCH  28  29
HETATM   29  C   UNL     1     -10.050   9.818  66.970  1.00  0.00    -0.218 C  
HETATM   30  O   UNL     1      -9.954  10.475  64.616  1.00  0.00    -0.308 OA 
HETATM   31  C   UNL     1      -9.540   9.722  65.718  1.00  0.00    -0.254 C  
HETATM   32  C   UNL     1     -10.844  11.500  64.813  1.00  0.00    -0.297 A  
HETATM   33  O   UNL     1     -12.006  10.598  67.989  1.00  0.00    -0.457 OA 
HETATM   34  H   UNL     1     -12.133  12.810  68.320  1.00  0.00     0.000 HD 
HETATM   35  C   UNL     1     -11.283  12.253  63.725  1.00  0.00    -0.510 A  
HETATM   36  C   UNL     1     -11.167  10.775  67.114  1.00  0.00    -0.147 C  
HETATM   37  C   UNL     1     -12.132  13.344  63.944  1.00  0.00    -0.455 A  
HETATM   38  C   UNL     1     -11.330  11.807  66.099  1.00  0.00    -0.342 A  
HETATM   39  O   UNL     1     -12.406  13.339  67.580  1.00  0.00    -0.225 OA 
HETATM   40  C   UNL     1     -12.492  13.734  65.230  1.00  0.00    -0.512 A  
HETATM   41  O   UNL     1     -12.651  14.078  62.917  1.00  0.00    -0.958 OA 
HETATM   42  H   UNL     1     -13.227  14.818  63.066  1.00  0.00     0.000 HD 
HETATM   43  C   UNL     1     -12.095  12.961  66.310  1.00  0.00    -0.365 A  
BRANCH  31  44
HETATM   44  C   UNL     1      -8.542   8.682  65.425  1.00  0.00    -0.206 A  
HETATM   45  O   UNL     1      -6.126   5.618  64.013  1.00  0.00    -0.024 OA 
HETATM   46  H   UNL     1      -7.390   4.393  65.603  1.00  0.00     0.000 HD 
HETATM   47  C   UNL     1      -7.550   8.942  64.459  1.00  0.00    -0.109 A  
HETATM   48  H   UNL     1      -5.479   5.795  63.340  1.00  0.00     0.000 HD 
HETATM   49  O   UNL     1      -7.951   5.086  65.931  1.00  0.00    -0.104 OA 
HETATM   50  C   UNL     1      -6.887   6.639  64.512  1.00  0.00    -0.046 A  
HETATM   51  C   UNL     1      -7.835   6.381  65.498  1.00  0.00    -0.103 A  
HETATM   52  C   UNL     1      -8.657   7.397  65.979  1.00  0.00    -0.162 A  
HETATM   53  C   UNL     1      -6.722   7.916  63.998  1.00  0.00    -0.062 A  
ENDBRANCH  31  44
ENDBRANCH  28  29
ENDBRANCH  17  28
ENDBRANCH  15  16
ENDBRANCH  14  15
ENDBRANCH   4  14
TORSDOF 6
ENDMDL
MODEL       79
REMARK 921   NORMALIZED FREE ENERGY PREDICTED BY IDOCK:   -6.32 KCAL/MOL
REMARK 922        TOTAL FREE ENERGY PREDICTED BY IDOCK:  -10.02 KCAL/MOL
REMARK 923 INTER-LIGAND FREE ENERGY PREDICTED BY IDOCK:   -8.57 KCAL/MOL
REMARK 924 INTRA-LIGAND FREE ENERGY PREDICTED BY IDOCK:   -1.45 KCAL/MOL
REMARK 927      BINDING AFFINITY PREDICTED BY RF-SCORE:    0.00 PKD
ROOT
HETATM    1  C   UNL     1      -8.777   4.052  68.399  1.00  0.00    -0.126 C  
HETATM    2  C   UNL     1      -8.474   4.205  69.893  1.00  0.00    -0.060 C  
HETATM    3  O   UNL     1      -8.123   5.581  70.039  1.00  0.00    -0.087 OA 
HETATM    4  C   UNL     1      -7.380   6.020  71.168  1.00  0.00    -0.084 C  
HETATM    5  H   UNL     1      -6.251   1.802  72.251  1.00  0.00     0.000 HD 
HETATM    6  C   UNL     1      -6.301   5.030  71.632  1.00  0.00    -0.030 C  
HETATM    7  C   UNL     1      -6.879   3.610  71.722  1.00  0.00    -0.026 C  
HETATM    8  O   UNL     1      -7.935   1.868  70.319  1.00  0.00    -0.042 OA 
HETATM    9  O   UNL     1      -5.190   5.037  70.715  1.00  0.00    -0.004 OA 
HETATM   10  H   UNL     1      -4.523   4.424  71.002  1.00  0.00     0.000 HD 
HETATM   11  H   UNL     1      -7.270   1.246  70.592  1.00  0.00     0.000 HD 
HETATM   12  O   UNL     1      -5.894   2.680  72.196  1.00  0.00    -0.008 OA 
HETATM   13  C   UNL     1      -7.394   3.198  70.335  1.00  0.00    -0.040 C  
ENDROOT
BRANCH   4  14
HETATM   14  O   UNL     1      -8.161   6.429  72.292  1.00  0.00    -0.108 OA 
BRANCH  14  15
HETATM   15  C   UNL     1      -9.131   7.442  71.972  1.00  0.00    -0.128 C  
BRANCH  15  16
HETATM   16  C   UNL     1     -10.459   7.083  72.651  1.00  0.00    -0.226 C  
HETATM   17  C   UNL     1     -12.194   8.362  71.450  1.00  0.00    -0.302 C  
HETATM   18  O   UNL     1     -11.384   8.198  72.633  1.00  0.00    -0.380 OA 
HETATM   19  H   UNL     1     -10.653   5.209  69.666  1.00  0.00     0.000 HD 
HETATM   20  C   UNL     1     -12.964   7.034  71.265  1.00  0.00    -0.297 C  
HETATM   21  H   UNL     1     -11.980   4.240  73.039  1.00  0.00     0.000 HD 
HETATM   22  O   UNL     1     -13.765   6.740  72.437  1.00  0.00    -0.444 OA 
HETATM   23  C   UNL     1     -12.000   5.860  71.027  1.00  0.00     0.477 C  
HETATM   24  H   UNL     1     -14.237   5.924  72.323  1.00  0.00     0.000 HD 
HETATM   25  O   UNL     1     -11.635   5.079  73.322  1.00  0.00    -0.322 OA 
HETATM   26  O   UNL     1     -11.248   5.934  69.814  1.00  0.00    -0.389 OA 
HETATM   27  C   UNL     1     -11.018   5.722  72.193  1.00  0.00    -0.257 C  
BRANCH  17  28
HETATM   28  O   UNL     1     -11.405   8.815  70.338  1.00  0.00    -0.256 OA 
BRANCH  28  29
HETATM   29  C   UNL     1     -11.329  10.191  70.125  1.00  0.00    -0.303 C  
HETATM   30  O   UNL     1     -10.680  12.093  68.730  1.00  0.00    -0.227 OA 
HETATM   31  C   UNL     1     -10.579  10.765  69.152  1.00  0.00    -0.222 C  
HETATM   32  C   UNL     1     -11.492  12.949  69.431  1.00  0.00    -0.260 A  
HETATM   33  O   UNL     1     -13.372  10.582  71.194  1.00  0.00    -0.317 OA 
HETATM   34  H   UNL     1     -13.357  12.119  72.824  1.00  0.00     0.000 HD 
HETATM   35  C   UNL     1     -11.620  14.274  69.017  1.00  0.00    -0.342 A  
HETATM   36  C   UNL     1     -12.356  11.073  70.719  1.00  0.00    -0.398 C  
HETATM   37  C   UNL     1     -12.390  15.159  69.781  1.00  0.00    -0.242 A  
HETATM   38  C   UNL     1     -12.205  12.514  70.565  1.00  0.00    -0.382 A  
HETATM   39  O   UNL     1     -13.417  13.029  72.555  1.00  0.00    -0.554 OA 
HETATM   40  C   UNL     1     -12.972  14.763  70.980  1.00  0.00    -0.423 A  
HETATM   41  O   UNL     1     -12.610  16.449  69.393  1.00  0.00    -0.272 OA 
HETATM   42  H   UNL     1     -13.132  17.050  69.912  1.00  0.00     0.000 HD 
HETATM   43  C   UNL     1     -12.884  13.435  71.371  1.00  0.00    -0.333 A  
BRANCH  31  44
HETATM   44  C   UNL     1      -9.645   9.933  68.379  1.00  0.00    -0.157 A  
HETATM   45  O   UNL     1      -7.312   7.029  66.550  1.00  0.00    -0.079 OA 
HETATM   46  H   UNL     1      -5.781   7.743  68.215  1.00  0.00     0.000 HD 
HETATM   47  C   UNL     1     -10.127   9.232  67.256  1.00  0.00    -0.291 A  
HETATM   48  H   UNL     1      -7.654   6.541  65.811  1.00  0.00     0.000 HD 
HETATM   49  O   UNL     1      -6.308   8.407  68.643  1.00  0.00    -0.051 OA 
HETATM   50  C   UNL     1      -8.063   8.019  67.119  1.00  0.00    -0.117 A  
HETATM   51  C   UNL     1      -7.562   8.736  68.203  1.00  0.00    -0.097 A  
HETATM   52  C   UNL     1      -8.335   9.710  68.830  1.00  0.00    -0.116 A  
HETATM   53  C   UNL     1      -9.335   8.270  66.625  1.00  0.00    -0.246 A  
ENDBRANCH  31  44
ENDBRANCH  28  29
ENDBRANCH  17  28
ENDBRANCH  15  16
ENDBRANCH  14  15
ENDBRANCH   4  14
TORSDOF 6
ENDMDL
MODEL       80
REMARK 921   NORMALIZED FREE ENERGY PREDICTED BY IDOCK:   -6.32 KCAL/MOL
REMARK 922        TOTAL FREE ENERGY PREDICTED BY IDOCK:  -10.02 KCAL/MOL
REMARK 923 INTER-LIGAND FREE ENERGY PREDICTED BY IDOCK:  -10.21 KCAL/MOL
REMARK 924 INTRA-LIGAND FREE ENERGY PREDICTED BY IDOCK:    0.19 KCAL/MOL
REMARK 927      BINDING AFFINITY PREDICTED BY RF-SCORE:    0.00 PKD
ROOT
HETATM    1  C   UNL     1     -12.493   8.758  72.531  1.00  0.00    -0.368 C  
HETATM    2  C   UNL     1     -11.272   9.170  71.703  1.00  0.00    -0.377 C  
HETATM    3  O   UNL     1     -11.754   9.196  70.359  1.00  0.00    -0.213 OA 
HETATM    4  C   UNL     1     -10.849   9.120  69.267  1.00  0.00    -0.132 C  
HETATM    5  H   UNL     1      -7.497   7.768  71.946  1.00  0.00     0.000 HD 
HETATM    6  C   UNL     1      -9.658   8.179  69.503  1.00  0.00    -0.168 C  
HETATM    7  C   UNL     1      -9.028   8.446  70.878  1.00  0.00    -0.160 C  
HETATM    8  O   UNL     1      -9.581   8.422  73.289  1.00  0.00    -0.187 OA 
HETATM    9  O   UNL     1     -10.086   6.804  69.433  1.00  0.00    -0.164 OA 
HETATM   10  H   UNL     1      -9.350   6.222  69.580  1.00  0.00     0.000 HD 
HETATM   11  H   UNL     1      -8.853   7.834  73.449  1.00  0.00     0.000 HD 
HETATM   12  O   UNL     1      -7.887   7.603  71.096  1.00  0.00    -0.087 OA 
HETATM   13  C   UNL     1     -10.091   8.215  71.963  1.00  0.00    -0.237 C  
ENDROOT
BRANCH   4  14
HETATM   14  O   UNL     1     -10.369  10.375  68.782  1.00  0.00    -0.176 OA 
BRANCH  14  15
HETATM   15  C   UNL     1      -9.091  10.745  69.330  1.00  0.00    -0.037 C  
BRANCH  15  16
HETATM   16  C   UNL     1      -8.060  10.775  68.195  1.00  0.00    -0.117 C  
HETATM   17  C   UNL     1      -7.875  13.142  67.520  1.00  0.00    -0.172 C  
HETATM   18  O   UNL     1      -8.361  11.814  67.231  1.00  0.00    -0.147 OA 
HETATM   19  H   UNL     1      -6.182  12.042  70.901  1.00  0.00     0.000 HD 
HETATM   20  C   UNL     1      -6.344  13.012  67.698  1.00  0.00    -0.161 C  
HETATM   21  H   UNL     1      -4.939   9.883  68.096  1.00  0.00     0.000 HD 
HETATM   22  O   UNL     1      -5.736  12.457  66.504  1.00  0.00    -0.449 OA 
HETATM   23  C   UNL     1      -5.996  12.103  68.888  1.00  0.00    -0.064 C  
HETATM   24  H   UNL     1      -4.796  12.378  66.613  1.00  0.00     0.000 HD 
HETATM   25  O   UNL     1      -5.835   9.921  67.783  1.00  0.00    -0.040 OA 
HETATM   26  O   UNL     1      -6.398  12.604  70.165  1.00  0.00    -0.081 OA 
HETATM   27  C   UNL     1      -6.607  10.713  68.703  1.00  0.00    -0.056 C  
BRANCH  17  28
HETATM   28  O   UNL     1      -8.604  13.738  68.604  1.00  0.00    -0.148 OA 
BRANCH  28  29
HETATM   29  C   UNL     1      -9.098  15.028  68.410  1.00  0.00    -0.184 C  
HETATM   30  O   UNL     1     -10.479  16.908  69.146  1.00  0.00    -0.311 OA 
HETATM   31  C   UNL     1     -10.132  15.555  69.111  1.00  0.00    -0.239 C  
HETATM   32  C   UNL     1      -9.834  17.778  68.304  1.00  0.00    -0.340 A  
HETATM   33  O   UNL     1      -7.095  15.770  67.456  1.00  0.00    -0.150 OA 
HETATM   34  H   UNL     1      -7.265  16.778  65.462  1.00  0.00     0.000 HD 
HETATM   35  C   UNL     1     -10.154  19.135  68.335  1.00  0.00    -0.498 A  
HETATM   36  C   UNL     1      -8.274  16.016  67.682  1.00  0.00    -0.148 C  
HETATM   37  C   UNL     1      -9.545  20.003  67.421  1.00  0.00    -0.394 A  
HETATM   38  C   UNL     1      -8.846  17.327  67.406  1.00  0.00    -0.222 A  
HETATM   39  O   UNL     1      -7.508  17.697  65.465  1.00  0.00    -0.432 OA 
HETATM   40  C   UNL     1      -8.681  19.530  66.438  1.00  0.00    -0.389 A  
HETATM   41  O   UNL     1      -9.764  21.350  67.443  1.00  0.00    -0.476 OA 
HETATM   42  H   UNL     1      -9.350  21.939  66.823  1.00  0.00     0.000 HD 
HETATM   43  C   UNL     1      -8.326  18.190  66.434  1.00  0.00    -0.245 A  
BRANCH  31  44
HETATM   44  C   UNL     1     -10.912  14.686  70.004  1.00  0.00    -0.149 A  
HETATM   45  O   UNL     1     -13.689  12.504  72.182  1.00  0.00    -0.435 OA 
HETATM   46  H   UNL     1     -13.303  14.262  73.727  1.00  0.00     0.000 HD 
HETATM   47  C   UNL     1     -11.425  13.475  69.499  1.00  0.00    -0.318 A  
HETATM   48  H   UNL     1     -14.052  11.703  71.823  1.00  0.00     0.000 HD 
HETATM   49  O   UNL     1     -12.669  14.771  73.236  1.00  0.00    -0.472 OA 
HETATM   50  C   UNL     1     -12.738  13.194  71.485  1.00  0.00    -0.269 A  
HETATM   51  C   UNL     1     -12.205  14.368  72.012  1.00  0.00    -0.193 A  
HETATM   52  C   UNL     1     -11.276  15.114  71.291  1.00  0.00    -0.326 A  
HETATM   53  C   UNL     1     -12.343  12.728  70.240  1.00  0.00    -0.277 A  
ENDBRANCH  31  44
ENDBRANCH  28  29
ENDBRANCH  17  28
ENDBRANCH  15  16
ENDBRANCH  14  15
ENDBRANCH   4  14
TORSDOF 6
ENDMDL
MODEL       81
REMARK 921   NORMALIZED FREE ENERGY PREDICTED BY IDOCK:   -6.31 KCAL/MOL
REMARK 922        TOTAL FREE ENERGY PREDICTED BY IDOCK:  -10.00 KCAL/MOL
REMARK 923 INTER-LIGAND FREE ENERGY PREDICTED BY IDOCK:   -8.73 KCAL/MOL
REMARK 924 INTRA-LIGAND FREE ENERGY PREDICTED BY IDOCK:   -1.28 KCAL/MOL
REMARK 927      BINDING AFFINITY PREDICTED BY RF-SCORE:    0.00 PKD
ROOT
HETATM    1  C   UNL     1     -12.226  11.588  69.722  1.00  0.00    -0.310 C  
HETATM    2  C   UNL     1     -11.990  10.551  70.825  1.00  0.00    -0.370 C  
HETATM    3  O   UNL     1     -11.606   9.370  70.119  1.00  0.00    -0.199 OA 
HETATM    4  C   UNL     1     -11.710   8.096  70.737  1.00  0.00    -0.201 C  
HETATM    5  H   UNL     1     -14.306   9.735  74.025  1.00  0.00     0.000 HD 
HETATM    6  C   UNL     1     -12.945   7.933  71.637  1.00  0.00    -0.334 C  
HETATM    7  C   UNL     1     -13.091   9.143  72.571  1.00  0.00    -0.377 C  
HETATM    8  O   UNL     1     -13.403  11.597  72.511  1.00  0.00    -0.542 OA 
HETATM    9  O   UNL     1     -14.134   7.803  70.834  1.00  0.00    -0.642 OA 
HETATM   10  H   UNL     1     -14.898   7.703  71.391  1.00  0.00     0.000 HD 
HETATM   11  H   UNL     1     -14.173  11.511  73.061  1.00  0.00     0.000 HD 
HETATM   12  O   UNL     1     -14.216   8.987  73.448  1.00  0.00    -0.147 OA 
HETATM   13  C   UNL     1     -13.239  10.412  71.717  1.00  0.00    -0.424 C  
ENDROOT
BRANCH   4  14
HETATM   14  O   UNL     1     -10.548   7.664  71.447  1.00  0.00    -0.213 OA 
BRANCH  14  15
HETATM   15  C   UNL     1      -9.512   7.158  70.587  1.00  0.00    -0.161 C  
BRANCH  15  16
HETATM   16  C   UNL     1      -9.974   5.820  69.996  1.00  0.00    -0.191 C  
HETATM   17  C   UNL     1      -9.252   5.845  67.636  1.00  0.00    -0.104 C  
HETATM   18  O   UNL     1     -10.324   5.951  68.596  1.00  0.00    -0.174 OA 
HETATM   19  H   UNL     1      -6.512   5.265  70.404  1.00  0.00     0.000 HD 
HETATM   20  C   UNL     1      -8.579   4.475  67.888  1.00  0.00    -0.102 C  
HETATM   21  H   UNL     1      -9.271   2.753  70.799  1.00  0.00     0.000 HD 
HETATM   22  O   UNL     1      -9.542   3.400  67.749  1.00  0.00    -0.200 OA 
HETATM   23  C   UNL     1      -7.970   4.404  69.298  1.00  0.00    -0.061 C  
HETATM   24  H   UNL     1      -9.129   2.559  67.904  1.00  0.00     0.000 HD 
HETATM   25  O   UNL     1      -9.846   3.475  70.574  1.00  0.00    -0.162 OA 
HETATM   26  O   UNL     1      -6.889   5.309  69.533  1.00  0.00    -0.050 OA 
HETATM   27  C   UNL     1      -9.042   4.650  70.362  1.00  0.00    -0.113 C  
BRANCH  17  28
HETATM   28  O   UNL     1      -8.402   7.002  67.678  1.00  0.00    -0.116 OA 
BRANCH  28  29
HETATM   29  C   UNL     1      -8.564   7.952  66.669  1.00  0.00    -0.135 C  
HETATM   30  O   UNL     1      -8.714   8.530  64.297  1.00  0.00    -0.052 OA 
HETATM   31  C   UNL     1      -8.314   7.714  65.358  1.00  0.00    -0.128 C  
HETATM   32  C   UNL     1      -9.282   9.747  64.577  1.00  0.00    -0.253 A  
HETATM   33  O   UNL     1     -10.068   9.210  67.945  1.00  0.00    -0.177 OA 
HETATM   34  H   UNL     1      -9.595  11.388  68.166  1.00  0.00     0.000 HD 
HETATM   35  C   UNL     1      -9.703  10.569  63.533  1.00  0.00    -0.374 A  
HETATM   36  C   UNL     1      -9.373   9.159  66.937  1.00  0.00    -0.156 C  
HETATM   37  C   UNL     1     -10.212  11.840  63.825  1.00  0.00    -0.399 A  
HETATM   38  C   UNL     1      -9.451  10.185  65.905  1.00  0.00    -0.249 A  
HETATM   39  O   UNL     1      -9.853  11.958  67.451  1.00  0.00    -0.182 OA 
HETATM   40  C   UNL     1     -10.240  12.327  65.127  1.00  0.00    -0.305 A  
HETATM   41  O   UNL     1     -10.704  12.665  62.854  1.00  0.00    -0.430 OA 
HETATM   42  H   UNL     1     -11.049  13.528  63.053  1.00  0.00     0.000 HD 
HETATM   43  C   UNL     1      -9.865  11.496  66.171  1.00  0.00    -0.221 A  
BRANCH  31  44
HETATM   44  C   UNL     1      -7.664   6.454  64.968  1.00  0.00    -0.098 A  
HETATM   45  O   UNL     1      -5.654   3.250  63.261  1.00  0.00    -0.008 OA 
HETATM   46  H   UNL     1      -7.876   2.633  62.706  1.00  0.00     0.000 HD 
HETATM   47  C   UNL     1      -6.264   6.345  65.083  1.00  0.00    -0.031 A  
HETATM   48  H   UNL     1      -4.707   3.197  63.318  1.00  0.00     0.000 HD 
HETATM   49  O   UNL     1      -8.346   3.364  63.090  1.00  0.00    -0.086 OA 
HETATM   50  C   UNL     1      -6.317   4.280  63.867  1.00  0.00    -0.030 A  
HETATM   51  C   UNL     1      -7.706   4.356  63.784  1.00  0.00    -0.075 A  
HETATM   52  C   UNL     1      -8.394   5.428  64.348  1.00  0.00    -0.129 A  
HETATM   53  C   UNL     1      -5.588   5.256  64.529  1.00  0.00    -0.017 A  
ENDBRANCH  31  44
ENDBRANCH  28  29
ENDBRANCH  17  28
ENDBRANCH  15  16
ENDBRANCH  14  15
ENDBRANCH   4  14
TORSDOF 6
ENDMDL
MODEL       82
REMARK 921   NORMALIZED FREE ENERGY PREDICTED BY IDOCK:   -6.31 KCAL/MOL
REMARK 922        TOTAL FREE ENERGY PREDICTED BY IDOCK:  -10.00 KCAL/MOL
REMARK 923 INTER-LIGAND FREE ENERGY PREDICTED BY IDOCK:   -9.59 KCAL/MOL
REMARK 924 INTRA-LIGAND FREE ENERGY PREDICTED BY IDOCK:   -0.41 KCAL/MOL
REMARK 927      BINDING AFFINITY PREDICTED BY RF-SCORE:    0.00 PKD
ROOT
HETATM    1  C   UNL     1      -6.524  18.572  65.109  1.00  0.00    -0.151 C  
HETATM    2  C   UNL     1      -7.599  18.191  66.130  1.00  0.00    -0.243 C  
HETATM    3  O   UNL     1      -8.042  16.901  65.707  1.00  0.00    -0.410 OA 
HETATM    4  C   UNL     1      -9.301  16.396  66.129  1.00  0.00    -0.325 C  
HETATM    5  H   UNL     1     -10.622  20.457  67.545  1.00  0.00     0.000 HD 
HETATM    6  C   UNL     1     -10.407  17.459  66.214  1.00  0.00    -0.330 C  
HETATM    7  C   UNL     1      -9.900  18.703  66.959  1.00  0.00    -0.327 C  
HETATM    8  O   UNL     1      -8.163  20.459  66.818  1.00  0.00    -0.441 OA 
HETATM    9  O   UNL     1     -10.839  17.837  64.893  1.00  0.00    -0.815 OA 
HETATM   10  H   UNL     1     -11.522  18.495  64.945  1.00  0.00     0.000 HD 
HETATM   11  H   UNL     1      -8.837  21.127  66.862  1.00  0.00     0.000 HD 
HETATM   12  O   UNL     1     -10.935  19.688  67.084  1.00  0.00    -0.467 OA 
HETATM   13  C   UNL     1      -8.692  19.274  66.201  1.00  0.00    -0.247 C  
ENDROOT
BRANCH   4  14
HETATM   14  O   UNL     1      -9.280  15.639  67.341  1.00  0.00    -0.195 OA 
BRANCH  14  15
HETATM   15  C   UNL     1     -10.125  14.475  67.298  1.00  0.00    -0.247 C  
BRANCH  15  16
HETATM   16  C   UNL     1     -11.488  14.835  67.903  1.00  0.00    -0.342 C  
HETATM   17  C   UNL     1     -12.127  12.908  69.306  1.00  0.00    -0.182 C  
HETATM   18  O   UNL     1     -12.314  13.659  68.088  1.00  0.00    -0.233 OA 
HETATM   19  H   UNL     1      -9.331  15.330  70.653  1.00  0.00     0.000 HD 
HETATM   20  C   UNL     1     -12.356  13.903  70.467  1.00  0.00    -0.369 C  
HETATM   21  H   UNL     1     -12.416  17.292  69.812  1.00  0.00     0.000 HD 
HETATM   22  O   UNL     1     -13.681  14.487  70.385  1.00  0.00    -0.358 OA 
HETATM   23  C   UNL     1     -11.320  15.039  70.440  1.00  0.00    -0.270 C  
HETATM   24  H   UNL     1     -13.821  15.099  71.098  1.00  0.00     0.000 HD 
HETATM   25  O   UNL     1     -12.485  16.704  69.069  1.00  0.00     0.640 OA 
HETATM   26  O   UNL     1      -9.971  14.628  70.669  1.00  0.00     0.699 OA 
HETATM   27  C   UNL     1     -11.375  15.789  69.107  1.00  0.00    -0.349 C  
BRANCH  17  28
HETATM   28  O   UNL     1     -10.877  12.201  69.295  1.00  0.00    -0.169 OA 
BRANCH  28  29
HETATM   29  C   UNL     1     -10.899  10.854  69.655  1.00  0.00    -0.216 C  
HETATM   30  O   UNL     1      -9.739   8.730  70.013  1.00  0.00    -0.167 OA 
HETATM   31  C   UNL     1      -9.872   9.996  69.437  1.00  0.00    -0.224 C  
HETATM   32  C   UNL     1     -10.781   8.227  70.749  1.00  0.00    -0.218 A  
HETATM   33  O   UNL     1     -12.554  11.199  71.271  1.00  0.00    -0.387 OA 
HETATM   34  H   UNL     1     -14.359   9.878  71.135  1.00  0.00     0.000 HD 
HETATM   35  C   UNL     1     -10.662   6.973  71.347  1.00  0.00    -0.241 A  
HETATM   36  C   UNL     1     -11.905  10.382  70.629  1.00  0.00    -0.350 C  
HETATM   37  C   UNL     1     -11.757   6.434  72.033  1.00  0.00    -0.329 A  
HETATM   38  C   UNL     1     -11.974   8.956  70.918  1.00  0.00    -0.254 A  
HETATM   39  O   UNL     1     -14.285   9.011  71.515  1.00  0.00    -0.312 OA 
HETATM   40  C   UNL     1     -12.982   7.093  72.072  1.00  0.00    -0.187 A  
HETATM   41  O   UNL     1     -11.684   5.243  72.696  1.00  0.00    -0.231 OA 
HETATM   42  H   UNL     1     -12.427   4.878  73.162  1.00  0.00     0.000 HD 
HETATM   43  C   UNL     1     -13.090   8.359  71.518  1.00  0.00    -0.296 A  
BRANCH  31  44
HETATM   44  C   UNL     1      -8.731  10.434  68.618  1.00  0.00    -0.138 A  
HETATM   45  O   UNL     1      -5.843  12.311  66.305  1.00  0.00    -0.356 OA 
HETATM   46  H   UNL     1      -7.071  11.248  64.576  1.00  0.00     0.000 HD 
HETATM   47  C   UNL     1      -7.703  11.180  69.226  1.00  0.00    -0.027 A  
HETATM   48  H   UNL     1      -5.169  12.837  66.720  1.00  0.00     0.000 HD 
HETATM   49  O   UNL     1      -7.739  10.817  65.096  1.00  0.00    -0.048 OA 
HETATM   50  C   UNL     1      -6.763  11.653  67.072  1.00  0.00    -0.145 A  
HETATM   51  C   UNL     1      -7.751  10.882  66.464  1.00  0.00    -0.149 A  
HETATM   52  C   UNL     1      -8.730  10.250  67.227  1.00  0.00    -0.125 A  
HETATM   53  C   UNL     1      -6.717  11.795  68.451  1.00  0.00    -0.065 A  
ENDBRANCH  31  44
ENDBRANCH  28  29
ENDBRANCH  17  28
ENDBRANCH  15  16
ENDBRANCH  14  15
ENDBRANCH   4  14
TORSDOF 6
ENDMDL
MODEL       83
REMARK 921   NORMALIZED FREE ENERGY PREDICTED BY IDOCK:   -6.29 KCAL/MOL
REMARK 922        TOTAL FREE ENERGY PREDICTED BY IDOCK:   -9.98 KCAL/MOL
REMARK 923 INTER-LIGAND FREE ENERGY PREDICTED BY IDOCK:   -9.67 KCAL/MOL
REMARK 924 INTRA-LIGAND FREE ENERGY PREDICTED BY IDOCK:   -0.31 KCAL/MOL
REMARK 927      BINDING AFFINITY PREDICTED BY RF-SCORE:    0.00 PKD
ROOT
HETATM    1  C   UNL     1      -9.241   9.155  70.973  1.00  0.00    -0.321 C  
HETATM    2  C   UNL     1     -10.601   9.372  70.302  1.00  0.00    -0.250 C  
HETATM    3  O   UNL     1     -10.599  10.754  69.945  1.00  0.00    -0.205 OA 
HETATM    4  C   UNL     1     -11.819  11.435  69.689  1.00  0.00    -0.362 C  
HETATM    5  H   UNL     1     -14.230   8.119  71.541  1.00  0.00     0.000 HD 
HETATM    6  C   UNL     1     -12.978  11.010  70.603  1.00  0.00    -0.131 C  
HETATM    7  C   UNL     1     -13.069   9.479  70.678  1.00  0.00     0.125 C  
HETATM    8  O   UNL     1     -11.748   7.502  71.361  1.00  0.00    -0.267 OA 
HETATM    9  O   UNL     1     -12.790  11.543  71.929  1.00  0.00    -0.384 OA 
HETATM   10  H   UNL     1     -13.506  11.280  72.494  1.00  0.00     0.000 HD 
HETATM   11  H   UNL     1     -12.453   7.230  71.937  1.00  0.00     0.000 HD 
HETATM   12  O   UNL     1     -14.174   9.065  71.495  1.00  0.00    -0.312 OA 
HETATM   13  C   UNL     1     -11.745   8.932  71.235  1.00  0.00    -0.306 C  
ENDROOT
BRANCH   4  14
HETATM   14  O   UNL     1     -12.258  11.413  68.329  1.00  0.00    -0.588 OA 
BRANCH  14  15
HETATM   15  C   UNL     1     -11.303  11.981  67.415  1.00  0.00    -0.327 C  
BRANCH  15  16
HETATM   16  C   UNL     1     -11.883  13.282  66.846  1.00  0.00    -0.392 C  
HETATM   17  C   UNL     1      -9.939  14.715  66.336  1.00  0.00    -0.283 C  
HETATM   18  O   UNL     1     -11.064  14.426  67.193  1.00  0.00    -0.296 OA 
HETATM   19  H   UNL     1     -10.692  11.692  63.928  1.00  0.00     0.000 HD 
HETATM   20  C   UNL     1     -10.515  14.890  64.912  1.00  0.00    -0.359 C  
HETATM   21  H   UNL     1     -13.741  13.855  64.245  1.00  0.00     0.000 HD 
HETATM   22  O   UNL     1     -11.505  15.949  64.888  1.00  0.00    -0.266 OA 
HETATM   23  C   UNL     1     -11.176  13.594  64.414  1.00  0.00    -0.367 C  
HETATM   24  H   UNL     1     -11.859  16.057  64.013  1.00  0.00     0.000 HD 
HETATM   25  O   UNL     1     -13.488  13.931  65.157  1.00  0.00    -0.515 OA 
HETATM   26  O   UNL     1     -10.283  12.493  64.236  1.00  0.00    -0.342 OA 
HETATM   27  C   UNL     1     -12.293  13.158  65.366  1.00  0.00    -0.481 C  
BRANCH  17  28
HETATM   28  O   UNL     1      -8.897  13.740  66.499  1.00  0.00    -0.129 OA 
BRANCH  28  29
HETATM   29  C   UNL     1      -8.070  13.867  67.614  1.00  0.00    -0.177 C  
HETATM   30  O   UNL     1      -7.161  15.211  69.445  1.00  0.00    -0.158 OA 
HETATM   31  C   UNL     1      -7.750  15.054  68.188  1.00  0.00    -0.113 C  
HETATM   32  C   UNL     1      -6.728  14.097  70.117  1.00  0.00     0.038 A  
HETATM   33  O   UNL     1      -8.466  11.665  68.296  1.00  0.00    -0.149 OA 
HETATM   34  H   UNL     1      -6.652  10.408  68.680  1.00  0.00     0.000 HD 
HETATM   35  C   UNL     1      -6.152  14.231  71.379  1.00  0.00     0.003 A  
HETATM   36  C   UNL     1      -7.798  12.680  68.452  1.00  0.00    -0.136 C  
HETATM   37  C   UNL     1      -5.644  13.097  72.025  1.00  0.00     0.275 A  
HETATM   38  C   UNL     1      -6.856  12.811  69.555  1.00  0.00     0.104 A  
HETATM   39  O   UNL     1      -6.233  10.507  69.527  1.00  0.00    -0.044 OA 
HETATM   40  C   UNL     1      -5.640  11.852  71.404  1.00  0.00     0.228 A  
HETATM   41  O   UNL     1      -5.131  13.151  73.288  1.00  0.00    -0.360 OA 
HETATM   42  H   UNL     1      -4.787  12.381  73.726  1.00  0.00     0.000 HD 
HETATM   43  C   UNL     1      -6.252  11.707  70.169  1.00  0.00    -0.121 A  
BRANCH  31  44
HETATM   44  C   UNL     1      -8.133  16.303  67.515  1.00  0.00    -0.165 A  
HETATM   45  O   UNL     1      -8.656  20.120  65.971  1.00  0.00    -0.539 OA 
HETATM   46  H   UNL     1     -10.282  20.190  67.697  1.00  0.00     0.000 HD 
HETATM   47  C   UNL     1      -7.391  16.730  66.396  1.00  0.00    -0.261 A  
HETATM   48  H   UNL     1      -8.132  20.410  65.235  1.00  0.00     0.000 HD 
HETATM   49  O   UNL     1     -10.168  19.320  68.060  1.00  0.00    -0.367 OA 
HETATM   50  C   UNL     1      -8.517  18.845  66.446  1.00  0.00    -0.293 A  
HETATM   51  C   UNL     1      -9.286  18.418  67.526  1.00  0.00    -0.265 A  
HETATM   52  C   UNL     1      -9.119  17.142  68.058  1.00  0.00    -0.240 A  
HETATM   53  C   UNL     1      -7.581  18.006  65.861  1.00  0.00    -0.171 A  
ENDBRANCH  31  44
ENDBRANCH  28  29
ENDBRANCH  17  28
ENDBRANCH  15  16
ENDBRANCH  14  15
ENDBRANCH   4  14
TORSDOF 6
ENDMDL
MODEL       84
REMARK 921   NORMALIZED FREE ENERGY PREDICTED BY IDOCK:   -6.29 KCAL/MOL
REMARK 922        TOTAL FREE ENERGY PREDICTED BY IDOCK:   -9.97 KCAL/MOL
REMARK 923 INTER-LIGAND FREE ENERGY PREDICTED BY IDOCK:   -8.48 KCAL/MOL
REMARK 924 INTRA-LIGAND FREE ENERGY PREDICTED BY IDOCK:   -1.49 KCAL/MOL
REMARK 927      BINDING AFFINITY PREDICTED BY RF-SCORE:    0.00 PKD
ROOT
HETATM    1  C   UNL     1      -6.773   2.632  71.041  1.00  0.00    -0.031 C  
HETATM    2  C   UNL     1      -7.702   3.850  71.045  1.00  0.00    -0.048 C  
HETATM    3  O   UNL     1      -6.827   4.959  70.840  1.00  0.00    -0.037 OA 
HETATM    4  C   UNL     1      -7.232   6.273  71.196  1.00  0.00    -0.079 C  
HETATM    5  H   UNL     1     -10.682   4.711  73.625  1.00  0.00     0.000 HD 
HETATM    6  C   UNL     1      -8.068   6.345  72.483  1.00  0.00    -0.102 C  
HETATM    7  C   UNL     1      -9.179   5.284  72.461  1.00  0.00    -0.136 C  
HETATM    8  O   UNL     1      -9.502   2.835  72.336  1.00  0.00    -0.097 OA 
HETATM    9  O   UNL     1      -7.229   6.134  73.636  1.00  0.00    -0.084 OA 
HETATM   10  H   UNL     1      -7.746   6.178  74.432  1.00  0.00     0.000 HD 
HETATM   11  H   UNL     1     -10.015   2.863  73.135  1.00  0.00     0.000 HD 
HETATM   12  O   UNL     1      -9.995   5.367  73.638  1.00  0.00    -0.160 OA 
HETATM   13  C   UNL     1      -8.533   3.895  72.342  1.00  0.00    -0.098 C  
ENDROOT
BRANCH   4  14
HETATM   14  O   UNL     1      -7.890   7.011  70.164  1.00  0.00    -0.105 OA 
BRANCH  14  15
HETATM   15  C   UNL     1      -7.074   7.202  68.995  1.00  0.00    -0.084 C  
BRANCH  15  16
HETATM   16  C   UNL     1      -7.517   6.203  67.919  1.00  0.00    -0.085 C  
HETATM   17  C   UNL     1      -9.199   7.388  66.556  1.00  0.00    -0.165 C  
HETATM   18  O   UNL     1      -8.908   6.392  67.559  1.00  0.00    -0.113 OA 
HETATM   19  H   UNL     1      -5.413   8.354  66.075  1.00  0.00     0.000 HD 
HETATM   20  C   UNL     1      -8.378   6.996  65.305  1.00  0.00    -0.096 C  
HETATM   21  H   UNL     1      -5.853   4.659  65.597  1.00  0.00     0.000 HD 
HETATM   22  O   UNL     1      -8.727   5.660  64.863  1.00  0.00    -0.264 OA 
HETATM   23  C   UNL     1      -6.868   7.035  65.596  1.00  0.00    -0.052 C  
HETATM   24  H   UNL     1      -8.222   5.420  64.095  1.00  0.00     0.000 HD 
HETATM   25  O   UNL     1      -6.470   4.725  66.316  1.00  0.00    -0.039 OA 
HETATM   26  O   UNL     1      -6.346   8.331  65.896  1.00  0.00    -0.051 OA 
HETATM   27  C   UNL     1      -6.517   6.096  66.752  1.00  0.00    -0.046 C  
BRANCH  17  28
HETATM   28  O   UNL     1      -9.005   8.715  67.069  1.00  0.00    -0.128 OA 
BRANCH  28  29
HETATM   29  C   UNL     1      -9.910   9.697  66.666  1.00  0.00    -0.224 C  
HETATM   30  O   UNL     1     -11.582  11.397  67.209  1.00  0.00    -0.523 OA 
HETATM   31  C   UNL     1     -10.849  10.240  67.480  1.00  0.00    -0.298 C  
HETATM   32  C   UNL     1     -11.473  11.975  65.969  1.00  0.00    -0.338 A  
HETATM   33  O   UNL     1      -8.544  10.386  64.897  1.00  0.00    -0.172 OA 
HETATM   34  H   UNL     1      -9.510  10.470  62.877  1.00  0.00     0.000 HD 
HETATM   35  C   UNL     1     -12.183  13.140  65.684  1.00  0.00    -0.521 A  
HETATM   36  C   UNL     1      -9.645  10.460  65.429  1.00  0.00    -0.246 C  
HETATM   37  C   UNL     1     -12.124  13.679  64.394  1.00  0.00    -0.427 A  
HETATM   38  C   UNL     1     -10.649  11.413  64.974  1.00  0.00    -0.359 A  
HETATM   39  O   UNL     1     -10.020  11.246  62.678  1.00  0.00    -0.194 OA 
HETATM   40  C   UNL     1     -11.428  13.041  63.373  1.00  0.00    -0.304 A  
HETATM   41  O   UNL     1     -12.742  14.853  64.069  1.00  0.00    -0.792 OA 
HETATM   42  H   UNL     1     -12.701  15.219  63.194  1.00  0.00     0.000 HD 
HETATM   43  C   UNL     1     -10.684  11.908  63.664  1.00  0.00    -0.442 A  
BRANCH  31  44
HETATM   44  C   UNL     1     -11.069   9.657  68.812  1.00  0.00    -0.093 A  
HETATM   45  O   UNL     1     -10.975   8.061  72.642  1.00  0.00    -0.334 OA 
HETATM   46  H   UNL     1     -11.090   6.043  71.400  1.00  0.00     0.000 HD 
HETATM   47  C   UNL     1     -11.048  10.503  69.938  1.00  0.00    -0.371 A  
HETATM   48  H   UNL     1     -10.932   8.637  73.395  1.00  0.00     0.000 HD 
HETATM   49  O   UNL     1     -11.108   6.398  70.519  1.00  0.00    -0.278 OA 
HETATM   50  C   UNL     1     -11.057   8.590  71.383  1.00  0.00    -0.265 A  
HETATM   51  C   UNL     1     -11.121   7.746  70.277  1.00  0.00    -0.234 A  
HETATM   52  C   UNL     1     -11.148   8.266  68.986  1.00  0.00     0.225 A  
HETATM   53  C   UNL     1     -11.038   9.968  71.228  1.00  0.00    -0.185 A  
ENDBRANCH  31  44
ENDBRANCH  28  29
ENDBRANCH  17  28
ENDBRANCH  15  16
ENDBRANCH  14  15
ENDBRANCH   4  14
TORSDOF 6
ENDMDL
MODEL       85
REMARK 921   NORMALIZED FREE ENERGY PREDICTED BY IDOCK:   -6.19 KCAL/MOL
REMARK 922        TOTAL FREE ENERGY PREDICTED BY IDOCK:   -9.84 KCAL/MOL
REMARK 923 INTER-LIGAND FREE ENERGY PREDICTED BY IDOCK:   -9.23 KCAL/MOL
REMARK 924 INTRA-LIGAND FREE ENERGY PREDICTED BY IDOCK:   -0.61 KCAL/MOL
REMARK 927      BINDING AFFINITY PREDICTED BY RF-SCORE:    0.00 PKD
ROOT
HETATM    1  C   UNL     1     -11.021   5.202  73.473  1.00  0.00    -0.370 C  
HETATM    2  C   UNL     1      -9.761   4.821  72.689  1.00  0.00    -0.141 C  
HETATM    3  O   UNL     1     -10.199   4.762  71.331  1.00  0.00    -0.199 OA 
HETATM    4  C   UNL     1      -9.450   4.044  70.362  1.00  0.00    -0.182 C  
HETATM    5  H   UNL     1      -7.050   1.959  73.546  1.00  0.00     0.000 HD 
HETATM    6  C   UNL     1      -8.822   2.745  70.891  1.00  0.00    -0.082 C  
HETATM    7  C   UNL     1      -8.115   2.998  72.231  1.00  0.00    -0.059 C  
HETATM    8  O   UNL     1      -8.577   3.765  74.537  1.00  0.00    -0.087 OA 
HETATM    9  O   UNL     1      -9.835   1.736  71.067  1.00  0.00    -0.122 OA 
HETATM   10  H   UNL     1      -9.446   0.933  71.395  1.00  0.00     0.000 HD 
HETATM   11  H   UNL     1      -8.198   2.964  74.878  1.00  0.00     0.000 HD 
HETATM   12  O   UNL     1      -7.487   1.803  72.717  1.00  0.00    -0.031 OA 
HETATM   13  C   UNL     1      -9.147   3.521  73.242  1.00  0.00    -0.097 C  
ENDROOT
BRANCH   4  14
HETATM   14  O   UNL     1      -8.454   4.803  69.673  1.00  0.00    -0.081 OA 
BRANCH  14  15
HETATM   15  C   UNL     1      -8.811   6.186  69.505  1.00  0.00    -0.130 C  
BRANCH  15  16
HETATM   16  C   UNL     1      -7.541   7.038  69.622  1.00  0.00    -0.104 C  
HETATM   17  C   UNL     1      -8.176   9.296  68.852  1.00  0.00    -0.111 C  
HETATM   18  O   UNL     1      -7.487   8.055  68.590  1.00  0.00    -0.093 OA 
HETATM   19  H   UNL     1      -9.403   8.142  72.410  1.00  0.00     0.000 HD 
HETATM   20  C   UNL     1      -7.587   9.849  70.171  1.00  0.00    -0.175 C  
HETATM   21  H   UNL     1      -5.676   7.785  72.173  1.00  0.00     0.000 HD 
HETATM   22  O   UNL     1      -6.155  10.036  70.051  1.00  0.00    -0.045 OA 
HETATM   23  C   UNL     1      -7.858   8.893  71.345  1.00  0.00    -0.097 C  
HETATM   24  H   UNL     1      -5.793  10.375  70.862  1.00  0.00     0.000 HD 
HETATM   25  O   UNL     1      -5.845   7.494  71.285  1.00  0.00    -0.035 OA 
HETATM   26  O   UNL     1      -9.236   8.731  71.684  1.00  0.00    -0.231 OA 
HETATM   27  C   UNL     1      -7.267   7.510  71.062  1.00  0.00    -0.066 C  
BRANCH  17  28
HETATM   28  O   UNL     1      -9.601   9.120  68.801  1.00  0.00    -0.155 OA 
BRANCH  28  29
HETATM   29  C   UNL     1     -10.327   9.998  67.996  1.00  0.00    -0.198 C  
HETATM   30  O   UNL     1     -12.097  11.664  67.727  1.00  0.00    -0.613 OA 
HETATM   31  C   UNL     1     -11.487  10.587  68.376  1.00  0.00    -0.214 C  
HETATM   32  C   UNL     1     -11.584  12.091  66.529  1.00  0.00    -0.314 A  
HETATM   33  O   UNL     1      -8.453  10.536  66.703  1.00  0.00    -0.125 OA 
HETATM   34  H   UNL     1      -8.690  10.324  64.485  1.00  0.00     0.000 HD 
HETATM   35  C   UNL     1     -12.167  13.175  65.874  1.00  0.00    -0.497 A  
HETATM   36  C   UNL     1      -9.669  10.618  66.827  1.00  0.00    -0.185 C  
HETATM   37  C   UNL     1     -11.684  13.556  64.617  1.00  0.00    -0.381 A  
HETATM   38  C   UNL     1     -10.470  11.456  65.945  1.00  0.00    -0.309 A  
HETATM   39  O   UNL     1      -9.109  11.043  64.028  1.00  0.00    -0.179 OA 
HETATM   40  C   UNL     1     -10.682  12.834  63.976  1.00  0.00    -0.457 A  
HETATM   41  O   UNL     1     -12.167  14.648  63.955  1.00  0.00    -0.892 OA 
HETATM   42  H   UNL     1     -11.839  14.907  63.102  1.00  0.00     0.000 HD 
HETATM   43  C   UNL     1     -10.069  11.785  64.644  1.00  0.00    -0.272 A  
BRANCH  31  44
HETATM   44  C   UNL     1     -12.136  10.160  69.624  1.00  0.00     0.012 A  
HETATM   45  O   UNL     1     -13.321   9.070  73.449  1.00  0.00    -0.773 OA 
HETATM   46  H   UNL     1     -12.933   6.909  72.549  1.00  0.00     0.000 HD 
HETATM   47  C   UNL     1     -12.533  11.139  70.556  1.00  0.00    -0.414 A  
HETATM   48  H   UNL     1     -13.559   9.737  74.081  1.00  0.00     0.000 HD 
HETATM   49  O   UNL     1     -12.657   7.148  71.672  1.00  0.00    -0.343 OA 
HETATM   50  C   UNL     1     -12.979   9.429  72.175  1.00  0.00    -0.421 A  
HETATM   51  C   UNL     1     -12.629   8.450  71.247  1.00  0.00    -0.217 A  
HETATM   52  C   UNL     1     -12.225   8.800  69.961  1.00  0.00     0.779 A  
HETATM   53  C   UNL     1     -12.953  10.773  71.836  1.00  0.00    -0.524 A  
ENDBRANCH  31  44
ENDBRANCH  28  29
ENDBRANCH  17  28
ENDBRANCH  15  16
ENDBRANCH  14  15
ENDBRANCH   4  14
TORSDOF 6
ENDMDL
MODEL       86
REMARK 921   NORMALIZED FREE ENERGY PREDICTED BY IDOCK:   -6.18 KCAL/MOL
REMARK 922        TOTAL FREE ENERGY PREDICTED BY IDOCK:   -9.83 KCAL/MOL
REMARK 923 INTER-LIGAND FREE ENERGY PREDICTED BY IDOCK:   -8.29 KCAL/MOL
REMARK 924 INTRA-LIGAND FREE ENERGY PREDICTED BY IDOCK:   -1.54 KCAL/MOL
REMARK 927      BINDING AFFINITY PREDICTED BY RF-SCORE:    0.00 PKD
ROOT
HETATM    1  C   UNL     1     -14.131  14.902  70.974  1.00  0.00    -0.252 C  
HETATM    2  C   UNL     1     -12.954  13.922  70.995  1.00  0.00    -0.287 C  
HETATM    3  O   UNL     1     -12.528  13.857  69.634  1.00  0.00    -0.300 OA 
HETATM    4  C   UNL     1     -11.753  12.760  69.172  1.00  0.00    -0.322 C  
HETATM    5  H   UNL     1     -12.711  10.345  72.845  1.00  0.00     0.000 HD 
HETATM    6  C   UNL     1     -12.149  11.409  69.786  1.00  0.00    -0.320 C  
HETATM    7  C   UNL     1     -12.293  11.533  71.310  1.00  0.00    -0.209 C  
HETATM    8  O   UNL     1     -13.593  12.745  73.030  1.00  0.00    -0.544 OA 
HETATM    9  O   UNL     1     -13.395  10.952  69.225  1.00  0.00     0.167 OA 
HETATM   10  H   UNL     1     -13.641  10.117  69.604  1.00  0.00     0.000 HD 
HETATM   11  H   UNL     1     -13.853  11.917  73.416  1.00  0.00     0.000 HD 
HETATM   12  O   UNL     1     -12.622  10.268  71.903  1.00  0.00    -0.400 OA 
HETATM   13  C   UNL     1     -13.375  12.578  71.621  1.00  0.00    -0.196 C  
ENDROOT
BRANCH   4  14
HETATM   14  O   UNL     1     -10.337  12.927  69.273  1.00  0.00     0.094 OA 
BRANCH  14  15
HETATM   15  C   UNL     1      -9.601  12.104  68.351  1.00  0.00    -0.186 C  
BRANCH  15  16
HETATM   16  C   UNL     1      -9.426  12.876  67.037  1.00  0.00    -0.235 C  
HETATM   17  C   UNL     1      -9.239  11.160  65.272  1.00  0.00    -0.198 C  
HETATM   18  O   UNL     1      -8.592  12.149  66.101  1.00  0.00    -0.008 OA 
HETATM   19  H   UNL     1     -12.795  11.844  66.819  1.00  0.00     0.000 HD 
HETATM   20  C   UNL     1     -10.364  11.901  64.513  1.00  0.00    -0.292 C  
HETATM   21  H   UNL     1     -11.322  15.053  65.549  1.00  0.00     0.000 HD 
HETATM   22  O   UNL     1      -9.819  12.994  63.732  1.00  0.00    -0.730 OA 
HETATM   23  C   UNL     1     -11.411  12.471  65.485  1.00  0.00    -0.331 C  
HETATM   24  H   UNL     1     -10.511  13.449  63.265  1.00  0.00     0.000 HD 
HETATM   25  O   UNL     1     -10.503  14.713  65.889  1.00  0.00    -0.287 OA 
HETATM   26  O   UNL     1     -12.148  11.492  66.219  1.00  0.00    -0.202 OA 
HETATM   27  C   UNL     1     -10.755  13.427  66.485  1.00  0.00    -0.286 C  
BRANCH  17  28
HETATM   28  O   UNL     1      -9.625  10.010  66.041  1.00  0.00    -0.191 OA 
BRANCH  28  29
HETATM   29  C   UNL     1      -8.833   8.867  65.925  1.00  0.00    -0.179 C  
HETATM   30  O   UNL     1      -8.100   6.694  66.774  1.00  0.00    -0.110 OA 
HETATM   31  C   UNL     1      -8.650   7.969  66.924  1.00  0.00    -0.128 C  
HETATM   32  C   UNL     1      -7.563   6.343  65.562  1.00  0.00    -0.087 A  
HETATM   33  O   UNL     1      -9.006   8.851  63.592  1.00  0.00    -0.017 OA 
HETATM   34  H   UNL     1      -7.076   8.754  62.459  1.00  0.00     0.000 HD 
HETATM   35  C   UNL     1      -7.025   5.069  65.387  1.00  0.00    -0.062 A  
HETATM   36  C   UNL     1      -8.451   8.386  64.580  1.00  0.00    -0.075 C  
HETATM   37  C   UNL     1      -6.411   4.746  64.171  1.00  0.00    -0.038 A  
HETATM   38  C   UNL     1      -7.546   7.249  64.483  1.00  0.00    -0.107 A  
HETATM   39  O   UNL     1      -6.683   7.895  62.354  1.00  0.00    -0.083 OA 
HETATM   40  C   UNL     1      -6.265   5.690  63.160  1.00  0.00    -0.021 A  
HETATM   41  O   UNL     1      -5.926   3.496  63.912  1.00  0.00    -0.014 OA 
HETATM   42  H   UNL     1      -5.510   3.277  63.087  1.00  0.00     0.000 HD 
HETATM   43  C   UNL     1      -6.839   6.943  63.313  1.00  0.00    -0.048 A  
BRANCH  31  44
HETATM   44  C   UNL     1      -9.152   8.280  68.271  1.00  0.00    -0.135 A  
HETATM   45  O   UNL     1     -10.111   8.645  72.292  1.00  0.00    -0.311 OA 
HETATM   46  H   UNL     1     -11.919   7.274  71.600  1.00  0.00     0.000 HD 
HETATM   47  C   UNL     1      -8.363   9.077  69.125  1.00  0.00    -0.123 A  
HETATM   48  H   UNL     1      -9.558   9.159  72.867  1.00  0.00     0.000 HD 
HETATM   49  O   UNL     1     -11.707   7.181  70.679  1.00  0.00    -0.313 OA 
HETATM   50  C   UNL     1      -9.820   8.567  70.958  1.00  0.00    -0.195 A  
HETATM   51  C   UNL     1     -10.631   7.813  70.113  1.00  0.00    -0.237 A  
HETATM   52  C   UNL     1     -10.320   7.677  68.763  1.00  0.00    -0.218 A  
HETATM   53  C   UNL     1      -8.696   9.218  70.473  1.00  0.00    -0.276 A  
ENDBRANCH  31  44
ENDBRANCH  28  29
ENDBRANCH  17  28
ENDBRANCH  15  16
ENDBRANCH  14  15
ENDBRANCH   4  14
TORSDOF 6
ENDMDL
MODEL       87
REMARK 921   NORMALIZED FREE ENERGY PREDICTED BY IDOCK:   -6.09 KCAL/MOL
REMARK 922        TOTAL FREE ENERGY PREDICTED BY IDOCK:   -9.71 KCAL/MOL
REMARK 923 INTER-LIGAND FREE ENERGY PREDICTED BY IDOCK:   -8.85 KCAL/MOL
REMARK 924 INTRA-LIGAND FREE ENERGY PREDICTED BY IDOCK:   -0.85 KCAL/MOL
REMARK 927      BINDING AFFINITY PREDICTED BY RF-SCORE:    0.00 PKD
ROOT
HETATM    1  C   UNL     1     -10.256  20.374  65.358  1.00  0.00     0.179 C  
HETATM    2  C   UNL     1      -9.776  19.204  66.223  1.00  0.00    -0.365 C  
HETATM    3  O   UNL     1     -10.950  18.775  66.913  1.00  0.00    -0.305 OA 
HETATM    4  C   UNL     1     -10.846  18.006  68.103  1.00  0.00    -0.131 C  
HETATM    5  H   UNL     1      -6.479  18.994  68.538  1.00  0.00     0.000 HD 
HETATM    6  C   UNL     1      -9.679  18.415  69.014  1.00  0.00    -0.223 C  
HETATM    7  C   UNL     1      -8.387  18.562  68.198  1.00  0.00    -0.296 C  
HETATM    8  O   UNL     1      -7.431  19.859  66.321  1.00  0.00    -0.270 OA 
HETATM    9  O   UNL     1      -9.973  19.662  69.673  1.00  0.00    -0.455 OA 
HETATM   10  H   UNL     1      -9.252  19.915  70.236  1.00  0.00     0.000 HD 
HETATM   11  H   UNL     1      -6.708  20.127  66.875  1.00  0.00     0.000 HD 
HETATM   12  O   UNL     1      -7.278  18.903  69.043  1.00  0.00    -0.312 OA 
HETATM   13  C   UNL     1      -8.602  19.638  67.122  1.00  0.00    -0.308 C  
ENDROOT
BRANCH   4  14
HETATM   14  O   UNL     1     -10.825  16.589  67.915  1.00  0.00    -0.342 OA 
BRANCH  14  15
HETATM   15  C   UNL     1      -9.569  16.102  67.411  1.00  0.00    -0.229 C  
BRANCH  15  16
HETATM   16  C   UNL     1      -9.753  15.693  65.945  1.00  0.00    -0.353 C  
HETATM   17  C   UNL     1      -9.547  13.234  65.903  1.00  0.00    -0.106 C  
HETATM   18  O   UNL     1      -8.965  14.523  65.616  1.00  0.00     0.292 OA 
HETATM   19  H   UNL     1     -12.868  14.789  67.338  1.00  0.00     0.000 HD 
HETATM   20  C   UNL     1     -10.897  13.191  65.149  1.00  0.00    -0.304 C  
HETATM   21  H   UNL     1     -12.230  16.115  63.887  1.00  0.00     0.000 HD 
HETATM   22  O   UNL     1     -10.694  13.393  63.728  1.00  0.00    -0.492 OA 
HETATM   23  C   UNL     1     -11.857  14.277  65.663  1.00  0.00    -0.373 C  
HETATM   24  H   UNL     1     -11.523  13.366  63.265  1.00  0.00     0.000 HD 
HETATM   25  O   UNL     1     -11.318  16.132  64.154  1.00  0.00    -0.657 OA 
HETATM   26  O   UNL     1     -12.274  14.118  67.021  1.00  0.00    -0.432 OA 
HETATM   27  C   UNL     1     -11.232  15.666  65.512  1.00  0.00    -0.140 C  
BRANCH  17  28
HETATM   28  O   UNL     1      -9.587  12.985  67.317  1.00  0.00    -0.213 OA 
BRANCH  28  29
HETATM   29  C   UNL     1      -9.020  11.795  67.774  1.00  0.00    -0.173 C  
HETATM   30  O   UNL     1      -7.437  10.611  69.215  1.00  0.00    -0.107 OA 
HETATM   31  C   UNL     1      -7.886  11.734  68.515  1.00  0.00    -0.144 C  
HETATM   32  C   UNL     1      -8.096   9.420  69.046  1.00  0.00    -0.106 A  
HETATM   33  O   UNL     1     -11.046  10.638  67.610  1.00  0.00    -0.294 OA 
HETATM   34  H   UNL     1     -10.999   8.725  66.445  1.00  0.00     0.000 HD 
HETATM   35  C   UNL     1      -7.675   8.291  69.748  1.00  0.00    -0.098 A  
HETATM   36  C   UNL     1      -9.836  10.563  67.785  1.00  0.00    -0.165 C  
HETATM   37  C   UNL     1      -8.304   7.063  69.513  1.00  0.00    -0.133 A  
HETATM   38  C   UNL     1      -9.198   9.313  68.175  1.00  0.00    -0.136 A  
HETATM   39  O   UNL     1     -10.690   7.952  66.902  1.00  0.00    -0.333 OA 
HETATM   40  C   UNL     1      -9.294   6.931  68.544  1.00  0.00    -0.134 A  
HETATM   41  O   UNL     1      -7.985   5.938  70.216  1.00  0.00    -0.101 OA 
HETATM   42  H   UNL     1      -8.412   5.104  70.056  1.00  0.00     0.000 HD 
HETATM   43  C   UNL     1      -9.746   8.059  67.877  1.00  0.00    -0.160 A  
BRANCH  31  44
HETATM   44  C   UNL     1      -7.088  12.953  68.711  1.00  0.00    -0.096 A  
HETATM   45  O   UNL     1      -5.467  16.703  69.440  1.00  0.00    -0.134 OA 
HETATM   46  H   UNL     1      -5.633  16.822  67.077  1.00  0.00     0.000 HD 
HETATM   47  C   UNL     1      -6.753  13.344  70.022  1.00  0.00     0.244 A  
HETATM   48  H   UNL     1      -5.270  16.971  70.329  1.00  0.00     0.000 HD 
HETATM   49  O   UNL     1      -6.008  15.967  66.899  1.00  0.00    -0.323 OA 
HETATM   50  C   UNL     1      -5.954  15.449  69.198  1.00  0.00    -0.106 A  
HETATM   51  C   UNL     1      -6.243  15.055  67.893  1.00  0.00    -0.159 A  
HETATM   52  C   UNL     1      -6.792  13.802  67.633  1.00  0.00    -0.187 A  
HETATM   53  C   UNL     1      -6.187  14.597  70.267  1.00  0.00    -0.173 A  
ENDBRANCH  31  44
ENDBRANCH  28  29
ENDBRANCH  17  28
ENDBRANCH  15  16
ENDBRANCH  14  15
ENDBRANCH   4  14
TORSDOF 6
ENDMDL
MODEL       88
REMARK 921   NORMALIZED FREE ENERGY PREDICTED BY IDOCK:   -6.05 KCAL/MOL
REMARK 922        TOTAL FREE ENERGY PREDICTED BY IDOCK:   -9.65 KCAL/MOL
REMARK 923 INTER-LIGAND FREE ENERGY PREDICTED BY IDOCK:   -9.52 KCAL/MOL
REMARK 924 INTRA-LIGAND FREE ENERGY PREDICTED BY IDOCK:   -0.13 KCAL/MOL
REMARK 927      BINDING AFFINITY PREDICTED BY RF-SCORE:    0.00 PKD
ROOT
HETATM    1  C   UNL     1     -11.394  15.376  67.261  1.00  0.00    -0.220 C  
HETATM    2  C   UNL     1     -11.439  13.916  66.801  1.00  0.00    -0.352 C  
HETATM    3  O   UNL     1     -10.067  13.523  66.751  1.00  0.00    -0.257 OA 
HETATM    4  C   UNL     1      -9.666  12.399  65.980  1.00  0.00    -0.244 C  
HETATM    5  H   UNL     1     -13.599  12.306  63.798  1.00  0.00     0.000 HD 
HETATM    6  C   UNL     1     -10.426  12.245  64.654  1.00  0.00    -0.303 C  
HETATM    7  C   UNL     1     -11.938  12.396  64.881  1.00  0.00    -0.398 C  
HETATM    8  O   UNL     1     -13.609  14.026  65.700  1.00  0.00    -0.659 OA 
HETATM    9  O   UNL     1      -9.984  13.236  63.707  1.00  0.00    -0.699 OA 
HETATM   10  H   UNL     1     -10.454  13.141  62.887  1.00  0.00     0.000 HD 
HETATM   11  H   UNL     1     -14.086  13.947  64.881  1.00  0.00     0.000 HD 
HETATM   12  O   UNL     1     -12.665  12.212  63.658  1.00  0.00    -0.692 OA 
HETATM   13  C   UNL     1     -12.211  13.787  65.473  1.00  0.00    -0.442 C  
ENDROOT
BRANCH   4  14
HETATM   14  O   UNL     1      -9.668  11.150  66.674  1.00  0.00    -0.189 OA 
BRANCH  14  15
HETATM   15  C   UNL     1     -10.098  11.261  68.042  1.00  0.00    -0.177 C  
BRANCH  15  16
HETATM   16  C   UNL     1      -8.879  11.078  68.955  1.00  0.00    -0.058 C  
HETATM   17  C   UNL     1      -8.422   8.653  68.986  1.00  0.00    -0.124 C  
HETATM   18  O   UNL     1      -8.933   9.818  69.668  1.00  0.00    -0.184 OA 
HETATM   19  H   UNL     1      -7.442  10.679  65.755  1.00  0.00     0.000 HD 
HETATM   20  C   UNL     1      -6.960   8.982  68.604  1.00  0.00    -0.063 C  
HETATM   21  H   UNL     1      -5.855  12.249  68.771  1.00  0.00     0.000 HD 
HETATM   22  O   UNL     1      -6.184   9.306  69.785  1.00  0.00    -0.038 OA 
HETATM   23  C   UNL     1      -6.892  10.173  67.634  1.00  0.00    -0.076 C  
HETATM   24  H   UNL     1      -5.286   9.508  69.550  1.00  0.00     0.000 HD 
HETATM   25  O   UNL     1      -6.675  12.044  69.204  1.00  0.00    -0.095 OA 
HETATM   26  O   UNL     1      -7.485   9.943  66.355  1.00  0.00    -0.097 OA 
HETATM   27  C   UNL     1      -7.549  11.410  68.252  1.00  0.00    -0.113 C  
BRANCH  17  28
HETATM   28  O   UNL     1      -9.295   8.250  67.920  1.00  0.00    -0.138 OA 
BRANCH  28  29
HETATM   29  C   UNL     1      -9.159   6.948  67.437  1.00  0.00    -0.122 C  
HETATM   30  O   UNL     1      -9.769   4.580  67.507  1.00  0.00    -0.170 OA 
HETATM   31  C   UNL     1      -9.642   5.852  68.072  1.00  0.00    -0.116 C  
HETATM   32  C   UNL     1      -9.242   4.355  66.261  1.00  0.00    -0.141 A  
HETATM   33  O   UNL     1      -8.849   7.679  65.237  1.00  0.00    -0.023 OA 
HETATM   34  H   UNL     1      -7.031   6.899  64.184  1.00  0.00     0.000 HD 
HETATM   35  C   UNL     1      -9.374   3.098  65.672  1.00  0.00    -0.112 A  
HETATM   36  C   UNL     1      -8.802   6.737  66.018  1.00  0.00    -0.135 C  
HETATM   37  C   UNL     1      -8.768   2.855  64.434  1.00  0.00    -0.096 A  
HETATM   38  C   UNL     1      -8.570   5.374  65.558  1.00  0.00    -0.148 A  
HETATM   39  O   UNL     1      -7.096   6.033  63.800  1.00  0.00    -0.050 OA 
HETATM   40  C   UNL     1      -7.981   3.818  63.811  1.00  0.00    -0.088 A  
HETATM   41  O   UNL     1      -8.916   1.669  63.774  1.00  0.00    -0.087 OA 
HETATM   42  H   UNL     1      -8.505   1.504  62.933  1.00  0.00     0.000 HD 
HETATM   43  C   UNL     1      -7.885   5.083  64.372  1.00  0.00    -0.090 A  
BRANCH  31  44
HETATM   44  C   UNL     1     -10.184   5.989  69.432  1.00  0.00    -0.269 A  
HETATM   45  O   UNL     1     -11.963   5.707  73.170  1.00  0.00    -0.499 OA 
HETATM   46  H   UNL     1     -13.664   6.912  72.038  1.00  0.00     0.000 HD 
HETATM   47  C   UNL     1      -9.506   5.373  70.502  1.00  0.00    -0.215 A  
HETATM   48  H   UNL     1     -11.512   5.265  73.879  1.00  0.00     0.000 HD 
HETATM   49  O   UNL     1     -13.268   6.979  71.178  1.00  0.00    -0.324 OA 
HETATM   50  C   UNL     1     -11.354   5.842  71.954  1.00  0.00    -0.247 A  
HETATM   51  C   UNL     1     -12.015   6.492  70.914  1.00  0.00    -0.291 A  
HETATM   52  C   UNL     1     -11.433   6.590  69.653  1.00  0.00    -0.417 A  
HETATM   53  C   UNL     1     -10.094   5.296  71.766  1.00  0.00    -0.257 A  
ENDBRANCH  31  44
ENDBRANCH  28  29
ENDBRANCH  17  28
ENDBRANCH  15  16
ENDBRANCH  14  15
ENDBRANCH   4  14
TORSDOF 6
ENDMDL
MODEL       89
REMARK 921   NORMALIZED FREE ENERGY PREDICTED BY IDOCK:   -5.96 KCAL/MOL
REMARK 922        TOTAL FREE ENERGY PREDICTED BY IDOCK:   -9.53 KCAL/MOL
REMARK 923 INTER-LIGAND FREE ENERGY PREDICTED BY IDOCK:   -7.18 KCAL/MOL
REMARK 924 INTRA-LIGAND FREE ENERGY PREDICTED BY IDOCK:   -2.35 KCAL/MOL
REMARK 927      BINDING AFFINITY PREDICTED BY RF-SCORE:    0.00 PKD
ROOT
HETATM    1  C   UNL     1      -5.475   6.514  70.202  1.00  0.00    -0.014 C  
HETATM    2  C   UNL     1      -6.624   6.568  71.215  1.00  0.00    -0.051 C  
HETATM    3  O   UNL     1      -6.571   7.898  71.733  1.00  0.00    -0.045 OA 
HETATM    4  C   UNL     1      -7.183   8.212  72.976  1.00  0.00    -0.114 C  
HETATM    5  H   UNL     1      -7.592   3.861  74.045  1.00  0.00     0.000 HD 
HETATM    6  C   UNL     1      -7.060   7.105  74.034  1.00  0.00    -0.083 C  
HETATM    7  C   UNL     1      -7.431   5.743  73.430  1.00  0.00    -0.095 C  
HETATM    8  O   UNL     1      -6.743   4.173  71.646  1.00  0.00    -0.025 OA 
HETATM    9  O   UNL     1      -5.714   7.050  74.545  1.00  0.00    -0.062 OA 
HETATM   10  H   UNL     1      -5.638   6.365  75.199  1.00  0.00     0.000 HD 
HETATM   11  H   UNL     1      -6.655   3.481  72.291  1.00  0.00     0.000 HD 
HETATM   12  O   UNL     1      -7.363   4.704  74.418  1.00  0.00    -0.075 OA 
HETATM   13  C   UNL     1      -6.481   5.445  72.260  1.00  0.00    -0.055 C  
ENDROOT
BRANCH   4  14
HETATM   14  O   UNL     1      -8.544   8.639  72.896  1.00  0.00    -0.398 OA 
BRANCH  14  15
HETATM   15  C   UNL     1      -8.930   9.063  71.576  1.00  0.00    -0.125 C  
BRANCH  15  16
HETATM   16  C   UNL     1     -10.454   8.954  71.451  1.00  0.00    -0.305 C  
HETATM   17  C   UNL     1     -10.865   7.415  69.566  1.00  0.00    -0.189 C  
HETATM   18  O   UNL     1     -10.863   8.766  70.074  1.00  0.00    -0.231 OA 
HETATM   19  H   UNL     1      -9.640   5.877  72.976  1.00  0.00     0.000 HD 
HETATM   20  C   UNL     1     -11.784   6.601  70.505  1.00  0.00    -0.394 C  
HETATM   21  H   UNL     1     -12.720   7.942  73.546  1.00  0.00     0.000 HD 
HETATM   22  O   UNL     1     -13.116   7.172  70.538  1.00  0.00    -0.525 OA 
HETATM   23  C   UNL     1     -11.230   6.573  71.940  1.00  0.00    -0.272 C  
HETATM   24  H   UNL     1     -13.680   6.672  71.116  1.00  0.00     0.000 HD 
HETATM   25  O   UNL     1     -12.338   8.533  72.909  1.00  0.00    -0.275 OA 
HETATM   26  O   UNL     1      -9.981   5.894  72.090  1.00  0.00    -0.169 OA 
HETATM   27  C   UNL     1     -11.073   7.994  72.486  1.00  0.00    -0.375 C  
BRANCH  17  28
HETATM   28  O   UNL     1      -9.527   6.927  69.384  1.00  0.00    -0.149 OA 
BRANCH  28  29
HETATM   29  C   UNL     1      -9.280   6.138  68.260  1.00  0.00    -0.114 C  
HETATM   30  O   UNL     1      -8.400   5.886  65.992  1.00  0.00    -0.118 OA 
HETATM   31  C   UNL     1      -8.915   6.635  67.053  1.00  0.00    -0.118 C  
HETATM   32  C   UNL     1      -8.382   4.518  66.096  1.00  0.00    -0.113 A  
HETATM   33  O   UNL     1      -8.847   4.237  69.554  1.00  0.00    -0.082 OA 
HETATM   34  H   UNL     1     -10.003   2.394  69.018  1.00  0.00     0.000 HD 
HETATM   35  C   UNL     1      -7.857   3.753  65.056  1.00  0.00    -0.086 A  
HETATM   36  C   UNL     1      -9.044   4.689  68.432  1.00  0.00    -0.120 C  
HETATM   37  C   UNL     1      -7.912   2.356  65.137  1.00  0.00    -0.078 A  
HETATM   38  C   UNL     1      -8.884   3.867  67.240  1.00  0.00    -0.135 A  
HETATM   39  O   UNL     1      -9.672   1.876  68.294  1.00  0.00    -0.174 OA 
HETATM   40  C   UNL     1      -8.541   1.717  66.200  1.00  0.00    -0.112 A  
HETATM   41  O   UNL     1      -7.355   1.551  64.185  1.00  0.00    -0.049 OA 
HETATM   42  H   UNL     1      -7.393   0.604  64.241  1.00  0.00     0.000 HD 
HETATM   43  C   UNL     1      -9.024   2.474  67.257  1.00  0.00    -0.156 A  
BRANCH  31  44
HETATM   44  C   UNL     1      -8.947   8.088  66.834  1.00  0.00    -0.160 A  
HETATM   45  O   UNL     1      -8.963  12.024  65.520  1.00  0.00    -0.421 OA 
HETATM   46  H   UNL     1      -6.695  11.868  66.199  1.00  0.00     0.000 HD 
HETATM   47  C   UNL     1     -10.136   8.680  66.363  1.00  0.00    -0.294 A  
HETATM   48  H   UNL     1      -9.761  12.408  65.176  1.00  0.00     0.000 HD 
HETATM   49  O   UNL     1      -6.680  10.967  66.499  1.00  0.00    -0.115 OA 
HETATM   50  C   UNL     1      -8.973  10.744  65.998  1.00  0.00    -0.181 A  
HETATM   51  C   UNL     1      -7.802  10.182  66.503  1.00  0.00    -0.112 A  
HETATM   52  C   UNL     1      -7.780   8.861  66.943  1.00  0.00    -0.098 A  
HETATM   53  C   UNL     1     -10.148  10.011  65.940  1.00  0.00    -0.319 A  
ENDBRANCH  31  44
ENDBRANCH  28  29
ENDBRANCH  17  28
ENDBRANCH  15  16
ENDBRANCH  14  15
ENDBRANCH   4  14
TORSDOF 6
ENDMDL
MODEL       90
REMARK 921   NORMALIZED FREE ENERGY PREDICTED BY IDOCK:   -5.89 KCAL/MOL
REMARK 922        TOTAL FREE ENERGY PREDICTED BY IDOCK:   -9.43 KCAL/MOL
REMARK 923 INTER-LIGAND FREE ENERGY PREDICTED BY IDOCK:   -7.95 KCAL/MOL
REMARK 924 INTRA-LIGAND FREE ENERGY PREDICTED BY IDOCK:   -1.48 KCAL/MOL
REMARK 927      BINDING AFFINITY PREDICTED BY RF-SCORE:    0.00 PKD
ROOT
HETATM    1  C   UNL     1      -8.733  19.460  68.949  1.00  0.00    -0.325 C  
HETATM    2  C   UNL     1      -9.445  18.232  68.373  1.00  0.00    -0.323 C  
HETATM    3  O   UNL     1      -8.515  17.166  68.564  1.00  0.00    -0.246 OA 
HETATM    4  C   UNL     1      -8.617  15.973  67.800  1.00  0.00    -0.163 C  
HETATM    5  H   UNL     1     -11.441  17.910  64.882  1.00  0.00     0.000 HD 
HETATM    6  C   UNL     1      -9.045  16.197  66.342  1.00  0.00    -0.304 C  
HETATM    7  C   UNL     1     -10.255  17.141  66.276  1.00  0.00    -0.334 C  
HETATM    8  O   UNL     1     -10.939  19.441  66.876  1.00  0.00    -0.444 OA 
HETATM    9  O   UNL     1      -7.958  16.762  65.584  1.00  0.00    -0.155 OA 
HETATM   10  H   UNL     1      -8.222  16.901  64.682  1.00  0.00     0.000 HD 
HETATM   11  H   UNL     1     -11.201  19.597  65.976  1.00  0.00     0.000 HD 
HETATM   12  O   UNL     1     -10.693  17.326  64.923  1.00  0.00    -0.723 OA 
HETATM   13  C   UNL     1      -9.869  18.485  66.913  1.00  0.00    -0.334 C  
ENDROOT
BRANCH   4  14
HETATM   14  O   UNL     1      -9.426  14.945  68.376  1.00  0.00    -0.196 OA 
BRANCH  14  15
HETATM   15  C   UNL     1      -9.175  13.645  67.816  1.00  0.00    -0.214 C  
BRANCH  15  16
HETATM   16  C   UNL     1      -7.792  13.170  68.278  1.00  0.00    -0.143 C  
HETATM   17  C   UNL     1      -8.033  10.759  68.747  1.00  0.00    -0.136 C  
HETATM   18  O   UNL     1      -7.894  12.103  69.253  1.00  0.00     0.198 OA 
HETATM   19  H   UNL     1      -7.919  11.908  64.983  1.00  0.00     0.000 HD 
HETATM   20  C   UNL     1      -6.816  10.516  67.824  1.00  0.00    -0.073 C  
HETATM   21  H   UNL     1      -4.900  13.199  66.799  1.00  0.00     0.000 HD 
HETATM   22  O   UNL     1      -5.577  10.698  68.555  1.00  0.00    -0.041 OA 
HETATM   23  C   UNL     1      -6.823  11.482  66.628  1.00  0.00    -0.075 C  
HETATM   24  H   UNL     1      -4.829  10.549  67.988  1.00  0.00     0.000 HD 
HETATM   25  O   UNL     1      -5.501  13.344  67.520  1.00  0.00    -0.304 OA 
HETATM   26  O   UNL     1      -7.916  11.312  65.723  1.00  0.00    -0.018 OA 
HETATM   27  C   UNL     1      -6.818  12.936  67.108  1.00  0.00     0.077 C  
BRANCH  17  28
HETATM   28  O   UNL     1      -9.333  10.551  68.174  1.00  0.00    -0.142 OA 
BRANCH  28  29
HETATM   29  C   UNL     1     -10.129   9.553  68.737  1.00  0.00    -0.188 C  
HETATM   30  O   UNL     1     -10.527   7.199  69.270  1.00  0.00    -0.201 OA 
HETATM   31  C   UNL     1      -9.941   8.227  68.527  1.00  0.00    -0.190 C  
HETATM   32  C   UNL     1     -11.484   7.519  70.199  1.00  0.00    -0.095 A  
HETATM   33  O   UNL     1     -10.840  10.948  70.475  1.00  0.00     0.040 OA 
HETATM   34  H   UNL     1     -13.055  11.108  70.771  1.00  0.00     0.000 HD 
HETATM   35  C   UNL     1     -12.069   6.510  70.963  1.00  0.00    -0.304 A  
HETATM   36  C   UNL     1     -10.993   9.883  69.890  1.00  0.00    -0.281 C  
HETATM   37  C   UNL     1     -13.098   6.835  71.855  1.00  0.00    -0.136 A  
HETATM   38  C   UNL     1     -11.888   8.853  70.402  1.00  0.00     0.010 A  
HETATM   39  O   UNL     1     -13.472  10.414  71.267  1.00  0.00    -0.290 OA 
HETATM   40  C   UNL     1     -13.595   8.131  71.946  1.00  0.00    -0.370 A  
HETATM   41  O   UNL     1     -13.664   5.906  72.680  1.00  0.00    -0.384 OA 
HETATM   42  H   UNL     1     -14.362   6.127  73.285  1.00  0.00     0.000 HD 
HETATM   43  C   UNL     1     -12.985   9.144  71.221  1.00  0.00    -0.251 A  
BRANCH  31  44
HETATM   44  C   UNL     1      -8.968   7.791  67.515  1.00  0.00    -0.126 A  
HETATM   45  O   UNL     1      -5.891   7.187  64.796  1.00  0.00    -0.035 OA 
HETATM   46  H   UNL     1      -7.563   7.961  63.301  1.00  0.00     0.000 HD 
HETATM   47  C   UNL     1      -7.731   7.267  67.939  1.00  0.00    -0.113 A  
HETATM   48  H   UNL     1      -5.051   6.861  65.094  1.00  0.00     0.000 HD 
HETATM   49  O   UNL     1      -8.273   8.106  63.915  1.00  0.00    -0.143 OA 
HETATM   50  C   UNL     1      -6.919   7.337  65.685  1.00  0.00    -0.060 A  
HETATM   51  C   UNL     1      -8.152   7.815  65.248  1.00  0.00    -0.133 A  
HETATM   52  C   UNL     1      -9.192   8.027  66.149  1.00  0.00    -0.219 A  
HETATM   53  C   UNL     1      -6.702   7.043  67.023  1.00  0.00    -0.059 A  
ENDBRANCH  31  44
ENDBRANCH  28  29
ENDBRANCH  17  28
ENDBRANCH  15  16
ENDBRANCH  14  15
ENDBRANCH   4  14
TORSDOF 6
ENDMDL
MODEL       91
REMARK 921   NORMALIZED FREE ENERGY PREDICTED BY IDOCK:   -5.88 KCAL/MOL
REMARK 922        TOTAL FREE ENERGY PREDICTED BY IDOCK:   -9.42 KCAL/MOL
REMARK 923 INTER-LIGAND FREE ENERGY PREDICTED BY IDOCK:   -9.32 KCAL/MOL
REMARK 924 INTRA-LIGAND FREE ENERGY PREDICTED BY IDOCK:   -0.10 KCAL/MOL
REMARK 927      BINDING AFFINITY PREDICTED BY RF-SCORE:    0.00 PKD
ROOT
HETATM    1  C   UNL     1      -9.278   8.971  71.393  1.00  0.00    -0.293 C  
HETATM    2  C   UNL     1     -10.593   9.218  70.647  1.00  0.00    -0.262 C  
HETATM    3  O   UNL     1     -10.267  10.226  69.689  1.00  0.00    -0.228 OA 
HETATM    4  C   UNL     1     -11.289  11.019  69.101  1.00  0.00    -0.280 C  
HETATM    5  H   UNL     1     -14.288   9.710  72.188  1.00  0.00     0.000 HD 
HETATM    6  C   UNL     1     -12.427  11.391  70.063  1.00  0.00    -0.154 C  
HETATM    7  C   UNL     1     -12.902  10.153  70.837  1.00  0.00    -0.355 C  
HETATM    8  O   UNL     1     -12.078   8.429  72.409  1.00  0.00    -0.371 OA 
HETATM    9  O   UNL     1     -11.983  12.396  70.996  1.00  0.00    -0.365 OA 
HETATM   10  H   UNL     1     -12.686  12.626  71.592  1.00  0.00     0.000 HD 
HETATM   11  H   UNL     1     -12.773   8.654  73.017  1.00  0.00     0.000 HD 
HETATM   12  O   UNL     1     -13.994  10.476  71.710  1.00  0.00     0.117 OA 
HETATM   13  C   UNL     1     -11.718   9.583  71.633  1.00  0.00    -0.390 C  
ENDROOT
BRANCH   4  14
HETATM   14  O   UNL     1     -11.845  10.500  67.891  1.00  0.00    -0.400 OA 
BRANCH  14  15
HETATM   15  C   UNL     1     -11.308  11.118  66.708  1.00  0.00    -0.042 C  
BRANCH  15  16
HETATM   16  C   UNL     1     -11.746  12.588  66.682  1.00  0.00    -0.387 C  
HETATM   17  C   UNL     1      -9.661  13.906  66.581  1.00  0.00    -0.289 C  
HETATM   18  O   UNL     1     -10.786  13.440  67.356  1.00  0.00    -0.263 OA 
HETATM   19  H   UNL     1     -10.837  12.051  63.314  1.00  0.00     0.000 HD 
HETATM   20  C   UNL     1     -10.253  14.641  65.356  1.00  0.00    -0.387 C  
HETATM   21  H   UNL     1     -13.597  14.247  64.592  1.00  0.00     0.000 HD 
HETATM   22  O   UNL     1     -11.111  15.731  65.781  1.00  0.00    -0.248 OA 
HETATM   23  C   UNL     1     -11.078  13.687  64.478  1.00  0.00    -0.386 C  
HETATM   24  H   UNL     1     -11.474  16.183  65.028  1.00  0.00     0.000 HD 
HETATM   25  O   UNL     1     -13.311  13.962  65.452  1.00  0.00    -0.710 OA 
HETATM   26  O   UNL     1     -10.327  12.640  63.857  1.00  0.00    -0.417 OA 
HETATM   27  C   UNL     1     -12.210  13.050  65.287  1.00  0.00    -0.466 C  
BRANCH  17  28
HETATM   28  O   UNL     1      -8.738  12.839  66.312  1.00  0.00     0.028 OA 
BRANCH  28  29
HETATM   29  C   UNL     1      -7.918  12.422  67.361  1.00  0.00    -0.178 C  
HETATM   30  O   UNL     1      -6.910  12.812  69.555  1.00  0.00    -0.029 OA 
HETATM   31  C   UNL     1      -7.494  13.236  68.359  1.00  0.00    -0.124 C  
HETATM   32  C   UNL     1      -6.595  11.485  69.704  1.00  0.00    -0.112 A  
HETATM   33  O   UNL     1      -8.533  10.181  67.097  1.00  0.00    -0.125 OA 
HETATM   34  H   UNL     1      -6.853   8.713  66.889  1.00  0.00     0.000 HD 
HETATM   35  C   UNL     1      -6.027  11.039  70.896  1.00  0.00     0.056 A  
HETATM   36  C   UNL     1      -7.773  10.977  67.635  1.00  0.00    -0.112 C  
HETATM   37  C   UNL     1      -5.640   9.698  71.010  1.00  0.00    -0.064 A  
HETATM   38  C   UNL     1      -6.838  10.558  68.671  1.00  0.00    -0.054 A  
HETATM   39  O   UNL     1      -6.439   8.419  67.691  1.00  0.00    -0.055 OA 
HETATM   40  C   UNL     1      -5.746   8.820  69.937  1.00  0.00    -0.028 A  
HETATM   41  O   UNL     1      -5.141   9.184  72.172  1.00  0.00    -0.044 OA 
HETATM   42  H   UNL     1      -4.878   8.274  72.250  1.00  0.00     0.000 HD 
HETATM   43  C   UNL     1      -6.352   9.249  68.766  1.00  0.00    -0.048 A  
BRANCH  31  44
HETATM   44  C   UNL     1      -7.746  14.681  68.263  1.00  0.00    -0.123 A  
HETATM   45  O   UNL     1      -9.080  18.568  67.683  1.00  0.00    -0.277 OA 
HETATM   46  H   UNL     1      -7.647  18.381  65.802  1.00  0.00     0.000 HD 
HETATM   47  C   UNL     1      -8.617  15.284  69.192  1.00  0.00    -0.235 A  
HETATM   48  H   UNL     1      -9.690  18.958  68.298  1.00  0.00     0.000 HD 
HETATM   49  O   UNL     1      -7.338  17.491  65.923  1.00  0.00    -0.418 OA 
HETATM   50  C   UNL     1      -8.603  17.306  67.904  1.00  0.00    -0.223 A  
HETATM   51  C   UNL     1      -7.708  16.734  67.003  1.00  0.00    -0.195 A  
HETATM   52  C   UNL     1      -7.255  15.429  67.181  1.00  0.00    -0.179 A  
HETATM   53  C   UNL     1      -9.050  16.599  69.010  1.00  0.00    -0.209 A  
ENDBRANCH  31  44
ENDBRANCH  28  29
ENDBRANCH  17  28
ENDBRANCH  15  16
ENDBRANCH  14  15
ENDBRANCH   4  14
TORSDOF 6
ENDMDL
MODEL       92
REMARK 921   NORMALIZED FREE ENERGY PREDICTED BY IDOCK:   -5.86 KCAL/MOL
REMARK 922        TOTAL FREE ENERGY PREDICTED BY IDOCK:   -9.39 KCAL/MOL
REMARK 923 INTER-LIGAND FREE ENERGY PREDICTED BY IDOCK:   -8.22 KCAL/MOL
REMARK 924 INTRA-LIGAND FREE ENERGY PREDICTED BY IDOCK:   -1.17 KCAL/MOL
REMARK 927      BINDING AFFINITY PREDICTED BY RF-SCORE:    0.00 PKD
ROOT
HETATM    1  C   UNL     1      -6.664  13.778  69.600  1.00  0.00    -0.015 C  
HETATM    2  C   UNL     1      -7.309  12.453  69.184  1.00  0.00     0.109 C  
HETATM    3  O   UNL     1      -6.821  11.510  70.139  1.00  0.00    -0.062 OA 
HETATM    4  C   UNL     1      -6.846  10.119  69.856  1.00  0.00    -0.124 C  
HETATM    5  H   UNL     1      -7.605  10.869  65.485  1.00  0.00     0.000 HD 
HETATM    6  C   UNL     1      -6.534   9.770  68.392  1.00  0.00    -0.055 C  
HETATM    7  C   UNL     1      -7.349  10.661  67.443  1.00  0.00    -0.093 C  
HETATM    8  O   UNL     1      -7.691  13.038  66.850  1.00  0.00    -0.389 OA 
HETATM    9  O   UNL     1      -5.129   9.947  68.125  1.00  0.00    -0.036 OA 
HETATM   10  H   UNL     1      -4.936   9.733  67.220  1.00  0.00     0.000 HD 
HETATM   11  H   UNL     1      -7.493  12.839  65.942  1.00  0.00     0.000 HD 
HETATM   12  O   UNL     1      -7.101  10.318  66.072  1.00  0.00    -0.113 OA 
HETATM   13  C   UNL     1      -6.988  12.130  67.712  1.00  0.00    -0.109 C  
ENDROOT
BRANCH   4  14
HETATM   14  O   UNL     1      -8.032   9.433  70.262  1.00  0.00    -0.124 OA 
BRANCH  14  15
HETATM   15  C   UNL     1      -7.767   8.186  70.928  1.00  0.00    -0.085 C  
BRANCH  15  16
HETATM   16  C   UNL     1      -8.555   8.156  72.244  1.00  0.00    -0.175 C  
HETATM   17  C   UNL     1     -10.925   7.911  71.601  1.00  0.00    -0.238 C  
HETATM   18  O   UNL     1      -9.864   8.757  72.093  1.00  0.00    -0.314 OA 
HETATM   19  H   UNL     1      -8.593   4.753  71.309  1.00  0.00     0.000 HD 
HETATM   20  C   UNL     1     -11.003   6.708  72.570  1.00  0.00    -0.247 C  
HETATM   21  H   UNL     1      -8.419   6.144  74.789  1.00  0.00     0.000 HD 
HETATM   22  O   UNL     1     -11.251   7.160  73.926  1.00  0.00    -0.440 OA 
HETATM   23  C   UNL     1      -9.698   5.897  72.558  1.00  0.00    -0.157 C  
HETATM   24  H   UNL     1     -11.299   6.421  74.521  1.00  0.00     0.000 HD 
HETATM   25  O   UNL     1      -8.448   6.991  74.361  1.00  0.00    -0.154 OA 
HETATM   26  O   UNL     1      -9.399   5.254  71.317  1.00  0.00    -0.143 OA 
HETATM   27  C   UNL     1      -8.508   6.782  72.939  1.00  0.00    -0.116 C  
BRANCH  17  28
HETATM   28  O   UNL     1     -10.747   7.611  70.208  1.00  0.00    -0.230 OA 
BRANCH  28  29
HETATM   29  C   UNL     1     -10.760   8.682  69.315  1.00  0.00    -0.136 C  
HETATM   30  O   UNL     1     -10.699   9.542  67.026  1.00  0.00    -0.231 OA 
HETATM   31  C   UNL     1     -10.441   8.575  68.002  1.00  0.00    -0.191 C  
HETATM   32  C   UNL     1     -11.181  10.765  67.418  1.00  0.00    -0.241 A  
HETATM   33  O   UNL     1     -12.238   9.915  70.645  1.00  0.00    -0.279 OA 
HETATM   34  H   UNL     1     -11.601  12.002  71.156  1.00  0.00     0.000 HD 
HETATM   35  C   UNL     1     -11.460  11.737  66.459  1.00  0.00    -0.325 A  
HETATM   36  C   UNL     1     -11.482   9.919  69.680  1.00  0.00    -0.108 C  
HETATM   37  C   UNL     1     -11.880  13.007  66.872  1.00  0.00    -0.380 A  
HETATM   38  C   UNL     1     -11.404  11.059  68.777  1.00  0.00    -0.349 A  
HETATM   39  O   UNL     1     -11.761  12.671  70.501  1.00  0.00    -0.166 OA 
HETATM   40  C   UNL     1     -11.957  13.341  68.221  1.00  0.00    -0.338 A  
HETATM   41  O   UNL     1     -12.234  13.980  65.983  1.00  0.00    -0.412 OA 
HETATM   42  H   UNL     1     -12.518  14.842  66.263  1.00  0.00     0.000 HD 
HETATM   43  C   UNL     1     -11.724  12.363  69.176  1.00  0.00    -0.322 A  
BRANCH  31  44
HETATM   44  C   UNL     1      -9.874   7.315  67.500  1.00  0.00    -0.198 A  
HETATM   45  O   UNL     1      -8.069   4.151  65.512  1.00  0.00    -0.100 OA 
HETATM   46  H   UNL     1     -10.325   3.734  64.906  1.00  0.00     0.000 HD 
HETATM   47  C   UNL     1      -8.485   7.105  67.604  1.00  0.00    -0.120 A  
HETATM   48  H   UNL     1      -7.129   4.032  65.563  1.00  0.00     0.000 HD 
HETATM   49  O   UNL     1     -10.747   4.457  65.354  1.00  0.00    -0.264 OA 
HETATM   50  C   UNL     1      -8.667   5.165  66.208  1.00  0.00    -0.119 A  
HETATM   51  C   UNL     1     -10.047   5.339  66.134  1.00  0.00    -0.172 A  
HETATM   52  C   UNL     1     -10.666   6.399  66.791  1.00  0.00    -0.355 A  
HETATM   53  C   UNL     1      -7.879   6.028  66.953  1.00  0.00    -0.101 A  
ENDBRANCH  31  44
ENDBRANCH  28  29
ENDBRANCH  17  28
ENDBRANCH  15  16
ENDBRANCH  14  15
ENDBRANCH   4  14
TORSDOF 6
ENDMDL
MODEL       93
REMARK 921   NORMALIZED FREE ENERGY PREDICTED BY IDOCK:   -5.86 KCAL/MOL
REMARK 922        TOTAL FREE ENERGY PREDICTED BY IDOCK:   -9.39 KCAL/MOL
REMARK 923 INTER-LIGAND FREE ENERGY PREDICTED BY IDOCK:   -9.16 KCAL/MOL
REMARK 924 INTRA-LIGAND FREE ENERGY PREDICTED BY IDOCK:   -0.23 KCAL/MOL
REMARK 927      BINDING AFFINITY PREDICTED BY RF-SCORE:    0.00 PKD
ROOT
HETATM    1  C   UNL     1     -10.987  15.971  65.382  1.00  0.00    -0.261 C  
HETATM    2  C   UNL     1     -11.151  14.463  65.593  1.00  0.00    -0.321 C  
HETATM    3  O   UNL     1      -9.914  13.910  65.142  1.00  0.00    -0.308 OA 
HETATM    4  C   UNL     1      -9.825  12.539  64.783  1.00  0.00    -0.060 C  
HETATM    5  H   UNL     1     -14.303  12.133  64.639  1.00  0.00     0.000 HD 
HETATM    6  C   UNL     1     -11.070  11.997  64.064  1.00  0.00    -0.386 C  
HETATM    7  C   UNL     1     -12.345  12.411  64.813  1.00  0.00    -0.423 C  
HETATM    8  O   UNL     1     -13.586  14.426  65.535  1.00  0.00    -0.576 OA 
HETATM    9  O   UNL     1     -11.124  12.497  62.714  1.00  0.00    -0.485 OA 
HETATM   10  H   UNL     1     -11.894  12.162  62.269  1.00  0.00     0.000 HD 
HETATM   11  H   UNL     1     -14.362  14.107  65.088  1.00  0.00     0.000 HD 
HETATM   12  O   UNL     1     -13.515  11.876  64.177  1.00  0.00    -0.591 OA 
HETATM   13  C   UNL     1     -12.409  13.945  64.868  1.00  0.00    -0.420 C  
ENDROOT
BRANCH   4  14
HETATM   14  O   UNL     1      -9.469  11.651  65.844  1.00  0.00    -0.223 OA 
BRANCH  14  15
HETATM   15  C   UNL     1      -9.620  12.236  67.149  1.00  0.00    -0.200 C  
BRANCH  15  16
HETATM   16  C   UNL     1      -8.232  12.382  67.786  1.00  0.00    -0.163 C  
HETATM   17  C   UNL     1      -7.855  10.300  69.056  1.00  0.00    -0.114 C  
HETATM   18  O   UNL     1      -8.162  11.710  69.068  1.00  0.00    -0.037 OA 
HETATM   19  H   UNL     1      -7.572  10.150  65.132  1.00  0.00     0.000 HD 
HETATM   20  C   UNL     1      -6.509  10.156  68.310  1.00  0.00    -0.053 C  
HETATM   21  H   UNL     1      -5.294  12.814  66.471  1.00  0.00     0.000 HD 
HETATM   22  O   UNL     1      -5.475  10.933  68.966  1.00  0.00    -0.041 OA 
HETATM   23  C   UNL     1      -6.625  10.633  66.853  1.00  0.00    -0.086 C  
HETATM   24  H   UNL     1      -4.648  10.845  68.507  1.00  0.00     0.000 HD 
HETATM   25  O   UNL     1      -6.001  12.993  67.080  1.00  0.00    -0.267 OA 
HETATM   26  O   UNL     1      -7.500   9.855  66.033  1.00  0.00    -0.099 OA 
HETATM   27  C   UNL     1      -7.086  12.092  66.797  1.00  0.00     0.044 C  
BRANCH  17  28
HETATM   28  O   UNL     1      -8.960   9.532  68.554  1.00  0.00    -0.127 OA 
BRANCH  28  29
HETATM   29  C   UNL     1      -9.131   8.245  69.067  1.00  0.00    -0.147 C  
HETATM   30  O   UNL     1     -10.474   6.606  70.288  1.00  0.00    -0.197 OA 
HETATM   31  C   UNL     1     -10.095   7.910  69.960  1.00  0.00    -0.199 C  
HETATM   32  C   UNL     1      -9.738   5.559  69.794  1.00  0.00    -0.176 A  
HETATM   33  O   UNL     1      -8.027   7.258  67.257  1.00  0.00    -0.108 OA 
HETATM   34  H   UNL     1      -6.351   5.860  67.765  1.00  0.00     0.000 HD 
HETATM   35  C   UNL     1     -10.110   4.250  70.096  1.00  0.00    -0.078 A  
HETATM   36  C   UNL     1      -8.499   7.102  68.376  1.00  0.00    -0.124 C  
HETATM   37  C   UNL     1      -9.310   3.190  69.651  1.00  0.00    -0.151 A  
HETATM   38  C   UNL     1      -8.609   5.781  68.981  1.00  0.00    -0.106 A  
HETATM   39  O   UNL     1      -6.590   4.971  67.999  1.00  0.00    -0.046 OA 
HETATM   40  C   UNL     1      -8.116   3.419  68.974  1.00  0.00    -0.071 A  
HETATM   41  O   UNL     1      -9.654   1.885  69.855  1.00  0.00    -0.084 OA 
HETATM   42  H   UNL     1      -9.111   1.167  69.552  1.00  0.00     0.000 HD 
HETATM   43  C   UNL     1      -7.767   4.717  68.632  1.00  0.00    -0.076 A  
BRANCH  31  44
HETATM   44  C   UNL     1     -10.904   8.971  70.577  1.00  0.00    -0.296 A  
HETATM   45  O   UNL     1     -13.752  11.596  72.067  1.00  0.00    -0.256 OA 
HETATM   46  H   UNL     1     -13.154  12.774  70.096  1.00  0.00     0.000 HD 
HETATM   47  C   UNL     1     -11.536   8.715  71.810  1.00  0.00    -0.403 A  
HETATM   48  H   UNL     1     -14.195  11.403  72.884  1.00  0.00     0.000 HD 
HETATM   49  O   UNL     1     -12.503  12.178  69.744  1.00  0.00    -0.061 OA 
HETATM   50  C   UNL     1     -12.779  10.755  71.604  1.00  0.00    -0.414 A  
HETATM   51  C   UNL     1     -12.128  11.038  70.405  1.00  0.00    -0.373 A  
HETATM   52  C   UNL     1     -11.173  10.165  69.890  1.00  0.00    -0.343 A  
HETATM   53  C   UNL     1     -12.479   9.608  72.323  1.00  0.00    -0.249 A  
ENDBRANCH  31  44
ENDBRANCH  28  29
ENDBRANCH  17  28
ENDBRANCH  15  16
ENDBRANCH  14  15
ENDBRANCH   4  14
TORSDOF 6
ENDMDL
MODEL       94
REMARK 921   NORMALIZED FREE ENERGY PREDICTED BY IDOCK:   -5.83 KCAL/MOL
REMARK 922        TOTAL FREE ENERGY PREDICTED BY IDOCK:   -9.36 KCAL/MOL
REMARK 923 INTER-LIGAND FREE ENERGY PREDICTED BY IDOCK:   -8.82 KCAL/MOL
REMARK 924 INTRA-LIGAND FREE ENERGY PREDICTED BY IDOCK:   -0.54 KCAL/MOL
REMARK 927      BINDING AFFINITY PREDICTED BY RF-SCORE:    0.00 PKD
ROOT
HETATM    1  C   UNL     1     -12.266  15.700  69.384  1.00  0.00    -0.201 C  
HETATM    2  C   UNL     1     -11.400  14.618  68.733  1.00  0.00    -0.281 C  
HETATM    3  O   UNL     1     -11.112  15.135  67.433  1.00  0.00    -0.311 OA 
HETATM    4  C   UNL     1     -10.699  14.267  66.387  1.00  0.00    -0.297 C  
HETATM    5  H   UNL     1     -11.994  10.628  68.693  1.00  0.00     0.000 HD 
HETATM    6  C   UNL     1     -11.399  12.900  66.393  1.00  0.00    -0.319 C  
HETATM    7  C   UNL     1     -11.388  12.298  67.806  1.00  0.00    -0.301 C  
HETATM    8  O   UNL     1     -12.177  12.761  70.104  1.00  0.00    -0.312 OA 
HETATM    9  O   UNL     1     -12.761  13.034  65.942  1.00  0.00    -0.439 OA 
HETATM   10  H   UNL     1     -13.194  12.188  65.946  1.00  0.00     0.000 HD 
HETATM   11  H   UNL     1     -12.622  11.921  70.119  1.00  0.00     0.000 HD 
HETATM   12  O   UNL     1     -12.001  11.000  67.820  1.00  0.00    -0.609 OA 
HETATM   13  C   UNL     1     -12.120  13.256  68.757  1.00  0.00    -0.219 C  
ENDROOT
BRANCH   4  14
HETATM   14  O   UNL     1      -9.288  14.075  66.273  1.00  0.00    -0.256 OA 
BRANCH  14  15
HETATM   15  C   UNL     1      -8.830  12.855  66.884  1.00  0.00    -0.187 C  
BRANCH  15  16
HETATM   16  C   UNL     1      -8.289  13.180  68.282  1.00  0.00    -0.152 C  
HETATM   17  C   UNL     1      -7.433  11.046  69.180  1.00  0.00    -0.121 C  
HETATM   18  O   UNL     1      -8.457  12.062  69.189  1.00  0.00     0.223 OA 
HETATM   19  H   UNL     1      -5.310  12.873  66.413  1.00  0.00     0.000 HD 
HETATM   20  C   UNL     1      -6.100  11.772  69.477  1.00  0.00    -0.106 C  
HETATM   21  H   UNL     1      -5.960  15.215  69.271  1.00  0.00     0.000 HD 
HETATM   22  O   UNL     1      -6.169  12.465  70.749  1.00  0.00    -0.536 OA 
HETATM   23  C   UNL     1      -5.768  12.798  68.381  1.00  0.00    -0.062 C  
HETATM   24  H   UNL     1      -5.350  12.911  70.931  1.00  0.00     0.000 HD 
HETATM   25  O   UNL     1      -6.821  14.816  69.291  1.00  0.00    -0.122 OA 
HETATM   26  O   UNL     1      -5.516  12.239  67.090  1.00  0.00    -0.192 OA 
HETATM   27  C   UNL     1      -6.892  13.828  68.247  1.00  0.00    -0.109 C  
BRANCH  17  28
HETATM   28  O   UNL     1      -7.489  10.261  67.978  1.00  0.00    -0.086 OA 
BRANCH  28  29
HETATM   29  C   UNL     1      -8.109   9.014  68.056  1.00  0.00    -0.105 C  
HETATM   30  O   UNL     1      -9.013   7.019  66.968  1.00  0.00    -0.119 OA 
HETATM   31  C   UNL     1      -8.635   8.363  66.989  1.00  0.00    -0.122 C  
HETATM   32  C   UNL     1      -8.999   6.309  68.142  1.00  0.00    -0.115 A  
HETATM   33  O   UNL     1      -7.011   8.470  70.049  1.00  0.00    -0.042 OA 
HETATM   34  H   UNL     1      -8.315   7.804  71.744  1.00  0.00     0.000 HD 
HETATM   35  C   UNL     1      -9.357   4.962  68.140  1.00  0.00    -0.164 A  
HETATM   36  C   UNL     1      -7.893   8.173  69.252  1.00  0.00    -0.110 C  
HETATM   37  C   UNL     1      -9.413   4.266  69.354  1.00  0.00    -0.186 A  
HETATM   38  C   UNL     1      -8.625   6.917  69.357  1.00  0.00    -0.133 A  
HETATM   39  O   UNL     1      -8.589   6.894  71.743  1.00  0.00    -0.120 OA 
HETATM   40  C   UNL     1      -9.186   4.908  70.567  1.00  0.00    -0.196 A  
HETATM   41  O   UNL     1      -9.689   2.931  69.412  1.00  0.00    -0.067 OA 
HETATM   42  H   UNL     1      -9.727   2.459  70.236  1.00  0.00     0.000 HD 
HETATM   43  C   UNL     1      -8.786   6.235  70.569  1.00  0.00    -0.143 A  
BRANCH  31  44
HETATM   44  C   UNL     1      -8.734   9.061  65.699  1.00  0.00    -0.205 A  
HETATM   45  O   UNL     1      -8.687  11.577  62.399  1.00  0.00    -0.530 OA 
HETATM   46  H   UNL     1     -10.915  11.952  63.122  1.00  0.00     0.000 HD 
HETATM   47  C   UNL     1      -7.590   9.146  64.880  1.00  0.00    -0.107 A  
HETATM   48  H   UNL     1      -7.903  11.651  61.869  1.00  0.00     0.000 HD 
HETATM   49  O   UNL     1     -10.935  11.382  63.881  1.00  0.00    -0.373 OA 
HETATM   50  C   UNL     1      -8.716  10.710  63.456  1.00  0.00    -0.154 A  
HETATM   51  C   UNL     1      -9.867  10.601  64.233  1.00  0.00    -0.330 A  
HETATM   52  C   UNL     1      -9.896   9.765  65.346  1.00  0.00    -0.365 A  
HETATM   53  C   UNL     1      -7.580   9.976  63.757  1.00  0.00    -0.141 A  
ENDBRANCH  31  44
ENDBRANCH  28  29
ENDBRANCH  17  28
ENDBRANCH  15  16
ENDBRANCH  14  15
ENDBRANCH   4  14
TORSDOF 6
ENDMDL
MODEL       95
REMARK 921   NORMALIZED FREE ENERGY PREDICTED BY IDOCK:   -5.75 KCAL/MOL
REMARK 922        TOTAL FREE ENERGY PREDICTED BY IDOCK:   -9.25 KCAL/MOL
REMARK 923 INTER-LIGAND FREE ENERGY PREDICTED BY IDOCK:   -7.78 KCAL/MOL
REMARK 924 INTRA-LIGAND FREE ENERGY PREDICTED BY IDOCK:   -1.48 KCAL/MOL
REMARK 927      BINDING AFFINITY PREDICTED BY RF-SCORE:    0.00 PKD
ROOT
HETATM    1  C   UNL     1     -12.304  11.468  63.098  1.00  0.00     0.026 C  
HETATM    2  C   UNL     1     -11.940  12.407  64.252  1.00  0.00    -0.410 C  
HETATM    3  O   UNL     1     -13.159  13.088  64.548  1.00  0.00    -0.693 OA 
HETATM    4  C   UNL     1     -13.144  14.320  65.255  1.00  0.00    -0.015 C  
HETATM    5  H   UNL     1      -8.722  14.816  64.595  1.00  0.00     0.000 HD 
HETATM    6  C   UNL     1     -11.969  15.238  64.890  1.00  0.00    -0.108 C  
HETATM    7  C   UNL     1     -10.651  14.450  64.892  1.00  0.00    -0.434 C  
HETATM    8  O   UNL     1      -9.553  12.531  63.781  1.00  0.00    -0.659 OA 
HETATM    9  O   UNL     1     -12.175  15.821  63.589  1.00  0.00    -1.081 OA 
HETATM   10  H   UNL     1     -11.448  16.389  63.363  1.00  0.00     0.000 HD 
HETATM   11  H   UNL     1      -8.822  13.089  63.542  1.00  0.00     0.000 HD 
HETATM   12  O   UNL     1      -9.537  15.304  64.594  1.00  0.00     0.191 OA 
HETATM   13  C   UNL     1     -10.755  13.313  63.864  1.00  0.00    -0.102 C  
ENDROOT
BRANCH   4  14
HETATM   14  O   UNL     1     -13.233  14.209  66.677  1.00  0.00     0.532 OA 
BRANCH  14  15
HETATM   15  C   UNL     1     -12.248  13.325  67.241  1.00  0.00    -0.205 C  
BRANCH  15  16
HETATM   16  C   UNL     1     -12.056  13.683  68.720  1.00  0.00    -0.297 C  
HETATM   17  C   UNL     1      -9.623  13.954  69.033  1.00  0.00     0.139 C  
HETATM   18  O   UNL     1     -10.809  13.157  69.236  1.00  0.00    -0.144 OA 
HETATM   19  H   UNL     1     -11.576  16.812  67.157  1.00  0.00     0.000 HD 
HETATM   20  C   UNL     1      -9.916  15.334  69.665  1.00  0.00    -0.228 C  
HETATM   21  H   UNL     1     -13.162  16.167  70.496  1.00  0.00     0.000 HD 
HETATM   22  O   UNL     1     -10.243  15.194  71.070  1.00  0.00    -0.336 OA 
HETATM   23  C   UNL     1     -11.090  16.033  68.959  1.00  0.00    -0.320 C  
HETATM   24  H   UNL     1     -10.423  16.042  71.458  1.00  0.00     0.000 HD 
HETATM   25  O   UNL     1     -12.981  15.253  70.310  1.00  0.00    -0.303 OA 
HETATM   26  O   UNL     1     -10.851  16.380  67.593  1.00  0.00    -0.327 OA 
HETATM   27  C   UNL     1     -12.350  15.165  69.020  1.00  0.00    -0.015 C  
BRANCH  17  28
HETATM   28  O   UNL     1      -9.220  13.944  67.654  1.00  0.00    -0.185 OA 
BRANCH  28  29
HETATM   29  C   UNL     1      -8.271  12.997  67.271  1.00  0.00    -0.172 C  
HETATM   30  O   UNL     1      -6.058  11.984  67.520  1.00  0.00    -0.083 OA 
HETATM   31  C   UNL     1      -6.969  13.036  67.648  1.00  0.00    -0.154 C  
HETATM   32  C   UNL     1      -6.439  10.860  66.832  1.00  0.00    -0.097 A  
HETATM   33  O   UNL     1      -9.901  11.377  66.837  1.00  0.00    -0.190 OA 
HETATM   34  H   UNL     1      -9.818  10.408  64.818  1.00  0.00     0.000 HD 
HETATM   35  C   UNL     1      -5.552   9.792  66.707  1.00  0.00    -0.046 A  
HETATM   36  C   UNL     1      -8.723  11.697  66.734  1.00  0.00    -0.189 C  
HETATM   37  C   UNL     1      -5.921   8.680  65.941  1.00  0.00    -0.048 A  
HETATM   38  C   UNL     1      -7.718  10.760  66.249  1.00  0.00    -0.146 A  
HETATM   39  O   UNL     1      -9.199   9.696  64.710  1.00  0.00    -0.234 OA 
HETATM   40  C   UNL     1      -7.125   8.648  65.245  1.00  0.00    -0.082 A  
HETATM   41  O   UNL     1      -5.126   7.576  65.835  1.00  0.00    -0.024 OA 
HETATM   42  H   UNL     1      -5.376   6.821  65.314  1.00  0.00     0.000 HD 
HETATM   43  C   UNL     1      -8.029   9.688  65.404  1.00  0.00    -0.120 A  
BRANCH  31  44
HETATM   44  C   UNL     1      -6.459  14.223  68.350  1.00  0.00    -0.106 A  
HETATM   45  O   UNL     1      -5.675  17.597  70.635  1.00  0.00    -0.184 OA 
HETATM   46  H   UNL     1      -6.176  18.653  68.570  1.00  0.00     0.000 HD 
HETATM   47  C   UNL     1      -6.053  14.098  69.694  1.00  0.00    -0.121 A  
HETATM   48  H   UNL     1      -5.429  17.507  71.548  1.00  0.00     0.000 HD 
HETATM   49  O   UNL     1      -6.361  17.887  68.039  1.00  0.00    -0.173 OA 
HETATM   50  C   UNL     1      -5.884  16.482  69.871  1.00  0.00    -0.203 A  
HETATM   51  C   UNL     1      -6.243  16.615  68.532  1.00  0.00    -0.135 A  
HETATM   52  C   UNL     1      -6.514  15.492  67.754  1.00  0.00    -0.186 A  
HETATM   53  C   UNL     1      -5.768  15.231  70.457  1.00  0.00    -0.111 A  
ENDBRANCH  31  44
ENDBRANCH  28  29
ENDBRANCH  17  28
ENDBRANCH  15  16
ENDBRANCH  14  15
ENDBRANCH   4  14
TORSDOF 6
ENDMDL
MODEL       96
REMARK 921   NORMALIZED FREE ENERGY PREDICTED BY IDOCK:   -5.74 KCAL/MOL
REMARK 922        TOTAL FREE ENERGY PREDICTED BY IDOCK:   -9.23 KCAL/MOL
REMARK 923 INTER-LIGAND FREE ENERGY PREDICTED BY IDOCK:   -8.79 KCAL/MOL
REMARK 924 INTRA-LIGAND FREE ENERGY PREDICTED BY IDOCK:   -0.44 KCAL/MOL
REMARK 927      BINDING AFFINITY PREDICTED BY RF-SCORE:    0.00 PKD
ROOT
HETATM    1  C   UNL     1      -6.648  19.016  65.680  1.00  0.00    -0.304 C  
HETATM    2  C   UNL     1      -7.704  18.498  66.662  1.00  0.00    -0.245 C  
HETATM    3  O   UNL     1      -8.671  17.857  65.830  1.00  0.00    -0.493 OA 
HETATM    4  C   UNL     1      -9.989  17.624  66.304  1.00  0.00    -0.318 C  
HETATM    5  H   UNL     1      -9.404  20.442  69.761  1.00  0.00     0.000 HD 
HETATM    6  C   UNL     1     -10.548  18.752  67.184  1.00  0.00    -0.428 C  
HETATM    7  C   UNL     1      -9.517  19.163  68.246  1.00  0.00    -0.352 C  
HETATM    8  O   UNL     1      -7.227  20.074  68.458  1.00  0.00    -0.302 OA 
HETATM    9  O   UNL     1     -10.884  19.896  66.377  1.00  0.00    -0.417 OA 
HETATM   10  H   UNL     1     -11.229  20.594  66.921  1.00  0.00     0.000 HD 
HETATM   11  H   UNL     1      -7.559  20.782  68.997  1.00  0.00     0.000 HD 
HETATM   12  O   UNL     1     -10.041  20.188  69.105  1.00  0.00    -0.297 OA 
HETATM   13  C   UNL     1      -8.243  19.646  67.537  1.00  0.00    -0.297 C  
ENDROOT
BRANCH   4  14
HETATM   14  O   UNL     1     -10.191  16.370  66.959  1.00  0.00    -0.272 OA 
BRANCH  14  15
HETATM   15  C   UNL     1     -11.357  15.668  66.494  1.00  0.00     0.062 C  
BRANCH  15  16
HETATM   16  C   UNL     1     -11.987  14.924  67.679  1.00  0.00    -0.145 C  
HETATM   17  C   UNL     1     -10.486  13.023  68.151  1.00  0.00    -0.245 C  
HETATM   18  O   UNL     1     -11.734  13.499  67.606  1.00  0.00    -0.321 OA 
HETATM   19  H   UNL     1      -9.312  16.620  69.238  1.00  0.00     0.000 HD 
HETATM   20  C   UNL     1     -10.449  13.492  69.624  1.00  0.00     0.545 C  
HETATM   21  H   UNL     1     -12.690  15.888  70.699  1.00  0.00     0.000 HD 
HETATM   22  O   UNL     1     -11.592  12.978  70.352  1.00  0.00    -0.525 OA 
HETATM   23  C   UNL     1     -10.460  15.027  69.720  1.00  0.00    -0.186 C  
HETATM   24  H   UNL     1     -11.569  13.267  71.257  1.00  0.00     0.000 HD 
HETATM   25  O   UNL     1     -12.866  15.471  69.864  1.00  0.00    -0.172 OA 
HETATM   26  O   UNL     1      -9.306  15.672  69.178  1.00  0.00    -0.216 OA 
HETATM   27  C   UNL     1     -11.700  15.602  69.032  1.00  0.00    -0.395 C  
BRANCH  17  28
HETATM   28  O   UNL     1      -9.377  13.404  67.321  1.00  0.00    -0.216 OA 
BRANCH  28  29
HETATM   29  C   UNL     1      -8.780  12.406  66.551  1.00  0.00    -0.057 C  
HETATM   30  O   UNL     1      -7.202  10.552  66.329  1.00  0.00    -0.119 OA 
HETATM   31  C   UNL     1      -7.670  11.725  66.926  1.00  0.00    -0.129 C  
HETATM   32  C   UNL     1      -7.808  10.105  65.182  1.00  0.00    -0.140 A  
HETATM   33  O   UNL     1     -10.754  11.987  65.366  1.00  0.00    -0.269 OA 
HETATM   34  H   UNL     1     -10.594  12.033  63.132  1.00  0.00     0.000 HD 
HETATM   35  C   UNL     1      -7.366   8.928  64.580  1.00  0.00    -0.101 A  
HETATM   36  C   UNL     1      -9.548  11.786  65.450  1.00  0.00    -0.190 C  
HETATM   37  C   UNL     1      -7.940   8.521  63.370  1.00  0.00    -0.161 A  
HETATM   38  C   UNL     1      -8.875  10.815  64.597  1.00  0.00    -0.155 A  
HETATM   39  O   UNL     1     -10.270  11.246  62.709  1.00  0.00    -0.186 OA 
HETATM   40  C   UNL     1      -8.890   9.301  62.720  1.00  0.00    -0.198 A  
HETATM   41  O   UNL     1      -7.601   7.344  62.765  1.00  0.00    -0.097 OA 
HETATM   42  H   UNL     1      -7.990   7.068  61.944  1.00  0.00     0.000 HD 
HETATM   43  C   UNL     1      -9.364  10.449  63.338  1.00  0.00    -0.300 A  
BRANCH  31  44
HETATM   44  C   UNL     1      -6.927  12.160  68.117  1.00  0.00    -0.082 A  
HETATM   45  O   UNL     1      -5.454  13.280  71.832  1.00  0.00    -0.359 OA 
HETATM   46  H   UNL     1      -5.894  15.434  70.940  1.00  0.00     0.000 HD 
HETATM   47  C   UNL     1      -6.468  11.187  69.027  1.00  0.00    -0.066 A  
HETATM   48  H   UNL     1      -5.173  12.617  72.451  1.00  0.00     0.000 HD 
HETATM   49  O   UNL     1      -6.236  15.188  70.089  1.00  0.00    -0.148 OA 
HETATM   50  C   UNL     1      -5.892  12.911  70.590  1.00  0.00    -0.109 A  
HETATM   51  C   UNL     1      -6.303  13.883  69.681  1.00  0.00    -0.123 A  
HETATM   52  C   UNL     1      -6.804  13.522  68.433  1.00  0.00    -0.102 A  
HETATM   53  C   UNL     1      -5.952  11.563  70.269  1.00  0.00    -0.160 A  
ENDBRANCH  31  44
ENDBRANCH  28  29
ENDBRANCH  17  28
ENDBRANCH  15  16
ENDBRANCH  14  15
ENDBRANCH   4  14
TORSDOF 6
ENDMDL
MODEL       97
REMARK 921   NORMALIZED FREE ENERGY PREDICTED BY IDOCK:   -5.73 KCAL/MOL
REMARK 922        TOTAL FREE ENERGY PREDICTED BY IDOCK:   -9.22 KCAL/MOL
REMARK 923 INTER-LIGAND FREE ENERGY PREDICTED BY IDOCK:   -7.54 KCAL/MOL
REMARK 924 INTRA-LIGAND FREE ENERGY PREDICTED BY IDOCK:   -1.69 KCAL/MOL
REMARK 927      BINDING AFFINITY PREDICTED BY RF-SCORE:    0.00 PKD
ROOT
HETATM    1  C   UNL     1      -9.572  21.091  67.196  1.00  0.00    -0.194 C  
HETATM    2  C   UNL     1      -9.896  19.600  67.334  1.00  0.00    -0.368 C  
HETATM    3  O   UNL     1      -8.745  19.049  67.974  1.00  0.00    -0.289 OA 
HETATM    4  C   UNL     1      -8.475  17.656  67.900  1.00  0.00    -0.233 C  
HETATM    5  H   UNL     1     -11.441  17.110  64.561  1.00  0.00     0.000 HD 
HETATM    6  C   UNL     1      -8.820  17.022  66.544  1.00  0.00    -0.264 C  
HETATM    7  C   UNL     1     -10.221  17.458  66.088  1.00  0.00    -0.328 C  
HETATM    8  O   UNL     1     -11.517  19.487  65.519  1.00  0.00     0.134 OA 
HETATM    9  O   UNL     1      -7.852  17.411  65.550  1.00  0.00    -0.326 OA 
HETATM   10  H   UNL     1      -8.066  17.020  64.711  1.00  0.00     0.000 HD 
HETATM   11  H   UNL     1     -11.732  19.111  64.673  1.00  0.00     0.000 HD 
HETATM   12  O   UNL     1     -10.575  16.840  64.843  1.00  0.00    -0.702 OA 
HETATM   13  C   UNL     1     -10.245  18.989  65.963  1.00  0.00    -0.401 C  
ENDROOT
BRANCH   4  14
HETATM   14  O   UNL     1      -9.041  16.867  68.948  1.00  0.00    -0.263 OA 
BRANCH  14  15
HETATM   15  C   UNL     1      -8.850  15.453  68.760  1.00  0.00    -0.196 C  
BRANCH  15  16
HETATM   16  C   UNL     1      -7.654  15.003  69.608  1.00  0.00    -0.140 C  
HETATM   17  C   UNL     1      -7.515  12.555  69.323  1.00  0.00     0.293 C  
HETATM   18  O   UNL     1      -7.862  13.679  70.159  1.00  0.00     1.325 OA 
HETATM   19  H   UNL     1      -6.322  14.836  66.343  1.00  0.00     0.000 HD 
HETATM   20  C   UNL     1      -6.027  12.742  68.942  1.00  0.00    -0.075 C  
HETATM   21  H   UNL     1      -4.507  15.794  69.484  1.00  0.00     0.000 HD 
HETATM   22  O   UNL     1      -5.201  12.812  70.132  1.00  0.00    -0.087 OA 
HETATM   23  C   UNL     1      -5.818  14.029  68.127  1.00  0.00    -0.125 C  
HETATM   24  H   UNL     1      -4.287  12.927  69.898  1.00  0.00     0.000 HD 
HETATM   25  O   UNL     1      -5.341  15.642  69.911  1.00  0.00    -0.106 OA 
HETATM   26  O   UNL     1      -6.452  14.041  66.847  1.00  0.00     0.211 OA 
HETATM   27  C   UNL     1      -6.301  15.251  68.913  1.00  0.00    -0.095 C  
BRANCH  17  28
HETATM   28  O   UNL     1      -8.446  12.405  68.240  1.00  0.00    -0.171 OA 
BRANCH  28  29
HETATM   29  C   UNL     1      -9.063  11.163  68.093  1.00  0.00    -0.159 C  
HETATM   30  O   UNL     1     -11.085   9.811  67.834  1.00  0.00    -0.236 OA 
HETATM   31  C   UNL     1     -10.397  10.959  68.233  1.00  0.00    -0.173 C  
HETATM   32  C   UNL     1     -10.367   8.728  67.395  1.00  0.00    -0.280 A  
HETATM   33  O   UNL     1      -7.310  10.323  66.793  1.00  0.00    -0.100 OA 
HETATM   34  H   UNL     1      -6.424   8.378  67.467  1.00  0.00     0.000 HD 
HETATM   35  C   UNL     1     -11.036   7.579  66.976  1.00  0.00    -0.106 A  
HETATM   36  C   UNL     1      -8.337  10.071  67.411  1.00  0.00    -0.118 C  
HETATM   37  C   UNL     1     -10.294   6.453  66.601  1.00  0.00    -0.155 A  
HETATM   38  C   UNL     1      -8.959   8.755  67.353  1.00  0.00    -0.143 A  
HETATM   39  O   UNL     1      -6.883   7.587  67.212  1.00  0.00    -0.067 OA 
HETATM   40  C   UNL     1      -8.907   6.433  66.702  1.00  0.00    -0.132 A  
HETATM   41  O   UNL     1     -10.886   5.322  66.118  1.00  0.00    -0.613 OA 
HETATM   42  H   UNL     1     -10.382   4.557  65.863  1.00  0.00     0.000 HD 
HETATM   43  C   UNL     1      -8.236   7.589  67.074  1.00  0.00    -0.124 A  
BRANCH  31  44
HETATM   44  C   UNL     1     -11.240  12.050  68.743  1.00  0.00    -0.316 A  
HETATM   45  O   UNL     1     -12.997  15.452  70.344  1.00  0.00    -0.620 OA 
HETATM   46  H   UNL     1     -13.175  14.019  72.226  1.00  0.00     0.000 HD 
HETATM   47  C   UNL     1     -11.414  13.204  67.954  1.00  0.00    -0.346 A  
HETATM   48  H   UNL     1     -13.084  16.235  69.815  1.00  0.00     0.000 HD 
HETATM   49  O   UNL     1     -12.772  13.237  71.871  1.00  0.00    -0.247 OA 
HETATM   50  C   UNL     1     -12.464  14.317  69.799  1.00  0.00    -0.216 A  
HETATM   51  C   UNL     1     -12.336  13.167  70.574  1.00  0.00    -0.304 A  
HETATM   52  C   UNL     1     -11.745  12.020  70.053  1.00  0.00    -0.346 A  
HETATM   53  C   UNL     1     -12.024  14.342  68.484  1.00  0.00    -0.333 A  
ENDBRANCH  31  44
ENDBRANCH  28  29
ENDBRANCH  17  28
ENDBRANCH  15  16
ENDBRANCH  14  15
ENDBRANCH   4  14
TORSDOF 6
ENDMDL
MODEL       98
REMARK 921   NORMALIZED FREE ENERGY PREDICTED BY IDOCK:   -5.73 KCAL/MOL
REMARK 922        TOTAL FREE ENERGY PREDICTED BY IDOCK:   -9.22 KCAL/MOL
REMARK 923 INTER-LIGAND FREE ENERGY PREDICTED BY IDOCK:   -9.13 KCAL/MOL
REMARK 924 INTRA-LIGAND FREE ENERGY PREDICTED BY IDOCK:   -0.09 KCAL/MOL
REMARK 927      BINDING AFFINITY PREDICTED BY RF-SCORE:    0.00 PKD
ROOT
HETATM    1  C   UNL     1     -10.891   5.687  70.183  1.00  0.00    -0.356 C  
HETATM    2  C   UNL     1      -9.929   5.821  68.998  1.00  0.00    -0.169 C  
HETATM    3  O   UNL     1     -10.528   6.820  68.172  1.00  0.00    -0.180 OA 
HETATM    4  C   UNL     1     -10.176   6.928  66.801  1.00  0.00    -0.206 C  
HETATM    5  H   UNL     1      -8.200   2.887  66.836  1.00  0.00     0.000 HD 
HETATM    6  C   UNL     1      -9.939   5.579  66.105  1.00  0.00    -0.096 C  
HETATM    7  C   UNL     1      -9.029   4.687  66.962  1.00  0.00    -0.113 C  
HETATM    8  O   UNL     1      -8.928   3.608  69.186  1.00  0.00    -0.094 OA 
HETATM    9  O   UNL     1     -11.193   4.906  65.881  1.00  0.00    -0.785 OA 
HETATM   10  H   UNL     1     -11.047   4.071  65.452  1.00  0.00     0.000 HD 
HETATM   11  H   UNL     1      -8.788   2.766  68.770  1.00  0.00     0.000 HD 
HETATM   12  O   UNL     1      -8.763   3.438  66.306  1.00  0.00    -0.114 OA 
HETATM   13  C   UNL     1      -9.703   4.455  68.323  1.00  0.00    -0.107 C  
ENDROOT
BRANCH   4  14
HETATM   14  O   UNL     1      -9.083   7.804  66.517  1.00  0.00    -0.154 OA 
BRANCH  14  15
HETATM   15  C   UNL     1      -9.097   9.004  67.309  1.00  0.00    -0.133 C  
BRANCH  15  16
HETATM   16  C   UNL     1      -7.649   9.440  67.565  1.00  0.00    -0.091 C  
HETATM   17  C   UNL     1      -7.787  11.742  68.444  1.00  0.00    -0.141 C  
HETATM   18  O   UNL     1      -7.475  10.862  67.344  1.00  0.00    -0.094 OA 
HETATM   19  H   UNL     1      -8.787   8.782  70.841  1.00  0.00     0.000 HD 
HETATM   20  C   UNL     1      -6.910  11.280  69.631  1.00  0.00    -0.095 C  
HETATM   21  H   UNL     1      -5.336   8.210  69.485  1.00  0.00     0.000 HD 
HETATM   22  O   UNL     1      -5.505  11.329  69.276  1.00  0.00    -0.041 OA 
HETATM   23  C   UNL     1      -7.256   9.843  70.054  1.00  0.00    -0.146 C  
HETATM   24  H   UNL     1      -4.966  11.045  70.005  1.00  0.00     0.000 HD 
HETATM   25  O   UNL     1      -5.689   8.557  68.674  1.00  0.00    -0.036 OA 
HETATM   26  O   UNL     1      -8.574   9.670  70.579  1.00  0.00    -0.205 OA 
HETATM   27  C   UNL     1      -7.077   8.877  68.880  1.00  0.00    -0.066 C  
BRANCH  17  28
HETATM   28  O   UNL     1      -9.204  11.807  68.673  1.00  0.00    -0.169 OA 
BRANCH  28  29
HETATM   29  C   UNL     1      -9.827  13.041  68.485  1.00  0.00    -0.151 C  
HETATM   30  O   UNL     1     -11.495  14.702  69.150  1.00  0.00    -0.262 OA 
HETATM   31  C   UNL     1     -10.985  13.403  69.092  1.00  0.00    -0.168 C  
HETATM   32  C   UNL     1     -10.875  15.689  68.427  1.00  0.00    -0.290 A  
HETATM   33  O   UNL     1      -7.840  14.064  67.794  1.00  0.00    -0.140 OA 
HETATM   34  H   UNL     1      -7.922  15.162  65.843  1.00  0.00     0.000 HD 
HETATM   35  C   UNL     1     -11.358  16.995  68.485  1.00  0.00     0.125 A  
HETATM   36  C   UNL     1      -9.057  14.158  67.900  1.00  0.00    -0.189 C  
HETATM   37  C   UNL     1     -10.767  17.980  67.685  1.00  0.00    -0.344 A  
HETATM   38  C   UNL     1      -9.752  15.409  67.624  1.00  0.00    -0.211 A  
HETATM   39  O   UNL     1      -8.273  16.044  65.862  1.00  0.00    -0.035 OA 
HETATM   40  C   UNL     1      -9.754  17.670  66.783  1.00  0.00    -0.300 A  
HETATM   41  O   UNL     1     -11.148  19.290  67.746  1.00  0.00    -0.318 OA 
HETATM   42  H   UNL     1     -10.747  19.958  67.203  1.00  0.00     0.000 HD 
HETATM   43  C   UNL     1      -9.241  16.382  66.756  1.00  0.00    -0.237 A  
BRANCH  31  44
HETATM   44  C   UNL     1     -11.742  12.398  69.852  1.00  0.00    -0.339 A  
HETATM   45  O   UNL     1     -13.382   9.663  72.508  1.00  0.00    -0.589 OA 
HETATM   46  H   UNL     1     -12.196   8.158  71.108  1.00  0.00     0.000 HD 
HETATM   47  C   UNL     1     -12.603  12.828  70.881  1.00  0.00    -0.342 A  
HETATM   48  H   UNL     1     -13.937   9.963  73.217  1.00  0.00     0.000 HD 
HETATM   49  O   UNL     1     -11.813   8.776  70.496  1.00  0.00    -0.181 OA 
HETATM   50  C   UNL     1     -12.884  10.560  71.605  1.00  0.00    -0.475 A  
HETATM   51  C   UNL     1     -12.069  10.120  70.564  1.00  0.00    -0.291 A  
HETATM   52  C   UNL     1     -11.508  11.026  69.668  1.00  0.00    -0.375 A  
HETATM   53  C   UNL     1     -13.172  11.907  71.763  1.00  0.00    -0.426 A  
ENDBRANCH  31  44
ENDBRANCH  28  29
ENDBRANCH  17  28
ENDBRANCH  15  16
ENDBRANCH  14  15
ENDBRANCH   4  14
TORSDOF 6
ENDMDL
MODEL       99
REMARK 921   NORMALIZED FREE ENERGY PREDICTED BY IDOCK:   -5.72 KCAL/MOL
REMARK 922        TOTAL FREE ENERGY PREDICTED BY IDOCK:   -9.21 KCAL/MOL
REMARK 923 INTER-LIGAND FREE ENERGY PREDICTED BY IDOCK:   -8.79 KCAL/MOL
REMARK 924 INTRA-LIGAND FREE ENERGY PREDICTED BY IDOCK:   -0.41 KCAL/MOL
REMARK 927      BINDING AFFINITY PREDICTED BY RF-SCORE:    0.00 PKD
ROOT
HETATM    1  C   UNL     1      -6.937  18.041  67.845  1.00  0.00    -0.211 C  
HETATM    2  C   UNL     1      -7.823  16.873  68.289  1.00  0.00    -0.208 C  
HETATM    3  O   UNL     1      -7.267  15.739  67.622  1.00  0.00    -0.135 OA 
HETATM    4  C   UNL     1      -8.038  14.561  67.438  1.00  0.00    -0.200 C  
HETATM    5  H   UNL     1     -11.850  16.715  68.472  1.00  0.00     0.000 HD 
HETATM    6  C   UNL     1      -9.520  14.822  67.132  1.00  0.00    -0.227 C  
HETATM    7  C   UNL     1     -10.097  15.854  68.113  1.00  0.00    -0.229 C  
HETATM    8  O   UNL     1      -9.791  18.196  68.847  1.00  0.00    -0.350 OA 
HETATM    9  O   UNL     1      -9.673  15.308  65.784  1.00  0.00    -0.327 OA 
HETATM   10  H   UNL     1     -10.590  15.470  65.594  1.00  0.00     0.000 HD 
HETATM   11  H   UNL     1     -10.704  18.375  68.654  1.00  0.00     0.000 HD 
HETATM   12  O   UNL     1     -11.493  16.077  67.866  1.00  0.00    -0.270 OA 
HETATM   13  C   UNL     1      -9.304  17.162  67.977  1.00  0.00    -0.254 C  
ENDROOT
BRANCH   4  14
HETATM   14  O   UNL     1      -7.936  13.594  68.486  1.00  0.00    -0.142 OA 
BRANCH  14  15
HETATM   15  C   UNL     1      -8.679  12.390  68.221  1.00  0.00    -0.175 C  
BRANCH  15  16
HETATM   16  C   UNL     1      -7.767  11.404  67.480  1.00  0.00    -0.125 C  
HETATM   17  C   UNL     1      -8.647   9.158  68.002  1.00  0.00    -0.125 C  
HETATM   18  O   UNL     1      -7.629  10.159  68.209  1.00  0.00    -0.085 OA 
HETATM   19  H   UNL     1     -10.651  11.382  65.445  1.00  0.00     0.000 HD 
HETATM   20  C   UNL     1      -8.678   8.880  66.481  1.00  0.00    -0.130 C  
HETATM   21  H   UNL     1      -7.085  11.055  64.325  1.00  0.00     0.000 HD 
HETATM   22  O   UNL     1      -7.378   8.438  66.016  1.00  0.00    -0.072 OA 
HETATM   23  C   UNL     1      -9.076  10.139  65.692  1.00  0.00    -0.179 C  
HETATM   24  H   UNL     1      -7.397   8.268  65.081  1.00  0.00     0.000 HD 
HETATM   25  O   UNL     1      -6.877  11.129  65.248  1.00  0.00     0.258 OA 
HETATM   26  O   UNL     1     -10.405  10.605  65.932  1.00  0.00    -0.255 OA 
HETATM   27  C   UNL     1      -8.105  11.286  65.982  1.00  0.00    -0.009 C  
BRANCH  17  28
HETATM   28  O   UNL     1      -9.887   9.543  68.616  1.00  0.00    -0.155 OA 
BRANCH  28  29
HETATM   29  C   UNL     1     -10.297   8.823  69.738  1.00  0.00    -0.211 C  
HETATM   30  O   UNL     1     -11.924   8.403  71.516  1.00  0.00    -0.278 OA 
HETATM   31  C   UNL     1     -11.306   9.210  70.557  1.00  0.00    -0.257 C  
HETATM   32  C   UNL     1     -11.398   7.162  71.774  1.00  0.00    -0.252 A  
HETATM   33  O   UNL     1      -9.399   6.824  68.921  1.00  0.00    -0.132 OA 
HETATM   34  H   UNL     1      -8.016   5.726  70.299  1.00  0.00     0.000 HD 
HETATM   35  C   UNL     1     -12.009   6.335  72.715  1.00  0.00     0.092 A  
HETATM   36  C   UNL     1      -9.891   7.409  69.878  1.00  0.00    -0.178 C  
HETATM   37  C   UNL     1     -11.423   5.102  73.027  1.00  0.00    -0.274 A  
HETATM   38  C   UNL     1     -10.248   6.703  71.102  1.00  0.00    -0.216 A  
HETATM   39  O   UNL     1      -8.418   5.178  70.963  1.00  0.00    -0.116 OA 
HETATM   40  C   UNL     1     -10.208   4.717  72.469  1.00  0.00    -0.243 A  
HETATM   41  O   UNL     1     -12.007   4.218  73.887  1.00  0.00    -0.005 OA 
HETATM   42  H   UNL     1     -11.609   3.382  74.099  1.00  0.00     0.000 HD 
HETATM   43  C   UNL     1      -9.621   5.516  71.500  1.00  0.00    -0.150 A  
BRANCH  31  44
HETATM   44  C   UNL     1     -11.901  10.543  70.385  1.00  0.00    -0.431 A  
HETATM   45  O   UNL     1     -12.919  14.553  70.057  1.00  0.00    -0.537 OA 
HETATM   46  H   UNL     1     -13.710  14.146  72.256  1.00  0.00     0.000 HD 
HETATM   47  C   UNL     1     -11.663  11.246  69.187  1.00  0.00    -0.410 A  
HETATM   48  H   UNL     1     -12.729  15.028  69.257  1.00  0.00     0.000 HD 
HETATM   49  O   UNL     1     -13.479  13.229  72.343  1.00  0.00    -0.549 OA 
HETATM   50  C   UNL     1     -12.628  13.220  70.145  1.00  0.00    -0.044 A  
HETATM   51  C   UNL     1     -12.906  12.523  71.318  1.00  0.00    -0.241 A  
HETATM   52  C   UNL     1     -12.566  11.179  71.445  1.00  0.00    -0.479 A  
HETATM   53  C   UNL     1     -12.025  12.589  69.067  1.00  0.00    -0.280 A  
ENDBRANCH  31  44
ENDBRANCH  28  29
ENDBRANCH  17  28
ENDBRANCH  15  16
ENDBRANCH  14  15
ENDBRANCH   4  14
TORSDOF 6
ENDMDL
MODEL      100
REMARK 921   NORMALIZED FREE ENERGY PREDICTED BY IDOCK:   -5.68 KCAL/MOL
REMARK 922        TOTAL FREE ENERGY PREDICTED BY IDOCK:   -9.16 KCAL/MOL
REMARK 923 INTER-LIGAND FREE ENERGY PREDICTED BY IDOCK:   -8.54 KCAL/MOL
REMARK 924 INTRA-LIGAND FREE ENERGY PREDICTED BY IDOCK:   -0.62 KCAL/MOL
REMARK 927      BINDING AFFINITY PREDICTED BY RF-SCORE:    0.00 PKD
ROOT
HETATM    1  C   UNL     1      -8.871  20.069  68.736  1.00  0.00     0.029 C  
HETATM    2  C   UNL     1      -9.488  18.740  68.290  1.00  0.00    -0.349 C  
HETATM    3  O   UNL     1      -8.471  17.775  68.559  1.00  0.00    -0.290 OA 
HETATM    4  C   UNL     1      -8.486  16.511  67.911  1.00  0.00    -0.181 C  
HETATM    5  H   UNL     1     -11.501  17.932  64.889  1.00  0.00     0.000 HD 
HETATM    6  C   UNL     1      -8.951  16.562  66.448  1.00  0.00    -0.305 C  
HETATM    7  C   UNL     1     -10.236  17.395  66.322  1.00  0.00    -0.341 C  
HETATM    8  O   UNL     1     -11.098  19.679  66.722  1.00  0.00    -0.377 OA 
HETATM    9  O   UNL     1      -7.925  17.139  65.617  1.00  0.00    -0.381 OA 
HETATM   10  H   UNL     1      -8.212  17.172  64.712  1.00  0.00     0.000 HD 
HETATM   11  H   UNL     1     -11.384  19.728  65.817  1.00  0.00     0.000 HD 
HETATM   12  O   UNL     1     -10.707  17.417  64.966  1.00  0.00    -0.688 OA 
HETATM   13  C   UNL     1      -9.952  18.819  66.823  1.00  0.00    -0.358 C  
ENDROOT
BRANCH   4  14
HETATM   14  O   UNL     1      -9.199  15.480  68.597  1.00  0.00    -0.185 OA 
BRANCH  14  15
HETATM   15  C   UNL     1      -8.902  14.161  68.106  1.00  0.00    -0.183 C  
BRANCH  15  16
HETATM   16  C   UNL     1      -7.483  13.782  68.544  1.00  0.00    -0.119 C  
HETATM   17  C   UNL     1      -7.588  11.395  69.164  1.00  0.00    -0.038 C  
HETATM   18  O   UNL     1      -7.499  12.773  69.584  1.00  0.00     0.450 OA 
HETATM   19  H   UNL     1      -7.655  12.318  65.337  1.00  0.00     0.000 HD 
HETATM   20  C   UNL     1      -6.391  11.155  68.214  1.00  0.00    -0.049 C  
HETATM   21  H   UNL     1      -4.647  13.860  66.964  1.00  0.00     0.000 HD 
HETATM   22  O   UNL     1      -5.139  11.440  68.887  1.00  0.00    -0.044 OA 
HETATM   23  C   UNL     1      -6.485  12.045  66.963  1.00  0.00    -0.114 C  
HETATM   24  H   UNL     1      -4.404  11.293  68.303  1.00  0.00     0.000 HD 
HETATM   25  O   UNL     1      -5.230  14.019  67.697  1.00  0.00    -0.300 OA 
HETATM   26  O   UNL     1      -7.598  11.769  66.110  1.00  0.00     0.153 OA 
HETATM   27  C   UNL     1      -6.537  13.524  67.356  1.00  0.00     0.003 C  
BRANCH  17  28
HETATM   28  O   UNL     1      -8.894  11.091  68.650  1.00  0.00    -0.156 OA 
BRANCH  28  29
HETATM   29  C   UNL     1      -9.314   9.762  68.715  1.00  0.00    -0.150 C  
HETATM   30  O   UNL     1     -10.047   7.708  67.607  1.00  0.00    -0.166 OA 
HETATM   31  C   UNL     1      -9.866   9.092  67.674  1.00  0.00    -0.172 C  
HETATM   32  C   UNL     1      -9.789   6.953  68.723  1.00  0.00    -0.149 A  
HETATM   33  O   UNL     1      -7.915   9.293  70.531  1.00  0.00    -0.135 OA 
HETATM   34  H   UNL     1      -8.894   8.357  72.315  1.00  0.00     0.000 HD 
HETATM   35  C   UNL     1      -9.947   5.569  68.672  1.00  0.00    -0.222 A  
HETATM   36  C   UNL     1      -8.836   8.906  69.821  1.00  0.00    -0.144 C  
HETATM   37  C   UNL     1      -9.754   4.815  69.836  1.00  0.00    -0.204 A  
HETATM   38  C   UNL     1      -9.361   7.551  69.925  1.00  0.00    -0.150 A  
HETATM   39  O   UNL     1      -9.033   7.417  72.285  1.00  0.00    -0.125 OA 
HETATM   40  C   UNL     1      -9.476   5.423  71.056  1.00  0.00    -0.205 A  
HETATM   41  O   UNL     1      -9.827   3.452  69.837  1.00  0.00    -0.104 OA 
HETATM   42  H   UNL     1      -9.696   2.940  70.627  1.00  0.00     0.000 HD 
HETATM   43  C   UNL     1      -9.274   6.794  71.100  1.00  0.00    -0.159 A  
BRANCH  31  44
HETATM   44  C   UNL     1     -10.220   9.829  66.452  1.00  0.00    -0.288 A  
HETATM   45  O   UNL     1     -10.604  12.269  63.117  1.00  0.00    -0.567 OA 
HETATM   46  H   UNL     1     -12.019  13.452  64.610  1.00  0.00     0.000 HD 
HETATM   47  C   UNL     1      -9.575   9.496  65.244  1.00  0.00    -0.314 A  
HETATM   48  H   UNL     1     -10.144  12.054  62.315  1.00  0.00     0.000 HD 
HETATM   49  O   UNL     1     -11.935  12.903  65.380  1.00  0.00    -0.374 OA 
HETATM   50  C   UNL     1     -10.516  11.437  64.198  1.00  0.00    -0.363 A  
HETATM   51  C   UNL     1     -11.193  11.752  65.375  1.00  0.00    -0.251 A  
HETATM   52  C   UNL     1     -11.070  10.945  66.503  1.00  0.00    -0.119 A  
HETATM   53  C   UNL     1      -9.721  10.305  64.115  1.00  0.00    -0.357 A  
ENDBRANCH  31  44
ENDBRANCH  28  29
ENDBRANCH  17  28
ENDBRANCH  15  16
ENDBRANCH  14  15
ENDBRANCH   4  14
TORSDOF 6
ENDMDL
MODEL      101
REMARK 921   NORMALIZED FREE ENERGY PREDICTED BY IDOCK:   -5.63 KCAL/MOL
REMARK 922        TOTAL FREE ENERGY PREDICTED BY IDOCK:   -9.08 KCAL/MOL
REMARK 923 INTER-LIGAND FREE ENERGY PREDICTED BY IDOCK:   -7.77 KCAL/MOL
REMARK 924 INTRA-LIGAND FREE ENERGY PREDICTED BY IDOCK:   -1.31 KCAL/MOL
REMARK 927      BINDING AFFINITY PREDICTED BY RF-SCORE:    0.00 PKD
ROOT
HETATM    1  C   UNL     1     -10.178   5.557  66.502  1.00  0.00    -0.273 C  
HETATM    2  C   UNL     1      -9.160   6.700  66.466  1.00  0.00    -0.149 C  
HETATM    3  O   UNL     1      -9.943   7.875  66.679  1.00  0.00    -0.245 OA 
HETATM    4  C   UNL     1      -9.448   9.151  66.301  1.00  0.00    -0.237 C  
HETATM    5  H   UNL     1      -6.180   7.311  63.816  1.00  0.00     0.000 HD 
HETATM    6  C   UNL     1      -8.637   9.148  64.996  1.00  0.00    -0.180 C  
HETATM    7  C   UNL     1      -7.609   8.007  65.006  1.00  0.00    -0.104 C  
HETATM    8  O   UNL     1      -7.470   5.541  65.148  1.00  0.00    -0.070 OA 
HETATM    9  O   UNL     1      -9.514   8.993  63.864  1.00  0.00    -0.184 OA 
HETATM   10  H   UNL     1      -9.012   8.990  63.057  1.00  0.00     0.000 HD 
HETATM   11  H   UNL     1      -6.975   5.523  64.338  1.00  0.00     0.000 HD 
HETATM   12  O   UNL     1      -6.815   8.017  63.811  1.00  0.00    -0.072 OA 
HETATM   13  C   UNL     1      -8.356   6.672  65.152  1.00  0.00    -0.088 C  
ENDROOT
BRANCH   4  14
HETATM   14  O   UNL     1      -8.713   9.845  67.312  1.00  0.00    -0.128 OA 
BRANCH  14  15
HETATM   15  C   UNL     1      -9.173  11.191  67.524  1.00  0.00    -0.153 C  
BRANCH  15  16
HETATM   16  C   UNL     1      -9.619  11.332  68.985  1.00  0.00    -0.030 C  
HETATM   17  C   UNL     1     -11.075  13.324  69.052  1.00  0.00    -0.244 C  
HETATM   18  O   UNL     1      -9.799  12.722  69.354  1.00  0.00     0.538 OA 
HETATM   19  H   UNL     1     -12.527  10.023  67.472  1.00  0.00     0.000 HD 
HETATM   20  C   UNL     1     -12.143  12.450  69.750  1.00  0.00    -0.223 C  
HETATM   21  H   UNL     1     -11.268   9.328  70.937  1.00  0.00     0.000 HD 
HETATM   22  O   UNL     1     -11.895  12.385  71.177  1.00  0.00    -0.155 OA 
HETATM   23  C   UNL     1     -12.143  11.018  69.190  1.00  0.00    -0.263 C  
HETATM   24  H   UNL     1     -12.551  11.848  71.606  1.00  0.00     0.000 HD 
HETATM   25  O   UNL     1     -10.561   9.920  70.708  1.00  0.00    -0.304 OA 
HETATM   26  O   UNL     1     -12.527  10.908  67.818  1.00  0.00     0.495 OA 
HETATM   27  C   UNL     1     -10.765  10.372  69.357  1.00  0.00    -0.244 C  
BRANCH  17  28
HETATM   28  O   UNL     1     -11.231  13.532  67.639  1.00  0.00    -0.261 OA 
BRANCH  28  29
HETATM   29  C   UNL     1     -10.859  14.776  67.130  1.00  0.00    -0.311 C  
HETATM   30  O   UNL     1     -10.858  16.415  65.314  1.00  0.00    -0.416 OA 
HETATM   31  C   UNL     1     -10.957  15.117  65.821  1.00  0.00    -0.349 C  
HETATM   32  C   UNL     1     -10.491  17.430  66.162  1.00  0.00    -0.284 A  
HETATM   33  O   UNL     1     -11.079  15.818  69.212  1.00  0.00    -0.254 OA 
HETATM   34  H   UNL     1      -9.312  17.001  69.917  1.00  0.00     0.000 HD 
HETATM   35  C   UNL     1     -10.403  18.735  65.680  1.00  0.00    -0.077 A  
HETATM   36  C   UNL     1     -10.685  15.914  68.056  1.00  0.00    -0.301 C  
HETATM   37  C   UNL     1      -9.956  19.751  66.532  1.00  0.00    -0.459 A  
HETATM   38  C   UNL     1     -10.203  17.179  67.518  1.00  0.00    -0.323 A  
HETATM   39  O   UNL     1      -9.224  17.884  69.577  1.00  0.00     0.297 OA 
HETATM   40  C   UNL     1      -9.531  19.475  67.828  1.00  0.00    -0.423 A  
HETATM   41  O   UNL     1      -9.912  21.059  66.142  1.00  0.00    -0.140 OA 
HETATM   42  H   UNL     1      -9.608  21.748  66.720  1.00  0.00     0.000 HD 
HETATM   43  C   UNL     1      -9.661  18.187  68.324  1.00  0.00    -0.317 A  
BRANCH  31  44
HETATM   44  C   UNL     1     -11.300  14.084  64.833  1.00  0.00    -0.354 A  
HETATM   45  O   UNL     1     -12.291  10.722  62.611  1.00  0.00     0.216 OA 
HETATM   46  H   UNL     1      -9.948  10.737  62.239  1.00  0.00     0.000 HD 
HETATM   47  C   UNL     1     -12.644  13.682  64.705  1.00  0.00    -0.339 A  
HETATM   48  H   UNL     1     -13.196  10.440  62.553  1.00  0.00     0.000 HD 
HETATM   49  O   UNL     1      -9.709  11.503  62.748  1.00  0.00    -0.340 OA 
HETATM   50  C   UNL     1     -11.973  11.858  63.302  1.00  0.00    -0.337 A  
HETATM   51  C   UNL     1     -10.646  12.272  63.386  1.00  0.00    -0.385 A  
HETATM   52  C   UNL     1     -10.297  13.395  64.132  1.00  0.00    -0.104 A  
HETATM   53  C   UNL     1     -12.982  12.563  63.941  1.00  0.00    -0.197 A  
ENDBRANCH  31  44
ENDBRANCH  28  29
ENDBRANCH  17  28
ENDBRANCH  15  16
ENDBRANCH  14  15
ENDBRANCH   4  14
TORSDOF 6
ENDMDL
MODEL      102
REMARK 921   NORMALIZED FREE ENERGY PREDICTED BY IDOCK:   -5.63 KCAL/MOL
REMARK 922        TOTAL FREE ENERGY PREDICTED BY IDOCK:   -9.08 KCAL/MOL
REMARK 923 INTER-LIGAND FREE ENERGY PREDICTED BY IDOCK:   -7.13 KCAL/MOL
REMARK 924 INTRA-LIGAND FREE ENERGY PREDICTED BY IDOCK:   -1.96 KCAL/MOL
REMARK 927      BINDING AFFINITY PREDICTED BY RF-SCORE:    0.00 PKD
ROOT
HETATM    1  C   UNL     1     -11.586  15.869  69.751  1.00  0.00    -0.340 C  
HETATM    2  C   UNL     1     -10.504  15.701  68.680  1.00  0.00    -0.231 C  
HETATM    3  O   UNL     1      -9.498  14.916  69.319  1.00  0.00    -0.187 OA 
HETATM    4  C   UNL     1      -8.169  14.899  68.817  1.00  0.00    -0.161 C  
HETATM    5  H   UNL     1      -8.935  18.510  66.247  1.00  0.00     0.000 HD 
HETATM    6  C   UNL     1      -7.683  16.254  68.283  1.00  0.00    -0.158 C  
HETATM    7  C   UNL     1      -8.739  16.877  67.359  1.00  0.00    -0.203 C  
HETATM    8  O   UNL     1     -11.082  17.674  67.373  1.00  0.00    -0.150 OA 
HETATM    9  O   UNL     1      -7.413  17.154  69.376  1.00  0.00    -0.135 OA 
HETATM   10  H   UNL     1      -7.113  17.993  69.045  1.00  0.00     0.000 HD 
HETATM   11  H   UNL     1     -10.794  18.520  67.049  1.00  0.00     0.000 HD 
HETATM   12  O   UNL     1      -8.282  18.125  66.818  1.00  0.00    -0.236 OA 
HETATM   13  C   UNL     1     -10.038  17.073  68.156  1.00  0.00    -0.308 C  
ENDROOT
BRANCH   4  14
HETATM   14  O   UNL     1      -7.894  13.884  67.849  1.00  0.00    -0.131 OA 
BRANCH  14  15
HETATM   15  C   UNL     1      -8.953  12.918  67.723  1.00  0.00    -0.191 C  
BRANCH  15  16
HETATM   16  C   UNL     1      -9.281  12.741  66.235  1.00  0.00    -0.089 C  
HETATM   17  C   UNL     1      -9.386  10.304  65.858  1.00  0.00    -0.180 C  
HETATM   18  O   UNL     1      -8.667  11.545  65.695  1.00  0.00    -0.097 OA 
HETATM   19  H   UNL     1     -12.388  12.016  67.744  1.00  0.00     0.000 HD 
HETATM   20  C   UNL     1     -10.776  10.522  65.215  1.00  0.00     0.051 C  
HETATM   21  H   UNL     1     -11.811  13.727  64.455  1.00  0.00     0.000 HD 
HETATM   22  O   UNL     1     -10.641  10.894  63.820  1.00  0.00    -0.499 OA 
HETATM   23  C   UNL     1     -11.558  11.629  65.941  1.00  0.00    -0.020 C  
HETATM   24  H   UNL     1     -11.495  11.028  63.426  1.00  0.00     0.000 HD 
HETATM   25  O   UNL     1     -10.890  13.602  64.648  1.00  0.00    -0.367 OA 
HETATM   26  O   UNL     1     -11.905  11.333  67.296  1.00  0.00    -0.562 OA 
HETATM   27  C   UNL     1     -10.775  12.944  65.923  1.00  0.00    -0.271 C  
BRANCH  17  28
HETATM   28  O   UNL     1      -9.366   9.868  67.226  1.00  0.00    -0.142 OA 
BRANCH  28  29
HETATM   29  C   UNL     1      -8.901   8.577  67.479  1.00  0.00    -0.135 C  
HETATM   30  O   UNL     1      -7.478   7.041  68.743  1.00  0.00    -0.094 OA 
HETATM   31  C   UNL     1      -7.815   8.301  68.244  1.00  0.00    -0.118 C  
HETATM   32  C   UNL     1      -8.200   5.950  68.330  1.00  0.00    -0.109 A  
HETATM   33  O   UNL     1     -10.984   7.617  67.018  1.00  0.00    -0.277 OA 
HETATM   34  H   UNL     1     -10.993   5.948  65.524  1.00  0.00     0.000 HD 
HETATM   35  C   UNL     1      -7.889   4.686  68.829  1.00  0.00    -0.075 A  
HETATM   36  C   UNL     1      -9.792   7.425  67.228  1.00  0.00    -0.175 C  
HETATM   37  C   UNL     1      -8.581   3.570  68.345  1.00  0.00    -0.093 A  
HETATM   38  C   UNL     1      -9.256   6.082  67.407  1.00  0.00    -0.109 A  
HETATM   39  O   UNL     1     -10.758   5.085  65.844  1.00  0.00    -0.266 OA 
HETATM   40  C   UNL     1      -9.522   3.686  67.327  1.00  0.00    -0.235 A  
HETATM   41  O   UNL     1      -8.372   2.315  68.841  1.00  0.00    -0.054 OA 
HETATM   42  H   UNL     1      -8.842   1.558  68.513  1.00  0.00     0.000 HD 
HETATM   43  C   UNL     1      -9.865   4.946  66.860  1.00  0.00    -0.197 A  
BRANCH  31  44
HETATM   44  C   UNL     1      -6.955   9.405  68.695  1.00  0.00    -0.065 A  
HETATM   45  O   UNL     1      -5.141  12.896  70.015  1.00  0.00    -0.082 OA 
HETATM   46  H   UNL     1      -4.731  13.119  67.689  1.00  0.00     0.000 HD 
HETATM   47  C   UNL     1      -6.896   9.704  70.071  1.00  0.00    -0.085 A  
HETATM   48  H   UNL     1      -5.130  13.105  70.941  1.00  0.00     0.000 HD 
HETATM   49  O   UNL     1      -5.147  12.324  67.375  1.00  0.00    -0.088 OA 
HETATM   50  C   UNL     1      -5.695  11.721  69.588  1.00  0.00    -0.087 A  
HETATM   51  C   UNL     1      -5.710  11.414  68.229  1.00  0.00    -0.045 A  
HETATM   52  C   UNL     1      -6.319  10.248  67.771  1.00  0.00    -0.057 A  
HETATM   53  C   UNL     1      -6.267  10.867  70.518  1.00  0.00    -0.072 A  
ENDBRANCH  31  44
ENDBRANCH  28  29
ENDBRANCH  17  28
ENDBRANCH  15  16
ENDBRANCH  14  15
ENDBRANCH   4  14
TORSDOF 6
ENDMDL
MODEL      103
REMARK 921   NORMALIZED FREE ENERGY PREDICTED BY IDOCK:   -5.56 KCAL/MOL
REMARK 922        TOTAL FREE ENERGY PREDICTED BY IDOCK:   -9.00 KCAL/MOL
REMARK 923 INTER-LIGAND FREE ENERGY PREDICTED BY IDOCK:   -7.88 KCAL/MOL
REMARK 924 INTRA-LIGAND FREE ENERGY PREDICTED BY IDOCK:   -1.11 KCAL/MOL
REMARK 927      BINDING AFFINITY PREDICTED BY RF-SCORE:    0.00 PKD
ROOT
HETATM    1  C   UNL     1     -12.825  14.125  65.429  1.00  0.00    -0.393 C  
HETATM    2  C   UNL     1     -11.458  14.231  66.112  1.00  0.00    -0.355 C  
HETATM    3  O   UNL     1     -11.752  14.110  67.504  1.00  0.00    -0.344 OA 
HETATM    4  C   UNL     1     -10.828  14.572  68.479  1.00  0.00    -0.249 C  
HETATM    5  H   UNL     1      -8.505  16.885  65.398  1.00  0.00     0.000 HD 
HETATM    6  C   UNL     1     -10.096  15.865  68.087  1.00  0.00    -0.229 C  
HETATM    7  C   UNL     1      -9.560  15.763  66.652  1.00  0.00    -0.247 C  
HETATM    8  O   UNL     1     -10.334  15.445  64.324  1.00  0.00    -0.384 OA 
HETATM    9  O   UNL     1     -10.986  16.993  68.186  1.00  0.00    -0.367 OA 
HETATM   10  H   UNL     1     -10.534  17.792  67.943  1.00  0.00     0.000 HD 
HETATM   11  H   UNL     1      -9.893  16.246  64.068  1.00  0.00     0.000 HD 
HETATM   12  O   UNL     1      -8.836  16.947  66.285  1.00  0.00    -0.283 OA 
HETATM   13  C   UNL     1     -10.742  15.531  65.698  1.00  0.00    -0.366 C  
ENDROOT
BRANCH   4  14
HETATM   14  O   UNL     1      -9.874  13.606  68.924  1.00  0.00    -0.118 OA 
BRANCH  14  15
HETATM   15  C   UNL     1      -9.282  12.856  67.848  1.00  0.00    -0.208 C  
BRANCH  15  16
HETATM   16  C   UNL     1      -7.801  12.621  68.170  1.00  0.00    -0.145 C  
HETATM   17  C   UNL     1      -7.574  10.193  68.548  1.00  0.00    -0.088 C  
HETATM   18  O   UNL     1      -7.627  11.525  69.101  1.00  0.00    -0.097 OA 
HETATM   19  H   UNL     1      -8.004  11.457  64.844  1.00  0.00     0.000 HD 
HETATM   20  C   UNL     1      -6.422  10.198  67.516  1.00  0.00    -0.066 C  
HETATM   21  H   UNL     1      -5.105  13.209  66.457  1.00  0.00     0.000 HD 
HETATM   22  O   UNL     1      -5.172  10.576  68.147  1.00  0.00    -0.035 OA 
HETATM   23  C   UNL     1      -6.705  11.183  66.369  1.00  0.00    -0.102 C  
HETATM   24  H   UNL     1      -4.465  10.579  67.513  1.00  0.00     0.000 HD 
HETATM   25  O   UNL     1      -5.654  13.223  67.232  1.00  0.00    -0.356 OA 
HETATM   26  O   UNL     1      -7.829  10.848  65.552  1.00  0.00    -0.094 OA 
HETATM   27  C   UNL     1      -6.911  12.599  66.912  1.00  0.00     0.312 C  
BRANCH  17  28
HETATM   28  O   UNL     1      -8.864   9.774  68.076  1.00  0.00    -0.119 OA 
BRANCH  28  29
HETATM   29  C   UNL     1      -9.485   8.726  68.756  1.00  0.00    -0.142 C  
HETATM   30  O   UNL     1      -9.577   6.366  69.394  1.00  0.00    -0.142 OA 
HETATM   31  C   UNL     1      -9.187   7.417  68.560  1.00  0.00    -0.142 C  
HETATM   32  C   UNL     1     -10.449   6.626  70.422  1.00  0.00    -0.211 A  
HETATM   33  O   UNL     1     -10.130  10.110  70.528  1.00  0.00    -0.142 OA 
HETATM   34  H   UNL     1     -12.301  10.063  71.078  1.00  0.00     0.000 HD 
HETATM   35  C   UNL     1     -10.836   5.594  71.276  1.00  0.00    -0.289 A  
HETATM   36  C   UNL     1     -10.240   9.013  69.993  1.00  0.00    -0.203 C  
HETATM   37  C   UNL     1     -11.784   5.851  72.274  1.00  0.00    -0.252 A  
HETATM   38  C   UNL     1     -10.960   7.921  70.634  1.00  0.00    -0.248 A  
HETATM   39  O   UNL     1     -12.586   9.350  71.638  1.00  0.00    -0.327 OA 
HETATM   40  C   UNL     1     -12.397   7.095  72.387  1.00  0.00    -0.031 A  
HETATM   41  O   UNL     1     -12.155   4.903  73.184  1.00  0.00    -0.405 OA 
HETATM   42  H   UNL     1     -12.797   5.078  73.861  1.00  0.00     0.000 HD 
HETATM   43  C   UNL     1     -11.981   8.134  71.569  1.00  0.00    -0.298 A  
BRANCH  31  44
HETATM   44  C   UNL     1      -8.297   7.040  67.453  1.00  0.00    -0.122 A  
HETATM   45  O   UNL     1      -5.491   6.628  64.423  1.00  0.00    -0.025 OA 
HETATM   46  H   UNL     1      -7.368   7.248  63.111  1.00  0.00     0.000 HD 
HETATM   47  C   UNL     1      -6.985   6.619  67.746  1.00  0.00    -0.083 A  
HETATM   48  H   UNL     1      -4.601   6.372  64.631  1.00  0.00     0.000 HD 
HETATM   49  O   UNL     1      -8.017   7.349  63.797  1.00  0.00    -0.128 OA 
HETATM   50  C   UNL     1      -6.426   6.715  65.417  1.00  0.00    -0.046 A  
HETATM   51  C   UNL     1      -7.733   7.090  65.111  1.00  0.00    -0.113 A  
HETATM   52  C   UNL     1      -8.684   7.237  66.118  1.00  0.00    -0.170 A  
HETATM   53  C   UNL     1      -6.046   6.459  66.725  1.00  0.00    -0.029 A  
ENDBRANCH  31  44
ENDBRANCH  28  29
ENDBRANCH  17  28
ENDBRANCH  15  16
ENDBRANCH  14  15
ENDBRANCH   4  14
TORSDOF 6
ENDMDL
MODEL      104
REMARK 921   NORMALIZED FREE ENERGY PREDICTED BY IDOCK:   -5.51 KCAL/MOL
REMARK 922        TOTAL FREE ENERGY PREDICTED BY IDOCK:   -8.92 KCAL/MOL
REMARK 923 INTER-LIGAND FREE ENERGY PREDICTED BY IDOCK:   -6.77 KCAL/MOL
REMARK 924 INTRA-LIGAND FREE ENERGY PREDICTED BY IDOCK:   -2.14 KCAL/MOL
REMARK 927      BINDING AFFINITY PREDICTED BY RF-SCORE:    0.00 PKD
ROOT
HETATM    1  C   UNL     1     -11.171   6.370  69.894  1.00  0.00    -0.485 C  
HETATM    2  C   UNL     1     -10.324   7.638  69.745  1.00  0.00    -0.223 C  
HETATM    3  O   UNL     1     -11.271   8.653  69.406  1.00  0.00     0.000 OA 
HETATM    4  C   UNL     1     -10.846   9.856  68.782  1.00  0.00    -0.208 C  
HETATM    5  H   UNL     1      -6.827   8.096  67.787  1.00  0.00     0.000 HD 
HETATM    6  C   UNL     1      -9.714   9.667  67.761  1.00  0.00    -0.146 C  
HETATM    7  C   UNL     1      -8.600   8.789  68.350  1.00  0.00    -0.134 C  
HETATM    8  O   UNL     1      -8.213   6.523  69.263  1.00  0.00    -0.119 OA 
HETATM    9  O   UNL     1     -10.222   9.052  66.561  1.00  0.00    -0.278 OA 
HETATM   10  H   UNL     1      -9.522   8.935  65.929  1.00  0.00     0.000 HD 
HETATM   11  H   UNL     1      -7.516   6.389  68.632  1.00  0.00     0.000 HD 
HETATM   12  O   UNL     1      -7.515   8.638  67.423  1.00  0.00    -0.088 OA 
HETATM   13  C   UNL     1      -9.194   7.421  68.721  1.00  0.00    -0.144 C  
ENDROOT
BRANCH   4  14
HETATM   14  O   UNL     1     -10.505  10.920  69.673  1.00  0.00    -0.196 OA 
BRANCH  14  15
HETATM   15  C   UNL     1     -10.439  12.203  69.027  1.00  0.00    -0.038 C  
BRANCH  15  16
HETATM   16  C   UNL     1     -11.090  13.247  69.943  1.00  0.00     0.246 C  
HETATM   17  C   UNL     1     -10.049  15.404  69.344  1.00  0.00    -0.269 C  
HETATM   18  O   UNL     1     -10.163  14.310  70.279  1.00  0.00     0.614 OA 
HETATM   19  H   UNL     1     -12.707  13.883  66.870  1.00  0.00     0.000 HD 
HETATM   20  C   UNL     1     -11.474  15.979  69.175  1.00  0.00    -0.347 C  
HETATM   21  H   UNL     1     -14.184  14.164  70.308  1.00  0.00     0.000 HD 
HETATM   22  O   UNL     1     -12.007  16.408  70.453  1.00  0.00    -0.377 OA 
HETATM   23  C   UNL     1     -12.429  14.934  68.575  1.00  0.00     0.266 C  
HETATM   24  H   UNL     1     -12.883  16.762  70.349  1.00  0.00     0.000 HD 
HETATM   25  O   UNL     1     -13.324  13.894  70.607  1.00  0.00    -0.105 OA 
HETATM   26  O   UNL     1     -12.117  14.528  67.241  1.00  0.00    -0.392 OA 
HETATM   27  C   UNL     1     -12.485  13.684  69.457  1.00  0.00    -0.043 C  
BRANCH  17  28
HETATM   28  O   UNL     1      -9.368  14.996  68.147  1.00  0.00    -0.182 OA 
BRANCH  28  29
HETATM   29  C   UNL     1      -8.403  15.862  67.633  1.00  0.00    -0.152 C  
HETATM   30  O   UNL     1      -6.147  16.261  66.774  1.00  0.00    -0.316 OA 
HETATM   31  C   UNL     1      -7.088  15.548  67.521  1.00  0.00    -0.191 C  
HETATM   32  C   UNL     1      -6.517  17.458  66.215  1.00  0.00    -0.235 A  
HETATM   33  O   UNL     1      -9.992  17.112  66.456  1.00  0.00    -0.276 OA 
HETATM   34  H   UNL     1      -9.959  19.325  66.800  1.00  0.00     0.000 HD 
HETATM   35  C   UNL     1      -5.598  18.178  65.453  1.00  0.00    -0.183 A  
HETATM   36  C   UNL     1      -8.831  17.033  66.840  1.00  0.00    -0.230 C  
HETATM   37  C   UNL     1      -5.959  19.433  64.949  1.00  0.00    -0.260 A  
HETATM   38  C   UNL     1      -7.815  17.977  66.394  1.00  0.00    -0.304 A  
HETATM   39  O   UNL     1      -9.320  19.826  66.306  1.00  0.00    -0.367 OA 
HETATM   40  C   UNL     1      -7.190  20.008  65.251  1.00  0.00    -0.176 A  
HETATM   41  O   UNL     1      -5.131  20.156  64.140  1.00  0.00    -0.154 OA 
HETATM   42  H   UNL     1      -5.376  21.008  63.799  1.00  0.00     0.000 HD 
HETATM   43  C   UNL     1      -8.122  19.276  65.971  1.00  0.00    -0.221 A  
BRANCH  31  44
HETATM   44  C   UNL     1      -6.592  14.306  68.130  1.00  0.00    -0.132 A  
HETATM   45  O   UNL     1      -5.886  10.663  69.990  1.00  0.00    -0.056 OA 
HETATM   46  H   UNL     1      -5.413  12.109  71.810  1.00  0.00     0.000 HD 
HETATM   47  C   UNL     1      -6.700  13.101  67.408  1.00  0.00    -0.107 A  
HETATM   48  H   UNL     1      -5.989   9.854  69.504  1.00  0.00     0.000 HD 
HETATM   49  O   UNL     1      -5.576  12.948  71.396  1.00  0.00    -0.360 OA 
HETATM   50  C   UNL     1      -6.070  11.864  69.362  1.00  0.00    -0.096 A  
HETATM   51  C   UNL     1      -5.919  13.051  70.074  1.00  0.00    -0.140 A  
HETATM   52  C   UNL     1      -6.157  14.281  69.465  1.00  0.00    -0.112 A  
HETATM   53  C   UNL     1      -6.442  11.876  68.026  1.00  0.00    -0.055 A  
ENDBRANCH  31  44
ENDBRANCH  28  29
ENDBRANCH  17  28
ENDBRANCH  15  16
ENDBRANCH  14  15
ENDBRANCH   4  14
TORSDOF 6
ENDMDL
MODEL      105
REMARK 921   NORMALIZED FREE ENERGY PREDICTED BY IDOCK:   -5.50 KCAL/MOL
REMARK 922        TOTAL FREE ENERGY PREDICTED BY IDOCK:   -8.91 KCAL/MOL
REMARK 923 INTER-LIGAND FREE ENERGY PREDICTED BY IDOCK:   -9.27 KCAL/MOL
REMARK 924 INTRA-LIGAND FREE ENERGY PREDICTED BY IDOCK:    0.36 KCAL/MOL
REMARK 927      BINDING AFFINITY PREDICTED BY RF-SCORE:    0.00 PKD
ROOT
HETATM    1  C   UNL     1      -6.546   6.932  66.280  1.00  0.00    -0.052 C  
HETATM    2  C   UNL     1      -8.016   7.241  65.982  1.00  0.00    -0.115 C  
HETATM    3  O   UNL     1      -8.133   8.645  66.213  1.00  0.00    -0.100 OA 
HETATM    4  C   UNL     1      -9.403   9.234  66.454  1.00  0.00    -0.192 C  
HETATM    5  H   UNL     1     -11.291   5.217  67.187  1.00  0.00     0.000 HD 
HETATM    6  C   UNL     1     -10.348   8.364  67.296  1.00  0.00    -0.299 C  
HETATM    7  C   UNL     1     -10.368   6.924  66.765  1.00  0.00    -0.217 C  
HETATM    8  O   UNL     1      -8.870   4.994  66.375  1.00  0.00    -0.113 OA 
HETATM    9  O   UNL     1      -9.928   8.360  68.674  1.00  0.00    -0.173 OA 
HETATM   10  H   UNL     1     -10.512   7.822  69.195  1.00  0.00     0.000 HD 
HETATM   11  H   UNL     1      -9.441   4.445  66.899  1.00  0.00     0.000 HD 
HETATM   12  O   UNL     1     -11.279   6.108  67.516  1.00  0.00    -0.292 OA 
HETATM   13  C   UNL     1      -8.943   6.352  66.834  1.00  0.00    -0.124 C  
ENDROOT
BRANCH   4  14
HETATM   14  O   UNL     1     -10.094   9.692  65.290  1.00  0.00    -0.237 OA 
BRANCH  14  15
HETATM   15  C   UNL     1     -10.138  11.126  65.183  1.00  0.00    -0.281 C  
BRANCH  15  16
HETATM   16  C   UNL     1     -11.605  11.568  65.108  1.00  0.00     0.051 C  
HETATM   17  C   UNL     1     -11.891  13.250  66.891  1.00  0.00    -0.392 C  
HETATM   18  O   UNL     1     -12.126  11.907  66.417  1.00  0.00    -0.552 OA 
HETATM   19  H   UNL     1      -9.953  14.317  63.634  1.00  0.00     0.000 HD 
HETATM   20  C   UNL     1     -12.487  14.197  65.823  1.00  0.00    -0.466 C  
HETATM   21  H   UNL     1     -13.320  12.941  62.716  1.00  0.00     0.000 HD 
HETATM   22  O   UNL     1     -13.898  13.926  65.631  1.00  0.00    -0.237 OA 
HETATM   23  C   UNL     1     -11.771  14.033  64.472  1.00  0.00    -0.413 C  
HETATM   24  H   UNL     1     -14.264  14.507  64.974  1.00  0.00     0.000 HD 
HETATM   25  O   UNL     1     -13.159  12.313  63.410  1.00  0.00    -0.727 OA 
HETATM   26  O   UNL     1     -10.394  14.417  64.469  1.00  0.00    -0.314 OA 
HETATM   27  C   UNL     1     -11.867  12.586  63.982  1.00  0.00    -0.431 C  
BRANCH  17  28
HETATM   28  O   UNL     1     -10.510  13.447  67.233  1.00  0.00    -0.246 OA 
BRANCH  28  29
HETATM   29  C   UNL     1     -10.164  14.660  67.828  1.00  0.00    -0.229 C  
HETATM   30  O   UNL     1      -9.777  16.011  69.829  1.00  0.00    -0.221 OA 
HETATM   31  C   UNL     1     -10.347  14.937  69.143  1.00  0.00    -0.245 C  
HETATM   32  C   UNL     1      -9.089  16.961  69.118  1.00  0.00    -0.091 A  
HETATM   33  O   UNL     1      -8.613  15.166  66.151  1.00  0.00    -0.121 OA 
HETATM   34  H   UNL     1      -8.835  17.169  65.172  1.00  0.00     0.000 HD 
HETATM   35  C   UNL     1      -8.498  18.032  69.787  1.00  0.00     1.303 A  
HETATM   36  C   UNL     1      -9.236  15.571  67.125  1.00  0.00    -0.214 C  
HETATM   37  C   UNL     1      -7.863  19.036  69.046  1.00  0.00    -0.233 A  
HETATM   38  C   UNL     1      -8.962  16.873  67.718  1.00  0.00    -0.225 A  
HETATM   39  O   UNL     1      -8.461  17.913  65.629  1.00  0.00    -0.396 OA 
HETATM   40  C   UNL     1      -7.868  19.022  67.655  1.00  0.00    -0.269 A  
HETATM   41  O   UNL     1      -7.208  20.074  69.643  1.00  0.00    -0.201 OA 
HETATM   42  H   UNL     1      -6.777  20.755  69.140  1.00  0.00     0.000 HD 
HETATM   43  C   UNL     1      -8.414  17.936  66.988  1.00  0.00    -0.236 A  
BRANCH  31  44
HETATM   44  C   UNL     1     -11.114  13.998  69.974  1.00  0.00     0.026 A  
HETATM   45  O   UNL     1     -13.759  11.360  71.783  1.00  0.00    -0.030 OA 
HETATM   46  H   UNL     1     -14.397  13.353  72.901  1.00  0.00     0.000 HD 
HETATM   47  C   UNL     1     -11.083  12.625  69.658  1.00  0.00     0.030 A  
HETATM   48  H   UNL     1     -13.751  10.441  71.544  1.00  0.00     0.000 HD 
HETATM   49  O   UNL     1     -13.798  13.966  72.491  1.00  0.00    -0.583 OA 
HETATM   50  C   UNL     1     -12.853  12.218  71.222  1.00  0.00    -0.239 A  
HETATM   51  C   UNL     1     -12.863  13.566  71.573  1.00  0.00    -0.352 A  
HETATM   52  C   UNL     1     -11.985  14.464  70.972  1.00  0.00    -0.389 A  
HETATM   53  C   UNL     1     -11.957  11.733  70.282  1.00  0.00    -0.429 A  
ENDBRANCH  31  44
ENDBRANCH  28  29
ENDBRANCH  17  28
ENDBRANCH  15  16
ENDBRANCH  14  15
ENDBRANCH   4  14
TORSDOF 6
ENDMDL
MODEL      106
REMARK 921   NORMALIZED FREE ENERGY PREDICTED BY IDOCK:   -5.48 KCAL/MOL
REMARK 922        TOTAL FREE ENERGY PREDICTED BY IDOCK:   -8.88 KCAL/MOL
REMARK 923 INTER-LIGAND FREE ENERGY PREDICTED BY IDOCK:   -7.95 KCAL/MOL
REMARK 924 INTRA-LIGAND FREE ENERGY PREDICTED BY IDOCK:   -0.93 KCAL/MOL
REMARK 927      BINDING AFFINITY PREDICTED BY RF-SCORE:    0.00 PKD
ROOT
HETATM    1  C   UNL     1      -9.426   8.689  71.358  1.00  0.00    -0.306 C  
HETATM    2  C   UNL     1     -10.765   8.928  70.653  1.00  0.00    -0.234 C  
HETATM    3  O   UNL     1     -10.746  10.318  70.327  1.00  0.00    -0.288 OA 
HETATM    4  C   UNL     1     -11.955  11.010  70.052  1.00  0.00    -0.351 C  
HETATM    5  H   UNL     1     -14.434   7.667  71.760  1.00  0.00     0.000 HD 
HETATM    6  C   UNL     1     -13.142  10.572  70.923  1.00  0.00    -0.306 C  
HETATM    7  C   UNL     1     -13.242   9.040  70.961  1.00  0.00    -0.005 C  
HETATM    8  O   UNL     1     -11.951   7.041  71.637  1.00  0.00    -0.292 OA 
HETATM    9  O   UNL     1     -12.990  11.074  72.265  1.00  0.00    -0.431 OA 
HETATM   10  H   UNL     1     -13.723  10.802  72.804  1.00  0.00     0.000 HD 
HETATM   11  H   UNL     1     -12.674   6.761  72.186  1.00  0.00     0.000 HD 
HETATM   12  O   UNL     1     -14.372   8.614  71.737  1.00  0.00    -0.418 OA 
HETATM   13  C   UNL     1     -11.938   8.474  71.544  1.00  0.00    -0.303 C  
ENDROOT
BRANCH   4  14
HETATM   14  O   UNL     1     -12.355  11.021  68.680  1.00  0.00    -0.539 OA 
BRANCH  14  15
HETATM   15  C   UNL     1     -11.422  11.700  67.822  1.00  0.00    -0.302 C  
BRANCH  15  16
HETATM   16  C   UNL     1     -11.243  13.136  68.330  1.00  0.00    -0.271 C  
HETATM   17  C   UNL     1      -8.839  13.640  68.082  1.00  0.00    -0.189 C  
HETATM   18  O   UNL     1      -9.946  13.322  68.951  1.00  0.00    -0.094 OA 
HETATM   19  H   UNL     1     -11.065  13.588  64.834  1.00  0.00     0.000 HD 
HETATM   20  C   UNL     1      -9.246  14.919  67.313  1.00  0.00    -0.204 C  
HETATM   21  H   UNL     1     -12.542  15.946  67.350  1.00  0.00     0.000 HD 
HETATM   22  O   UNL     1      -9.541  15.998  68.237  1.00  0.00    -0.206 OA 
HETATM   23  C   UNL     1     -10.487  14.673  66.439  1.00  0.00    -0.295 C  
HETATM   24  H   UNL     1      -9.791  16.783  67.764  1.00  0.00     0.000 HD 
HETATM   25  O   UNL     1     -12.283  15.293  67.989  1.00  0.00    -0.029 OA 
HETATM   26  O   UNL     1     -10.298  13.739  65.374  1.00  0.00    -0.305 OA 
HETATM   27  C   UNL     1     -11.663  14.196  67.294  1.00  0.00    -0.392 C  
BRANCH  17  28
HETATM   28  O   UNL     1      -8.456  12.504  67.292  1.00  0.00    -0.170 OA 
BRANCH  28  29
HETATM   29  C   UNL     1      -7.621  11.560  67.890  1.00  0.00    -0.113 C  
HETATM   30  O   UNL     1      -5.902  10.979  69.531  1.00  0.00    -0.043 OA 
HETATM   31  C   UNL     1      -6.584  11.876  68.704  1.00  0.00    -0.066 C  
HETATM   32  C   UNL     1      -6.185   9.640  69.429  1.00  0.00    -0.040 A  
HETATM   33  O   UNL     1      -9.222   9.864  67.703  1.00  0.00    -0.133 OA 
HETATM   34  H   UNL     1      -8.542   7.968  66.723  1.00  0.00     0.000 HD 
HETATM   35  C   UNL     1      -5.529   8.730  70.257  1.00  0.00    -0.023 A  
HETATM   36  C   UNL     1      -8.059  10.150  67.961  1.00  0.00    -0.112 C  
HETATM   37  C   UNL     1      -5.768   7.361  70.094  1.00  0.00    -0.024 A  
HETATM   38  C   UNL     1      -7.134   9.163  68.503  1.00  0.00    -0.072 A  
HETATM   39  O   UNL     1      -8.070   7.349  67.267  1.00  0.00    -0.109 OA 
HETATM   40  C   UNL     1      -6.593   6.885  69.081  1.00  0.00    -0.048 A  
HETATM   41  O   UNL     1      -5.209   6.424  70.916  1.00  0.00    -0.017 OA 
HETATM   42  H   UNL     1      -5.372   5.495  70.806  1.00  0.00     0.000 HD 
HETATM   43  C   UNL     1      -7.282   7.788  68.286  1.00  0.00    -0.089 A  
BRANCH  31  44
HETATM   44  C   UNL     1      -6.178  13.282  68.839  1.00  0.00    -0.088 A  
HETATM   45  O   UNL     1      -5.736  17.398  69.128  1.00  0.00    -0.173 OA 
HETATM   46  H   UNL     1      -5.110  17.115  66.857  1.00  0.00     0.000 HD 
HETATM   47  C   UNL     1      -6.399  13.941  70.065  1.00  0.00    -0.099 A  
HETATM   48  H   UNL     1      -5.914  17.839  69.950  1.00  0.00     0.000 HD 
HETATM   49  O   UNL     1      -5.212  16.174  66.779  1.00  0.00    -0.314 OA 
HETATM   50  C   UNL     1      -5.834  16.037  69.049  1.00  0.00    -0.120 A  
HETATM   51  C   UNL     1      -5.572  15.390  67.844  1.00  0.00    -0.134 A  
HETATM   52  C   UNL     1      -5.720  14.010  67.730  1.00  0.00    -0.071 A  
HETATM   53  C   UNL     1      -6.230  15.323  70.169  1.00  0.00    -0.131 A  
ENDBRANCH  31  44
ENDBRANCH  28  29
ENDBRANCH  17  28
ENDBRANCH  15  16
ENDBRANCH  14  15
ENDBRANCH   4  14
TORSDOF 6
ENDMDL
MODEL      107
REMARK 921   NORMALIZED FREE ENERGY PREDICTED BY IDOCK:   -5.46 KCAL/MOL
REMARK 922        TOTAL FREE ENERGY PREDICTED BY IDOCK:   -8.86 KCAL/MOL
REMARK 923 INTER-LIGAND FREE ENERGY PREDICTED BY IDOCK:   -8.01 KCAL/MOL
REMARK 924 INTRA-LIGAND FREE ENERGY PREDICTED BY IDOCK:   -0.85 KCAL/MOL
REMARK 927      BINDING AFFINITY PREDICTED BY RF-SCORE:    0.00 PKD
ROOT
HETATM    1  C   UNL     1     -10.617  15.219  69.294  1.00  0.00    -0.256 C  
HETATM    2  C   UNL     1      -9.619  15.036  68.146  1.00  0.00    -0.207 C  
HETATM    3  O   UNL     1      -8.457  14.494  68.775  1.00  0.00    -0.163 OA 
HETATM    4  C   UNL     1      -7.189  14.577  68.141  1.00  0.00    -0.130 C  
HETATM    5  H   UNL     1      -8.692  17.631  65.199  1.00  0.00     0.000 HD 
HETATM    6  C   UNL     1      -6.953  15.889  67.378  1.00  0.00    -0.200 C  
HETATM    7  C   UNL     1      -8.165  16.223  66.496  1.00  0.00    -0.309 C  
HETATM    8  O   UNL     1     -10.588  16.698  66.651  1.00  0.00    -0.286 OA 
HETATM    9  O   UNL     1      -6.723  16.970  68.303  1.00  0.00    -0.150 OA 
HETATM   10  H   UNL     1      -6.578  17.782  67.832  1.00  0.00     0.000 HD 
HETATM   11  H   UNL     1     -10.456  17.516  66.187  1.00  0.00     0.000 HD 
HETATM   12  O   UNL     1      -7.943  17.425  65.744  1.00  0.00    -0.538 OA 
HETATM   13  C   UNL     1      -9.405  16.363  67.393  1.00  0.00    -0.221 C  
ENDROOT
BRANCH   4  14
HETATM   14  O   UNL     1      -6.855  13.474  67.297  1.00  0.00    -0.166 OA 
BRANCH  14  15
HETATM   15  C   UNL     1      -7.636  12.296  67.565  1.00  0.00    -0.155 C  
BRANCH  15  16
HETATM   16  C   UNL     1      -8.221  11.783  66.244  1.00  0.00     0.070 C  
HETATM   17  C   UNL     1      -8.660   9.379  66.593  1.00  0.00    -0.130 C  
HETATM   18  O   UNL     1      -7.842  10.407  65.994  1.00  0.00    -0.130 OA 
HETATM   19  H   UNL     1     -11.101  11.971  68.276  1.00  0.00     0.000 HD 
HETATM   20  C   UNL     1     -10.103   9.630  66.096  1.00  0.00    -0.258 C  
HETATM   21  H   UNL     1     -10.882  12.637  64.590  1.00  0.00     0.000 HD 
HETATM   22  O   UNL     1     -10.157   9.593  64.648  1.00  0.00    -0.329 OA 
HETATM   23  C   UNL     1     -10.626  10.996  66.569  1.00  0.00    -0.254 C  
HETATM   24  H   UNL     1     -11.044   9.747  64.342  1.00  0.00     0.000 HD 
HETATM   25  O   UNL     1      -9.962  12.428  64.693  1.00  0.00    -0.252 OA 
HETATM   26  O   UNL     1     -10.777  11.126  67.984  1.00  0.00    -0.187 OA 
HETATM   27  C   UNL     1      -9.714  12.123  66.077  1.00  0.00    -0.244 C  
BRANCH  17  28
HETATM   28  O   UNL     1      -8.465   9.324  68.015  1.00  0.00    -0.119 OA 
BRANCH  28  29
HETATM   29  C   UNL     1      -9.138   8.322  68.715  1.00  0.00    -0.144 C  
HETATM   30  O   UNL     1      -9.328   5.992  69.435  1.00  0.00    -0.130 OA 
HETATM   31  C   UNL     1      -8.882   6.998  68.574  1.00  0.00    -0.124 C  
HETATM   32  C   UNL     1     -10.214   6.318  70.430  1.00  0.00    -0.200 A  
HETATM   33  O   UNL     1      -9.777   9.791  70.420  1.00  0.00    -0.255 OA 
HETATM   34  H   UNL     1     -11.961   9.838  70.917  1.00  0.00     0.000 HD 
HETATM   35  C   UNL     1     -10.658   5.332  71.310  1.00  0.00    -0.242 A  
HETATM   36  C   UNL     1      -9.912   8.680  69.923  1.00  0.00    -0.186 C  
HETATM   37  C   UNL     1     -11.620   5.658  72.274  1.00  0.00    -0.181 A  
HETATM   38  C   UNL     1     -10.686   7.637  70.584  1.00  0.00    -0.237 A  
HETATM   39  O   UNL     1     -12.284   9.157  71.495  1.00  0.00    -0.309 OA 
HETATM   40  C   UNL     1     -12.192   6.924  72.328  1.00  0.00    -0.173 A  
HETATM   41  O   UNL     1     -12.045   4.757  73.208  1.00  0.00    -0.367 OA 
HETATM   42  H   UNL     1     -12.698   4.977  73.862  1.00  0.00     0.000 HD 
HETATM   43  C   UNL     1     -11.720   7.919  71.484  1.00  0.00    -0.283 A  
BRANCH  31  44
HETATM   44  C   UNL     1      -7.979   6.551  67.504  1.00  0.00    -0.114 A  
HETATM   45  O   UNL     1      -5.448   5.978  64.266  1.00  0.00    -0.017 OA 
HETATM   46  H   UNL     1      -7.476   5.228  63.290  1.00  0.00     0.000 HD 
HETATM   47  C   UNL     1      -6.601   6.821  67.617  1.00  0.00    -0.058 A  
HETATM   48  H   UNL     1      -4.525   6.189  64.340  1.00  0.00     0.000 HD 
HETATM   49  O   UNL     1      -8.065   5.358  64.024  1.00  0.00    -0.112 OA 
HETATM   50  C   UNL     1      -6.270   6.120  65.349  1.00  0.00    -0.037 A  
HETATM   51  C   UNL     1      -7.623   5.810  65.239  1.00  0.00    -0.085 A  
HETATM   52  C   UNL     1      -8.486   6.001  66.316  1.00  0.00    -0.130 A  
HETATM   53  C   UNL     1      -5.744   6.608  66.535  1.00  0.00    -0.014 A  
ENDBRANCH  31  44
ENDBRANCH  28  29
ENDBRANCH  17  28
ENDBRANCH  15  16
ENDBRANCH  14  15
ENDBRANCH   4  14
TORSDOF 6
ENDMDL
MODEL      108
REMARK 921   NORMALIZED FREE ENERGY PREDICTED BY IDOCK:   -5.45 KCAL/MOL
REMARK 922        TOTAL FREE ENERGY PREDICTED BY IDOCK:   -8.84 KCAL/MOL
REMARK 923 INTER-LIGAND FREE ENERGY PREDICTED BY IDOCK:   -8.02 KCAL/MOL
REMARK 924 INTRA-LIGAND FREE ENERGY PREDICTED BY IDOCK:   -0.83 KCAL/MOL
REMARK 927      BINDING AFFINITY PREDICTED BY RF-SCORE:    0.00 PKD
ROOT
HETATM    1  C   UNL     1     -10.873  19.298  68.246  1.00  0.00     0.043 C  
HETATM    2  C   UNL     1      -9.693  18.570  67.595  1.00  0.00    -0.296 C  
HETATM    3  O   UNL     1      -9.255  17.649  68.595  1.00  0.00    -0.282 OA 
HETATM    4  C   UNL     1      -7.947  17.098  68.543  1.00  0.00    -0.259 C  
HETATM    5  H   UNL     1      -6.617  20.151  65.519  1.00  0.00     0.000 HD 
HETATM    6  C   UNL     1      -6.870  18.080  68.059  1.00  0.00    -0.206 C  
HETATM    7  C   UNL     1      -7.339  18.809  66.792  1.00  0.00    -0.217 C  
HETATM    8  O   UNL     1      -9.133  20.309  65.984  1.00  0.00    -0.591 OA 
HETATM    9  O   UNL     1      -6.579  19.048  69.086  1.00  0.00    -0.272 OA 
HETATM   10  H   UNL     1      -5.913  19.656  68.787  1.00  0.00     0.000 HD 
HETATM   11  H   UNL     1      -8.478  20.930  65.686  1.00  0.00     0.000 HD 
HETATM   12  O   UNL     1      -6.326  19.700  66.302  1.00  0.00    -0.174 OA 
HETATM   13  C   UNL     1      -8.631  19.577  67.113  1.00  0.00    -0.297 C  
ENDROOT
BRANCH   4  14
HETATM   14  O   UNL     1      -7.828  15.872  67.818  1.00  0.00    -0.130 OA 
BRANCH  14  15
HETATM   15  C   UNL     1      -8.822  14.899  68.181  1.00  0.00    -0.174 C  
BRANCH  15  16
HETATM   16  C   UNL     1     -10.058  15.105  67.297  1.00  0.00    -0.235 C  
HETATM   17  C   UNL     1     -10.527  12.908  66.276  1.00  0.00    -0.270 C  
HETATM   18  O   UNL     1     -10.023  14.252  66.127  1.00  0.00    -0.290 OA 
HETATM   19  H   UNL     1     -11.437  13.415  70.072  1.00  0.00     0.000 HD 
HETATM   20  C   UNL     1     -11.980  13.045  66.787  1.00  0.00    -0.369 C  
HETATM   21  H   UNL     1     -13.073  16.085  68.005  1.00  0.00     0.000 HD 
HETATM   22  O   UNL     1     -12.776  13.825  65.860  1.00  0.00    -0.467 OA 
HETATM   23  C   UNL     1     -12.025  13.729  68.163  1.00  0.00    -0.358 C  
HETATM   24  H   UNL     1     -13.669  13.909  66.174  1.00  0.00     0.000 HD 
HETATM   25  O   UNL     1     -12.262  16.080  67.511  1.00  0.00     0.681 OA 
HETATM   26  O   UNL     1     -11.409  12.992  69.222  1.00  0.00    -0.267 OA 
HETATM   27  C   UNL     1     -11.374  15.113  68.099  1.00  0.00    -0.335 C  
BRANCH  17  28
HETATM   28  O   UNL     1      -9.635  12.103  67.064  1.00  0.00    -0.197 OA 
BRANCH  28  29
HETATM   29  C   UNL     1      -8.821  11.197  66.384  1.00  0.00    -0.178 C  
HETATM   30  O   UNL     1      -7.042   9.519  66.393  1.00  0.00    -0.086 OA 
HETATM   31  C   UNL     1      -7.720  10.618  66.924  1.00  0.00    -0.122 C  
HETATM   32  C   UNL     1      -7.405   9.053  65.154  1.00  0.00    -0.096 A  
HETATM   33  O   UNL     1     -10.523  10.621  64.887  1.00  0.00    -0.312 OA 
HETATM   34  H   UNL     1     -10.012  10.758  62.710  1.00  0.00     0.000 HD 
HETATM   35  C   UNL     1      -6.752   7.946  64.613  1.00  0.00    -0.059 A  
HETATM   36  C   UNL     1      -9.332  10.540  65.163  1.00  0.00    -0.216 C  
HETATM   37  C   UNL     1      -7.077   7.524  63.319  1.00  0.00    -0.071 A  
HETATM   38  C   UNL     1      -8.433   9.671  64.416  1.00  0.00    -0.189 A  
HETATM   39  O   UNL     1      -9.543  10.022  62.333  1.00  0.00    -0.263 OA 
HETATM   40  C   UNL     1      -7.988   8.227  62.536  1.00  0.00    -0.157 A  
HETATM   41  O   UNL     1      -6.524   6.409  62.759  1.00  0.00    -0.033 OA 
HETATM   42  H   UNL     1      -6.745   6.123  61.880  1.00  0.00     0.000 HD 
HETATM   43  C   UNL     1      -8.672   9.300  63.087  1.00  0.00    -0.183 A  
BRANCH  31  44
HETATM   44  C   UNL     1      -7.229  11.086  68.229  1.00  0.00    -0.085 A  
HETATM   45  O   UNL     1      -5.198  12.171  71.681  1.00  0.00    -0.326 OA 
HETATM   46  H   UNL     1      -6.111  10.110  72.419  1.00  0.00     0.000 HD 
HETATM   47  C   UNL     1      -6.541  12.313  68.297  1.00  0.00    -0.058 A  
HETATM   48  H   UNL     1      -4.712  12.987  71.710  1.00  0.00     0.000 HD 
HETATM   49  O   UNL     1      -6.577   9.850  71.632  1.00  0.00    -0.296 OA 
HETATM   50  C   UNL     1      -5.907  11.840  70.560  1.00  0.00    -0.125 A  
HETATM   51  C   UNL     1      -6.620  10.644  70.517  1.00  0.00     0.021 A  
HETATM   52  C   UNL     1      -7.302  10.264  69.364  1.00  0.00    -0.115 A  
HETATM   53  C   UNL     1      -5.875  12.690  69.465  1.00  0.00    -0.105 A  
ENDBRANCH  31  44
ENDBRANCH  28  29
ENDBRANCH  17  28
ENDBRANCH  15  16
ENDBRANCH  14  15
ENDBRANCH   4  14
TORSDOF 6
ENDMDL
MODEL      109
REMARK 921   NORMALIZED FREE ENERGY PREDICTED BY IDOCK:   -5.41 KCAL/MOL
REMARK 922        TOTAL FREE ENERGY PREDICTED BY IDOCK:   -8.79 KCAL/MOL
REMARK 923 INTER-LIGAND FREE ENERGY PREDICTED BY IDOCK:   -8.54 KCAL/MOL
REMARK 924 INTRA-LIGAND FREE ENERGY PREDICTED BY IDOCK:   -0.25 KCAL/MOL
REMARK 927      BINDING AFFINITY PREDICTED BY RF-SCORE:    0.00 PKD
ROOT
HETATM    1  C   UNL     1      -8.859  17.701  68.867  1.00  0.00    -0.124 C  
HETATM    2  C   UNL     1      -9.619  16.420  68.508  1.00  0.00    -0.229 C  
HETATM    3  O   UNL     1     -10.754  16.881  67.774  1.00  0.00    -0.339 OA 
HETATM    4  C   UNL     1     -11.903  16.058  67.631  1.00  0.00     0.391 C  
HETATM    5  H   UNL     1     -10.509  13.288  70.891  1.00  0.00     0.000 HD 
HETATM    6  C   UNL     1     -12.240  15.228  68.879  1.00  0.00    -0.097 C  
HETATM    7  C   UNL     1     -10.981  14.532  69.417  1.00  0.00    -0.249 C  
HETATM    8  O   UNL     1      -8.730  15.041  70.309  1.00  0.00    -0.194 OA 
HETATM    9  O   UNL     1     -12.794  16.074  69.906  1.00  0.00    -0.587 OA 
HETATM   10  H   UNL     1     -13.001  15.561  70.679  1.00  0.00     0.000 HD 
HETATM   11  H   UNL     1      -8.927  14.538  71.090  1.00  0.00     0.000 HD 
HETATM   12  O   UNL     1     -11.287  13.719  70.558  1.00  0.00     0.006 OA 
HETATM   13  C   UNL     1      -9.939  15.603  69.775  1.00  0.00    -0.277 C  
ENDROOT
BRANCH   4  14
HETATM   14  O   UNL     1     -11.907  15.207  66.483  1.00  0.00    -0.135 OA 
BRANCH  14  15
HETATM   15  C   UNL     1     -10.630  15.136  65.825  1.00  0.00    -0.351 C  
BRANCH  15  16
HETATM   16  C   UNL     1     -10.776  14.282  64.560  1.00  0.00    -0.259 C  
HETATM   17  C   UNL     1      -9.862  12.064  65.140  1.00  0.00    -0.200 C  
HETATM   18  O   UNL     1      -9.701  13.317  64.443  1.00  0.00    -0.048 OA 
HETATM   19  H   UNL     1     -13.398  13.040  66.571  1.00  0.00     0.000 HD 
HETATM   20  C   UNL     1     -11.183  11.448  64.624  1.00  0.00    -0.150 C  
HETATM   21  H   UNL     1     -13.389  13.413  62.838  1.00  0.00     0.000 HD 
HETATM   22  O   UNL     1     -11.136  11.269  63.186  1.00  0.00    -0.811 OA 
HETATM   23  C   UNL     1     -12.386  12.343  64.964  1.00  0.00    -0.369 C  
HETATM   24  H   UNL     1     -11.948  10.890  62.870  1.00  0.00     0.000 HD 
HETATM   25  O   UNL     1     -12.508  13.747  62.958  1.00  0.00    -0.712 OA 
HETATM   26  O   UNL     1     -12.654  12.486  66.361  1.00  0.00    -0.277 OA 
HETATM   27  C   UNL     1     -12.205  13.740  64.365  1.00  0.00    -0.399 C  
BRANCH  17  28
HETATM   28  O   UNL     1      -9.740  12.240  66.560  1.00  0.00    -0.222 OA 
BRANCH  28  29
HETATM   29  C   UNL     1      -9.263  11.158  67.301  1.00  0.00    -0.160 C  
HETATM   30  O   UNL     1      -7.836  10.261  69.074  1.00  0.00    -0.095 OA 
HETATM   31  C   UNL     1      -8.183  11.220  68.120  1.00  0.00    -0.140 C  
HETATM   32  C   UNL     1      -8.540   9.084  69.115  1.00  0.00    -0.133 A  
HETATM   33  O   UNL     1     -11.328  10.062  67.239  1.00  0.00    -0.159 OA 
HETATM   34  H   UNL     1     -11.300   7.942  66.515  1.00  0.00     0.000 HD 
HETATM   35  C   UNL     1      -8.221   8.121  70.071  1.00  0.00    -0.120 A  
HETATM   36  C   UNL     1     -10.137   9.986  67.515  1.00  0.00    -0.198 C  
HETATM   37  C   UNL     1      -8.894   6.893  70.057  1.00  0.00    -0.142 A  
HETATM   38  C   UNL     1      -9.588   8.829  68.208  1.00  0.00    -0.160 A  
HETATM   39  O   UNL     1     -11.059   7.276  67.149  1.00  0.00    -0.295 OA 
HETATM   40  C   UNL     1      -9.824   6.588  69.069  1.00  0.00    -0.153 A  
HETATM   41  O   UNL     1      -8.676   5.936  71.006  1.00  0.00    -0.132 OA 
HETATM   42  H   UNL     1      -9.133   5.103  70.997  1.00  0.00     0.000 HD 
HETATM   43  C   UNL     1     -10.176   7.560  68.145  1.00  0.00    -0.189 A  
BRANCH  31  44
HETATM   44  C   UNL     1      -7.341  12.425  68.109  1.00  0.00    -0.111 A  
HETATM   45  O   UNL     1      -5.406  16.063  68.600  1.00  0.00    -0.098 OA 
HETATM   46  H   UNL     1      -6.733  16.599  66.708  1.00  0.00     0.000 HD 
HETATM   47  C   UNL     1      -6.375  12.590  69.121  1.00  0.00    -0.095 A  
HETATM   48  H   UNL     1      -4.777  16.176  69.303  1.00  0.00     0.000 HD 
HETATM   49  O   UNL     1      -7.184  15.772  66.589  1.00  0.00    -0.168 OA 
HETATM   50  C   UNL     1      -6.005  14.849  68.410  1.00  0.00    -0.104 A  
HETATM   51  C   UNL     1      -6.928  14.683  67.380  1.00  0.00    -0.093 A  
HETATM   52  C   UNL     1      -7.589  13.470  67.205  1.00  0.00    -0.074 A  
HETATM   53  C   UNL     1      -5.707  13.807  69.274  1.00  0.00    -0.083 A  
ENDBRANCH  31  44
ENDBRANCH  28  29
ENDBRANCH  17  28
ENDBRANCH  15  16
ENDBRANCH  14  15
ENDBRANCH   4  14
TORSDOF 6
ENDMDL
MODEL      110
REMARK 921   NORMALIZED FREE ENERGY PREDICTED BY IDOCK:   -5.40 KCAL/MOL
REMARK 922        TOTAL FREE ENERGY PREDICTED BY IDOCK:   -8.77 KCAL/MOL
REMARK 923 INTER-LIGAND FREE ENERGY PREDICTED BY IDOCK:   -8.78 KCAL/MOL
REMARK 924 INTRA-LIGAND FREE ENERGY PREDICTED BY IDOCK:    0.01 KCAL/MOL
REMARK 927      BINDING AFFINITY PREDICTED BY RF-SCORE:    0.00 PKD
ROOT
HETATM    1  C   UNL     1      -9.176   2.035  65.662  1.00  0.00    -0.006 C  
HETATM    2  C   UNL     1      -8.955   3.520  65.968  1.00  0.00    -0.140 C  
HETATM    3  O   UNL     1      -8.087   3.518  67.102  1.00  0.00    -0.086 OA 
HETATM    4  C   UNL     1      -7.986   4.663  67.935  1.00  0.00    -0.089 C  
HETATM    5  H   UNL     1     -11.698   6.472  66.150  1.00  0.00     0.000 HD 
HETATM    6  C   UNL     1      -9.315   5.404  68.147  1.00  0.00    -0.114 C  
HETATM    7  C   UNL     1     -10.032   5.614  66.804  1.00  0.00    -0.178 C  
HETATM    8  O   UNL     1     -10.992   4.340  64.914  1.00  0.00    -0.662 OA 
HETATM    9  O   UNL     1     -10.170   4.655  69.032  1.00  0.00    -0.124 OA 
HETATM   10  H   UNL     1     -10.992   5.113  69.163  1.00  0.00     0.000 HD 
HETATM   11  H   UNL     1     -11.823   4.785  65.037  1.00  0.00     0.000 HD 
HETATM   12  O   UNL     1     -11.255   6.343  66.980  1.00  0.00    -0.373 OA 
HETATM   13  C   UNL     1     -10.302   4.241  66.169  1.00  0.00    -0.036 C  
ENDROOT
BRANCH   4  14
HETATM   14  O   UNL     1      -6.976   5.603  67.564  1.00  0.00    -0.062 OA 
BRANCH  14  15
HETATM   15  C   UNL     1      -7.508   6.822  67.015  1.00  0.00    -0.087 C  
BRANCH  15  16
HETATM   16  C   UNL     1      -7.185   6.867  65.516  1.00  0.00    -0.077 C  
HETATM   17  C   UNL     1      -8.396   8.826  64.629  1.00  0.00    -0.166 C  
HETATM   18  O   UNL     1      -8.297   7.391  64.749  1.00  0.00    -0.099 OA 
HETATM   19  H   UNL     1      -5.151   9.467  66.765  1.00  0.00     0.000 HD 
HETATM   20  C   UNL     1      -7.059   9.302  64.015  1.00  0.00    -0.098 C  
HETATM   21  H   UNL     1      -4.367   7.142  63.926  1.00  0.00     0.000 HD 
HETATM   22  O   UNL     1      -6.829   8.663  62.734  1.00  0.00    -0.091 OA 
HETATM   23  C   UNL     1      -5.874   8.978  64.941  1.00  0.00    -0.063 C  
HETATM   24  H   UNL     1      -6.007   8.955  62.357  1.00  0.00     0.000 HD 
HETATM   25  O   UNL     1      -5.220   6.766  64.110  1.00  0.00    -0.026 OA 
HETATM   26  O   UNL     1      -5.883   9.667  66.193  1.00  0.00    -0.058 OA 
HETATM   27  C   UNL     1      -5.802   7.475  65.219  1.00  0.00    -0.038 C  
BRANCH  17  28
HETATM   28  O   UNL     1      -8.787   9.426  65.874  1.00  0.00    -0.144 OA 
BRANCH  28  29
HETATM   29  C   UNL     1      -9.381  10.688  65.818  1.00  0.00    -0.186 C  
HETATM   30  O   UNL     1      -9.373  13.067  66.384  1.00  0.00    -0.244 OA 
HETATM   31  C   UNL     1      -9.003  11.736  66.590  1.00  0.00    -0.195 C  
HETATM   32  C   UNL     1     -10.306  13.352  65.420  1.00  0.00    -0.312 A  
HETATM   33  O   UNL     1     -10.187  10.334  63.651  1.00  0.00    -0.063 OA 
HETATM   34  H   UNL     1     -12.376  10.694  63.340  1.00  0.00     0.000 HD 
HETATM   35  C   UNL     1     -10.677  14.676  65.187  1.00  0.00    -0.430 A  
HETATM   36  C   UNL     1     -10.210  11.045  64.648  1.00  0.00    -0.330 C  
HETATM   37  C   UNL     1     -11.684  14.951  64.254  1.00  0.00    -0.247 A  
HETATM   38  C   UNL     1     -10.898  12.329  64.653  1.00  0.00    -0.349 A  
HETATM   39  O   UNL     1     -12.648  11.594  63.206  1.00  0.00    -0.491 OA 
HETATM   40  C   UNL     1     -12.370  13.929  63.607  1.00  0.00    -0.177 A  
HETATM   41  O   UNL     1     -12.045  16.227  63.931  1.00  0.00    -1.283 OA 
HETATM   42  H   UNL     1     -12.728  16.414  63.298  1.00  0.00     0.000 HD 
HETATM   43  C   UNL     1     -11.973  12.614  63.802  1.00  0.00    -0.510 A  
BRANCH  31  44
HETATM   44  C   UNL     1      -8.041  11.516  67.680  1.00  0.00    -0.130 A  
HETATM   45  O   UNL     1      -5.788  11.278  71.157  1.00  0.00    -0.367 OA 
HETATM   46  H   UNL     1      -4.641  13.060  70.091  1.00  0.00     0.000 HD 
HETATM   47  C   UNL     1      -8.321  10.531  68.648  1.00  0.00    -0.132 A  
HETATM   48  H   UNL     1      -6.000  10.630  71.818  1.00  0.00     0.000 HD 
HETATM   49  O   UNL     1      -5.152  13.125  69.293  1.00  0.00    -0.073 OA 
HETATM   50  C   UNL     1      -6.500  11.321  69.991  1.00  0.00    -0.114 A  
HETATM   51  C   UNL     1      -6.188  12.271  69.021  1.00  0.00    -0.082 A  
HETATM   52  C   UNL     1      -6.937  12.366  67.851  1.00  0.00    -0.106 A  
HETATM   53  C   UNL     1      -7.550  10.435  69.808  1.00  0.00    -0.141 A  
ENDBRANCH  31  44
ENDBRANCH  28  29
ENDBRANCH  17  28
ENDBRANCH  15  16
ENDBRANCH  14  15
ENDBRANCH   4  14
TORSDOF 6
ENDMDL
MODEL      111
REMARK 921   NORMALIZED FREE ENERGY PREDICTED BY IDOCK:   -5.39 KCAL/MOL
REMARK 922        TOTAL FREE ENERGY PREDICTED BY IDOCK:   -8.77 KCAL/MOL
REMARK 923 INTER-LIGAND FREE ENERGY PREDICTED BY IDOCK:   -8.65 KCAL/MOL
REMARK 924 INTRA-LIGAND FREE ENERGY PREDICTED BY IDOCK:   -0.12 KCAL/MOL
REMARK 927      BINDING AFFINITY PREDICTED BY RF-SCORE:    0.00 PKD
ROOT
HETATM    1  C   UNL     1      -8.704  12.225  66.278  1.00  0.00     0.057 C  
HETATM    2  C   UNL     1      -8.445  13.431  67.186  1.00  0.00    -0.170 C  
HETATM    3  O   UNL     1      -7.635  14.300  66.393  1.00  0.00     0.863 OA 
HETATM    4  C   UNL     1      -6.845  15.308  67.006  1.00  0.00     0.260 C  
HETATM    5  H   UNL     1      -7.353  13.446  71.070  1.00  0.00     0.000 HD 
HETATM    6  C   UNL     1      -6.216  14.887  68.343  1.00  0.00    -0.104 C  
HETATM    7  C   UNL     1      -7.266  14.220  69.243  1.00  0.00    -0.083 C  
HETATM    8  O   UNL     1      -8.799  12.279  69.303  1.00  0.00    -0.069 OA 
HETATM    9  O   UNL     1      -5.129  13.970  68.116  1.00  0.00    -0.101 OA 
HETATM   10  H   UNL     1      -4.740  13.709  68.942  1.00  0.00     0.000 HD 
HETATM   11  H   UNL     1      -8.414  12.002  70.127  1.00  0.00     0.000 HD 
HETATM   12  O   UNL     1      -6.704  13.859  70.513  1.00  0.00     0.101 OA 
HETATM   13  C   UNL     1      -7.821  12.982  68.522  1.00  0.00    -0.105 C  
ENDROOT
BRANCH   4  14
HETATM   14  O   UNL     1      -7.487  16.575  67.165  1.00  0.00    -0.146 OA 
BRANCH  14  15
HETATM   15  C   UNL     1      -7.877  17.175  65.917  1.00  0.00     0.018 C  
BRANCH  15  16
HETATM   16  C   UNL     1      -8.649  18.466  66.213  1.00  0.00    -0.194 C  
HETATM   17  C   UNL     1     -10.655  17.774  67.474  1.00  0.00    -0.359 C  
HETATM   18  O   UNL     1     -10.080  18.237  66.234  1.00  0.00    -0.364 OA 
HETATM   19  H   UNL     1      -7.195  17.767  69.352  1.00  0.00     0.000 HD 
HETATM   20  C   UNL     1     -10.271  18.821  68.546  1.00  0.00    -0.344 C  
HETATM   21  H   UNL     1      -7.818  21.147  67.847  1.00  0.00     0.000 HD 
HETATM   22  O   UNL     1     -10.761  20.134  68.176  1.00  0.00    -0.233 OA 
HETATM   23  C   UNL     1      -8.747  18.902  68.725  1.00  0.00    -0.296 C  
HETATM   24  H   UNL     1     -10.525  20.777  68.834  1.00  0.00     0.000 HD 
HETATM   25  O   UNL     1      -8.177  20.661  67.115  1.00  0.00    -0.319 OA 
HETATM   26  O   UNL     1      -8.137  17.716  69.241  1.00  0.00    -0.016 OA 
HETATM   27  C   UNL     1      -8.065  19.255  67.401  1.00  0.00    -0.277 C  
BRANCH  17  28
HETATM   28  O   UNL     1     -10.290  16.411  67.739  1.00  0.00    -0.270 OA 
BRANCH  28  29
HETATM   29  C   UNL     1     -11.170  15.650  68.510  1.00  0.00    -0.342 C  
HETATM   30  O   UNL     1     -12.520  13.636  68.828  1.00  0.00    -0.129 OA 
HETATM   31  C   UNL     1     -11.851  14.576  68.041  1.00  0.00    -0.315 C  
HETATM   32  C   UNL     1     -12.635  13.864  70.176  1.00  0.00    -0.224 A  
HETATM   33  O   UNL     1     -10.173  16.329  70.515  1.00  0.00     0.262 OA 
HETATM   34  H   UNL     1     -11.551  17.169  72.068  1.00  0.00     0.000 HD 
HETATM   35  C   UNL     1     -13.283  12.930  70.982  1.00  0.00     0.045 A  
HETATM   36  C   UNL     1     -11.117  15.758  69.983  1.00  0.00    -0.344 C  
HETATM   37  C   UNL     1     -13.464  13.207  72.343  1.00  0.00    -0.543 A  
HETATM   38  C   UNL     1     -12.107  15.029  70.766  1.00  0.00    -0.377 A  
HETATM   39  O   UNL     1     -12.020  16.544  72.608  1.00  0.00    -0.533 OA 
HETATM   40  C   UNL     1     -13.072  14.423  72.892  1.00  0.00    -0.612 A  
HETATM   41  O   UNL     1     -14.029  12.305  73.198  1.00  0.00     0.196 OA 
HETATM   42  H   UNL     1     -14.151  12.493  74.121  1.00  0.00     0.000 HD 
HETATM   43  C   UNL     1     -12.386  15.335  72.104  1.00  0.00    -0.365 A  
BRANCH  31  44
HETATM   44  C   UNL     1     -11.823  14.280  66.601  1.00  0.00    -0.442 A  
HETATM   45  O   UNL     1     -12.354  13.830  62.510  1.00  0.00    -0.589 OA 
HETATM   46  H   UNL     1     -13.251  11.756  63.232  1.00  0.00     0.000 HD 
HETATM   47  C   UNL     1     -11.381  15.277  65.709  1.00  0.00    -0.180 A  
HETATM   48  H   UNL     1     -12.080  14.519  61.916  1.00  0.00     0.000 HD 
HETATM   49  O   UNL     1     -13.137  11.850  64.170  1.00  0.00    -0.597 OA 
HETATM   50  C   UNL     1     -12.133  13.960  63.853  1.00  0.00    -0.345 A  
HETATM   51  C   UNL     1     -12.535  12.949  64.723  1.00  0.00    -0.455 A  
HETATM   52  C   UNL     1     -12.368  13.088  66.099  1.00  0.00    -0.335 A  
HETATM   53  C   UNL     1     -11.539  15.118  64.330  1.00  0.00    -0.275 A  
ENDBRANCH  31  44
ENDBRANCH  28  29
ENDBRANCH  17  28
ENDBRANCH  15  16
ENDBRANCH  14  15
ENDBRANCH   4  14
TORSDOF 6
ENDMDL
MODEL      112
REMARK 921   NORMALIZED FREE ENERGY PREDICTED BY IDOCK:   -5.36 KCAL/MOL
REMARK 922        TOTAL FREE ENERGY PREDICTED BY IDOCK:   -8.72 KCAL/MOL
REMARK 923 INTER-LIGAND FREE ENERGY PREDICTED BY IDOCK:   -8.87 KCAL/MOL
REMARK 924 INTRA-LIGAND FREE ENERGY PREDICTED BY IDOCK:    0.15 KCAL/MOL
REMARK 927      BINDING AFFINITY PREDICTED BY RF-SCORE:    0.00 PKD
ROOT
HETATM    1  C   UNL     1     -12.350  11.932  69.484  1.00  0.00    -0.082 C  
HETATM    2  C   UNL     1     -11.960  11.091  70.703  1.00  0.00    -0.365 C  
HETATM    3  O   UNL     1     -11.148  10.048  70.163  1.00  0.00    -0.265 OA 
HETATM    4  C   UNL     1     -10.942   8.845  70.890  1.00  0.00    -0.266 C  
HETATM    5  H   UNL     1     -14.320   9.793  73.706  1.00  0.00     0.000 HD 
HETATM    6  C   UNL     1     -12.177   8.362  71.666  1.00  0.00    -0.315 C  
HETATM    7  C   UNL     1     -12.803   9.521  72.455  1.00  0.00    -0.285 C  
HETATM    8  O   UNL     1     -13.832  11.746  72.118  1.00  0.00    -0.271 OA 
HETATM    9  O   UNL     1     -13.155   7.817  70.759  1.00  0.00    -0.532 OA 
HETATM   10  H   UNL     1     -13.919   7.519  71.239  1.00  0.00     0.000 HD 
HETATM   11  H   UNL     1     -14.605  11.458  72.590  1.00  0.00     0.000 HD 
HETATM   12  O   UNL     1     -13.933   9.076  73.219  1.00  0.00    -0.248 OA 
HETATM   13  C   UNL     1     -13.214  10.625  71.467  1.00  0.00    -0.360 C  
ENDROOT
BRANCH   4  14
HETATM   14  O   UNL     1      -9.808   8.842  71.759  1.00  0.00    -0.298 OA 
BRANCH  14  15
HETATM   15  C   UNL     1      -8.554   8.882  71.056  1.00  0.00    -0.206 C  
BRANCH  15  16
HETATM   16  C   UNL     1      -8.232   7.471  70.547  1.00  0.00    -0.118 C  
HETATM   17  C   UNL     1      -7.765   7.719  68.136  1.00  0.00    -0.119 C  
HETATM   18  O   UNL     1      -8.668   7.288  69.177  1.00  0.00    -0.135 OA 
HETATM   19  H   UNL     1      -5.021   8.931  70.686  1.00  0.00     0.000 HD 
HETATM   20  C   UNL     1      -6.438   6.963  68.374  1.00  0.00    -0.039 C  
HETATM   21  H   UNL     1      -5.916   5.355  71.384  1.00  0.00     0.000 HD 
HETATM   22  O   UNL     1      -6.655   5.529  68.348  1.00  0.00    -0.045 OA 
HETATM   23  C   UNL     1      -5.818   7.337  69.730  1.00  0.00    -0.023 C  
HETATM   24  H   UNL     1      -5.839   5.065  68.494  1.00  0.00     0.000 HD 
HETATM   25  O   UNL     1      -6.803   5.626  71.184  1.00  0.00    -0.057 OA 
HETATM   26  O   UNL     1      -5.404   8.700  69.848  1.00  0.00    -0.029 OA 
HETATM   27  C   UNL     1      -6.792   7.031  70.871  1.00  0.00    -0.054 C  
BRANCH  17  28
HETATM   28  O   UNL     1      -7.692   9.152  68.071  1.00  0.00    -0.091 OA 
BRANCH  28  29
HETATM   29  C   UNL     1      -8.359   9.780  67.019  1.00  0.00    -0.117 C  
HETATM   30  O   UNL     1      -9.661   9.657  64.952  1.00  0.00    -0.267 OA 
HETATM   31  C   UNL     1      -8.766   9.143  65.893  1.00  0.00    -0.158 C  
HETATM   32  C   UNL     1     -10.069  10.962  65.071  1.00  0.00    -0.300 A  
HETATM   33  O   UNL     1      -9.105  11.524  68.388  1.00  0.00    -0.178 OA 
HETATM   34  H   UNL     1      -8.669  13.601  67.669  1.00  0.00     0.000 HD 
HETATM   35  C   UNL     1     -10.975  11.488  64.151  1.00  0.00    -0.434 A  
HETATM   36  C   UNL     1      -8.984  11.101  67.245  1.00  0.00    -0.147 C  
HETATM   37  C   UNL     1     -11.327  12.841  64.235  1.00  0.00    -0.367 A  
HETATM   38  C   UNL     1      -9.591  11.783  66.110  1.00  0.00    -0.250 A  
HETATM   39  O   UNL     1      -9.263  13.964  67.023  1.00  0.00    -0.231 OA 
HETATM   40  C   UNL     1     -10.741  13.685  65.172  1.00  0.00    -0.359 A  
HETATM   41  O   UNL     1     -12.259  13.400  63.409  1.00  0.00    -0.801 OA 
HETATM   42  H   UNL     1     -12.498  14.318  63.466  1.00  0.00     0.000 HD 
HETATM   43  C   UNL     1      -9.875  13.154  66.116  1.00  0.00    -0.280 A  
BRANCH  31  44
HETATM   44  C   UNL     1      -8.338   7.756  65.658  1.00  0.00    -0.143 A  
HETATM   45  O   UNL     1      -7.391   3.941  64.328  1.00  0.00    -0.064 OA 
HETATM   46  H   UNL     1      -9.419   3.450  65.456  1.00  0.00     0.000 HD 
HETATM   47  C   UNL     1      -7.144   7.523  64.949  1.00  0.00    -0.060 A  
HETATM   48  H   UNL     1      -6.598   3.796  63.825  1.00  0.00     0.000 HD 
HETATM   49  O   UNL     1      -9.647   4.319  65.762  1.00  0.00    -0.159 OA 
HETATM   50  C   UNL     1      -7.675   5.190  64.807  1.00  0.00    -0.086 A  
HETATM   51  C   UNL     1      -8.837   5.402  65.545  1.00  0.00    -0.152 A  
HETATM   52  C   UNL     1      -9.171   6.677  65.994  1.00  0.00    -0.068 A  
HETATM   53  C   UNL     1      -6.813   6.236  64.519  1.00  0.00    -0.046 A  
ENDBRANCH  31  44
ENDBRANCH  28  29
ENDBRANCH  17  28
ENDBRANCH  15  16
ENDBRANCH  14  15
ENDBRANCH   4  14
TORSDOF 6
ENDMDL
MODEL      113
REMARK 921   NORMALIZED FREE ENERGY PREDICTED BY IDOCK:   -5.34 KCAL/MOL
REMARK 922        TOTAL FREE ENERGY PREDICTED BY IDOCK:   -8.69 KCAL/MOL
REMARK 923 INTER-LIGAND FREE ENERGY PREDICTED BY IDOCK:   -9.07 KCAL/MOL
REMARK 924 INTRA-LIGAND FREE ENERGY PREDICTED BY IDOCK:    0.38 KCAL/MOL
REMARK 927      BINDING AFFINITY PREDICTED BY RF-SCORE:    0.00 PKD
ROOT
HETATM    1  C   UNL     1      -8.464   6.222  66.734  1.00  0.00    -0.111 C  
HETATM    2  C   UNL     1      -8.368   5.705  68.173  1.00  0.00    -0.099 C  
HETATM    3  O   UNL     1      -7.642   6.723  68.863  1.00  0.00    -0.100 OA 
HETATM    4  C   UNL     1      -6.989   6.436  70.091  1.00  0.00    -0.063 C  
HETATM    5  H   UNL     1      -7.387   2.003  69.439  1.00  0.00     0.000 HD 
HETATM    6  C   UNL     1      -6.351   5.040  70.151  1.00  0.00    -0.026 C  
HETATM    7  C   UNL     1      -7.341   3.976  69.656  1.00  0.00    -0.049 C  
HETATM    8  O   UNL     1      -8.644   3.342  67.650  1.00  0.00    -0.092 OA 
HETATM    9  O   UNL     1      -5.160   4.999  69.341  1.00  0.00     0.000 OA 
HETATM   10  H   UNL     1      -4.766   4.136  69.378  1.00  0.00     0.000 HD 
HETATM   11  H   UNL     1      -8.251   2.477  67.670  1.00  0.00     0.000 HD 
HETATM   12  O   UNL     1      -6.775   2.661  69.746  1.00  0.00    -0.033 OA 
HETATM   13  C   UNL     1      -7.732   4.302  68.206  1.00  0.00    -0.075 C  
ENDROOT
BRANCH   4  14
HETATM   14  O   UNL     1      -7.775   6.647  71.265  1.00  0.00    -0.092 OA 
BRANCH  14  15
HETATM   15  C   UNL     1      -8.421   7.932  71.293  1.00  0.00    -0.117 C  
BRANCH  15  16
HETATM   16  C   UNL     1      -9.849   7.752  71.824  1.00  0.00    -0.167 C  
HETATM   17  C   UNL     1     -11.100   9.741  71.069  1.00  0.00    -0.361 C  
HETATM   18  O   UNL     1     -10.460   9.026  72.147  1.00  0.00    -0.321 OA 
HETATM   19  H   UNL     1     -10.253   6.967  68.407  1.00  0.00     0.000 HD 
HETATM   20  C   UNL     1     -12.160   8.780  70.482  1.00  0.00     0.112 C  
HETATM   21  H   UNL     1     -12.061   5.431  71.314  1.00  0.00     0.000 HD 
HETATM   22  O   UNL     1     -13.105   8.375  71.504  1.00  0.00    -0.335 OA 
HETATM   23  C   UNL     1     -11.504   7.518  69.897  1.00  0.00     0.039 C  
HETATM   24  H   UNL     1     -13.756   7.785  71.143  1.00  0.00     0.000 HD 
HETATM   25  O   UNL     1     -11.542   6.025  71.842  1.00  0.00    -0.295 OA 
HETATM   26  O   UNL     1     -10.658   7.747  68.768  1.00  0.00    -0.202 OA 
HETATM   27  C   UNL     1     -10.690   6.787  70.968  1.00  0.00    -0.231 C  
BRANCH  17  28
HETATM   28  O   UNL     1     -10.132  10.277  70.153  1.00  0.00    -0.208 OA 
BRANCH  28  29
HETATM   29  C   UNL     1     -10.613  10.839  68.970  1.00  0.00    -0.219 C  
HETATM   30  O   UNL     1     -11.630  12.709  67.766  1.00  0.00    -0.306 OA 
HETATM   31  C   UNL     1     -11.362  11.968  68.919  1.00  0.00    -0.278 C  
HETATM   32  C   UNL     1     -11.240  12.205  66.551  1.00  0.00    -0.328 A  
HETATM   33  O   UNL     1      -8.970   9.790  67.676  1.00  0.00    -0.128 OA 
HETATM   34  H   UNL     1      -9.703   8.612  65.916  1.00  0.00     0.000 HD 
HETATM   35  C   UNL     1     -11.484  12.937  65.389  1.00  0.00    -0.360 A  
HETATM   36  C   UNL     1     -10.013  10.433  67.682  1.00  0.00    -0.174 C  
HETATM   37  C   UNL     1     -11.151  12.382  64.148  1.00  0.00    -0.372 A  
HETATM   38  C   UNL     1     -10.592  10.958  66.452  1.00  0.00    -0.289 A  
HETATM   39  O   UNL     1      -9.898   9.100  65.125  1.00  0.00     0.001 OA 
HETATM   40  C   UNL     1     -10.647  11.089  64.044  1.00  0.00    -0.395 A  
HETATM   41  O   UNL     1     -11.301  13.073  62.980  1.00  0.00    -0.666 OA 
HETATM   42  H   UNL     1     -11.075  12.696  62.138  1.00  0.00     0.000 HD 
HETATM   43  C   UNL     1     -10.361  10.377  65.199  1.00  0.00    -0.190 A  
BRANCH  31  44
HETATM   44  C   UNL     1     -11.864  12.554  70.170  1.00  0.00    -0.336 A  
HETATM   45  O   UNL     1     -13.852  14.408  73.306  1.00  0.00    -0.355 OA 
HETATM   46  H   UNL     1     -12.357  16.157  72.726  1.00  0.00     0.000 HD 
HETATM   47  C   UNL     1     -12.855  11.864  70.897  1.00  0.00    -0.220 A  
HETATM   48  H   UNL     1     -14.539  13.947  73.772  1.00  0.00     0.000 HD 
HETATM   49  O   UNL     1     -11.898  15.743  72.005  1.00  0.00    -0.399 OA 
HETATM   50  C   UNL     1     -13.165  13.778  72.306  1.00  0.00    -0.467 A  
HETATM   51  C   UNL     1     -12.157  14.454  71.622  1.00  0.00    -0.262 A  
HETATM   52  C   UNL     1     -11.484  13.847  70.565  1.00  0.00    -0.009 A  
HETATM   53  C   UNL     1     -13.509  12.479  71.966  1.00  0.00    -0.486 A  
ENDBRANCH  31  44
ENDBRANCH  28  29
ENDBRANCH  17  28
ENDBRANCH  15  16
ENDBRANCH  14  15
ENDBRANCH   4  14
TORSDOF 6
ENDMDL
MODEL      114
REMARK 921   NORMALIZED FREE ENERGY PREDICTED BY IDOCK:   -5.33 KCAL/MOL
REMARK 922        TOTAL FREE ENERGY PREDICTED BY IDOCK:   -8.68 KCAL/MOL
REMARK 923 INTER-LIGAND FREE ENERGY PREDICTED BY IDOCK:   -8.10 KCAL/MOL
REMARK 924 INTRA-LIGAND FREE ENERGY PREDICTED BY IDOCK:   -0.58 KCAL/MOL
REMARK 927      BINDING AFFINITY PREDICTED BY RF-SCORE:    0.00 PKD
ROOT
HETATM    1  C   UNL     1     -11.341  10.813  69.196  1.00  0.00    -0.348 C  
HETATM    2  C   UNL     1     -11.375  10.078  70.539  1.00  0.00    -0.335 C  
HETATM    3  O   UNL     1     -10.828   8.792  70.249  1.00  0.00    -0.226 OA 
HETATM    4  C   UNL     1     -11.074   7.692  71.114  1.00  0.00    -0.251 C  
HETATM    5  H   UNL     1     -14.394   9.890  73.209  1.00  0.00     0.000 HD 
HETATM    6  C   UNL     1     -12.489   7.668  71.712  1.00  0.00    -0.329 C  
HETATM    7  C   UNL     1     -12.861   9.051  72.266  1.00  0.00    -0.406 C  
HETATM    8  O   UNL     1     -13.158  11.399  71.545  1.00  0.00    -0.416 OA 
HETATM    9  O   UNL     1     -13.449   7.281  70.709  1.00  0.00    -0.583 OA 
HETATM   10  H   UNL     1     -14.324   7.267  71.079  1.00  0.00     0.000 HD 
HETATM   11  H   UNL     1     -14.038  11.396  71.904  1.00  0.00     0.000 HD 
HETATM   12  O   UNL     1     -14.164   9.034  72.867  1.00  0.00    -0.528 OA 
HETATM   13  C   UNL     1     -12.802  10.074  71.121  1.00  0.00    -0.385 C  
ENDROOT
BRANCH   4  14
HETATM   14  O   UNL     1     -10.117   7.510  72.159  1.00  0.00    -0.185 OA 
BRANCH  14  15
HETATM   15  C   UNL     1      -9.066   6.591  71.813  1.00  0.00    -0.142 C  
BRANCH  15  16
HETATM   16  C   UNL     1      -9.697   5.314  71.245  1.00  0.00    -0.166 C  
HETATM   17  C   UNL     1      -8.714   5.020  69.001  1.00  0.00    -0.088 C  
HETATM   18  O   UNL     1      -9.852   5.391  69.807  1.00  0.00    -0.166 OA 
HETATM   19  H   UNL     1      -6.471   4.186  72.128  1.00  0.00     0.000 HD 
HETATM   20  C   UNL     1      -8.342   3.577  69.416  1.00  0.00    -0.059 C  
HETATM   21  H   UNL     1      -9.677   2.245  72.308  1.00  0.00     0.000 HD 
HETATM   22  O   UNL     1      -9.466   2.683  69.217  1.00  0.00    -0.141 OA 
HETATM   23  C   UNL     1      -7.925   3.512  70.894  1.00  0.00    -0.057 C  
HETATM   24  H   UNL     1      -9.238   1.797  69.472  1.00  0.00     0.000 HD 
HETATM   25  O   UNL     1     -10.076   3.037  71.970  1.00  0.00    -0.167 OA 
HETATM   26  O   UNL     1      -6.729   4.227  71.214  1.00  0.00    -0.029 OA 
HETATM   27  C   UNL     1      -9.049   4.029  71.796  1.00  0.00    -0.122 C  
BRANCH  17  28
HETATM   28  O   UNL     1      -7.673   6.006  69.084  1.00  0.00    -0.091 OA 
BRANCH  28  29
HETATM   29  C   UNL     1      -7.845   7.182  68.353  1.00  0.00    -0.122 C  
HETATM   30  O   UNL     1      -8.848   8.391  66.478  1.00  0.00    -0.132 OA 
HETATM   31  C   UNL     1      -8.412   7.230  67.122  1.00  0.00    -0.118 C  
HETATM   32  C   UNL     1      -8.565   9.608  67.045  1.00  0.00    -0.128 A  
HETATM   33  O   UNL     1      -7.749   8.519  70.270  1.00  0.00    -0.071 OA 
HETATM   34  H   UNL     1      -6.280  10.210  70.222  1.00  0.00     0.000 HD 
HETATM   35  C   UNL     1      -9.006  10.777  66.427  1.00  0.00    -0.179 A  
HETATM   36  C   UNL     1      -7.752   8.484  69.045  1.00  0.00    -0.096 C  
HETATM   37  C   UNL     1      -8.648  12.016  66.971  1.00  0.00    -0.185 A  
HETATM   38  C   UNL     1      -7.838   9.700  68.248  1.00  0.00    -0.085 A  
HETATM   39  O   UNL     1      -6.556  11.005  69.781  1.00  0.00    -0.117 OA 
HETATM   40  C   UNL     1      -7.807  12.106  68.075  1.00  0.00    -0.145 A  
HETATM   41  O   UNL     1      -9.103  13.194  66.454  1.00  0.00    -0.416 OA 
HETATM   42  H   UNL     1      -8.861  14.035  66.823  1.00  0.00     0.000 HD 
HETATM   43  C   UNL     1      -7.405  10.946  68.719  1.00  0.00    -0.104 A  
BRANCH  31  44
HETATM   44  C   UNL     1      -8.708   5.974  66.417  1.00  0.00    -0.133 A  
HETATM   45  O   UNL     1      -9.452   2.820  63.825  1.00  0.00    -0.104 OA 
HETATM   46  H   UNL     1     -11.690   3.421  64.332  1.00  0.00     0.000 HD 
HETATM   47  C   UNL     1      -7.642   5.235  65.867  1.00  0.00    -0.083 A  
HETATM   48  H   UNL     1      -8.728   2.344  63.436  1.00  0.00     0.000 HD 
HETATM   49  O   UNL     1     -11.531   4.147  64.924  1.00  0.00    -0.136 OA 
HETATM   50  C   UNL     1      -9.204   3.826  64.717  1.00  0.00    -0.146 A  
HETATM   51  C   UNL     1     -10.266   4.524  65.290  1.00  0.00    -0.163 A  
HETATM   52  C   UNL     1     -10.032   5.587  66.157  1.00  0.00    -0.133 A  
HETATM   53  C   UNL     1      -7.891   4.159  65.012  1.00  0.00    -0.089 A  
ENDBRANCH  31  44
ENDBRANCH  28  29
ENDBRANCH  17  28
ENDBRANCH  15  16
ENDBRANCH  14  15
ENDBRANCH   4  14
TORSDOF 6
ENDMDL
MODEL      115
REMARK 921   NORMALIZED FREE ENERGY PREDICTED BY IDOCK:   -5.33 KCAL/MOL
REMARK 922        TOTAL FREE ENERGY PREDICTED BY IDOCK:   -8.67 KCAL/MOL
REMARK 923 INTER-LIGAND FREE ENERGY PREDICTED BY IDOCK:   -7.38 KCAL/MOL
REMARK 924 INTRA-LIGAND FREE ENERGY PREDICTED BY IDOCK:   -1.30 KCAL/MOL
REMARK 927      BINDING AFFINITY PREDICTED BY RF-SCORE:    0.00 PKD
ROOT
HETATM    1  C   UNL     1     -11.538   6.103  70.018  1.00  0.00    -0.255 C  
HETATM    2  C   UNL     1     -10.041   5.800  70.139  1.00  0.00    -0.212 C  
HETATM    3  O   UNL     1      -9.702   5.205  68.885  1.00  0.00    -0.134 OA 
HETATM    4  C   UNL     1      -8.530   4.412  68.757  1.00  0.00    -0.084 C  
HETATM    5  H   UNL     1      -8.075   4.095  73.221  1.00  0.00     0.000 HD 
HETATM    6  C   UNL     1      -8.224   3.541  69.984  1.00  0.00    -0.052 C  
HETATM    7  C   UNL     1      -8.332   4.372  71.272  1.00  0.00    -0.094 C  
HETATM    8  O   UNL     1      -9.959   5.708  72.572  1.00  0.00    -0.166 OA 
HETATM    9  O   UNL     1      -9.142   2.433  70.052  1.00  0.00    -0.090 OA 
HETATM   10  H   UNL     1      -8.953   1.894  70.812  1.00  0.00     0.000 HD 
HETATM   11  H   UNL     1      -9.786   5.172  73.337  1.00  0.00     0.000 HD 
HETATM   12  O   UNL     1      -8.007   3.582  72.425  1.00  0.00    -0.066 OA 
HETATM   13  C   UNL     1      -9.759   4.931  71.380  1.00  0.00    -0.175 C  
ENDROOT
BRANCH   4  14
HETATM   14  O   UNL     1      -7.350   5.123  68.376  1.00  0.00    -0.069 OA 
BRANCH  14  15
HETATM   15  C   UNL     1      -7.626   6.402  67.778  1.00  0.00    -0.102 C  
BRANCH  15  16
HETATM   16  C   UNL     1      -7.916   6.194  66.287  1.00  0.00    -0.106 C  
HETATM   17  C   UNL     1      -8.744   8.366  65.457  1.00  0.00    -0.162 C  
HETATM   18  O   UNL     1      -9.032   7.006  65.845  1.00  0.00    -0.143 OA 
HETATM   19  H   UNL     1      -4.891   8.009  66.181  1.00  0.00     0.000 HD 
HETATM   20  C   UNL     1      -7.677   8.281  64.340  1.00  0.00    -0.125 C  
HETATM   21  H   UNL     1      -5.997   5.310  63.821  1.00  0.00     0.000 HD 
HETATM   22  O   UNL     1      -8.164   7.489  63.228  1.00  0.00    -0.318 OA 
HETATM   23  C   UNL     1      -6.377   7.645  64.859  1.00  0.00    -0.038 C  
HETATM   24  H   UNL     1      -7.509   7.437  62.542  1.00  0.00     0.000 HD 
HETATM   25  O   UNL     1      -6.780   5.279  64.358  1.00  0.00    -0.044 OA 
HETATM   26  O   UNL     1      -5.694   8.402  65.861  1.00  0.00    -0.042 OA 
HETATM   27  C   UNL     1      -6.646   6.245  65.416  1.00  0.00    -0.043 C  
BRANCH  17  28
HETATM   28  O   UNL     1      -8.424   9.176  66.599  1.00  0.00    -0.120 OA 
BRANCH  28  29
HETATM   29  C   UNL     1      -9.067  10.409  66.711  1.00  0.00    -0.143 C  
HETATM   30  O   UNL     1      -9.630  12.402  68.012  1.00  0.00    -0.198 OA 
HETATM   31  C   UNL     1      -9.245  11.065  67.884  1.00  0.00    -0.155 C  
HETATM   32  C   UNL     1     -10.005  13.093  66.888  1.00  0.00    -0.245 A  
HETATM   33  O   UNL     1      -8.667  10.945  64.469  1.00  0.00    -0.135 OA 
HETATM   34  H   UNL     1     -10.455  11.558  63.266  1.00  0.00     0.000 HD 
HETATM   35  C   UNL     1     -10.376  14.433  66.992  1.00  0.00    -0.263 A  
HETATM   36  C   UNL     1      -9.260  11.236  65.501  1.00  0.00    -0.202 C  
HETATM   37  C   UNL     1     -10.829  15.108  65.852  1.00  0.00    -0.339 A  
HETATM   38  C   UNL     1     -10.018  12.474  65.622  1.00  0.00    -0.259 A  
HETATM   39  O   UNL     1     -10.737  12.462  63.346  1.00  0.00    -0.446 OA 
HETATM   40  C   UNL     1     -10.981  14.453  64.635  1.00  0.00    -0.367 A  
HETATM   41  O   UNL     1     -11.143  16.437  65.874  1.00  0.00    -0.058 OA 
HETATM   42  H   UNL     1     -11.450  16.895  65.100  1.00  0.00     0.000 HD 
HETATM   43  C   UNL     1     -10.569  13.134  64.517  1.00  0.00    -0.406 A  
BRANCH  31  44
HETATM   44  C   UNL     1      -8.915  10.385  69.145  1.00  0.00    -0.188 A  
HETATM   45  O   UNL     1      -8.003   7.861  72.310  1.00  0.00    -0.104 OA 
HETATM   46  H   UNL     1     -10.326   8.131  72.706  1.00  0.00     0.000 HD 
HETATM   47  C   UNL     1      -7.588   9.967  69.366  1.00  0.00    -0.113 A  
HETATM   48  H   UNL     1      -7.111   7.560  72.436  1.00  0.00     0.000 HD 
HETATM   49  O   UNL     1     -10.547   8.706  71.983  1.00  0.00    -0.306 OA 
HETATM   50  C   UNL     1      -8.292   8.732  71.296  1.00  0.00    -0.176 A  
HETATM   51  C   UNL     1      -9.599   9.174  71.111  1.00  0.00    -0.277 A  
HETATM   52  C   UNL     1      -9.922  10.017  70.051  1.00  0.00    -0.273 A  
HETATM   53  C   UNL     1      -7.276   9.135  70.444  1.00  0.00    -0.084 A  
ENDBRANCH  31  44
ENDBRANCH  28  29
ENDBRANCH  17  28
ENDBRANCH  15  16
ENDBRANCH  14  15
ENDBRANCH   4  14
TORSDOF 6
ENDMDL
MODEL      116
REMARK 921   NORMALIZED FREE ENERGY PREDICTED BY IDOCK:   -5.26 KCAL/MOL
REMARK 922        TOTAL FREE ENERGY PREDICTED BY IDOCK:   -8.59 KCAL/MOL
REMARK 923 INTER-LIGAND FREE ENERGY PREDICTED BY IDOCK:   -7.56 KCAL/MOL
REMARK 924 INTRA-LIGAND FREE ENERGY PREDICTED BY IDOCK:   -1.03 KCAL/MOL
REMARK 927      BINDING AFFINITY PREDICTED BY RF-SCORE:    0.00 PKD
ROOT
HETATM    1  C   UNL     1     -11.090  16.396  70.186  1.00  0.00    -0.285 C  
HETATM    2  C   UNL     1     -10.713  16.176  68.717  1.00  0.00    -0.294 C  
HETATM    3  O   UNL     1      -9.861  15.030  68.742  1.00  0.00    -0.218 OA 
HETATM    4  C   UNL     1      -8.979  14.764  67.661  1.00  0.00    -0.182 C  
HETATM    5  H   UNL     1      -9.514  18.914  66.007  1.00  0.00     0.000 HD 
HETATM    6  C   UNL     1      -8.347  16.020  67.043  1.00  0.00    -0.219 C  
HETATM    7  C   UNL     1      -9.420  17.089  66.784  1.00  0.00    -0.258 C  
HETATM    8  O   UNL     1     -11.095  18.465  67.975  1.00  0.00    -0.191 OA 
HETATM    9  O   UNL     1      -7.340  16.558  67.922  1.00  0.00    -0.131 OA 
HETATM   10  H   UNL     1      -6.950  17.335  67.541  1.00  0.00     0.000 HD 
HETATM   11  H   UNL     1     -10.710  19.251  67.606  1.00  0.00     0.000 HD 
HETATM   12  O   UNL     1      -8.851  18.253  66.167  1.00  0.00    -0.464 OA 
HETATM   13  C   UNL     1     -10.088  17.451  68.119  1.00  0.00    -0.328 C  
ENDROOT
BRANCH   4  14
HETATM   14  O   UNL     1      -9.517  13.946  66.620  1.00  0.00    -0.270 OA 
BRANCH  14  15
HETATM   15  C   UNL     1      -8.887  12.656  66.530  1.00  0.00    -0.062 C  
BRANCH  15  16
HETATM   16  C   UNL     1      -7.911  12.503  67.703  1.00  0.00    -0.162 C  
HETATM   17  C   UNL     1      -7.847  10.088  68.211  1.00  0.00    -0.089 C  
HETATM   18  O   UNL     1      -8.295  11.411  68.575  1.00  0.00    -0.146 OA 
HETATM   19  H   UNL     1      -5.962  11.352  64.994  1.00  0.00     0.000 HD 
HETATM   20  C   UNL     1      -6.306  10.166  68.109  1.00  0.00    -0.053 C  
HETATM   21  H   UNL     1      -4.766  13.254  67.999  1.00  0.00     0.000 HD 
HETATM   22  O   UNL     1      -5.733  10.609  69.365  1.00  0.00    -0.037 OA 
HETATM   23  C   UNL     1      -5.869  11.142  67.003  1.00  0.00    -0.079 C  
HETATM   24  H   UNL     1      -4.786  10.657  69.302  1.00  0.00     0.000 HD 
HETATM   25  O   UNL     1      -5.675  13.232  68.270  1.00  0.00    -0.078 OA 
HETATM   26  O   UNL     1      -6.232  10.750  65.677  1.00  0.00    -0.129 OA 
HETATM   27  C   UNL     1      -6.435  12.540  67.263  1.00  0.00    -0.121 C  
BRANCH  17  28
HETATM   28  O   UNL     1      -8.549   9.601  67.057  1.00  0.00    -0.127 OA 
BRANCH  28  29
HETATM   29  C   UNL     1      -8.779   8.227  66.980  1.00  0.00    -0.127 C  
HETATM   30  O   UNL     1     -10.069   6.249  67.617  1.00  0.00    -0.129 OA 
HETATM   31  C   UNL     1      -9.601   7.550  67.819  1.00  0.00    -0.142 C  
HETATM   32  C   UNL     1      -9.562   5.519  66.571  1.00  0.00    -0.155 A  
HETATM   33  O   UNL     1      -8.140   8.135  64.732  1.00  0.00    -0.143 OA 
HETATM   34  H   UNL     1      -6.579   6.615  64.210  1.00  0.00     0.000 HD 
HETATM   35  C   UNL     1     -10.028   4.225  66.342  1.00  0.00    -0.223 A  
HETATM   36  C   UNL     1      -8.420   7.503  65.743  1.00  0.00    -0.144 C  
HETATM   37  C   UNL     1      -9.452   3.461  65.320  1.00  0.00    -0.145 A  
HETATM   38  C   UNL     1      -8.578   6.054  65.717  1.00  0.00    -0.155 A  
HETATM   39  O   UNL     1      -6.877   5.723  64.076  1.00  0.00    -0.046 OA 
HETATM   40  C   UNL     1      -8.379   3.939  64.575  1.00  0.00    -0.098 A  
HETATM   41  O   UNL     1      -9.908   2.214  65.002  1.00  0.00    -0.347 OA 
HETATM   42  H   UNL     1      -9.517   1.695  64.308  1.00  0.00     0.000 HD 
HETATM   43  C   UNL     1      -7.945   5.241  64.769  1.00  0.00    -0.107 A  
BRANCH  31  44
HETATM   44  C   UNL     1     -10.155   8.238  68.994  1.00  0.00    -0.208 A  
HETATM   45  O   UNL     1     -12.225   9.668  72.294  1.00  0.00    -0.240 OA 
HETATM   46  H   UNL     1     -13.106  11.124  70.642  1.00  0.00     0.000 HD 
HETATM   47  C   UNL     1      -9.923   7.696  70.273  1.00  0.00    -0.189 A  
HETATM   48  H   UNL     1     -12.085   9.278  73.149  1.00  0.00     0.000 HD 
HETATM   49  O   UNL     1     -12.640  10.803  69.879  1.00  0.00    -0.294 OA 
HETATM   50  C   UNL     1     -11.506   9.228  71.218  1.00  0.00    -0.347 A  
HETATM   51  C   UNL     1     -11.711   9.800  69.964  1.00  0.00    -0.074 A  
HETATM   52  C   UNL     1     -11.027   9.328  68.847  1.00  0.00    -0.050 A  
HETATM   53  C   UNL     1     -10.602   8.190  71.388  1.00  0.00    -0.269 A  
ENDBRANCH  31  44
ENDBRANCH  28  29
ENDBRANCH  17  28
ENDBRANCH  15  16
ENDBRANCH  14  15
ENDBRANCH   4  14
TORSDOF 6
ENDMDL
MODEL      117
REMARK 921   NORMALIZED FREE ENERGY PREDICTED BY IDOCK:   -5.17 KCAL/MOL
REMARK 922        TOTAL FREE ENERGY PREDICTED BY IDOCK:   -8.47 KCAL/MOL
REMARK 923 INTER-LIGAND FREE ENERGY PREDICTED BY IDOCK:   -7.85 KCAL/MOL
REMARK 924 INTRA-LIGAND FREE ENERGY PREDICTED BY IDOCK:   -0.61 KCAL/MOL
REMARK 927      BINDING AFFINITY PREDICTED BY RF-SCORE:    0.00 PKD
ROOT
HETATM    1  C   UNL     1     -10.760  15.615  65.937  1.00  0.00    -0.336 C  
HETATM    2  C   UNL     1     -11.046  14.150  65.592  1.00  0.00    -0.307 C  
HETATM    3  O   UNL     1     -10.213  13.888  64.462  1.00  0.00    -0.405 OA 
HETATM    4  C   UNL     1     -10.493  12.795  63.598  1.00  0.00    -0.205 C  
HETATM    5  H   UNL     1     -14.619  12.297  65.322  1.00  0.00     0.000 HD 
HETATM    6  C   UNL     1     -11.991  12.549  63.363  1.00  0.00    -0.514 C  
HETATM    7  C   UNL     1     -12.753  12.560  64.696  1.00  0.00    -0.349 C  
HETATM    8  O   UNL     1     -13.253  14.037  66.617  1.00  0.00    -0.072 OA 
HETATM    9  O   UNL     1     -12.534  13.563  62.495  1.00  0.00    -0.581 OA 
HETATM   10  H   UNL     1     -13.460  13.411  62.349  1.00  0.00     0.000 HD 
HETATM   11  H   UNL     1     -14.183  13.900  66.479  1.00  0.00     0.000 HD 
HETATM   12  O   UNL     1     -14.148  12.290  64.497  1.00  0.00     0.900 OA 
HETATM   13  C   UNL     1     -12.554  13.928  65.367  1.00  0.00    -0.507 C  
ENDROOT
BRANCH   4  14
HETATM   14  O   UNL     1      -9.862  11.562  63.948  1.00  0.00    -0.265 OA 
BRANCH  14  15
HETATM   15  C   UNL     1      -9.626  11.425  65.360  1.00  0.00    -0.228 C  
BRANCH  15  16
HETATM   16  C   UNL     1      -8.136  11.141  65.584  1.00  0.00     0.085 C  
HETATM   17  C   UNL     1      -8.015   9.773  67.635  1.00  0.00    -0.105 C  
HETATM   18  O   UNL     1      -7.818  11.051  66.995  1.00  0.00    -0.124 OA 
HETATM   19  H   UNL     1      -9.275   8.045  64.329  1.00  0.00     0.000 HD 
HETATM   20  C   UNL     1      -7.169   8.754  66.837  1.00  0.00    -0.079 C  
HETATM   21  H   UNL     1      -5.929   9.636  63.737  1.00  0.00     0.000 HD 
HETATM   22  O   UNL     1      -5.773   9.148  66.825  1.00  0.00    -0.046 OA 
HETATM   23  C   UNL     1      -7.656   8.643  65.383  1.00  0.00    -0.087 C  
HETATM   24  H   UNL     1      -5.253   8.522  66.334  1.00  0.00     0.000 HD 
HETATM   25  O   UNL     1      -6.259  10.335  64.289  1.00  0.00    -0.133 OA 
HETATM   26  O   UNL     1      -8.974   8.114  65.228  1.00  0.00    -0.063 OA 
HETATM   27  C   UNL     1      -7.601  10.007  64.689  1.00  0.00    -0.143 C  
BRANCH  17  28
HETATM   28  O   UNL     1      -9.412   9.477  67.786  1.00  0.00    -0.131 OA 
BRANCH  28  29
HETATM   29  C   UNL     1      -9.818   8.897  68.988  1.00  0.00    -0.180 C  
HETATM   30  O   UNL     1     -11.176   8.951  71.022  1.00  0.00    -0.251 OA 
HETATM   31  C   UNL     1     -10.522   9.553  69.944  1.00  0.00    -0.240 C  
HETATM   32  C   UNL     1     -10.994   7.609  71.240  1.00  0.00    -0.238 A  
HETATM   33  O   UNL     1      -9.683   6.731  68.116  1.00  0.00    -0.128 OA 
HETATM   34  H   UNL     1      -8.464   5.266  69.293  1.00  0.00     0.000 HD 
HETATM   35  C   UNL     1     -11.651   6.986  72.300  1.00  0.00    -0.307 A  
HETATM   36  C   UNL     1      -9.819   7.425  69.116  1.00  0.00    -0.168 C  
HETATM   37  C   UNL     1     -11.400   5.633  72.561  1.00  0.00    -0.294 A  
HETATM   38  C   UNL     1     -10.154   6.842  70.409  1.00  0.00    -0.200 A  
HETATM   39  O   UNL     1      -8.890   4.852  70.035  1.00  0.00    -0.092 OA 
HETATM   40  C   UNL     1     -10.459   4.917  71.830  1.00  0.00    -0.214 A  
HETATM   41  O   UNL     1     -12.062   4.949  73.540  1.00  0.00    -0.337 OA 
HETATM   42  H   UNL     1     -11.892   4.031  73.717  1.00  0.00     0.000 HD 
HETATM   43  C   UNL     1      -9.838   5.520  70.747  1.00  0.00    -0.188 A  
BRANCH  31  44
HETATM   44  C   UNL     1     -10.728  11.003  69.818  1.00  0.00    -0.135 A  
HETATM   45  O   UNL     1     -11.677  14.928  68.864  1.00  0.00    -0.294 OA 
HETATM   46  H   UNL     1      -9.476  14.853  67.983  1.00  0.00     0.000 HD 
HETATM   47  C   UNL     1     -11.969  11.550  70.197  1.00  0.00    -0.452 A  
HETATM   48  H   UNL     1     -12.527  15.282  69.097  1.00  0.00     0.000 HD 
HETATM   49  O   UNL     1      -9.250  13.955  68.194  1.00  0.00    -0.190 OA 
HETATM   50  C   UNL     1     -11.348  13.651  69.223  1.00  0.00    -0.269 A  
HETATM   51  C   UNL     1     -10.102  13.132  68.881  1.00  0.00     0.038 A  
HETATM   52  C   UNL     1      -9.770  11.815  69.190  1.00  0.00     0.240 A  
HETATM   53  C   UNL     1     -12.282  12.878  69.896  1.00  0.00    -0.258 A  
ENDBRANCH  31  44
ENDBRANCH  28  29
ENDBRANCH  17  28
ENDBRANCH  15  16
ENDBRANCH  14  15
ENDBRANCH   4  14
TORSDOF 6
ENDMDL
MODEL      118
REMARK 921   NORMALIZED FREE ENERGY PREDICTED BY IDOCK:   -5.11 KCAL/MOL
REMARK 922        TOTAL FREE ENERGY PREDICTED BY IDOCK:   -8.38 KCAL/MOL
REMARK 923 INTER-LIGAND FREE ENERGY PREDICTED BY IDOCK:   -7.44 KCAL/MOL
REMARK 924 INTRA-LIGAND FREE ENERGY PREDICTED BY IDOCK:   -0.94 KCAL/MOL
REMARK 927      BINDING AFFINITY PREDICTED BY RF-SCORE:    0.00 PKD
ROOT
HETATM    1  C   UNL     1      -9.039  14.710  66.268  1.00  0.00    -0.196 C  
HETATM    2  C   UNL     1      -9.445  13.234  66.308  1.00  0.00    -0.184 C  
HETATM    3  O   UNL     1      -9.820  12.937  64.962  1.00  0.00    -0.174 OA 
HETATM    4  C   UNL     1     -10.642  11.815  64.674  1.00  0.00    -0.308 C  
HETATM    5  H   UNL     1     -11.795  11.359  68.998  1.00  0.00     0.000 HD 
HETATM    6  C   UNL     1     -11.739  11.556  65.717  1.00  0.00     0.261 C  
HETATM    7  C   UNL     1     -11.153  11.609  67.136  1.00  0.00    -0.299 C  
HETATM    8  O   UNL     1      -9.985  13.147  68.682  1.00  0.00    -0.346 OA 
HETATM    9  O   UNL     1     -12.786  12.538  65.596  1.00  0.00    -0.521 OA 
HETATM   10  H   UNL     1     -13.464  12.378  66.242  1.00  0.00     0.000 HD 
HETATM   11  H   UNL     1     -10.660  13.002  69.334  1.00  0.00     0.000 HD 
HETATM   12  O   UNL     1     -12.158  11.326  68.121  1.00  0.00    -0.635 OA 
HETATM   13  C   UNL     1     -10.541  12.999  67.366  1.00  0.00    -0.234 C  
ENDROOT
BRANCH   4  14
HETATM   14  O   UNL     1      -9.943  10.597  64.410  1.00  0.00    -0.304 OA 
BRANCH  14  15
HETATM   15  C   UNL     1      -9.700   9.815  65.593  1.00  0.00    -0.288 C  
BRANCH  15  16
HETATM   16  C   UNL     1      -8.220   9.949  65.974  1.00  0.00    -0.119 C  
HETATM   17  C   UNL     1      -7.763   8.101  67.544  1.00  0.00    -0.102 C  
HETATM   18  O   UNL     1      -7.980   9.512  67.334  1.00  0.00    -0.105 OA 
HETATM   19  H   UNL     1      -8.137   7.231  63.723  1.00  0.00     0.000 HD 
HETATM   20  C   UNL     1      -6.568   7.708  66.644  1.00  0.00    -0.057 C  
HETATM   21  H   UNL     1      -5.518   9.879  64.174  1.00  0.00     0.000 HD 
HETATM   22  O   UNL     1      -5.397   8.495  66.978  1.00  0.00    -0.035 OA 
HETATM   23  C   UNL     1      -6.894   7.927  65.158  1.00  0.00    -0.051 C  
HETATM   24  H   UNL     1      -4.663   8.254  66.425  1.00  0.00     0.000 HD 
HETATM   25  O   UNL     1      -6.103  10.225  64.837  1.00  0.00    -0.117 OA 
HETATM   26  O   UNL     1      -7.936   7.096  64.641  1.00  0.00    -0.122 OA 
HETATM   27  C   UNL     1      -7.271   9.388  64.897  1.00  0.00    -0.106 C  
BRANCH  17  28
HETATM   28  O   UNL     1      -8.978   7.356  67.369  1.00  0.00    -0.122 OA 
BRANCH  28  29
HETATM   29  C   UNL     1      -9.359   6.499  68.402  1.00  0.00    -0.122 C  
HETATM   30  O   UNL     1      -9.266   4.311  69.492  1.00  0.00    -0.111 OA 
HETATM   31  C   UNL     1      -9.154   5.159  68.387  1.00  0.00    -0.112 C  
HETATM   32  C   UNL     1      -9.758   4.819  70.668  1.00  0.00    -0.200 A  
HETATM   33  O   UNL     1      -9.386   8.230  69.976  1.00  0.00    -0.160 OA 
HETATM   34  H   UNL     1     -11.265   8.444  71.176  1.00  0.00     0.000 HD 
HETATM   35  C   UNL     1      -9.862   3.994  71.787  1.00  0.00    -0.249 A  
HETATM   36  C   UNL     1      -9.673   7.064  69.731  1.00  0.00    -0.168 C  
HETATM   37  C   UNL     1     -10.436   4.499  72.959  1.00  0.00    -0.194 A  
HETATM   38  C   UNL     1     -10.161   6.165  70.769  1.00  0.00    -0.238 A  
HETATM   39  O   UNL     1     -11.363   7.871  71.927  1.00  0.00    -0.253 OA 
HETATM   40  C   UNL     1     -10.967   5.784  73.010  1.00  0.00    -0.314 A  
HETATM   41  O   UNL     1     -10.504   3.765  74.108  1.00  0.00    -0.172 OA 
HETATM   42  H   UNL     1     -10.894   4.108  74.904  1.00  0.00     0.000 HD 
HETATM   43  C   UNL     1     -10.824   6.621  71.914  1.00  0.00    -0.236 A  
BRANCH  31  44
HETATM   44  C   UNL     1      -8.671   4.519  67.154  1.00  0.00    -0.104 A  
HETATM   45  O   UNL     1      -7.558   2.104  63.968  1.00  0.00    -0.058 OA 
HETATM   46  H   UNL     1      -5.469   2.233  65.085  1.00  0.00     0.000 HD 
HETATM   47  C   UNL     1      -9.601   4.189  66.149  1.00  0.00    -0.204 A  
HETATM   48  H   UNL     1      -8.198   1.862  63.309  1.00  0.00     0.000 HD 
HETATM   49  O   UNL     1      -5.714   2.783  65.820  1.00  0.00    -0.017 OA 
HETATM   50  C   UNL     1      -7.915   2.941  64.989  1.00  0.00    -0.082 A  
HETATM   51  C   UNL     1      -6.977   3.297  65.956  1.00  0.00    -0.057 A  
HETATM   52  C   UNL     1      -7.336   4.102  67.033  1.00  0.00    -0.073 A  
HETATM   53  C   UNL     1      -9.223   3.395  65.065  1.00  0.00    -0.147 A  
ENDBRANCH  31  44
ENDBRANCH  28  29
ENDBRANCH  17  28
ENDBRANCH  15  16
ENDBRANCH  14  15
ENDBRANCH   4  14
TORSDOF 6
ENDMDL
MODEL      119
REMARK 921   NORMALIZED FREE ENERGY PREDICTED BY IDOCK:   -5.10 KCAL/MOL
REMARK 922        TOTAL FREE ENERGY PREDICTED BY IDOCK:   -8.37 KCAL/MOL
REMARK 923 INTER-LIGAND FREE ENERGY PREDICTED BY IDOCK:   -7.46 KCAL/MOL
REMARK 924 INTRA-LIGAND FREE ENERGY PREDICTED BY IDOCK:   -0.91 KCAL/MOL
REMARK 927      BINDING AFFINITY PREDICTED BY RF-SCORE:    0.00 PKD
ROOT
HETATM    1  C   UNL     1     -11.957   9.515  71.935  1.00  0.00    -0.381 C  
HETATM    2  C   UNL     1     -11.042   8.412  71.395  1.00  0.00    -0.255 C  
HETATM    3  O   UNL     1     -11.857   7.711  70.454  1.00  0.00    -0.148 OA 
HETATM    4  C   UNL     1     -11.525   6.389  70.057  1.00  0.00    -0.428 C  
HETATM    5  H   UNL     1      -8.620   5.935  73.463  1.00  0.00     0.000 HD 
HETATM    6  C   UNL     1     -10.956   5.518  71.187  1.00  0.00    -0.125 C  
HETATM    7  C   UNL     1      -9.866   6.280  71.955  1.00  0.00    -0.155 C  
HETATM    8  O   UNL     1      -9.532   8.326  73.304  1.00  0.00    -0.246 OA 
HETATM    9  O   UNL     1     -12.004   5.136  72.100  1.00  0.00     0.298 OA 
HETATM   10  H   UNL     1     -11.653   4.598  72.799  1.00  0.00     0.000 HD 
HETATM   11  H   UNL     1      -9.185   7.800  74.015  1.00  0.00     0.000 HD 
HETATM   12  O   UNL     1      -9.294   5.464  72.988  1.00  0.00    -0.137 OA 
HETATM   13  C   UNL     1     -10.480   7.558  72.547  1.00  0.00    -0.249 C  
ENDROOT
BRANCH   4  14
HETATM   14  O   UNL     1     -10.676   6.289  68.912  1.00  0.00    -0.234 OA 
BRANCH  14  15
HETATM   15  C   UNL     1     -10.266   7.568  68.396  1.00  0.00    -0.185 C  
BRANCH  15  16
HETATM   16  C   UNL     1     -10.199   7.482  66.866  1.00  0.00    -0.289 C  
HETATM   17  C   UNL     1      -9.867   9.797  66.078  1.00  0.00    -0.274 C  
HETATM   18  O   UNL     1     -10.750   8.668  66.242  1.00  0.00     0.186 OA 
HETATM   19  H   UNL     1      -6.802   7.941  67.709  1.00  0.00     0.000 HD 
HETATM   20  C   UNL     1      -8.656   9.285  65.264  1.00  0.00    -0.166 C  
HETATM   21  H   UNL     1      -8.178   5.887  64.886  1.00  0.00     0.000 HD 
HETATM   22  O   UNL     1      -9.090   8.744  63.990  1.00  0.00    -0.376 OA 
HETATM   23  C   UNL     1      -7.895   8.188  66.026  1.00  0.00    -0.093 C  
HETATM   24  H   UNL     1      -8.346   8.429  63.490  1.00  0.00     0.000 HD 
HETATM   25  O   UNL     1      -9.026   6.174  65.203  1.00  0.00     0.009 OA 
HETATM   26  O   UNL     1      -7.272   8.619  67.238  1.00  0.00    -0.078 OA 
HETATM   27  C   UNL     1      -8.823   7.015  66.353  1.00  0.00    -0.145 C  
BRANCH  17  28
HETATM   28  O   UNL     1      -9.582  10.421  67.340  1.00  0.00    -0.152 OA 
BRANCH  28  29
HETATM   29  C   UNL     1      -9.337  11.795  67.335  1.00  0.00    -0.174 C  
HETATM   30  O   UNL     1      -7.851  13.690  67.761  1.00  0.00    -0.140 OA 
HETATM   31  C   UNL     1      -8.285  12.378  67.961  1.00  0.00    -0.168 C  
HETATM   32  C   UNL     1      -8.611  14.527  66.983  1.00  0.00    -0.217 A  
HETATM   33  O   UNL     1     -10.592  12.122  65.388  1.00  0.00    -0.255 OA 
HETATM   34  H   UNL     1     -12.183  13.696  65.491  1.00  0.00     0.000 HD 
HETATM   35  C   UNL     1      -8.187  15.835  66.757  1.00  0.00    -0.302 A  
HETATM   36  C   UNL     1     -10.011  12.645  66.331  1.00  0.00    -0.255 C  
HETATM   37  C   UNL     1      -9.005  16.704  66.025  1.00  0.00    -0.213 A  
HETATM   38  C   UNL     1      -9.817  14.087  66.402  1.00  0.00    -0.306 A  
HETATM   39  O   UNL     1     -11.905  14.595  65.365  1.00  0.00    -0.350 OA 
HETATM   40  C   UNL     1     -10.263  16.311  65.579  1.00  0.00    -0.326 A  
HETATM   41  O   UNL     1      -8.617  17.975  65.712  1.00  0.00    -0.490 OA 
HETATM   42  H   UNL     1      -9.173  18.564  65.215  1.00  0.00     0.000 HD 
HETATM   43  C   UNL     1     -10.668  14.997  65.763  1.00  0.00    -0.342 A  
BRANCH  31  44
HETATM   44  C   UNL     1      -7.441  11.569  68.853  1.00  0.00    -0.106 A  
HETATM   45  O   UNL     1      -5.128   8.772  70.865  1.00  0.00    -0.027 OA 
HETATM   46  H   UNL     1      -7.180   8.453  72.012  1.00  0.00     0.000 HD 
HETATM   47  C   UNL     1      -6.075  11.417  68.545  1.00  0.00    -0.045 A  
HETATM   48  H   UNL     1      -4.215   8.655  70.632  1.00  0.00     0.000 HD 
HETATM   49  O   UNL     1      -7.719   9.088  71.555  1.00  0.00    -0.284 OA 
HETATM   50  C   UNL     1      -5.874   9.729  70.235  1.00  0.00    -0.055 A  
HETATM   51  C   UNL     1      -7.214   9.901  70.576  1.00  0.00    -0.087 A  
HETATM   52  C   UNL     1      -8.004  10.832  69.907  1.00  0.00     0.344 A  
HETATM   53  C   UNL     1      -5.290  10.492  69.236  1.00  0.00    -0.038 A  
ENDBRANCH  31  44
ENDBRANCH  28  29
ENDBRANCH  17  28
ENDBRANCH  15  16
ENDBRANCH  14  15
ENDBRANCH   4  14
TORSDOF 6
ENDMDL
MODEL      120
REMARK 921   NORMALIZED FREE ENERGY PREDICTED BY IDOCK:   -5.08 KCAL/MOL
REMARK 922        TOTAL FREE ENERGY PREDICTED BY IDOCK:   -8.35 KCAL/MOL
REMARK 923 INTER-LIGAND FREE ENERGY PREDICTED BY IDOCK:   -7.20 KCAL/MOL
REMARK 924 INTRA-LIGAND FREE ENERGY PREDICTED BY IDOCK:   -1.15 KCAL/MOL
REMARK 927      BINDING AFFINITY PREDICTED BY RF-SCORE:    0.00 PKD
ROOT
HETATM    1  C   UNL     1     -12.651  15.708  71.517  1.00  0.00    -0.511 C  
HETATM    2  C   UNL     1     -11.816  14.630  70.818  1.00  0.00    -0.311 C  
HETATM    3  O   UNL     1     -11.134  15.335  69.780  1.00  0.00    -0.248 OA 
HETATM    4  C   UNL     1     -10.600  14.636  68.665  1.00  0.00    -0.252 C  
HETATM    5  H   UNL     1     -12.960  10.938  69.663  1.00  0.00     0.000 HD 
HETATM    6  C   UNL     1     -11.471  13.467  68.181  1.00  0.00    -0.303 C  
HETATM    7  C   UNL     1     -11.909  12.597  69.369  1.00  0.00    -0.296 C  
HETATM    8  O   UNL     1     -13.182  12.727  71.486  1.00  0.00    -0.346 OA 
HETATM    9  O   UNL     1     -12.638  13.963  67.497  1.00  0.00    -0.393 OA 
HETATM   10  H   UNL     1     -13.177  13.240  67.198  1.00  0.00     0.000 HD 
HETATM   11  H   UNL     1     -13.734  12.009  71.197  1.00  0.00     0.000 HD 
HETATM   12  O   UNL     1     -12.689  11.476  68.928  1.00  0.00    -0.017 OA 
HETATM   13  C   UNL     1     -12.711  13.467  70.349  1.00  0.00    -0.104 C  
ENDROOT
BRANCH   4  14
HETATM   14  O   UNL     1      -9.251  14.190  68.811  1.00  0.00    -0.172 OA 
BRANCH  14  15
HETATM   15  C   UNL     1      -9.080  12.792  68.518  1.00  0.00    -0.049 C  
BRANCH  15  16
HETATM   16  C   UNL     1      -7.579  12.495  68.402  1.00  0.00    -0.129 C  
HETATM   17  C   UNL     1      -7.380  10.035  68.425  1.00  0.00    -0.077 C  
HETATM   18  O   UNL     1      -7.220  11.289  69.121  1.00  0.00    -0.112 OA 
HETATM   19  H   UNL     1      -8.709  11.754  65.141  1.00  0.00     0.000 HD 
HETATM   20  C   UNL     1      -6.542  10.149  67.130  1.00  0.00    -0.069 C  
HETATM   21  H   UNL     1      -5.405  13.245  66.110  1.00  0.00     0.000 HD 
HETATM   22  O   UNL     1      -5.154  10.424  67.443  1.00  0.00    -0.040 OA 
HETATM   23  C   UNL     1      -7.069  11.272  66.222  1.00  0.00     0.007 C  
HETATM   24  H   UNL     1      -4.639  10.494  66.647  1.00  0.00     0.000 HD 
HETATM   25  O   UNL     1      -5.729  13.172  66.999  1.00  0.00    -0.266 OA 
HETATM   26  O   UNL     1      -8.384  11.060  65.703  1.00  0.00    -0.149 OA 
HETATM   27  C   UNL     1      -7.054  12.614  66.959  1.00  0.00     0.085 C  
BRANCH  17  28
HETATM   28  O   UNL     1      -8.768   9.700  68.271  1.00  0.00    -0.119 OA 
BRANCH  28  29
HETATM   29  C   UNL     1      -9.236   8.580  68.959  1.00  0.00    -0.146 C  
HETATM   30  O   UNL     1      -9.183   6.172  69.384  1.00  0.00    -0.133 OA 
HETATM   31  C   UNL     1      -8.972   7.302  68.591  1.00  0.00    -0.128 C  
HETATM   32  C   UNL     1      -9.840   6.317  70.580  1.00  0.00    -0.184 A  
HETATM   33  O   UNL     1      -9.535   9.785  70.941  1.00  0.00    -0.094 OA 
HETATM   34  H   UNL     1     -11.557   9.634  71.894  1.00  0.00     0.000 HD 
HETATM   35  C   UNL     1     -10.046   5.204  71.395  1.00  0.00    -0.265 A  
HETATM   36  C   UNL     1      -9.738   8.737  70.340  1.00  0.00    -0.180 C  
HETATM   37  C   UNL     1     -10.783   5.348  72.577  1.00  0.00    -0.237 A  
HETATM   38  C   UNL     1     -10.311   7.574  71.006  1.00  0.00    -0.204 A  
HETATM   39  O   UNL     1     -11.722   8.868  72.431  1.00  0.00    -0.331 OA 
HETATM   40  C   UNL     1     -11.372   6.560  72.920  1.00  0.00    -0.172 A  
HETATM   41  O   UNL     1     -10.962   4.314  73.450  1.00  0.00    -0.230 OA 
HETATM   42  H   UNL     1     -11.462   4.412  74.252  1.00  0.00     0.000 HD 
HETATM   43  C   UNL     1     -11.131   7.678  72.136  1.00  0.00    -0.267 A  
BRANCH  31  44
HETATM   44  C   UNL     1      -8.312   7.047  67.302  1.00  0.00    -0.122 A  
HETATM   45  O   UNL     1      -5.992   6.849  63.867  1.00  0.00    -0.034 OA 
HETATM   46  H   UNL     1      -7.765   8.193  63.043  1.00  0.00     0.000 HD 
HETATM   47  C   UNL     1      -7.127   6.285  67.283  1.00  0.00    -0.073 A  
HETATM   48  H   UNL     1      -5.180   6.358  63.869  1.00  0.00     0.000 HD 
HETATM   49  O   UNL     1      -8.302   8.247  63.824  1.00  0.00    -0.128 OA 
HETATM   50  C   UNL     1      -6.779   6.871  64.984  1.00  0.00    -0.050 A  
HETATM   51  C   UNL     1      -7.972   7.592  64.980  1.00  0.00    -0.132 A  
HETATM   52  C   UNL     1      -8.758   7.671  66.127  1.00  0.00    -0.176 A  
HETATM   53  C   UNL     1      -6.356   6.200  66.121  1.00  0.00    -0.038 A  
ENDBRANCH  31  44
ENDBRANCH  28  29
ENDBRANCH  17  28
ENDBRANCH  15  16
ENDBRANCH  14  15
ENDBRANCH   4  14
TORSDOF 6
ENDMDL
MODEL      121
REMARK 921   NORMALIZED FREE ENERGY PREDICTED BY IDOCK:   -5.04 KCAL/MOL
REMARK 922        TOTAL FREE ENERGY PREDICTED BY IDOCK:   -8.29 KCAL/MOL
REMARK 923 INTER-LIGAND FREE ENERGY PREDICTED BY IDOCK:   -6.53 KCAL/MOL
REMARK 924 INTRA-LIGAND FREE ENERGY PREDICTED BY IDOCK:   -1.76 KCAL/MOL
REMARK 927      BINDING AFFINITY PREDICTED BY RF-SCORE:    0.00 PKD
ROOT
HETATM    1  C   UNL     1     -11.280   5.169  65.591  1.00  0.00     0.422 C  
HETATM    2  C   UNL     1      -9.945   5.067  66.336  1.00  0.00    -0.226 C  
HETATM    3  O   UNL     1      -9.378   6.372  66.219  1.00  0.00    -0.161 OA 
HETATM    4  C   UNL     1      -7.985   6.573  66.405  1.00  0.00    -0.110 C  
HETATM    5  H   UNL     1      -7.156   2.163  66.083  1.00  0.00     0.000 HD 
HETATM    6  C   UNL     1      -7.108   5.441  65.847  1.00  0.00    -0.068 C  
HETATM    7  C   UNL     1      -7.652   4.074  66.288  1.00  0.00    -0.089 C  
HETATM    8  O   UNL     1      -9.672   2.656  66.111  1.00  0.00    -0.374 OA 
HETATM    9  O   UNL     1      -7.073   5.500  64.408  1.00  0.00    -0.047 OA 
HETATM   10  H   UNL     1      -6.532   4.800  64.063  1.00  0.00     0.000 HD 
HETATM   11  H   UNL     1      -9.143   1.950  65.758  1.00  0.00     0.000 HD 
HETATM   12  O   UNL     1      -6.820   3.008  65.810  1.00  0.00    -0.046 OA 
HETATM   13  C   UNL     1      -9.088   3.922  65.763  1.00  0.00    -0.145 C  
ENDROOT
BRANCH   4  14
HETATM   14  O   UNL     1      -7.582   6.866  67.744  1.00  0.00    -0.102 OA 
BRANCH  14  15
HETATM   15  C   UNL     1      -7.889   8.212  68.148  1.00  0.00    -0.122 C  
BRANCH  15  16
HETATM   16  C   UNL     1      -8.578   8.168  69.518  1.00  0.00    -0.134 C  
HETATM   17  C   UNL     1     -10.097  10.113  69.565  1.00  0.00    -0.235 C  
HETATM   18  O   UNL     1      -8.868   9.500  70.009  1.00  0.00    -0.186 OA 
HETATM   19  H   UNL     1     -11.141   7.003  67.388  1.00  0.00     0.000 HD 
HETATM   20  C   UNL     1     -11.233   9.142  69.965  1.00  0.00    -0.150 C  
HETATM   21  H   UNL     1     -10.456   5.915  70.913  1.00  0.00     0.000 HD 
HETATM   22  O   UNL     1     -11.227   8.910  71.396  1.00  0.00    -0.264 OA 
HETATM   23  C   UNL     1     -11.087   7.789  69.251  1.00  0.00     0.113 C  
HETATM   24  H   UNL     1     -11.925   8.314  71.641  1.00  0.00     0.000 HD 
HETATM   25  O   UNL     1      -9.743   6.542  70.878  1.00  0.00    -0.175 OA 
HETATM   26  O   UNL     1     -11.231   7.839  67.829  1.00  0.00     0.153 OA 
HETATM   27  C   UNL     1      -9.734   7.151  69.574  1.00  0.00    -0.157 C  
BRANCH  17  28
HETATM   28  O   UNL     1     -10.021  10.487  68.181  1.00  0.00    -0.148 OA 
BRANCH  28  29
HETATM   29  C   UNL     1      -9.916  11.847  67.890  1.00  0.00    -0.191 C  
HETATM   30  O   UNL     1      -9.434  13.651  66.310  1.00  0.00    -0.260 OA 
HETATM   31  C   UNL     1      -9.325  12.337  66.773  1.00  0.00    -0.218 C  
HETATM   32  C   UNL     1     -10.065  14.580  67.099  1.00  0.00    -0.252 A  
HETATM   33  O   UNL     1     -11.716  12.396  69.280  1.00  0.00    -0.295 OA 
HETATM   34  H   UNL     1     -11.336  13.994  70.803  1.00  0.00     0.000 HD 
HETATM   35  C   UNL     1     -10.200  15.892  66.648  1.00  0.00    -0.293 A  
HETATM   36  C   UNL     1     -10.777  12.809  68.610  1.00  0.00    -0.246 C  
HETATM   37  C   UNL     1     -10.778  16.849  67.490  1.00  0.00    -0.270 A  
HETATM   38  C   UNL     1     -10.586  14.231  68.361  1.00  0.00    -0.255 A  
HETATM   39  O   UNL     1     -11.398  14.894  70.504  1.00  0.00    -0.259 OA 
HETATM   40  C   UNL     1     -11.156  16.535  68.792  1.00  0.00    -0.309 A  
HETATM   41  O   UNL     1     -11.000  18.133  67.084  1.00  0.00    -0.263 OA 
HETATM   42  H   UNL     1     -11.392  18.783  67.656  1.00  0.00     0.000 HD 
HETATM   43  C   UNL     1     -11.065  15.222  69.227  1.00  0.00    -0.274 A  
BRANCH  31  44
HETATM   44  C   UNL     1      -8.585  11.423  65.890  1.00  0.00    -0.049 A  
HETATM   45  O   UNL     1      -6.766   8.320  63.821  1.00  0.00    -0.074 OA 
HETATM   46  H   UNL     1      -4.936   8.989  65.173  1.00  0.00     0.000 HD 
HETATM   47  C   UNL     1      -9.290  10.718  64.895  1.00  0.00    -0.261 A  
HETATM   48  H   UNL     1      -7.256   7.830  63.171  1.00  0.00     0.000 HD 
HETATM   49  O   UNL     1      -5.343   9.699  65.655  1.00  0.00    -0.041 OA 
HETATM   50  C   UNL     1      -7.352   9.374  64.465  1.00  0.00    -0.105 A  
HETATM   51  C   UNL     1      -6.633  10.092  65.418  1.00  0.00    -0.120 A  
HETATM   52  C   UNL     1      -7.231  11.133  66.124  1.00  0.00     0.000 A  
HETATM   53  C   UNL     1      -8.672   9.688  64.182  1.00  0.00    -0.238 A  
ENDBRANCH  31  44
ENDBRANCH  28  29
ENDBRANCH  17  28
ENDBRANCH  15  16
ENDBRANCH  14  15
ENDBRANCH   4  14
TORSDOF 6
ENDMDL
MODEL      122
REMARK 921   NORMALIZED FREE ENERGY PREDICTED BY IDOCK:   -5.04 KCAL/MOL
REMARK 922        TOTAL FREE ENERGY PREDICTED BY IDOCK:   -8.28 KCAL/MOL
REMARK 923 INTER-LIGAND FREE ENERGY PREDICTED BY IDOCK:   -8.12 KCAL/MOL
REMARK 924 INTRA-LIGAND FREE ENERGY PREDICTED BY IDOCK:   -0.16 KCAL/MOL
REMARK 927      BINDING AFFINITY PREDICTED BY RF-SCORE:    0.00 PKD
ROOT
HETATM    1  C   UNL     1      -9.187   7.671  72.658  1.00  0.00    -0.217 C  
HETATM    2  C   UNL     1     -10.267   7.875  71.591  1.00  0.00    -0.192 C  
HETATM    3  O   UNL     1     -10.195   9.267  71.282  1.00  0.00    -0.303 OA 
HETATM    4  C   UNL     1     -11.291   9.926  70.663  1.00  0.00    -0.339 C  
HETATM    5  H   UNL     1     -14.059   6.500  71.577  1.00  0.00     0.000 HD 
HETATM    6  C   UNL     1     -12.667   9.447  71.149  1.00  0.00    -0.269 C  
HETATM    7  C   UNL     1     -12.727   7.912  71.159  1.00  0.00    -0.151 C  
HETATM    8  O   UNL     1     -11.632   5.947  72.188  1.00  0.00    -0.296 OA 
HETATM    9  O   UNL     1     -12.929   9.944  72.475  1.00  0.00    -0.426 OA 
HETATM   10  H   UNL     1     -13.780   9.647  72.776  1.00  0.00     0.000 HD 
HETATM   11  H   UNL     1     -12.475   5.642  72.501  1.00  0.00     0.000 HD 
HETATM   12  O   UNL     1     -14.022   7.448  71.570  1.00  0.00    -0.410 OA 
HETATM   13  C   UNL     1     -11.635   7.381  72.099  1.00  0.00    -0.293 C  
ENDROOT
BRANCH   4  14
HETATM   14  O   UNL     1     -11.271   9.934  69.234  1.00  0.00    -0.211 OA 
BRANCH  14  15
HETATM   15  C   UNL     1     -11.435  11.248  68.672  1.00  0.00    -0.297 C  
BRANCH  15  16
HETATM   16  C   UNL     1     -10.714  12.260  69.571  1.00  0.00     0.250 C  
HETATM   17  C   UNL     1      -8.655  12.884  68.361  1.00  0.00    -0.120 C  
HETATM   18  O   UNL     1      -9.275  12.155  69.441  1.00  0.00     0.651 OA 
HETATM   19  H   UNL     1     -12.074  14.358  67.079  1.00  0.00     0.000 HD 
HETATM   20  C   UNL     1      -9.063  14.364  68.548  1.00  0.00    -0.193 C  
HETATM   21  H   UNL     1     -11.629  15.157  70.717  1.00  0.00     0.000 HD 
HETATM   22  O   UNL     1      -8.639  14.850  69.846  1.00  0.00    -0.431 OA 
HETATM   23  C   UNL     1     -10.586  14.542  68.435  1.00  0.00    -0.244 C  
HETATM   24  H   UNL     1      -8.889  15.760  69.961  1.00  0.00     0.000 HD 
HETATM   25  O   UNL     1     -11.263  14.283  70.778  1.00  0.00    -0.026 OA 
HETATM   26  O   UNL     1     -11.133  14.248  67.148  1.00  0.00    -0.295 OA 
HETATM   27  C   UNL     1     -11.308  13.678  69.473  1.00  0.00    -0.214 C  
BRANCH  17  28
HETATM   28  O   UNL     1      -8.956  12.285  67.090  1.00  0.00    -0.178 OA 
BRANCH  28  29
HETATM   29  C   UNL     1      -8.928  10.893  67.016  1.00  0.00    -0.143 C  
HETATM   30  O   UNL     1      -9.282   8.824  65.761  1.00  0.00    -0.214 OA 
HETATM   31  C   UNL     1      -9.511  10.176  66.023  1.00  0.00    -0.197 C  
HETATM   32  C   UNL     1      -8.523   8.098  66.644  1.00  0.00    -0.128 A  
HETATM   33  O   UNL     1      -7.023  10.749  68.367  1.00  0.00    -0.066 OA 
HETATM   34  H   UNL     1      -7.166   9.381  70.135  1.00  0.00     0.000 HD 
HETATM   35  C   UNL     1      -8.269   6.750  66.391  1.00  0.00    -0.117 A  
HETATM   36  C   UNL     1      -7.940  10.146  67.823  1.00  0.00    -0.102 C  
HETATM   37  C   UNL     1      -7.558   5.999  67.334  1.00  0.00    -0.093 A  
HETATM   38  C   UNL     1      -7.990   8.690  67.805  1.00  0.00    -0.107 A  
HETATM   39  O   UNL     1      -7.021   8.456  69.974  1.00  0.00    -0.042 OA 
HETATM   40  C   UNL     1      -7.161   6.550  68.548  1.00  0.00    -0.083 A  
HETATM   41  O   UNL     1      -7.218   4.695  67.116  1.00  0.00    -0.071 OA 
HETATM   42  H   UNL     1      -6.736   4.185  67.756  1.00  0.00     0.000 HD 
HETATM   43  C   UNL     1      -7.372   7.900  68.783  1.00  0.00    -0.086 A  
BRANCH  31  44
HETATM   44  C   UNL     1     -10.380  10.863  65.057  1.00  0.00    -0.356 A  
HETATM   45  O   UNL     1     -12.391  13.365  62.426  1.00  0.00    -0.278 OA 
HETATM   46  H   UNL     1     -13.776  13.638  64.333  1.00  0.00     0.000 HD 
HETATM   47  C   UNL     1      -9.944  10.999  63.724  1.00  0.00    -0.404 A  
HETATM   48  H   UNL     1     -12.075  13.473  61.538  1.00  0.00     0.000 HD 
HETATM   49  O   UNL     1     -13.322  13.070  64.944  1.00  0.00    -0.641 OA 
HETATM   50  C   UNL     1     -11.756  12.502  63.276  1.00  0.00    -0.398 A  
HETATM   51  C   UNL     1     -12.221  12.342  64.579  1.00  0.00    -0.431 A  
HETATM   52  C   UNL     1     -11.554  11.510  65.475  1.00  0.00     0.026 A  
HETATM   53  C   UNL     1     -10.632  11.823  62.832  1.00  0.00     0.010 A  
ENDBRANCH  31  44
ENDBRANCH  28  29
ENDBRANCH  17  28
ENDBRANCH  15  16
ENDBRANCH  14  15
ENDBRANCH   4  14
TORSDOF 6
ENDMDL
MODEL      123
REMARK 921   NORMALIZED FREE ENERGY PREDICTED BY IDOCK:   -5.00 KCAL/MOL
REMARK 922        TOTAL FREE ENERGY PREDICTED BY IDOCK:   -8.24 KCAL/MOL
REMARK 923 INTER-LIGAND FREE ENERGY PREDICTED BY IDOCK:   -6.95 KCAL/MOL
REMARK 924 INTRA-LIGAND FREE ENERGY PREDICTED BY IDOCK:   -1.29 KCAL/MOL
REMARK 927      BINDING AFFINITY PREDICTED BY RF-SCORE:    0.00 PKD
ROOT
HETATM    1  C   UNL     1      -9.699   2.730  71.469  1.00  0.00    -0.225 C  
HETATM    2  C   UNL     1      -8.789   3.961  71.528  1.00  0.00    -0.100 C  
HETATM    3  O   UNL     1      -8.376   4.155  70.175  1.00  0.00    -0.064 OA 
HETATM    4  C   UNL     1      -7.215   4.919  69.878  1.00  0.00    -0.055 C  
HETATM    5  H   UNL     1      -5.838   4.765  74.158  1.00  0.00     0.000 HD 
HETATM    6  C   UNL     1      -6.066   4.728  70.879  1.00  0.00    -0.018 C  
HETATM    7  C   UNL     1      -6.586   4.833  72.320  1.00  0.00    -0.043 C  
HETATM    8  O   UNL     1      -8.178   3.757  73.877  1.00  0.00    -0.085 OA 
HETATM    9  O   UNL     1      -5.446   3.441  70.688  1.00  0.00    -0.011 OA 
HETATM   10  H   UNL     1      -4.735   3.323  71.307  1.00  0.00     0.000 HD 
HETATM   11  H   UNL     1      -7.476   3.625  74.503  1.00  0.00     0.000 HD 
HETATM   12  O   UNL     1      -5.516   4.699  73.267  1.00  0.00    -0.008 OA 
HETATM   13  C   UNL     1      -7.649   3.747  72.542  1.00  0.00    -0.060 C  
ENDROOT
BRANCH   4  14
HETATM   14  O   UNL     1      -7.438   6.316  69.675  1.00  0.00    -0.081 OA 
BRANCH  14  15
HETATM   15  C   UNL     1      -6.615   6.877  68.637  1.00  0.00    -0.054 C  
BRANCH  15  16
HETATM   16  C   UNL     1      -5.847   8.073  69.213  1.00  0.00    -0.034 C  
HETATM   17  C   UNL     1      -6.849  10.076  68.176  1.00  0.00    -0.064 C  
HETATM   18  O   UNL     1      -5.743   9.151  68.251  1.00  0.00    -0.038 OA 
HETATM   19  H   UNL     1      -8.883   8.243  71.006  1.00  0.00     0.000 HD 
HETATM   20  C   UNL     1      -7.028  10.653  69.600  1.00  0.00    -0.134 C  
HETATM   21  H   UNL     1      -5.457   9.117  72.264  1.00  0.00     0.000 HD 
HETATM   22  O   UNL     1      -5.808  11.297  70.046  1.00  0.00    -0.086 OA 
HETATM   23  C   UNL     1      -7.392   9.550  70.607  1.00  0.00    -0.120 C  
HETATM   24  H   UNL     1      -5.918  11.652  70.920  1.00  0.00     0.000 HD 
HETATM   25  O   UNL     1      -5.169   8.877  71.391  1.00  0.00    -0.032 OA 
HETATM   26  O   UNL     1      -8.657   8.924  70.383  1.00  0.00    -0.146 OA 
HETATM   27  C   UNL     1      -6.315   8.461  70.628  1.00  0.00    -0.036 C  
BRANCH  17  28
HETATM   28  O   UNL     1      -8.001   9.461  67.577  1.00  0.00    -0.102 OA 
BRANCH  28  29
HETATM   29  C   UNL     1      -8.651  10.169  66.566  1.00  0.00    -0.126 C  
HETATM   30  O   UNL     1      -9.833  10.213  64.425  1.00  0.00    -0.322 OA 
HETATM   31  C   UNL     1      -8.956   9.646  65.353  1.00  0.00    -0.190 C  
HETATM   32  C   UNL     1     -10.330  11.469  64.667  1.00  0.00    -0.297 A  
HETATM   33  O   UNL     1      -9.580  11.693  68.078  1.00  0.00    -0.172 OA 
HETATM   34  H   UNL     1      -9.243  13.861  67.628  1.00  0.00     0.000 HD 
HETATM   35  C   UNL     1     -11.220  12.046  63.762  1.00  0.00    -0.516 A  
HETATM   36  C   UNL     1      -9.371  11.415  66.904  1.00  0.00    -0.181 C  
HETATM   37  C   UNL     1     -11.663  13.356  63.978  1.00  0.00    -0.416 A  
HETATM   38  C   UNL     1      -9.962  12.189  65.820  1.00  0.00    -0.271 A  
HETATM   39  O   UNL     1      -9.824  14.263  66.993  1.00  0.00    -0.243 OA 
HETATM   40  C   UNL     1     -11.182  14.118  65.038  1.00  0.00    -0.356 A  
HETATM   41  O   UNL     1     -12.585  13.953  63.167  1.00  0.00    -1.057 OA 
HETATM   42  H   UNL     1     -12.886  14.842  63.314  1.00  0.00     0.000 HD 
HETATM   43  C   UNL     1     -10.334  13.531  65.965  1.00  0.00    -0.303 A  
BRANCH  31  44
HETATM   44  C   UNL     1      -8.428   8.324  64.987  1.00  0.00    -0.141 A  
HETATM   45  O   UNL     1      -7.503   4.558  63.509  1.00  0.00    -0.053 OA 
HETATM   46  H   UNL     1      -8.565   3.914  65.530  1.00  0.00     0.000 HD 
HETATM   47  C   UNL     1      -7.718   8.184  63.778  1.00  0.00    -0.142 A  
HETATM   48  H   UNL     1      -7.050   4.471  62.679  1.00  0.00     0.000 HD 
HETATM   49  O   UNL     1      -8.785   4.771  65.876  1.00  0.00    -0.119 OA 
HETATM   50  C   UNL     1      -7.762   5.800  64.017  1.00  0.00    -0.101 A  
HETATM   51  C   UNL     1      -8.426   5.928  65.235  1.00  0.00    -0.144 A  
HETATM   52  C   UNL     1      -8.748   7.184  65.742  1.00  0.00    -0.125 A  
HETATM   53  C   UNL     1      -7.387   6.919  63.290  1.00  0.00    -0.080 A  
ENDBRANCH  31  44
ENDBRANCH  28  29
ENDBRANCH  17  28
ENDBRANCH  15  16
ENDBRANCH  14  15
ENDBRANCH   4  14
TORSDOF 6
ENDMDL
MODEL      124
REMARK 921   NORMALIZED FREE ENERGY PREDICTED BY IDOCK:   -4.99 KCAL/MOL
REMARK 922        TOTAL FREE ENERGY PREDICTED BY IDOCK:   -8.22 KCAL/MOL
REMARK 923 INTER-LIGAND FREE ENERGY PREDICTED BY IDOCK:   -7.13 KCAL/MOL
REMARK 924 INTRA-LIGAND FREE ENERGY PREDICTED BY IDOCK:   -1.10 KCAL/MOL
REMARK 927      BINDING AFFINITY PREDICTED BY RF-SCORE:    0.00 PKD
ROOT
HETATM    1  C   UNL     1     -10.661  19.538  69.153  1.00  0.00     0.343 C  
HETATM    2  C   UNL     1     -10.175  19.127  67.760  1.00  0.00    -0.403 C  
HETATM    3  O   UNL     1      -9.931  17.725  67.874  1.00  0.00    -0.294 OA 
HETATM    4  C   UNL     1      -9.086  17.062  66.944  1.00  0.00    -0.236 C  
HETATM    5  H   UNL     1      -7.454  20.966  65.417  1.00  0.00     0.000 HD 
HETATM    6  C   UNL     1      -7.871  17.890  66.499  1.00  0.00    -0.264 C  
HETATM    7  C   UNL     1      -8.304  19.313  66.114  1.00  0.00    -0.273 C  
HETATM    8  O   UNL     1      -9.380  21.325  67.070  1.00  0.00    -0.592 OA 
HETATM    9  O   UNL     1      -6.897  17.958  67.558  1.00  0.00    -0.177 OA 
HETATM   10  H   UNL     1      -6.146  18.471  67.283  1.00  0.00     0.000 HD 
HETATM   11  H   UNL     1      -8.632  21.848  66.808  1.00  0.00     0.000 HD 
HETATM   12  O   UNL     1      -7.186  20.087  65.655  1.00  0.00    -0.309 OA 
HETATM   13  C   UNL     1      -8.962  19.976  67.334  1.00  0.00    -0.347 C  
ENDROOT
BRANCH   4  14
HETATM   14  O   UNL     1      -9.743  16.530  65.792  1.00  0.00    -0.469 OA 
BRANCH  14  15
HETATM   15  C   UNL     1      -9.519  15.121  65.611  1.00  0.00    -0.173 C  
BRANCH  15  16
HETATM   16  C   UNL     1     -10.738  14.358  66.145  1.00  0.00    -0.304 C  
HETATM   17  C   UNL     1      -9.919  12.099  66.709  1.00  0.00    -0.203 C  
HETATM   18  O   UNL     1     -10.668  12.948  65.815  1.00  0.00    -0.267 OA 
HETATM   19  H   UNL     1      -8.976  15.065  69.120  1.00  0.00     0.000 HD 
HETATM   20  C   UNL     1     -10.548  12.284  68.110  1.00  0.00    -0.214 C  
HETATM   21  H   UNL     1     -12.698  14.926  68.670  1.00  0.00     0.000 HD 
HETATM   22  O   UNL     1     -11.957  11.942  68.086  1.00  0.00    -0.496 OA 
HETATM   23  C   UNL     1     -10.407  13.735  68.597  1.00  0.00    -0.224 C  
HETATM   24  H   UNL     1     -12.343  12.056  68.947  1.00  0.00     0.000 HD 
HETATM   25  O   UNL     1     -12.496  14.714  67.767  1.00  0.00    -0.032 OA 
HETATM   26  O   UNL     1      -9.063  14.168  68.819  1.00  0.00    -0.165 OA 
HETATM   27  C   UNL     1     -11.066  14.702  67.610  1.00  0.00    -0.304 C  
BRANCH  17  28
HETATM   28  O   UNL     1      -8.508  12.340  66.595  1.00  0.00    -0.154 OA 
BRANCH  28  29
HETATM   29  C   UNL     1      -7.660  11.237  66.692  1.00  0.00    -0.140 C  
HETATM   30  O   UNL     1      -5.814  10.065  67.788  1.00  0.00    -0.043 OA 
HETATM   31  C   UNL     1      -6.535  11.212  67.448  1.00  0.00    -0.071 C  
HETATM   32  C   UNL     1      -6.162   8.870  67.210  1.00  0.00    -0.059 A  
HETATM   33  O   UNL     1      -9.342   9.748  66.039  1.00  0.00    -0.168 OA 
HETATM   34  H   UNL     1      -8.843   8.378  64.338  1.00  0.00     0.000 HD 
HETATM   35  C   UNL     1      -5.466   7.710  67.549  1.00  0.00    -0.035 A  
HETATM   36  C   UNL     1      -8.148   9.910  66.261  1.00  0.00    -0.114 C  
HETATM   37  C   UNL     1      -5.778   6.510  66.899  1.00  0.00    -0.013 A  
HETATM   38  C   UNL     1      -7.216   8.790  66.280  1.00  0.00    -0.086 A  
HETATM   39  O   UNL     1      -8.346   7.596  64.549  1.00  0.00    -0.092 OA 
HETATM   40  C   UNL     1      -6.719   6.464  65.875  1.00  0.00    -0.048 A  
HETATM   41  O   UNL     1      -5.182   5.328  67.232  1.00  0.00    -0.007 OA 
HETATM   42  H   UNL     1      -5.394   4.514  66.791  1.00  0.00     0.000 HD 
HETATM   43  C   UNL     1      -7.444   7.606  65.568  1.00  0.00    -0.077 A  
BRANCH  31  44
HETATM   44  C   UNL     1      -6.059  12.457  68.069  1.00  0.00    -0.075 A  
HETATM   45  O   UNL     1      -5.415  16.144  69.861  1.00  0.00    -0.131 OA 
HETATM   46  H   UNL     1      -5.000  16.749  67.604  1.00  0.00     0.000 HD 
HETATM   47  C   UNL     1      -6.145  12.597  69.468  1.00  0.00    -0.119 A  
HETATM   48  H   UNL     1      -5.503  16.238  70.801  1.00  0.00     0.000 HD 
HETATM   49  O   UNL     1      -5.148  15.910  67.184  1.00  0.00    -0.333 OA 
HETATM   50  C   UNL     1      -5.579  14.918  69.279  1.00  0.00    -0.093 A  
HETATM   51  C   UNL     1      -5.449  14.781  67.898  1.00  0.00    -0.095 A  
HETATM   52  C   UNL     1      -5.666  13.551  67.282  1.00  0.00     0.367 A  
HETATM   53  C   UNL     1      -5.907  13.832  70.075  1.00  0.00    -0.137 A  
ENDBRANCH  31  44
ENDBRANCH  28  29
ENDBRANCH  17  28
ENDBRANCH  15  16
ENDBRANCH  14  15
ENDBRANCH   4  14
TORSDOF 6
ENDMDL
MODEL      125
REMARK 921   NORMALIZED FREE ENERGY PREDICTED BY IDOCK:   -4.95 KCAL/MOL
REMARK 922        TOTAL FREE ENERGY PREDICTED BY IDOCK:   -8.16 KCAL/MOL
REMARK 923 INTER-LIGAND FREE ENERGY PREDICTED BY IDOCK:   -8.24 KCAL/MOL
REMARK 924 INTRA-LIGAND FREE ENERGY PREDICTED BY IDOCK:    0.08 KCAL/MOL
REMARK 927      BINDING AFFINITY PREDICTED BY RF-SCORE:    0.00 PKD
ROOT
HETATM    1  C   UNL     1      -6.020   4.859  67.033  1.00  0.00    -0.027 C  
HETATM    2  C   UNL     1      -7.240   4.999  67.950  1.00  0.00    -0.067 C  
HETATM    3  O   UNL     1      -6.943   6.142  68.753  1.00  0.00    -0.070 OA 
HETATM    4  C   UNL     1      -7.613   6.348  69.989  1.00  0.00    -0.096 C  
HETATM    5  H   UNL     1      -9.148   2.120  70.033  1.00  0.00     0.000 HD 
HETATM    6  C   UNL     1      -7.881   5.059  70.780  1.00  0.00    -0.083 C  
HETATM    7  C   UNL     1      -8.481   3.983  69.865  1.00  0.00    -0.060 C  
HETATM    8  O   UNL     1      -7.963   2.676  67.829  1.00  0.00    -0.063 OA 
HETATM    9  O   UNL     1      -6.657   4.565  71.359  1.00  0.00    -0.025 OA 
HETATM   10  H   UNL     1      -6.822   3.768  71.848  1.00  0.00     0.000 HD 
HETATM   11  H   UNL     1      -8.118   1.870  68.308  1.00  0.00     0.000 HD 
HETATM   12  O   UNL     1      -8.777   2.785  70.599  1.00  0.00    -0.063 OA 
HETATM   13  C   UNL     1      -7.490   3.693  68.727  1.00  0.00    -0.053 C  
ENDROOT
BRANCH   4  14
HETATM   14  O   UNL     1      -8.818   7.113  69.911  1.00  0.00    -0.141 OA 
BRANCH  14  15
HETATM   15  C   UNL     1      -8.651   8.479  70.329  1.00  0.00    -0.137 C  
BRANCH  15  16
HETATM   16  C   UNL     1      -9.700   8.796  71.402  1.00  0.00    -0.280 C  
HETATM   17  C   UNL     1     -11.477  10.062  70.248  1.00  0.00    -0.300 C  
HETATM   18  O   UNL     1     -10.351  10.066  71.150  1.00  0.00    -0.011 OA 
HETATM   19  H   UNL     1     -11.264   6.181  69.620  1.00  0.00     0.000 HD 
HETATM   20  C   UNL     1     -12.495   9.053  70.830  1.00  0.00    -0.074 C  
HETATM   21  H   UNL     1     -11.488   6.863  73.303  1.00  0.00     0.000 HD 
HETATM   22  O   UNL     1     -12.876   9.432  72.177  1.00  0.00    -0.386 OA 
HETATM   23  C   UNL     1     -11.908   7.632  70.872  1.00  0.00    -0.250 C  
HETATM   24  H   UNL     1     -13.501   8.812  72.534  1.00  0.00     0.000 HD 
HETATM   25  O   UNL     1     -10.918   7.599  73.115  1.00  0.00    -0.392 OA 
HETATM   26  O   UNL     1     -11.626   7.059  69.594  1.00  0.00    -0.134 OA 
HETATM   27  C   UNL     1     -10.625   7.602  71.706  1.00  0.00    -0.214 C  
BRANCH  17  28
HETATM   28  O   UNL     1     -11.056   9.847  68.892  1.00  0.00    -0.212 OA 
BRANCH  28  29
HETATM   29  C   UNL     1     -10.644  10.965  68.165  1.00  0.00    -0.198 C  
HETATM   30  O   UNL     1      -9.978  11.997  66.050  1.00  0.00    -0.223 OA 
HETATM   31  C   UNL     1     -10.145  10.905  66.906  1.00  0.00    -0.212 C  
HETATM   32  C   UNL     1     -10.191  13.260  66.541  1.00  0.00    -0.283 A  
HETATM   33  O   UNL     1     -11.962  12.417  69.440  1.00  0.00    -0.300 OA 
HETATM   34  H   UNL     1     -10.910  14.188  70.322  1.00  0.00     0.000 HD 
HETATM   35  C   UNL     1     -10.046  14.362  65.699  1.00  0.00    -0.377 A  
HETATM   36  C   UNL     1     -11.078  12.309  68.598  1.00  0.00    -0.249 C  
HETATM   37  C   UNL     1     -10.191  15.651  66.226  1.00  0.00    -0.299 A  
HETATM   38  C   UNL     1     -10.559  13.468  67.884  1.00  0.00    -0.255 A  
HETATM   39  O   UNL     1     -10.781  14.937  69.752  1.00  0.00    -0.248 OA 
HETATM   40  C   UNL     1     -10.409  15.857  67.584  1.00  0.00    -0.281 A  
HETATM   41  O   UNL     1     -10.129  16.767  65.442  1.00  0.00    -0.587 OA 
HETATM   42  H   UNL     1     -10.228  17.641  65.800  1.00  0.00     0.000 HD 
HETATM   43  C   UNL     1     -10.599  14.764  68.415  1.00  0.00    -0.242 A  
BRANCH  31  44
HETATM   44  C   UNL     1      -9.841   9.594  66.314  1.00  0.00    -0.323 A  
HETATM   45  O   UNL     1      -8.446   5.871  65.126  1.00  0.00    -0.151 OA 
HETATM   46  H   UNL     1      -7.406   7.206  63.463  1.00  0.00     0.000 HD 
HETATM   47  C   UNL     1     -10.244   8.429  66.996  1.00  0.00    -0.377 A  
HETATM   48  H   UNL     1      -8.698   5.093  65.608  1.00  0.00     0.000 HD 
HETATM   49  O   UNL     1      -7.717   8.064  63.729  1.00  0.00    -0.121 OA 
HETATM   50  C   UNL     1      -8.947   7.090  65.489  1.00  0.00     0.132 A  
HETATM   51  C   UNL     1      -8.577   8.232  64.781  1.00  0.00    -0.020 A  
HETATM   52  C   UNL     1      -9.033   9.489  65.171  1.00  0.00    -0.253 A  
HETATM   53  C   UNL     1      -9.792   7.173  66.584  1.00  0.00    -0.237 A  
ENDBRANCH  31  44
ENDBRANCH  28  29
ENDBRANCH  17  28
ENDBRANCH  15  16
ENDBRANCH  14  15
ENDBRANCH   4  14
TORSDOF 6
ENDMDL
MODEL      126
REMARK 921   NORMALIZED FREE ENERGY PREDICTED BY IDOCK:   -4.91 KCAL/MOL
REMARK 922        TOTAL FREE ENERGY PREDICTED BY IDOCK:   -8.12 KCAL/MOL
REMARK 923 INTER-LIGAND FREE ENERGY PREDICTED BY IDOCK:   -7.45 KCAL/MOL
REMARK 924 INTRA-LIGAND FREE ENERGY PREDICTED BY IDOCK:   -0.66 KCAL/MOL
REMARK 927      BINDING AFFINITY PREDICTED BY RF-SCORE:    0.00 PKD
ROOT
HETATM    1  C   UNL     1      -6.445   4.070  72.655  1.00  0.00    -0.021 C  
HETATM    2  C   UNL     1      -6.951   5.243  71.809  1.00  0.00    -0.070 C  
HETATM    3  O   UNL     1      -5.884   5.501  70.896  1.00  0.00    -0.022 OA 
HETATM    4  C   UNL     1      -5.785   6.757  70.239  1.00  0.00    -0.023 C  
HETATM    5  H   UNL     1      -8.749   8.632  73.056  1.00  0.00     0.000 HD 
HETATM    6  C   UNL     1      -6.187   7.955  71.112  1.00  0.00    -0.034 C  
HETATM    7  C   UNL     1      -7.517   7.677  71.827  1.00  0.00    -0.081 C  
HETATM    8  O   UNL     1      -8.548   6.104  73.435  1.00  0.00    -0.123 OA 
HETATM    9  O   UNL     1      -5.165   8.223  72.092  1.00  0.00    -0.035 OA 
HETATM   10  H   UNL     1      -5.413   8.964  72.632  1.00  0.00     0.000 HD 
HETATM   11  H   UNL     1      -8.796   6.835  73.989  1.00  0.00     0.000 HD 
HETATM   12  O   UNL     1      -7.927   8.804  72.614  1.00  0.00    -0.380 OA 
HETATM   13  C   UNL     1      -7.352   6.429  72.708  1.00  0.00    -0.090 C  
ENDROOT
BRANCH   4  14
HETATM   14  O   UNL     1      -6.458   6.843  68.981  1.00  0.00    -0.034 OA 
BRANCH  14  15
HETATM   15  C   UNL     1      -5.770   7.668  68.025  1.00  0.00    -0.032 C  
BRANCH  15  16
HETATM   16  C   UNL     1      -6.501   7.575  66.680  1.00  0.00    -0.049 C  
HETATM   17  C   UNL     1      -8.877   8.022  67.176  1.00  0.00    -0.131 C  
HETATM   18  O   UNL     1      -7.848   7.067  66.842  1.00  0.00    -0.103 OA 
HETATM   19  H   UNL     1      -6.379  11.066  67.187  1.00  0.00     0.000 HD 
HETATM   20  C   UNL     1      -8.847   9.097  66.065  1.00  0.00    -0.168 C  
HETATM   21  H   UNL     1      -6.149   9.243  63.916  1.00  0.00     0.000 HD 
HETATM   22  O   UNL     1      -9.066   8.494  64.765  1.00  0.00    -0.411 OA 
HETATM   23  C   UNL     1      -7.498   9.834  66.038  1.00  0.00    -0.102 C  
HETATM   24  H   UNL     1      -9.048   9.154  64.082  1.00  0.00     0.000 HD 
HETATM   25  O   UNL     1      -6.243   8.459  64.443  1.00  0.00    -0.064 OA 
HETATM   26  O   UNL     1      -7.212  10.610  67.204  1.00  0.00    -0.091 OA 
HETATM   27  C   UNL     1      -6.347   8.847  65.824  1.00  0.00    -0.056 C  
BRANCH  17  28
HETATM   28  O   UNL     1      -8.737   8.485  68.529  1.00  0.00    -0.137 OA 
BRANCH  28  29
HETATM   29  C   UNL     1      -9.885   8.952  69.168  1.00  0.00    -0.180 C  
HETATM   30  O   UNL     1     -11.744   8.605  70.719  1.00  0.00    -0.277 OA 
HETATM   31  C   UNL     1     -10.748   8.158  69.848  1.00  0.00    -0.241 C  
HETATM   32  C   UNL     1     -11.988   9.953  70.808  1.00  0.00    -0.323 A  
HETATM   33  O   UNL     1      -9.044  11.130  69.325  1.00  0.00    -0.009 OA 
HETATM   34  H   UNL     1     -10.365  12.757  68.534  1.00  0.00     0.000 HD 
HETATM   35  C   UNL     1     -12.966  10.421  71.684  1.00  0.00    -0.581 A  
HETATM   36  C   UNL     1     -10.018  10.397  69.449  1.00  0.00    -0.218 C  
HETATM   37  C   UNL     1     -13.261  11.789  71.713  1.00  0.00    -0.329 A  
HETATM   38  C   UNL     1     -11.265  10.878  70.030  1.00  0.00    -0.340 A  
HETATM   39  O   UNL     1     -11.053  13.070  69.110  1.00  0.00    -0.244 OA 
HETATM   40  C   UNL     1     -12.649  12.681  70.838  1.00  0.00    -0.338 A  
HETATM   41  O   UNL     1     -14.158  12.320  72.595  1.00  0.00    -0.398 OA 
HETATM   42  H   UNL     1     -14.358  13.248  72.614  1.00  0.00     0.000 HD 
HETATM   43  C   UNL     1     -11.644  12.225  69.998  1.00  0.00    -0.157 A  
BRANCH  31  44
HETATM   44  C   UNL     1     -10.592   6.698  69.773  1.00  0.00    -0.270 A  
HETATM   45  O   UNL     1      -9.475   2.701  69.784  1.00  0.00    -0.138 OA 
HETATM   46  H   UNL     1      -9.209   3.156  67.471  1.00  0.00     0.000 HD 
HETATM   47  C   UNL     1     -10.636   5.946  70.964  1.00  0.00    -0.312 A  
HETATM   48  H   UNL     1      -9.479   2.208  70.595  1.00  0.00     0.000 HD 
HETATM   49  O   UNL     1      -9.460   4.072  67.458  1.00  0.00    -0.169 OA 
HETATM   50  C   UNL     1      -9.891   4.003  69.774  1.00  0.00    -0.103 A  
HETATM   51  C   UNL     1      -9.885   4.726  68.584  1.00  0.00    -0.138 A  
HETATM   52  C   UNL     1     -10.252   6.069  68.565  1.00  0.00    -0.227 A  
HETATM   53  C   UNL     1     -10.281   4.596  70.966  1.00  0.00    -0.207 A  
ENDBRANCH  31  44
ENDBRANCH  28  29
ENDBRANCH  17  28
ENDBRANCH  15  16
ENDBRANCH  14  15
ENDBRANCH   4  14
TORSDOF 6
ENDMDL
MODEL      127
REMARK 921   NORMALIZED FREE ENERGY PREDICTED BY IDOCK:   -4.88 KCAL/MOL
REMARK 922        TOTAL FREE ENERGY PREDICTED BY IDOCK:   -8.07 KCAL/MOL
REMARK 923 INTER-LIGAND FREE ENERGY PREDICTED BY IDOCK:   -7.42 KCAL/MOL
REMARK 924 INTRA-LIGAND FREE ENERGY PREDICTED BY IDOCK:   -0.65 KCAL/MOL
REMARK 927      BINDING AFFINITY PREDICTED BY RF-SCORE:    0.00 PKD
ROOT
HETATM    1  C   UNL     1     -10.523   9.206  68.707  1.00  0.00    -0.236 C  
HETATM    2  C   UNL     1     -10.867   9.447  70.180  1.00  0.00    -0.249 C  
HETATM    3  O   UNL     1     -11.219   8.154  70.674  1.00  0.00    -0.261 OA 
HETATM    4  C   UNL     1     -11.991   8.021  71.858  1.00  0.00    -0.314 C  
HETATM    5  H   UNL     1     -13.156  12.365  71.768  1.00  0.00     0.000 HD 
HETATM    6  C   UNL     1     -13.084   9.088  72.019  1.00  0.00    -0.414 C  
HETATM    7  C   UNL     1     -12.511  10.487  71.748  1.00  0.00    -0.262 C  
HETATM    8  O   UNL     1     -11.420  11.810  69.965  1.00  0.00    -0.452 OA 
HETATM    9  O   UNL     1     -14.170   8.832  71.108  1.00  0.00    -0.584 OA 
HETATM   10  H   UNL     1     -14.846   9.493  71.207  1.00  0.00     0.000 HD 
HETATM   11  H   UNL     1     -12.093  12.475  70.048  1.00  0.00     0.000 HD 
HETATM   12  O   UNL     1     -13.510  11.500  71.936  1.00  0.00    -0.362 OA 
HETATM   13  C   UNL     1     -11.959  10.526  70.315  1.00  0.00    -0.325 C  
ENDROOT
BRANCH   4  14
HETATM   14  O   UNL     1     -11.240   7.928  73.071  1.00  0.00    -0.411 OA 
BRANCH  14  15
HETATM   15  C   UNL     1     -10.092   7.067  72.963  1.00  0.00    -0.211 C  
BRANCH  15  16
HETATM   16  C   UNL     1     -10.537   5.728  72.361  1.00  0.00    -0.220 C  
HETATM   17  C   UNL     1      -8.710   5.029  70.857  1.00  0.00    -0.122 C  
HETATM   18  O   UNL     1     -10.042   5.562  71.010  1.00  0.00    -0.190 OA 
HETATM   19  H   UNL     1      -8.146   4.685  74.739  1.00  0.00     0.000 HD 
HETATM   20  C   UNL     1      -8.701   3.670  71.594  1.00  0.00    -0.090 C  
HETATM   21  H   UNL     1     -11.286   2.887  73.745  1.00  0.00     0.000 HD 
HETATM   22  O   UNL     1      -9.708   2.784  71.044  1.00  0.00    -0.155 OA 
HETATM   23  C   UNL     1      -8.977   3.848  73.096  1.00  0.00    -0.106 C  
HETATM   24  H   UNL     1      -9.702   1.949  71.497  1.00  0.00     0.000 HD 
HETATM   25  O   UNL     1     -11.417   3.620  73.155  1.00  0.00    -0.064 OA 
HETATM   26  O   UNL     1      -7.975   4.575  73.810  1.00  0.00    -0.098 OA 
HETATM   27  C   UNL     1     -10.324   4.541  73.319  1.00  0.00    -0.181 C  
BRANCH  17  28
HETATM   28  O   UNL     1      -7.717   5.988  71.255  1.00  0.00    -0.105 OA 
BRANCH  28  29
HETATM   29  C   UNL     1      -7.304   6.916  70.298  1.00  0.00    -0.084 C  
HETATM   30  O   UNL     1      -6.982   7.559  67.960  1.00  0.00    -0.068 OA 
HETATM   31  C   UNL     1      -7.127   6.622  68.986  1.00  0.00    -0.089 C  
HETATM   32  C   UNL     1      -6.863   8.885  68.288  1.00  0.00    -0.065 A  
HETATM   33  O   UNL     1      -8.031   8.730  71.584  1.00  0.00    -0.207 OA 
HETATM   34  H   UNL     1      -6.524  10.347  71.952  1.00  0.00     0.000 HD 
HETATM   35  C   UNL     1      -6.736   9.838  67.278  1.00  0.00    -0.074 A  
HETATM   36  C   UNL     1      -7.396   8.359  70.604  1.00  0.00    -0.056 C  
HETATM   37  C   UNL     1      -6.539  11.180  67.623  1.00  0.00    -0.070 A  
HETATM   38  C   UNL     1      -6.871   9.308  69.631  1.00  0.00    -0.055 A  
HETATM   39  O   UNL     1      -6.407  10.989  71.261  1.00  0.00    -0.076 OA 
HETATM   40  C   UNL     1      -6.398  11.574  68.950  1.00  0.00    -0.059 A  
HETATM   41  O   UNL     1      -6.474  12.169  66.684  1.00  0.00    -0.413 OA 
HETATM   42  H   UNL     1      -6.341  13.080  66.918  1.00  0.00     0.000 HD 
HETATM   43  C   UNL     1      -6.570  10.637  69.957  1.00  0.00    -0.149 A  
BRANCH  31  44
HETATM   44  C   UNL     1      -7.190   5.220  68.549  1.00  0.00    -0.063 A  
HETATM   45  O   UNL     1      -6.962   1.481  66.762  1.00  0.00    -0.037 OA 
HETATM   46  H   UNL     1      -9.090   2.151  65.955  1.00  0.00     0.000 HD 
HETATM   47  C   UNL     1      -6.082   4.382  68.782  1.00  0.00    -0.031 A  
HETATM   48  H   UNL     1      -6.199   0.934  66.900  1.00  0.00     0.000 HD 
HETATM   49  O   UNL     1      -9.151   3.010  66.356  1.00  0.00    -0.147 OA 
HETATM   50  C   UNL     1      -7.057   2.691  67.392  1.00  0.00    -0.052 A  
HETATM   51  C   UNL     1      -8.178   3.494  67.189  1.00  0.00    -0.091 A  
HETATM   52  C   UNL     1      -8.267   4.752  67.779  1.00  0.00    -0.100 A  
HETATM   53  C   UNL     1      -6.013   3.115  68.199  1.00  0.00    -0.024 A  
ENDBRANCH  31  44
ENDBRANCH  28  29
ENDBRANCH  17  28
ENDBRANCH  15  16
ENDBRANCH  14  15
ENDBRANCH   4  14
TORSDOF 6
ENDMDL
MODEL      128
REMARK 921   NORMALIZED FREE ENERGY PREDICTED BY IDOCK:   -4.78 KCAL/MOL
REMARK 922        TOTAL FREE ENERGY PREDICTED BY IDOCK:   -7.94 KCAL/MOL
REMARK 923 INTER-LIGAND FREE ENERGY PREDICTED BY IDOCK:   -5.85 KCAL/MOL
REMARK 924 INTRA-LIGAND FREE ENERGY PREDICTED BY IDOCK:   -2.09 KCAL/MOL
REMARK 927      BINDING AFFINITY PREDICTED BY RF-SCORE:    0.00 PKD
ROOT
HETATM    1  C   UNL     1     -10.248  11.146  65.518  1.00  0.00    -0.319 C  
HETATM    2  C   UNL     1      -9.180  10.059  65.675  1.00  0.00    -0.186 C  
HETATM    3  O   UNL     1      -8.480  10.426  66.864  1.00  0.00    -0.123 OA 
HETATM    4  C   UNL     1      -7.175   9.925  67.116  1.00  0.00    -0.086 C  
HETATM    5  H   UNL     1      -6.721   8.544  62.859  1.00  0.00     0.000 HD 
HETATM    6  C   UNL     1      -6.294   9.809  65.863  1.00  0.00    -0.080 C  
HETATM    7  C   UNL     1      -7.067   9.123  64.727  1.00  0.00    -0.096 C  
HETATM    8  O   UNL     1      -9.091   9.399  63.332  1.00  0.00    -0.405 OA 
HETATM    9  O   UNL     1      -5.867  11.115  65.430  1.00  0.00    -0.395 OA 
HETATM   10  H   UNL     1      -5.323  11.043  64.654  1.00  0.00     0.000 HD 
HETATM   11  H   UNL     1      -8.558   9.337  62.548  1.00  0.00     0.000 HD 
HETATM   12  O   UNL     1      -6.243   8.968  63.562  1.00  0.00    -0.087 OA 
HETATM   13  C   UNL     1      -8.315   9.958  64.404  1.00  0.00    -0.168 C  
ENDROOT
BRANCH   4  14
HETATM   14  O   UNL     1      -7.122   8.698  67.846  1.00  0.00    -0.080 OA 
BRANCH  14  15
HETATM   15  C   UNL     1      -7.096   8.886  69.272  1.00  0.00    -0.058 C  
BRANCH  15  16
HETATM   16  C   UNL     1      -8.537   8.856  69.798  1.00  0.00    -0.134 C  
HETATM   17  C   UNL     1      -9.441   6.653  69.146  1.00  0.00    -0.136 C  
HETATM   18  O   UNL     1      -9.402   8.080  68.932  1.00  0.00    -0.150 OA 
HETATM   19  H   UNL     1      -6.879   6.792  72.133  1.00  0.00     0.000 HD 
HETATM   20  C   UNL     1      -9.851   6.449  70.624  1.00  0.00    -0.184 C  
HETATM   21  H   UNL     1      -9.740   9.125  72.802  1.00  0.00     0.000 HD 
HETATM   22  O   UNL     1     -11.131   7.075  70.889  1.00  0.00    -0.248 OA 
HETATM   23  C   UNL     1      -8.807   7.049  71.580  1.00  0.00    -0.128 C  
HETATM   24  H   UNL     1     -11.383   6.949  71.797  1.00  0.00     0.000 HD 
HETATM   25  O   UNL     1      -9.689   9.318  71.873  1.00  0.00    -0.260 OA 
HETATM   26  O   UNL     1      -7.524   6.421  71.542  1.00  0.00    -0.087 OA 
HETATM   27  C   UNL     1      -8.619   8.543  71.304  1.00  0.00    -0.176 C  
BRANCH  17  28
HETATM   28  O   UNL     1      -8.219   6.030  68.721  1.00  0.00    -0.103 OA 
BRANCH  28  29
HETATM   29  C   UNL     1      -8.310   5.053  67.729  1.00  0.00    -0.105 C  
HETATM   30  O   UNL     1      -8.761   2.746  67.053  1.00  0.00    -0.102 OA 
HETATM   31  C   UNL     1      -8.399   3.724  67.983  1.00  0.00    -0.092 C  
HETATM   32  C   UNL     1      -8.906   3.106  65.737  1.00  0.00    -0.138 A  
HETATM   33  O   UNL     1      -9.128   6.574  66.151  1.00  0.00    -0.157 OA 
HETATM   34  H   UNL     1      -8.041   6.648  64.194  1.00  0.00     0.000 HD 
HETATM   35  C   UNL     1      -9.283   2.148  64.796  1.00  0.00    -0.129 A  
HETATM   36  C   UNL     1      -8.687   5.450  66.356  1.00  0.00    -0.121 C  
HETATM   37  C   UNL     1      -9.355   2.507  63.445  1.00  0.00    -0.097 A  
HETATM   38  C   UNL     1      -8.683   4.431  65.314  1.00  0.00    -0.128 A  
HETATM   39  O   UNL     1      -8.268   5.986  63.552  1.00  0.00    -0.109 OA 
HETATM   40  C   UNL     1      -8.990   3.778  63.013  1.00  0.00    -0.102 A  
HETATM   41  O   UNL     1      -9.783   1.636  62.485  1.00  0.00    -0.088 OA 
HETATM   42  H   UNL     1      -9.831   1.879  61.568  1.00  0.00     0.000 HD 
HETATM   43  C   UNL     1      -8.659   4.745  63.950  1.00  0.00    -0.137 A  
BRANCH  31  44
HETATM   44  C   UNL     1      -8.211   3.241  69.358  1.00  0.00    -0.074 A  
HETATM   45  O   UNL     1      -7.769   2.568  73.429  1.00  0.00    -0.045 OA 
HETATM   46  H   UNL     1      -5.479   2.635  72.812  1.00  0.00     0.000 HD 
HETATM   47  C   UNL     1      -9.341   3.073  70.182  1.00  0.00    -0.229 A  
HETATM   48  H   UNL     1      -8.535   2.484  73.983  1.00  0.00     0.000 HD 
HETATM   49  O   UNL     1      -5.569   2.792  71.879  1.00  0.00    -0.007 OA 
HETATM   50  C   UNL     1      -7.917   2.740  72.081  1.00  0.00    -0.054 A  
HETATM   51  C   UNL     1      -6.793   2.862  71.268  1.00  0.00    -0.032 A  
HETATM   52  C   UNL     1      -6.925   3.092  69.901  1.00  0.00    -0.034 A  
HETATM   53  C   UNL     1      -9.194   2.825  71.548  1.00  0.00    -0.185 A  
ENDBRANCH  31  44
ENDBRANCH  28  29
ENDBRANCH  17  28
ENDBRANCH  15  16
ENDBRANCH  14  15
ENDBRANCH   4  14
TORSDOF 6
ENDMDL
MODEL      129
REMARK 921   NORMALIZED FREE ENERGY PREDICTED BY IDOCK:   -4.78 KCAL/MOL
REMARK 922        TOTAL FREE ENERGY PREDICTED BY IDOCK:   -7.94 KCAL/MOL
REMARK 923 INTER-LIGAND FREE ENERGY PREDICTED BY IDOCK:   -7.42 KCAL/MOL
REMARK 924 INTRA-LIGAND FREE ENERGY PREDICTED BY IDOCK:   -0.52 KCAL/MOL
REMARK 927      BINDING AFFINITY PREDICTED BY RF-SCORE:    0.00 PKD
ROOT
HETATM    1  C   UNL     1     -10.977   6.246  67.904  1.00  0.00    -0.421 C  
HETATM    2  C   UNL     1      -9.653   5.531  67.615  1.00  0.00    -0.123 C  
HETATM    3  O   UNL     1      -9.512   5.614  66.196  1.00  0.00    -0.158 OA 
HETATM    4  C   UNL     1      -8.651   4.723  65.504  1.00  0.00    -0.131 C  
HETATM    5  H   UNL     1      -8.343   2.007  69.077  1.00  0.00     0.000 HD 
HETATM    6  C   UNL     1      -8.642   3.294  66.067  1.00  0.00    -0.120 C  
HETATM    7  C   UNL     1      -8.490   3.320  67.595  1.00  0.00    -0.089 C  
HETATM    8  O   UNL     1      -9.618   4.162  69.629  1.00  0.00    -0.181 OA 
HETATM    9  O   UNL     1      -9.864   2.612  65.721  1.00  0.00    -0.348 OA 
HETATM   10  H   UNL     1      -9.859   1.729  66.069  1.00  0.00     0.000 HD 
HETATM   11  H   UNL     1      -9.627   3.282  69.987  1.00  0.00     0.000 HD 
HETATM   12  O   UNL     1      -8.437   1.991  68.133  1.00  0.00    -0.061 OA 
HETATM   13  C   UNL     1      -9.667   4.104  68.195  1.00  0.00    -0.088 C  
ENDROOT
BRANCH   4  14
HETATM   14  O   UNL     1      -7.305   5.175  65.343  1.00  0.00    -0.070 OA 
BRANCH  14  15
HETATM   15  C   UNL     1      -7.138   6.574  65.630  1.00  0.00    -0.061 C  
BRANCH  15  16
HETATM   16  C   UNL     1      -7.168   7.353  64.309  1.00  0.00    -0.079 C  
HETATM   17  C   UNL     1      -8.425   9.424  64.780  1.00  0.00    -0.167 C  
HETATM   18  O   UNL     1      -8.391   8.117  64.170  1.00  0.00    -0.125 OA 
HETATM   19  H   UNL     1      -4.741   9.145  66.142  1.00  0.00     0.000 HD 
HETATM   20  C   UNL     1      -7.238  10.213  64.179  1.00  0.00    -0.106 C  
HETATM   21  H   UNL     1      -4.780   8.521  62.442  1.00  0.00     0.000 HD 
HETATM   22  O   UNL     1      -7.350  10.283  62.735  1.00  0.00    -0.138 OA 
HETATM   23  C   UNL     1      -5.895   9.553  64.532  1.00  0.00    -0.078 C  
HETATM   24  H   UNL     1      -6.621  10.767  62.366  1.00  0.00     0.000 HD 
HETATM   25  O   UNL     1      -5.590   8.055  62.615  1.00  0.00    -0.062 OA 
HETATM   26  O   UNL     1      -5.571   9.552  65.924  1.00  0.00    -0.043 OA 
HETATM   27  C   UNL     1      -5.854   8.108  64.029  1.00  0.00    -0.061 C  
BRANCH  17  28
HETATM   28  O   UNL     1      -8.480   9.328  66.212  1.00  0.00    -0.122 OA 
BRANCH  28  29
HETATM   29  C   UNL     1      -9.283  10.249  66.886  1.00  0.00    -0.150 C  
HETATM   30  O   UNL     1      -9.948  11.379  68.950  1.00  0.00    -0.198 OA 
HETATM   31  C   UNL     1      -9.383  10.320  68.236  1.00  0.00    -0.138 C  
HETATM   32  C   UNL     1     -10.591  12.375  68.259  1.00  0.00    -0.222 A  
HETATM   33  O   UNL     1      -9.313  11.719  65.066  1.00  0.00    -0.130 OA 
HETATM   34  H   UNL     1     -11.335  12.388  64.370  1.00  0.00     0.000 HD 
HETATM   35  C   UNL     1     -11.147  13.449  68.951  1.00  0.00    -0.307 A  
HETATM   36  C   UNL     1      -9.782  11.438  66.163  1.00  0.00    -0.219 C  
HETATM   37  C   UNL     1     -11.865  14.421  68.245  1.00  0.00    -0.326 A  
HETATM   38  C   UNL     1     -10.697  12.336  66.855  1.00  0.00    -0.264 A  
HETATM   39  O   UNL     1     -11.739  13.102  64.849  1.00  0.00    -0.317 OA 
HETATM   40  C   UNL     1     -12.094  14.302  66.878  1.00  0.00    -0.440 A  
HETATM   41  O   UNL     1     -12.375  15.532  68.854  1.00  0.00    -0.602 OA 
HETATM   42  H   UNL     1     -12.863  16.191  68.375  1.00  0.00     0.000 HD 
HETATM   43  C   UNL     1     -11.504  13.260  66.180  1.00  0.00    -0.328 A  
BRANCH  31  44
HETATM   44  C   UNL     1      -8.765   9.270  69.058  1.00  0.00    -0.135 A  
HETATM   45  O   UNL     1      -7.226   5.858  70.851  1.00  0.00    -0.072 OA 
HETATM   46  H   UNL     1      -9.277   6.008  72.035  1.00  0.00     0.000 HD 
HETATM   47  C   UNL     1      -7.488   8.791  68.706  1.00  0.00    -0.084 A  
HETATM   48  H   UNL     1      -6.377   5.524  70.588  1.00  0.00     0.000 HD 
HETATM   49  O   UNL     1      -9.640   6.786  71.629  1.00  0.00    -0.163 OA 
HETATM   50  C   UNL     1      -7.709   7.010  70.295  1.00  0.00    -0.099 A  
HETATM   51  C   UNL     1      -8.954   7.500  70.682  1.00  0.00    -0.154 A  
HETATM   52  C   UNL     1      -9.486   8.641  70.086  1.00  0.00    -0.172 A  
HETATM   53  C   UNL     1      -6.960   7.655  69.323  1.00  0.00    -0.060 A  
ENDBRANCH  31  44
ENDBRANCH  28  29
ENDBRANCH  17  28
ENDBRANCH  15  16
ENDBRANCH  14  15
ENDBRANCH   4  14
TORSDOF 6
ENDMDL
MODEL      130
REMARK 921   NORMALIZED FREE ENERGY PREDICTED BY IDOCK:   -4.73 KCAL/MOL
REMARK 922        TOTAL FREE ENERGY PREDICTED BY IDOCK:   -7.87 KCAL/MOL
REMARK 923 INTER-LIGAND FREE ENERGY PREDICTED BY IDOCK:   -6.71 KCAL/MOL
REMARK 924 INTRA-LIGAND FREE ENERGY PREDICTED BY IDOCK:   -1.15 KCAL/MOL
REMARK 927      BINDING AFFINITY PREDICTED BY RF-SCORE:    0.00 PKD
ROOT
HETATM    1  C   UNL     1      -8.483  13.713  66.632  1.00  0.00     0.138 C  
HETATM    2  C   UNL     1      -9.538  12.649  66.312  1.00  0.00    -0.244 C  
HETATM    3  O   UNL     1      -8.850  11.712  65.483  1.00  0.00    -0.055 OA 
HETATM    4  C   UNL     1      -9.574  10.823  64.645  1.00  0.00    -0.268 C  
HETATM    5  H   UNL     1     -13.365  13.192  65.156  1.00  0.00     0.000 HD 
HETATM    6  C   UNL     1     -10.829  11.441  64.010  1.00  0.00    -0.383 C  
HETATM    7  C   UNL     1     -11.655  12.185  65.070  1.00  0.00    -0.310 C  
HETATM    8  O   UNL     1     -11.490  14.060  66.675  1.00  0.00    -0.335 OA 
HETATM    9  O   UNL     1     -10.460  12.359  62.963  1.00  0.00    -0.514 OA 
HETATM   10  H   UNL     1     -11.236  12.741  62.571  1.00  0.00     0.000 HD 
HETATM   11  H   UNL     1     -12.261  14.458  66.288  1.00  0.00     0.000 HD 
HETATM   12  O   UNL     1     -12.854  12.732  64.501  1.00  0.00    -0.701 OA 
HETATM   13  C   UNL     1     -10.788  13.294  65.684  1.00  0.00    -0.279 C  
ENDROOT
BRANCH   4  14
HETATM   14  O   UNL     1      -9.913   9.567  65.235  1.00  0.00    -0.247 OA 
BRANCH  14  15
HETATM   15  C   UNL     1      -9.474   9.443  66.599  1.00  0.00    -0.177 C  
BRANCH  15  16
HETATM   16  C   UNL     1     -10.699   9.200  67.489  1.00  0.00    -0.185 C  
HETATM   17  C   UNL     1      -9.935   7.683  69.281  1.00  0.00    -0.180 C  
HETATM   18  O   UNL     1     -10.685   7.869  68.061  1.00  0.00    -0.161 OA 
HETATM   19  H   UNL     1      -8.824  11.457  69.452  1.00  0.00     0.000 HD 
HETATM   20  C   UNL     1     -10.514   8.691  70.301  1.00  0.00    -0.210 C  
HETATM   21  H   UNL     1     -12.561  11.242  69.195  1.00  0.00     0.000 HD 
HETATM   22  O   UNL     1     -11.933   8.464  70.494  1.00  0.00    -0.488 OA 
HETATM   23  C   UNL     1     -10.312  10.140  69.830  1.00  0.00    -0.259 C  
HETATM   24  H   UNL     1     -12.289   9.083  71.121  1.00  0.00     0.000 HD 
HETATM   25  O   UNL     1     -12.394  10.526  68.593  1.00  0.00    -0.214 OA 
HETATM   26  O   UNL     1      -8.949  10.561  69.743  1.00  0.00    -0.054 OA 
HETATM   27  C   UNL     1     -10.970  10.361  68.465  1.00  0.00    -0.254 C  
BRANCH  17  28
HETATM   28  O   UNL     1      -8.522   7.748  69.037  1.00  0.00    -0.130 OA 
BRANCH  28  29
HETATM   29  C   UNL     1      -7.985   6.829  68.135  1.00  0.00    -0.114 C  
HETATM   30  O   UNL     1      -6.136   6.065  66.727  1.00  0.00    -0.024 OA 
HETATM   31  C   UNL     1      -6.850   7.043  67.423  1.00  0.00    -0.073 C  
HETATM   32  C   UNL     1      -6.673   4.808  66.615  1.00  0.00    -0.051 A  
HETATM   33  O   UNL     1      -9.081   5.027  69.147  1.00  0.00    -0.095 OA 
HETATM   34  H   UNL     1     -10.295   3.722  67.790  1.00  0.00     0.000 HD 
HETATM   35  C   UNL     1      -5.969   3.813  65.939  1.00  0.00    -0.027 A  
HETATM   36  C   UNL     1      -8.428   5.420  68.187  1.00  0.00    -0.097 C  
HETATM   37  C   UNL     1      -6.558   2.555  65.765  1.00  0.00    -0.031 A  
HETATM   38  C   UNL     1      -7.928   4.498  67.176  1.00  0.00    -0.101 A  
HETATM   39  O   UNL     1      -9.825   3.056  67.302  1.00  0.00     0.056 OA 
HETATM   40  C   UNL     1      -7.857   2.298  66.190  1.00  0.00    -0.076 A  
HETATM   41  O   UNL     1      -5.894   1.519  65.173  1.00  0.00    -0.015 OA 
HETATM   42  H   UNL     1      -6.294   0.665  65.054  1.00  0.00     0.000 HD 
HETATM   43  C   UNL     1      -8.542   3.270  66.903  1.00  0.00    -0.115 A  
BRANCH  31  44
HETATM   44  C   UNL     1      -6.229   8.375  67.445  1.00  0.00    -0.056 A  
HETATM   45  O   UNL     1      -5.132  12.370  67.690  1.00  0.00    -0.079 OA 
HETATM   46  H   UNL     1      -5.426  12.208  65.342  1.00  0.00     0.000 HD 
HETATM   47  C   UNL     1      -5.891   8.949  68.687  1.00  0.00    -0.041 A  
HETATM   48  H   UNL     1      -4.933  12.758  68.534  1.00  0.00     0.000 HD 
HETATM   49  O   UNL     1      -5.681  11.295  65.275  1.00  0.00    -0.053 OA 
HETATM   50  C   UNL     1      -5.444  11.042  67.606  1.00  0.00    -0.040 A  
HETATM   51  C   UNL     1      -5.735  10.473  66.368  1.00  0.00    -0.075 A  
HETATM   52  C   UNL     1      -6.109   9.135  66.271  1.00  0.00    -0.060 A  
HETATM   53  C   UNL     1      -5.500  10.287  68.768  1.00  0.00    -0.038 A  
ENDBRANCH  31  44
ENDBRANCH  28  29
ENDBRANCH  17  28
ENDBRANCH  15  16
ENDBRANCH  14  15
ENDBRANCH   4  14
TORSDOF 6
ENDMDL
MODEL      131
REMARK 921   NORMALIZED FREE ENERGY PREDICTED BY IDOCK:   -4.68 KCAL/MOL
REMARK 922        TOTAL FREE ENERGY PREDICTED BY IDOCK:   -7.80 KCAL/MOL
REMARK 923 INTER-LIGAND FREE ENERGY PREDICTED BY IDOCK:   -9.00 KCAL/MOL
REMARK 924 INTRA-LIGAND FREE ENERGY PREDICTED BY IDOCK:    1.20 KCAL/MOL
REMARK 927      BINDING AFFINITY PREDICTED BY RF-SCORE:    0.00 PKD
ROOT
HETATM    1  C   UNL     1      -5.354   9.375  63.379  1.00  0.00    -0.067 C  
HETATM    2  C   UNL     1      -6.669   9.136  64.127  1.00  0.00    -0.088 C  
HETATM    3  O   UNL     1      -6.363   9.459  65.484  1.00  0.00    -0.063 OA 
HETATM    4  C   UNL     1      -7.177   8.973  66.542  1.00  0.00    -0.085 C  
HETATM    5  H   UNL     1      -9.175   5.988  63.834  1.00  0.00     0.000 HD 
HETATM    6  C   UNL     1      -7.702   7.546  66.326  1.00  0.00    -0.089 C  
HETATM    7  C   UNL     1      -8.283   7.397  64.912  1.00  0.00    -0.077 C  
HETATM    8  O   UNL     1      -7.627   7.564  62.532  1.00  0.00    -0.096 OA 
HETATM    9  O   UNL     1      -6.639   6.590  66.509  1.00  0.00    -0.045 OA 
HETATM   10  H   UNL     1      -6.964   5.707  66.374  1.00  0.00     0.000 HD 
HETATM   11  H   UNL     1      -7.941   6.679  62.385  1.00  0.00     0.000 HD 
HETATM   12  O   UNL     1      -8.816   6.080  64.708  1.00  0.00     0.033 OA 
HETATM   13  C   UNL     1      -7.177   7.701  63.889  1.00  0.00    -0.081 C  
ENDROOT
BRANCH   4  14
HETATM   14  O   UNL     1      -8.262   9.823  66.919  1.00  0.00    -0.116 OA 
BRANCH  14  15
HETATM   15  C   UNL     1      -8.484  10.903  65.995  1.00  0.00    -0.167 C  
BRANCH  15  16
HETATM   16  C   UNL     1      -9.914  10.798  65.450  1.00  0.00    -0.271 C  
HETATM   17  C   UNL     1     -11.270  12.336  66.824  1.00  0.00    -0.318 C  
HETATM   18  O   UNL     1     -10.897  10.980  66.499  1.00  0.00    -0.261 OA 
HETATM   19  H   UNL     1      -8.869  13.896  64.122  1.00  0.00     0.000 HD 
HETATM   20  C   UNL     1     -11.776  12.972  65.509  1.00  0.00    -0.368 C  
HETATM   21  H   UNL     1     -11.146  11.391  62.505  1.00  0.00     0.000 HD 
HETATM   22  O   UNL     1     -12.889  12.215  64.970  1.00  0.00    -0.456 OA 
HETATM   23  C   UNL     1     -10.663  13.022  64.449  1.00  0.00    -0.394 C  
HETATM   24  H   UNL     1     -13.200  12.607  64.162  1.00  0.00     0.000 HD 
HETATM   25  O   UNL     1     -11.015  10.886  63.298  1.00  0.00    -0.032 OA 
HETATM   26  O   UNL     1      -9.557  13.866  64.777  1.00  0.00     0.136 OA 
HETATM   27  C   UNL     1     -10.127  11.617  64.163  1.00  0.00    -0.297 C  
BRANCH  17  28
HETATM   28  O   UNL     1     -10.207  13.018  67.507  1.00  0.00    -0.218 OA 
BRANCH  28  29
HETATM   29  C   UNL     1     -10.448  14.328  67.923  1.00  0.00    -0.240 C  
HETATM   30  O   UNL     1     -11.179  15.913  69.636  1.00  0.00    -0.281 OA 
HETATM   31  C   UNL     1     -11.145  14.649  69.041  1.00  0.00    -0.259 C  
HETATM   32  C   UNL     1     -10.589  16.967  68.986  1.00  0.00    -0.338 A  
HETATM   33  O   UNL     1      -8.628  15.164  66.715  1.00  0.00    -0.243 OA 
HETATM   34  H   UNL     1      -9.062  16.875  65.334  1.00  0.00     0.000 HD 
HETATM   35  C   UNL     1     -10.597  18.232  69.571  1.00  0.00     0.764 A  
HETATM   36  C   UNL     1      -9.637  15.426  67.359  1.00  0.00    -0.210 C  
HETATM   37  C   UNL     1     -10.060  19.316  68.866  1.00  0.00    -0.362 A  
HETATM   38  C   UNL     1      -9.968  16.795  67.733  1.00  0.00    -0.268 A  
HETATM   39  O   UNL     1      -9.097  17.741  65.723  1.00  0.00    -0.503 OA 
HETATM   40  C   UNL     1      -9.582  19.170  67.568  1.00  0.00    -0.373 A  
HETATM   41  O   UNL     1      -9.977  20.565  69.410  1.00  0.00     0.190 OA 
HETATM   42  H   UNL     1      -9.612  21.301  68.932  1.00  0.00     0.000 HD 
HETATM   43  C   UNL     1      -9.530  17.906  67.002  1.00  0.00    -0.272 A  
BRANCH  31  44
HETATM   44  C   UNL     1     -11.849  13.591  69.779  1.00  0.00    -0.395 A  
HETATM   45  O   UNL     1     -13.346  10.721  72.376  1.00  0.00    -0.606 OA 
HETATM   46  H   UNL     1     -12.072   9.311  70.957  1.00  0.00     0.000 HD 
HETATM   47  C   UNL     1     -12.737  13.954  70.811  1.00  0.00    -0.383 A  
HETATM   48  H   UNL     1     -13.921  10.977  73.087  1.00  0.00     0.000 HD 
HETATM   49  O   UNL     1     -11.721   9.960  70.359  1.00  0.00    -0.262 OA 
HETATM   50  C   UNL     1     -12.895  11.661  71.492  1.00  0.00    -0.364 A  
HETATM   51  C   UNL     1     -12.052  11.286  70.449  1.00  0.00    -0.384 A  
HETATM   52  C   UNL     1     -11.537  12.238  69.572  1.00  0.00    -0.366 A  
HETATM   53  C   UNL     1     -13.259  12.987  71.672  1.00  0.00    -0.426 A  
ENDBRANCH  31  44
ENDBRANCH  28  29
ENDBRANCH  17  28
ENDBRANCH  15  16
ENDBRANCH  14  15
ENDBRANCH   4  14
TORSDOF 6
ENDMDL
MODEL      132
REMARK 921   NORMALIZED FREE ENERGY PREDICTED BY IDOCK:   -4.64 KCAL/MOL
REMARK 922        TOTAL FREE ENERGY PREDICTED BY IDOCK:   -7.75 KCAL/MOL
REMARK 923 INTER-LIGAND FREE ENERGY PREDICTED BY IDOCK:   -8.07 KCAL/MOL
REMARK 924 INTRA-LIGAND FREE ENERGY PREDICTED BY IDOCK:    0.32 KCAL/MOL
REMARK 927      BINDING AFFINITY PREDICTED BY RF-SCORE:    0.00 PKD
ROOT
HETATM    1  C   UNL     1     -13.314  11.944  64.130  1.00  0.00     0.542 C  
HETATM    2  C   UNL     1     -11.951  12.556  64.469  1.00  0.00    -0.404 C  
HETATM    3  O   UNL     1     -11.608  11.971  65.726  1.00  0.00    -0.352 OA 
HETATM    4  C   UNL     1     -10.640  12.584  66.566  1.00  0.00    -0.242 C  
HETATM    5  H   UNL     1     -10.810  16.417  64.216  1.00  0.00     0.000 HD 
HETATM    6  C   UNL     1     -10.690  14.120  66.564  1.00  0.00    -0.289 C  
HETATM    7  C   UNL     1     -10.761  14.653  65.125  1.00  0.00    -0.414 C  
HETATM    8  O   UNL     1     -12.187  14.561  63.105  1.00  0.00    -0.708 OA 
HETATM    9  O   UNL     1     -11.837  14.583  67.302  1.00  0.00    -0.394 OA 
HETATM   10  H   UNL     1     -11.869  15.532  67.301  1.00  0.00     0.000 HD 
HETATM   11  H   UNL     1     -12.233  15.509  63.096  1.00  0.00     0.000 HD 
HETATM   12  O   UNL     1     -10.766  16.088  65.105  1.00  0.00    -0.444 OA 
HETATM   13  C   UNL     1     -12.026  14.095  64.454  1.00  0.00    -0.457 C  
ENDROOT
BRANCH   4  14
HETATM   14  O   UNL     1      -9.292  12.156  66.360  1.00  0.00    -0.221 OA 
BRANCH  14  15
HETATM   15  C   UNL     1      -8.634  11.751  67.573  1.00  0.00    -0.157 C  
BRANCH  15  16
HETATM   16  C   UNL     1      -7.229  11.244  67.223  1.00  0.00    -0.114 C  
HETATM   17  C   UNL     1      -7.080   8.972  68.175  1.00  0.00    -0.078 C  
HETATM   18  O   UNL     1      -6.710  10.365  68.251  1.00  0.00    -0.060 OA 
HETATM   19  H   UNL     1      -9.225   9.474  64.911  1.00  0.00     0.000 HD 
HETATM   20  C   UNL     1      -6.627   8.480  66.780  1.00  0.00    -0.057 C  
HETATM   21  H   UNL     1      -5.753  10.788  64.366  1.00  0.00     0.000 HD 
HETATM   22  O   UNL     1      -5.201   8.675  66.608  1.00  0.00    -0.033 OA 
HETATM   23  C   UNL     1      -7.361   9.233  65.658  1.00  0.00    -0.093 C  
HETATM   24  H   UNL     1      -4.923   8.373  65.751  1.00  0.00     0.000 HD 
HETATM   25  O   UNL     1      -5.822  11.099  65.261  1.00  0.00    -0.033 OA 
HETATM   26  O   UNL     1      -8.771   9.009  65.605  1.00  0.00    -0.153 OA 
HETATM   27  C   UNL     1      -7.118  10.740  65.771  1.00  0.00    -0.053 C  
BRANCH  17  28
HETATM   28  O   UNL     1      -8.463   8.782  68.512  1.00  0.00    -0.127 OA 
BRANCH  28  29
HETATM   29  C   UNL     1      -8.786   7.671  69.290  1.00  0.00    -0.136 C  
HETATM   30  O   UNL     1     -10.363   6.459  70.715  1.00  0.00    -0.193 OA 
HETATM   31  C   UNL     1      -9.848   7.620  70.132  1.00  0.00    -0.184 C  
HETATM   32  C   UNL     1      -9.678   5.281  70.557  1.00  0.00    -0.190 A  
HETATM   33  O   UNL     1      -7.619   6.210  67.884  1.00  0.00    -0.097 OA 
HETATM   34  H   UNL     1      -6.118   4.874  68.875  1.00  0.00     0.000 HD 
HETATM   35  C   UNL     1     -10.185   4.108  71.116  1.00  0.00    -0.040 A  
HETATM   36  C   UNL     1      -8.196   6.357  68.954  1.00  0.00    -0.118 C  
HETATM   37  C   UNL     1      -9.442   2.925  71.016  1.00  0.00    -0.157 A  
HETATM   38  C   UNL     1      -8.470   5.230  69.835  1.00  0.00    -0.098 A  
HETATM   39  O   UNL     1      -6.451   4.084  69.283  1.00  0.00    -0.032 OA 
HETATM   40  C   UNL     1      -8.180   2.910  70.431  1.00  0.00    -0.068 A  
HETATM   41  O   UNL     1      -9.913   1.732  71.481  1.00  0.00    -0.146 OA 
HETATM   42  H   UNL     1      -9.409   0.929  71.413  1.00  0.00     0.000 HD 
HETATM   43  C   UNL     1      -7.695   4.064  69.834  1.00  0.00    -0.052 A  
BRANCH  31  44
HETATM   44  C   UNL     1     -10.613   8.846  70.398  1.00  0.00    -0.252 A  
HETATM   45  O   UNL     1     -13.355  11.895  71.037  1.00  0.00     0.088 OA 
HETATM   46  H   UNL     1     -12.788  12.370  68.783  1.00  0.00     0.000 HD 
HETATM   47  C   UNL     1     -11.215   9.014  71.661  1.00  0.00    -0.431 A  
HETATM   48  H   UNL     1     -13.779  11.984  71.882  1.00  0.00     0.000 HD 
HETATM   49  O   UNL     1     -12.161  11.674  68.625  1.00  0.00    -0.455 OA 
HETATM   50  C   UNL     1     -12.415  10.921  70.844  1.00  0.00    -0.408 A  
HETATM   51  C   UNL     1     -11.794  10.791  69.605  1.00  0.00    -0.320 A  
HETATM   52  C   UNL     1     -10.875   9.770  69.374  1.00  0.00    -0.256 A  
HETATM   53  C   UNL     1     -12.122  10.052  71.884  1.00  0.00    -0.186 A  
ENDBRANCH  31  44
ENDBRANCH  28  29
ENDBRANCH  17  28
ENDBRANCH  15  16
ENDBRANCH  14  15
ENDBRANCH   4  14
TORSDOF 6
ENDMDL
MODEL      133
REMARK 921   NORMALIZED FREE ENERGY PREDICTED BY IDOCK:   -4.61 KCAL/MOL
REMARK 922        TOTAL FREE ENERGY PREDICTED BY IDOCK:   -7.71 KCAL/MOL
REMARK 923 INTER-LIGAND FREE ENERGY PREDICTED BY IDOCK:   -7.79 KCAL/MOL
REMARK 924 INTRA-LIGAND FREE ENERGY PREDICTED BY IDOCK:    0.08 KCAL/MOL
REMARK 927      BINDING AFFINITY PREDICTED BY RF-SCORE:    0.00 PKD
ROOT
HETATM    1  C   UNL     1     -10.291  15.213  69.106  1.00  0.00    -0.249 C  
HETATM    2  C   UNL     1      -9.264  15.002  67.989  1.00  0.00    -0.183 C  
HETATM    3  O   UNL     1      -8.168  14.356  68.640  1.00  0.00    -0.147 OA 
HETATM    4  C   UNL     1      -6.873  14.372  68.057  1.00  0.00    -0.143 C  
HETATM    5  H   UNL     1      -8.042  17.632  65.186  1.00  0.00     0.000 HD 
HETATM    6  C   UNL     1      -6.516  15.692  67.357  1.00  0.00    -0.138 C  
HETATM    7  C   UNL     1      -7.666  16.143  66.444  1.00  0.00    -0.094 C  
HETATM    8  O   UNL     1     -10.054  16.783  66.528  1.00  0.00    -0.289 OA 
HETATM    9  O   UNL     1      -6.249  16.718  68.332  1.00  0.00    -0.129 OA 
HETATM   10  H   UNL     1      -6.029  17.535  67.899  1.00  0.00     0.000 HD 
HETATM   11  H   UNL     1      -9.847  17.607  66.102  1.00  0.00     0.000 HD 
HETATM   12  O   UNL     1      -7.331  17.353  65.750  1.00  0.00    -0.417 OA 
HETATM   13  C   UNL     1      -8.928  16.338  67.299  1.00  0.00    -0.195 C  
ENDROOT
BRANCH   4  14
HETATM   14  O   UNL     1      -6.583  13.280  67.182  1.00  0.00    -0.194 OA 
BRANCH  14  15
HETATM   15  C   UNL     1      -7.307  12.081  67.510  1.00  0.00    -0.137 C  
BRANCH  15  16
HETATM   16  C   UNL     1      -7.949  11.530  66.231  1.00  0.00     0.019 C  
HETATM   17  C   UNL     1      -8.917   9.347  66.854  1.00  0.00    -0.131 C  
HETATM   18  O   UNL     1      -7.875  10.084  66.180  1.00  0.00    -0.107 OA 
HETATM   19  H   UNL     1     -10.780  12.605  68.045  1.00  0.00     0.000 HD 
HETATM   20  C   UNL     1     -10.253   9.829  66.243  1.00  0.00    -0.212 C  
HETATM   21  H   UNL     1     -10.303  12.700  64.325  1.00  0.00     0.000 HD 
HETATM   22  O   UNL     1     -10.268   9.608  64.810  1.00  0.00    -0.251 OA 
HETATM   23  C   UNL     1     -10.477  11.327  66.507  1.00  0.00    -0.253 C  
HETATM   24  H   UNL     1     -11.089   9.904  64.435  1.00  0.00     0.000 HD 
HETATM   25  O   UNL     1      -9.455  12.314  64.509  1.00  0.00     0.055 OA 
HETATM   26  O   UNL     1     -10.640  11.679  67.882  1.00  0.00    -0.183 OA 
HETATM   27  C   UNL     1      -9.325  12.155  65.933  1.00  0.00    -0.130 C  
BRANCH  17  28
HETATM   28  O   UNL     1      -8.784   9.445  68.281  1.00  0.00    -0.124 OA 
BRANCH  28  29
HETATM   29  C   UNL     1      -9.872   9.041  69.055  1.00  0.00    -0.175 C  
HETATM   30  O   UNL     1     -11.089   7.297  70.263  1.00  0.00    -0.259 OA 
HETATM   31  C   UNL     1     -10.191   7.744  69.291  1.00  0.00    -0.211 C  
HETATM   32  C   UNL     1     -11.829   8.222  70.956  1.00  0.00    -0.255 A  
HETATM   33  O   UNL     1      -9.960  11.082  70.195  1.00  0.00     0.570 OA 
HETATM   34  H   UNL     1     -11.949  12.111  70.225  1.00  0.00     0.000 HD 
HETATM   35  C   UNL     1     -12.718   7.797  71.942  1.00  0.00    -0.328 A  
HETATM   36  C   UNL     1     -10.514  10.014  69.964  1.00  0.00    -0.287 C  
HETATM   37  C   UNL     1     -13.524   8.741  72.590  1.00  0.00    -0.294 A  
HETATM   38  C   UNL     1     -11.707   9.600  70.691  1.00  0.00    -0.353 A  
HETATM   39  O   UNL     1     -12.576  11.815  70.875  1.00  0.00    -0.349 OA 
HETATM   40  C   UNL     1     -13.506  10.082  72.223  1.00  0.00    -0.346 A  
HETATM   41  O   UNL     1     -14.364   8.399  73.611  1.00  0.00    -0.486 OA 
HETATM   42  H   UNL     1     -14.910   9.040  74.050  1.00  0.00     0.000 HD 
HETATM   43  C   UNL     1     -12.592  10.515  71.275  1.00  0.00    -0.426 A  
BRANCH  31  44
HETATM   44  C   UNL     1      -9.482   6.685  68.559  1.00  0.00    -0.123 A  
HETATM   45  O   UNL     1      -7.737   3.255  67.007  1.00  0.00    -0.077 OA 
HETATM   46  H   UNL     1      -5.863   4.135  68.165  1.00  0.00     0.000 HD 
HETATM   47  C   UNL     1     -10.220   5.823  67.724  1.00  0.00    -0.234 A  
HETATM   48  H   UNL     1      -8.248   2.663  66.468  1.00  0.00     0.000 HD 
HETATM   49  O   UNL     1      -6.253   4.921  68.528  1.00  0.00    -0.029 OA 
HETATM   50  C   UNL     1      -8.300   4.409  67.476  1.00  0.00    -0.099 A  
HETATM   51  C   UNL     1      -7.549   5.277  68.265  1.00  0.00    -0.080 A  
HETATM   52  C   UNL     1      -8.122   6.429  68.797  1.00  0.00    -0.114 A  
HETATM   53  C   UNL     1      -9.628   4.679  67.183  1.00  0.00    -0.197 A  
ENDBRANCH  31  44
ENDBRANCH  28  29
ENDBRANCH  17  28
ENDBRANCH  15  16
ENDBRANCH  14  15
ENDBRANCH   4  14
TORSDOF 6
ENDMDL
MODEL      134
REMARK 921   NORMALIZED FREE ENERGY PREDICTED BY IDOCK:   -4.60 KCAL/MOL
REMARK 922        TOTAL FREE ENERGY PREDICTED BY IDOCK:   -7.69 KCAL/MOL
REMARK 923 INTER-LIGAND FREE ENERGY PREDICTED BY IDOCK:   -8.03 KCAL/MOL
REMARK 924 INTRA-LIGAND FREE ENERGY PREDICTED BY IDOCK:    0.34 KCAL/MOL
REMARK 927      BINDING AFFINITY PREDICTED BY RF-SCORE:    0.00 PKD
ROOT
HETATM    1  C   UNL     1      -8.998  10.214  68.258  1.00  0.00    -0.120 C  
HETATM    2  C   UNL     1      -8.449  11.620  68.523  1.00  0.00    -0.135 C  
HETATM    3  O   UNL     1      -8.473  12.252  67.243  1.00  0.00    -0.166 OA 
HETATM    4  C   UNL     1      -7.667  13.393  66.986  1.00  0.00     0.156 C  
HETATM    5  H   UNL     1      -5.210  12.673  70.686  1.00  0.00     0.000 HD 
HETATM    6  C   UNL     1      -6.284  13.346  67.652  1.00  0.00    -0.138 C  
HETATM    7  C   UNL     1      -6.412  12.935  69.126  1.00  0.00    -0.108 C  
HETATM    8  O   UNL     1      -7.205  11.069  70.544  1.00  0.00    -0.350 OA 
HETATM    9  O   UNL     1      -5.431  12.409  66.967  1.00  0.00    -0.301 OA 
HETATM   10  H   UNL     1      -4.575  12.380  67.379  1.00  0.00     0.000 HD 
HETATM   11  H   UNL     1      -6.352  11.023  70.960  1.00  0.00     0.000 HD 
HETATM   12  O   UNL     1      -5.131  12.928  69.774  1.00  0.00    -0.076 OA 
HETATM   13  C   UNL     1      -7.065  11.546  69.196  1.00  0.00    -0.105 C  
ENDROOT
BRANCH   4  14
HETATM   14  O   UNL     1      -8.283  14.652  67.265  1.00  0.00    -0.190 OA 
BRANCH  14  15
HETATM   15  C   UNL     1      -8.702  15.354  66.081  1.00  0.00    -0.094 C  
BRANCH  15  16
HETATM   16  C   UNL     1      -9.682  16.461  66.488  1.00  0.00    -0.269 C  
HETATM   17  C   UNL     1     -11.527  15.323  67.667  1.00  0.00    -0.280 C  
HETATM   18  O   UNL     1     -11.051  15.988  66.478  1.00  0.00    -0.156 OA 
HETATM   19  H   UNL     1      -8.100  15.742  69.560  1.00  0.00     0.000 HD 
HETATM   20  C   UNL     1     -11.319  16.319  68.832  1.00  0.00    -0.317 C  
HETATM   21  H   UNL     1      -9.308  19.086  68.363  1.00  0.00     0.000 HD 
HETATM   22  O   UNL     1     -12.031  17.557  68.579  1.00  0.00     0.851 OA 
HETATM   23  C   UNL     1      -9.829  16.645  69.028  1.00  0.00    -0.267 C  
HETATM   24  H   UNL     1     -11.903  18.168  69.295  1.00  0.00     0.000 HD 
HETATM   25  O   UNL     1      -9.586  18.613  67.588  1.00  0.00    -0.291 OA 
HETATM   26  O   UNL     1      -9.020  15.540  69.439  1.00  0.00    -0.257 OA 
HETATM   27  C   UNL     1      -9.231  17.228  67.746  1.00  0.00    -0.239 C  
BRANCH  17  28
HETATM   28  O   UNL     1     -10.930  14.025  67.810  1.00  0.00    -0.251 OA 
BRANCH  28  29
HETATM   29  C   UNL     1     -11.682  13.042  68.455  1.00  0.00    -0.342 C  
HETATM   30  O   UNL     1     -12.504  10.742  68.590  1.00  0.00    -0.348 OA 
HETATM   31  C   UNL     1     -11.998  11.846  67.899  1.00  0.00    -0.118 C  
HETATM   32  C   UNL     1     -12.853  10.890  69.908  1.00  0.00     0.081 A  
HETATM   33  O   UNL     1     -11.168  13.884  70.576  1.00  0.00     0.067 OA 
HETATM   34  H   UNL     1     -12.910  14.298  71.923  1.00  0.00     0.000 HD 
HETATM   35  C   UNL     1     -13.343   9.796  70.620  1.00  0.00    -0.025 A  
HETATM   36  C   UNL     1     -11.856  13.111  69.921  1.00  0.00    -0.308 C  
HETATM   37  C   UNL     1     -13.768   9.974  71.942  1.00  0.00    -0.159 A  
HETATM   38  C   UNL     1     -12.723  12.131  70.563  1.00  0.00    -0.071 A  
HETATM   39  O   UNL     1     -13.272  13.557  72.395  1.00  0.00    -0.465 OA 
HETATM   40  C   UNL     1     -13.776  11.231  72.538  1.00  0.00     0.647 A  
HETATM   41  O   UNL     1     -14.193   8.931  72.714  1.00  0.00    -0.924 OA 
HETATM   42  H   UNL     1     -14.482   9.052  73.611  1.00  0.00     0.000 HD 
HETATM   43  C   UNL     1     -13.247  12.312  71.848  1.00  0.00    -0.376 A  
BRANCH  31  44
HETATM   44  C   UNL     1     -11.704  11.614  66.478  1.00  0.00    -0.034 A  
HETATM   45  O   UNL     1     -10.235  11.267  62.612  1.00  0.00    -0.589 OA 
HETATM   46  H   UNL     1     -11.550  13.222  62.337  1.00  0.00     0.000 HD 
HETATM   47  C   UNL     1     -10.877  10.530  66.121  1.00  0.00    -0.028 A  
HETATM   48  H   UNL     1      -9.656  10.549  62.386  1.00  0.00     0.000 HD 
HETATM   49  O   UNL     1     -11.889  13.313  63.220  1.00  0.00    -0.453 OA 
HETATM   50  C   UNL     1     -10.757  11.351  63.873  1.00  0.00    -0.397 A  
HETATM   51  C   UNL     1     -11.608  12.403  64.204  1.00  0.00    -0.386 A  
HETATM   52  C   UNL     1     -12.105  12.535  65.498  1.00  0.00    -0.481 A  
HETATM   53  C   UNL     1     -10.400  10.399  64.816  1.00  0.00    -0.221 A  
ENDBRANCH  31  44
ENDBRANCH  28  29
ENDBRANCH  17  28
ENDBRANCH  15  16
ENDBRANCH  14  15
ENDBRANCH   4  14
TORSDOF 6
ENDMDL
MODEL      135
REMARK 921   NORMALIZED FREE ENERGY PREDICTED BY IDOCK:   -4.56 KCAL/MOL
REMARK 922        TOTAL FREE ENERGY PREDICTED BY IDOCK:   -7.64 KCAL/MOL
REMARK 923 INTER-LIGAND FREE ENERGY PREDICTED BY IDOCK:   -6.72 KCAL/MOL
REMARK 924 INTRA-LIGAND FREE ENERGY PREDICTED BY IDOCK:   -0.92 KCAL/MOL
REMARK 927      BINDING AFFINITY PREDICTED BY RF-SCORE:    0.00 PKD
ROOT
HETATM    1  C   UNL     1     -11.785  16.433  69.796  1.00  0.00     0.094 C  
HETATM    2  C   UNL     1     -11.204  15.696  68.586  1.00  0.00    -0.338 C  
HETATM    3  O   UNL     1     -10.595  14.531  69.145  1.00  0.00    -0.244 OA 
HETATM    4  C   UNL     1      -9.601  13.819  68.422  1.00  0.00    -0.206 C  
HETATM    5  H   UNL     1      -9.067  17.216  65.521  1.00  0.00     0.000 HD 
HETATM    6  C   UNL     1      -8.651  14.715  67.613  1.00  0.00    -0.176 C  
HETATM    7  C   UNL     1      -9.447  15.755  66.811  1.00  0.00    -0.240 C  
HETATM    8  O   UNL     1     -11.023  17.636  67.124  1.00  0.00    -0.174 OA 
HETATM    9  O   UNL     1      -7.732  15.391  68.493  1.00  0.00    -0.123 OA 
HETATM   10  H   UNL     1      -7.145  15.946  67.994  1.00  0.00     0.000 HD 
HETATM   11  H   UNL     1     -10.441  18.204  66.632  1.00  0.00     0.000 HD 
HETATM   12  O   UNL     1      -8.575  16.573  66.017  1.00  0.00    -0.398 OA 
HETATM   13  C   UNL     1     -10.260  16.617  67.789  1.00  0.00    -0.292 C  
ENDROOT
BRANCH   4  14
HETATM   14  O   UNL     1     -10.090  12.771  67.582  1.00  0.00    -0.213 OA 
BRANCH  14  15
HETATM   15  C   UNL     1      -9.273  11.587  67.619  1.00  0.00    -0.171 C  
BRANCH  15  16
HETATM   16  C   UNL     1      -8.493  11.570  68.939  1.00  0.00     0.017 C  
HETATM   17  C   UNL     1      -8.439   9.208  69.655  1.00  0.00    -0.133 C  
HETATM   18  O   UNL     1      -8.979  10.535  69.830  1.00  0.00    -0.054 OA 
HETATM   19  H   UNL     1      -6.102  10.294  66.677  1.00  0.00     0.000 HD 
HETATM   20  C   UNL     1      -6.904   9.344  69.789  1.00  0.00    -0.055 C  
HETATM   21  H   UNL     1      -5.459  12.477  69.660  1.00  0.00     0.000 HD 
HETATM   22  O   UNL     1      -6.553   9.910  71.077  1.00  0.00    -0.277 OA 
HETATM   23  C   UNL     1      -6.326  10.247  68.687  1.00  0.00    -0.051 C  
HETATM   24  H   UNL     1      -5.610   9.993  71.159  1.00  0.00     0.000 HD 
HETATM   25  O   UNL     1      -6.400  12.437  69.786  1.00  0.00    -0.128 OA 
HETATM   26  O   UNL     1      -6.460   9.736  67.359  1.00  0.00    -0.067 OA 
HETATM   27  C   UNL     1      -6.967  11.636  68.734  1.00  0.00    -0.098 C  
BRANCH  17  28
HETATM   28  O   UNL     1      -8.933   8.601  68.451  1.00  0.00    -0.141 OA 
BRANCH  28  29
HETATM   29  C   UNL     1      -8.649   7.250  68.252  1.00  0.00    -0.123 C  
HETATM   30  O   UNL     1      -9.215   4.891  68.565  1.00  0.00    -0.109 OA 
HETATM   31  C   UNL     1      -9.266   6.242  68.917  1.00  0.00    -0.123 C  
HETATM   32  C   UNL     1      -8.369   4.501  67.558  1.00  0.00    -0.100 A  
HETATM   33  O   UNL     1      -7.771   7.635  66.118  1.00  0.00    -0.085 OA 
HETATM   34  H   UNL     1      -5.725   6.811  65.729  1.00  0.00     0.000 HD 
HETATM   35  C   UNL     1      -8.316   3.160  67.180  1.00  0.00    -0.092 A  
HETATM   36  C   UNL     1      -7.921   6.836  67.034  1.00  0.00    -0.109 C  
HETATM   37  C   UNL     1      -7.395   2.759  66.205  1.00  0.00    -0.067 A  
HETATM   38  C   UNL     1      -7.550   5.434  66.892  1.00  0.00    -0.089 A  
HETATM   39  O   UNL     1      -5.670   5.892  65.495  1.00  0.00    -0.022 OA 
HETATM   40  C   UNL     1      -6.486   3.657  65.655  1.00  0.00    -0.033 A  
HETATM   41  O   UNL     1      -7.340   1.476  65.743  1.00  0.00    -0.054 OA 
HETATM   42  H   UNL     1      -6.715   1.204  65.081  1.00  0.00     0.000 HD 
HETATM   43  C   UNL     1      -6.567   4.999  65.995  1.00  0.00    -0.045 A  
BRANCH  31  44
HETATM   44  C   UNL     1     -10.156   6.563  70.042  1.00  0.00    -0.203 A  
HETATM   45  O   UNL     1     -12.512   8.156  73.065  1.00  0.00    -0.673 OA 
HETATM   46  H   UNL     1     -10.589   7.606  74.341  1.00  0.00     0.000 HD 
HETATM   47  C   UNL     1     -11.467   7.003  69.770  1.00  0.00    -0.177 A  
HETATM   48  H   UNL     1     -13.384   8.477  72.868  1.00  0.00     0.000 HD 
HETATM   49  O   UNL     1     -10.040   7.243  73.656  1.00  0.00    -0.299 OA 
HETATM   50  C   UNL     1     -11.757   7.586  72.077  1.00  0.00    -0.294 A  
HETATM   51  C   UNL     1     -10.478   7.114  72.365  1.00  0.00    -0.218 A  
HETATM   52  C   UNL     1      -9.674   6.581  71.360  1.00  0.00    -0.184 A  
HETATM   53  C   UNL     1     -12.269   7.519  70.790  1.00  0.00    -0.152 A  
ENDBRANCH  31  44
ENDBRANCH  28  29
ENDBRANCH  17  28
ENDBRANCH  15  16
ENDBRANCH  14  15
ENDBRANCH   4  14
TORSDOF 6
ENDMDL
MODEL      136
REMARK 921   NORMALIZED FREE ENERGY PREDICTED BY IDOCK:   -4.45 KCAL/MOL
REMARK 922        TOTAL FREE ENERGY PREDICTED BY IDOCK:   -7.49 KCAL/MOL
REMARK 923 INTER-LIGAND FREE ENERGY PREDICTED BY IDOCK:   -7.49 KCAL/MOL
REMARK 924 INTRA-LIGAND FREE ENERGY PREDICTED BY IDOCK:    0.00 KCAL/MOL
REMARK 927      BINDING AFFINITY PREDICTED BY RF-SCORE:    0.00 PKD
ROOT
HETATM    1  C   UNL     1      -9.593   8.994  66.201  1.00  0.00    -0.341 C  
HETATM    2  C   UNL     1      -8.070   8.906  66.337  1.00  0.00    -0.110 C  
HETATM    3  O   UNL     1      -7.850   8.804  67.745  1.00  0.00    -0.101 OA 
HETATM    4  C   UNL     1      -6.583   9.123  68.301  1.00  0.00    -0.059 C  
HETATM    5  H   UNL     1      -5.261  11.151  64.510  1.00  0.00     0.000 HD 
HETATM    6  C   UNL     1      -5.882  10.311  67.627  1.00  0.00    -0.045 C  
HETATM    7  C   UNL     1      -5.923  10.162  66.099  1.00  0.00    -0.077 C  
HETATM    8  O   UNL     1      -7.526   9.986  64.223  1.00  0.00    -0.134 OA 
HETATM    9  O   UNL     1      -6.520  11.547  68.003  1.00  0.00    -0.052 OA 
HETATM   10  H   UNL     1      -6.087  12.282  67.586  1.00  0.00     0.000 HD 
HETATM   11  H   UNL     1      -7.108  10.725  63.797  1.00  0.00     0.000 HD 
HETATM   12  O   UNL     1      -5.235  11.244  65.455  1.00  0.00    -0.265 OA 
HETATM   13  C   UNL     1      -7.391  10.105  65.648  1.00  0.00    -0.144 C  
ENDROOT
BRANCH   4  14
HETATM   14  O   UNL     1      -5.668   8.030  68.402  1.00  0.00    -0.031 OA 
BRANCH  14  15
HETATM   15  C   UNL     1      -5.636   7.435  69.711  1.00  0.00    -0.023 C  
BRANCH  15  16
HETATM   16  C   UNL     1      -6.308   8.393  70.703  1.00  0.00    -0.036 C  
HETATM   17  C   UNL     1      -8.409   7.290  71.381  1.00  0.00    -0.110 C  
HETATM   18  O   UNL     1      -7.753   8.322  70.614  1.00  0.00    -0.076 OA 
HETATM   19  H   UNL     1      -5.032   5.909  72.862  1.00  0.00     0.000 HD 
HETATM   20  C   UNL     1      -7.979   7.504  72.851  1.00  0.00    -0.105 C  
HETATM   21  H   UNL     1      -5.317   9.585  73.556  1.00  0.00     0.000 HD 
HETATM   22  O   UNL     1      -8.344   8.833  73.301  1.00  0.00    -0.389 OA 
HETATM   23  C   UNL     1      -6.461   7.332  73.018  1.00  0.00    -0.063 C  
HETATM   24  H   UNL     1      -8.080   8.964  74.205  1.00  0.00     0.000 HD 
HETATM   25  O   UNL     1      -5.688   9.635  72.684  1.00  0.00    -0.292 OA 
HETATM   26  O   UNL     1      -5.971   6.015  72.758  1.00  0.00    -0.036 OA 
HETATM   27  C   UNL     1      -5.704   8.312  72.118  1.00  0.00    -0.042 C  
BRANCH  17  28
HETATM   28  O   UNL     1      -8.168   5.991  70.817  1.00  0.00    -0.120 OA 
BRANCH  28  29
HETATM   29  C   UNL     1      -8.912   5.633  69.693  1.00  0.00    -0.123 C  
HETATM   30  O   UNL     1     -10.823   5.986  68.207  1.00  0.00    -0.275 OA 
HETATM   31  C   UNL     1     -10.159   6.097  69.431  1.00  0.00    -0.184 C  
HETATM   32  C   UNL     1     -10.256   5.229  67.214  1.00  0.00    -0.206 A  
HETATM   33  O   UNL     1      -7.002   5.025  68.487  1.00  0.00    -0.054 OA 
HETATM   34  H   UNL     1      -7.019   2.978  67.576  1.00  0.00     0.000 HD 
HETATM   35  C   UNL     1     -10.894   5.119  65.979  1.00  0.00    -0.127 A  
HETATM   36  C   UNL     1      -8.226   5.013  68.540  1.00  0.00    -0.085 C  
HETATM   37  C   UNL     1     -10.347   4.284  64.997  1.00  0.00    -0.183 A  
HETATM   38  C   UNL     1      -9.033   4.559  67.415  1.00  0.00    -0.124 A  
HETATM   39  O   UNL     1      -7.472   2.882  66.747  1.00  0.00    -0.069 OA 
HETATM   40  C   UNL     1      -9.220   3.509  65.251  1.00  0.00    -0.153 A  
HETATM   41  O   UNL     1     -10.885   4.186  63.747  1.00  0.00    -0.448 OA 
HETATM   42  H   UNL     1     -10.514   3.620  63.080  1.00  0.00     0.000 HD 
HETATM   43  C   UNL     1      -8.558   3.651  66.461  1.00  0.00    -0.115 A  
BRANCH  31  44
HETATM   44  C   UNL     1     -10.864   6.880  70.457  1.00  0.00    -0.289 A  
HETATM   45  O   UNL     1     -13.456   8.843  73.036  1.00  0.00    -0.897 OA 
HETATM   46  H   UNL     1     -12.959  10.639  71.568  1.00  0.00     0.000 HD 
HETATM   47  C   UNL     1     -11.409   6.209  71.570  1.00  0.00    -0.340 A  
HETATM   48  H   UNL     1     -13.842   8.377  73.767  1.00  0.00     0.000 HD 
HETATM   49  O   UNL     1     -12.367  10.199  70.970  1.00  0.00    -0.316 OA 
HETATM   50  C   UNL     1     -12.564   8.208  72.217  1.00  0.00    -0.273 A  
HETATM   51  C   UNL     1     -11.997   8.892  71.144  1.00  0.00    -0.293 A  
HETATM   52  C   UNL     1     -11.129   8.245  70.267  1.00  0.00    -0.220 A  
HETATM   53  C   UNL     1     -12.264   6.875  72.451  1.00  0.00    -0.067 A  
ENDBRANCH  31  44
ENDBRANCH  28  29
ENDBRANCH  17  28
ENDBRANCH  15  16
ENDBRANCH  14  15
ENDBRANCH   4  14
TORSDOF 6
ENDMDL
MODEL      137
REMARK 921   NORMALIZED FREE ENERGY PREDICTED BY IDOCK:   -4.38 KCAL/MOL
REMARK 922        TOTAL FREE ENERGY PREDICTED BY IDOCK:   -7.39 KCAL/MOL
REMARK 923 INTER-LIGAND FREE ENERGY PREDICTED BY IDOCK:   -5.71 KCAL/MOL
REMARK 924 INTRA-LIGAND FREE ENERGY PREDICTED BY IDOCK:   -1.69 KCAL/MOL
REMARK 927      BINDING AFFINITY PREDICTED BY RF-SCORE:    0.00 PKD
ROOT
HETATM    1  C   UNL     1     -13.177  11.666  63.894  1.00  0.00     0.356 C  
HETATM    2  C   UNL     1     -11.816  12.351  64.051  1.00  0.00    -0.439 C  
HETATM    3  O   UNL     1     -11.151  11.584  65.055  1.00  0.00    -0.275 OA 
HETATM    4  C   UNL     1     -10.057  12.133  65.775  1.00  0.00    -0.247 C  
HETATM    5  H   UNL     1     -11.025  16.294  64.366  1.00  0.00     0.000 HD 
HETATM    6  C   UNL     1     -10.208  13.626  66.103  1.00  0.00    -0.304 C  
HETATM    7  C   UNL     1     -10.648  14.408  64.857  1.00  0.00    -0.434 C  
HETATM    8  O   UNL     1     -12.496  14.537  63.217  1.00  0.00    -1.010 OA 
HETATM    9  O   UNL     1     -11.179  13.812  67.151  1.00  0.00    -0.295 OA 
HETATM   10  H   UNL     1     -11.273  14.735  67.354  1.00  0.00     0.000 HD 
HETATM   11  H   UNL     1     -12.606  15.460  63.415  1.00  0.00     0.000 HD 
HETATM   12  O   UNL     1     -10.752  15.811  65.136  1.00  0.00    -0.400 OA 
HETATM   13  C   UNL     1     -11.995  13.848  64.373  1.00  0.00    -0.450 C  
ENDROOT
BRANCH   4  14
HETATM   14  O   UNL     1      -8.769  11.904  65.200  1.00  0.00     0.349 OA 
BRANCH  14  15
HETATM   15  C   UNL     1      -7.925  11.070  66.012  1.00  0.00    -0.094 C  
BRANCH  15  16
HETATM   16  C   UNL     1      -6.797  10.512  65.135  1.00  0.00    -0.025 C  
HETATM   17  C   UNL     1      -6.651   8.109  65.681  1.00  0.00    -0.049 C  
HETATM   18  O   UNL     1      -6.091   9.434  65.799  1.00  0.00    -0.054 OA 
HETATM   19  H   UNL     1      -9.664   9.322  63.456  1.00  0.00     0.000 HD 
HETATM   20  C   UNL     1      -6.755   7.818  64.165  1.00  0.00    -0.057 C  
HETATM   21  H   UNL     1      -6.424  10.411  61.911  1.00  0.00     0.000 HD 
HETATM   22  O   UNL     1      -5.454   7.918  63.535  1.00  0.00    -0.051 OA 
HETATM   23  C   UNL     1      -7.709   8.805  63.473  1.00  0.00    -0.132 C  
HETATM   24  H   UNL     1      -5.518   7.739  62.604  1.00  0.00     0.000 HD 
HETATM   25  O   UNL     1      -6.150  10.575  62.805  1.00  0.00    -0.144 OA 
HETATM   26  O   UNL     1      -9.075   8.712  63.884  1.00  0.00     0.279 OA 
HETATM   27  C   UNL     1      -7.241  10.247  63.684  1.00  0.00    -0.073 C  
BRANCH  17  28
HETATM   28  O   UNL     1      -7.857   7.983  66.450  1.00  0.00    -0.093 OA 
BRANCH  28  29
HETATM   29  C   UNL     1      -7.885   7.002  67.441  1.00  0.00    -0.111 C  
HETATM   30  O   UNL     1      -8.781   6.130  69.543  1.00  0.00    -0.128 OA 
HETATM   31  C   UNL     1      -8.493   7.159  68.643  1.00  0.00    -0.125 C  
HETATM   32  C   UNL     1      -8.296   4.872  69.288  1.00  0.00    -0.084 A  
HETATM   33  O   UNL     1      -7.506   5.281  65.902  1.00  0.00    -0.080 OA 
HETATM   34  H   UNL     1      -5.807   3.897  66.367  1.00  0.00     0.000 HD 
HETATM   35  C   UNL     1      -8.586   3.829  70.165  1.00  0.00    -0.107 A  
HETATM   36  C   UNL     1      -7.569   5.603  67.082  1.00  0.00    -0.096 C  
HETATM   37  C   UNL     1      -8.025   2.566  69.937  1.00  0.00    -0.041 A  
HETATM   38  C   UNL     1      -7.510   4.611  68.148  1.00  0.00    -0.066 A  
HETATM   39  O   UNL     1      -5.982   3.196  66.984  1.00  0.00    -0.023 OA 
HETATM   40  C   UNL     1      -7.131   2.349  68.894  1.00  0.00    -0.044 A  
HETATM   41  O   UNL     1      -8.323   1.488  70.719  1.00  0.00    -0.047 OA 
HETATM   42  H   UNL     1      -7.942   0.631  70.564  1.00  0.00     0.000 HD 
HETATM   43  C   UNL     1      -6.876   3.372  67.994  1.00  0.00    -0.050 A  
BRANCH  31  44
HETATM   44  C   UNL     1      -9.003   8.484  69.023  1.00  0.00    -0.146 A  
HETATM   45  O   UNL     1     -10.586  12.302  69.393  1.00  0.00    -0.436 OA 
HETATM   46  H   UNL     1      -8.279  12.856  69.368  1.00  0.00     0.000 HD 
HETATM   47  C   UNL     1     -10.395   8.673  69.132  1.00  0.00    -0.227 A  
HETATM   48  H   UNL     1     -11.527  12.425  69.436  1.00  0.00     0.000 HD 
HETATM   49  O   UNL     1      -7.907  11.987  69.280  1.00  0.00     0.160 OA 
HETATM   50  C   UNL     1     -10.065  11.040  69.321  1.00  0.00    -0.095 A  
HETATM   51  C   UNL     1      -8.685  10.860  69.257  1.00  0.00     0.029 A  
HETATM   52  C   UNL     1      -8.139   9.586  69.128  1.00  0.00    -0.103 A  
HETATM   53  C   UNL     1     -10.928   9.956  69.278  1.00  0.00    -0.244 A  
ENDBRANCH  31  44
ENDBRANCH  28  29
ENDBRANCH  17  28
ENDBRANCH  15  16
ENDBRANCH  14  15
ENDBRANCH   4  14
TORSDOF 6
ENDMDL
MODEL      138
REMARK 921   NORMALIZED FREE ENERGY PREDICTED BY IDOCK:   -4.23 KCAL/MOL
REMARK 922        TOTAL FREE ENERGY PREDICTED BY IDOCK:   -7.20 KCAL/MOL
REMARK 923 INTER-LIGAND FREE ENERGY PREDICTED BY IDOCK:   -5.84 KCAL/MOL
REMARK 924 INTRA-LIGAND FREE ENERGY PREDICTED BY IDOCK:   -1.35 KCAL/MOL
REMARK 927      BINDING AFFINITY PREDICTED BY RF-SCORE:    0.00 PKD
ROOT
HETATM    1  C   UNL     1     -10.077  12.753  67.611  1.00  0.00    -0.220 C  
HETATM    2  C   UNL     1     -10.127  11.425  66.849  1.00  0.00    -0.214 C  
HETATM    3  O   UNL     1      -9.010  10.691  67.350  1.00  0.00    -0.136 OA 
HETATM    4  C   UNL     1      -8.470   9.605  66.611  1.00  0.00    -0.123 C  
HETATM    5  H   UNL     1     -10.701  10.828  62.901  1.00  0.00     0.000 HD 
HETATM    6  C   UNL     1      -8.465   9.822  65.090  1.00  0.00    -0.149 C  
HETATM    7  C   UNL     1      -9.831  10.340  64.618  1.00  0.00    -0.327 C  
HETATM    8  O   UNL     1     -11.383  12.242  64.928  1.00  0.00    -0.309 OA 
HETATM    9  O   UNL     1      -7.442  10.770  64.724  1.00  0.00    -0.352 OA 
HETATM   10  H   UNL     1      -7.439  10.904  63.784  1.00  0.00     0.000 HD 
HETATM   11  H   UNL     1     -11.384  12.393  63.990  1.00  0.00     0.000 HD 
HETATM   12  O   UNL     1      -9.856  10.508  63.193  1.00  0.00    -0.319 OA 
HETATM   13  C   UNL     1     -10.128  11.670  65.328  1.00  0.00    -0.264 C  
ENDROOT
BRANCH   4  14
HETATM   14  O   UNL     1      -9.035   8.326  66.903  1.00  0.00    -0.137 OA 
BRANCH  14  15
HETATM   15  C   UNL     1      -8.060   7.360  67.334  1.00  0.00    -0.113 C  
BRANCH  15  16
HETATM   16  C   UNL     1      -7.825   6.358  66.197  1.00  0.00    -0.102 C  
HETATM   17  C   UNL     1      -8.446   4.150  67.109  1.00  0.00    -0.100 C  
HETATM   18  O   UNL     1      -7.407   5.066  66.704  1.00  0.00    -0.083 OA 
HETATM   19  H   UNL     1     -11.343   6.649  66.179  1.00  0.00     0.000 HD 
HETATM   20  C   UNL     1      -9.363   3.963  65.878  1.00  0.00    -0.165 C  
HETATM   21  H   UNL     1      -9.097   6.146  63.216  1.00  0.00     0.000 HD 
HETATM   22  O   UNL     1      -8.604   3.462  64.748  1.00  0.00    -0.099 OA 
HETATM   23  C   UNL     1     -10.025   5.289  65.469  1.00  0.00     0.142 C  
HETATM   24  H   UNL     1      -9.168   3.347  63.992  1.00  0.00     0.000 HD 
HETATM   25  O   UNL     1      -8.394   6.152  63.855  1.00  0.00    -0.059 OA 
HETATM   26  O   UNL     1     -10.934   5.830  66.432  1.00  0.00    -0.206 OA 
HETATM   27  C   UNL     1      -8.966   6.350  65.161  1.00  0.00     0.274 C  
BRANCH  17  28
HETATM   28  O   UNL     1      -9.076   4.583  68.325  1.00  0.00    -0.111 OA 
BRANCH  28  29
HETATM   29  C   UNL     1      -8.388   4.355  69.518  1.00  0.00    -0.062 C  
HETATM   30  O   UNL     1      -8.187   4.630  71.940  1.00  0.00    -0.101 OA 
HETATM   31  C   UNL     1      -8.650   5.008  70.678  1.00  0.00    -0.114 C  
HETATM   32  C   UNL     1      -7.277   3.607  72.032  1.00  0.00    -0.054 A  
HETATM   33  O   UNL     1      -7.709   2.220  68.847  1.00  0.00    -0.043 OA 
HETATM   34  H   UNL     1      -5.514   1.793  68.986  1.00  0.00     0.000 HD 
HETATM   35  C   UNL     1      -6.815   3.203  73.284  1.00  0.00    -0.038 A  
HETATM   36  C   UNL     1      -7.587   3.122  69.666  1.00  0.00    -0.044 C  
HETATM   37  C   UNL     1      -5.831   2.210  73.363  1.00  0.00     0.000 A  
HETATM   38  C   UNL     1      -6.800   2.949  70.881  1.00  0.00    -0.033 A  
HETATM   39  O   UNL     1      -5.179   1.542  69.839  1.00  0.00    -0.006 OA 
HETATM   40  C   UNL     1      -5.256   1.668  72.219  1.00  0.00     0.000 A  
HETATM   41  O   UNL     1      -5.387   1.724  74.559  1.00  0.00     0.000 OA 
HETATM   42  H   UNL     1      -4.719   1.050  74.613  1.00  0.00     0.000 HD 
HETATM   43  C   UNL     1      -5.745   2.034  70.974  1.00  0.00    -0.013 A  
BRANCH  31  44
HETATM   44  C   UNL     1      -9.578   6.148  70.667  1.00  0.00    -0.195 A  
HETATM   45  O   UNL     1     -12.026   9.431  71.336  1.00  0.00    -0.318 OA 
HETATM   46  H   UNL     1     -13.654   7.713  71.496  1.00  0.00     0.000 HD 
HETATM   47  C   UNL     1      -9.051   7.454  70.620  1.00  0.00    -0.156 A  
HETATM   48  H   UNL     1     -11.659  10.307  71.332  1.00  0.00     0.000 HD 
HETATM   49  O   UNL     1     -13.102   6.955  71.347  1.00  0.00    -0.344 OA 
HETATM   50  C   UNL     1     -11.227   8.355  71.066  1.00  0.00    -0.266 A  
HETATM   51  C   UNL     1     -11.766   7.071  71.072  1.00  0.00    -0.333 A  
HETATM   52  C   UNL     1     -10.956   5.959  70.854  1.00  0.00    -0.335 A  
HETATM   53  C   UNL     1      -9.877   8.561  70.823  1.00  0.00    -0.220 A  
ENDBRANCH  31  44
ENDBRANCH  28  29
ENDBRANCH  17  28
ENDBRANCH  15  16
ENDBRANCH  14  15
ENDBRANCH   4  14
TORSDOF 6
ENDMDL
MODEL      139
REMARK 921   NORMALIZED FREE ENERGY PREDICTED BY IDOCK:   -4.13 KCAL/MOL
REMARK 922        TOTAL FREE ENERGY PREDICTED BY IDOCK:   -7.06 KCAL/MOL
REMARK 923 INTER-LIGAND FREE ENERGY PREDICTED BY IDOCK:   -7.10 KCAL/MOL
REMARK 924 INTRA-LIGAND FREE ENERGY PREDICTED BY IDOCK:    0.04 KCAL/MOL
REMARK 927      BINDING AFFINITY PREDICTED BY RF-SCORE:    0.00 PKD
ROOT
HETATM    1  C   UNL     1     -10.560  18.534  67.520  1.00  0.00    -0.461 C  
HETATM    2  C   UNL     1      -9.506  17.606  66.908  1.00  0.00    -0.276 C  
HETATM    3  O   UNL     1      -9.781  16.332  67.492  1.00  0.00    -0.230 OA 
HETATM    4  C   UNL     1      -8.787  15.317  67.510  1.00  0.00    -0.179 C  
HETATM    5  H   UNL     1      -5.551  18.262  66.462  1.00  0.00     0.000 HD 
HETATM    6  C   UNL     1      -7.362  15.839  67.749  1.00  0.00    -0.148 C  
HETATM    7  C   UNL     1      -7.073  17.044  66.841  1.00  0.00    -0.216 C  
HETATM    8  O   UNL     1      -7.878  19.334  66.365  1.00  0.00    -0.265 OA 
HETATM    9  O   UNL     1      -7.197  16.228  69.126  1.00  0.00    -0.193 OA 
HETATM   10  H   UNL     1      -6.316  16.551  69.274  1.00  0.00     0.000 HD 
HETATM   11  H   UNL     1      -7.003  19.672  66.517  1.00  0.00     0.000 HD 
HETATM   12  O   UNL     1      -5.730  17.517  67.023  1.00  0.00    -0.124 OA 
HETATM   13  C   UNL     1      -8.088  18.154  67.156  1.00  0.00    -0.221 C  
ENDROOT
BRANCH   4  14
HETATM   14  O   UNL     1      -8.786  14.443  66.379  1.00  0.00    -0.104 OA 
BRANCH  14  15
HETATM   15  C   UNL     1      -8.721  13.051  66.738  1.00  0.00    -0.096 C  
BRANCH  15  16
HETATM   16  C   UNL     1      -8.570  12.221  65.458  1.00  0.00     0.890 C  
HETATM   17  C   UNL     1      -9.317   9.943  66.045  1.00  0.00    -0.188 C  
HETATM   18  O   UNL     1      -8.228  10.844  65.755  1.00  0.00    -0.162 OA 
HETATM   19  H   UNL     1     -12.061  12.727  65.573  1.00  0.00     0.000 HD 
HETATM   20  C   UNL     1     -10.263  10.001  64.823  1.00  0.00     0.100 C  
HETATM   21  H   UNL     1      -9.899  12.540  62.512  1.00  0.00     0.000 HD 
HETATM   22  O   UNL     1      -9.557   9.630  63.612  1.00  0.00    -0.471 OA 
HETATM   23  C   UNL     1     -10.845  11.411  64.635  1.00  0.00    -0.292 C  
HETATM   24  H   UNL     1     -10.138   9.666  62.861  1.00  0.00     0.000 HD 
HETATM   25  O   UNL     1      -9.187  12.406  63.127  1.00  0.00     0.165 OA 
HETATM   26  O   UNL     1     -11.701  11.855  65.690  1.00  0.00    -0.351 OA 
HETATM   27  C   UNL     1      -9.724  12.439  64.462  1.00  0.00     0.038 C  
BRANCH  17  28
HETATM   28  O   UNL     1      -9.898  10.224  67.328  1.00  0.00    -0.171 OA 
BRANCH  28  29
HETATM   29  C   UNL     1      -9.928   9.186  68.259  1.00  0.00    -0.175 C  
HETATM   30  O   UNL     1     -10.905   8.136  70.240  1.00  0.00    -0.240 OA 
HETATM   31  C   UNL     1     -10.627   9.232  69.420  1.00  0.00    -0.223 C  
HETATM   32  C   UNL     1     -10.320   6.929  69.952  1.00  0.00    -0.205 A  
HETATM   33  O   UNL     1      -9.327   7.587  66.661  1.00  0.00    -0.159 OA 
HETATM   34  H   UNL     1      -7.574   6.290  67.172  1.00  0.00     0.000 HD 
HETATM   35  C   UNL     1     -10.598   5.818  70.748  1.00  0.00    -0.337 A  
HETATM   36  C   UNL     1      -9.493   7.834  67.849  1.00  0.00    -0.144 C  
HETATM   37  C   UNL     1      -9.938   4.610  70.493  1.00  0.00    -0.225 A  
HETATM   38  C   UNL     1      -9.441   6.787  68.860  1.00  0.00    -0.128 A  
HETATM   39  O   UNL     1      -7.743   5.543  67.735  1.00  0.00    -0.090 OA 
HETATM   40  C   UNL     1      -8.961   4.513  69.507  1.00  0.00    -0.142 A  
HETATM   41  O   UNL     1     -10.215   3.471  71.191  1.00  0.00     0.017 OA 
HETATM   42  H   UNL     1      -9.767   2.651  71.017  1.00  0.00     0.000 HD 
HETATM   43  C   UNL     1      -8.715   5.602  68.685  1.00  0.00    -0.106 A  
BRANCH  31  44
HETATM   44  C   UNL     1     -11.251  10.497  69.834  1.00  0.00    -0.374 A  
HETATM   45  O   UNL     1     -13.586  13.834  70.632  1.00  0.00     0.032 OA 
HETATM   46  H   UNL     1     -12.303  14.698  68.833  1.00  0.00     0.000 HD 
HETATM   47  C   UNL     1     -12.175  10.485  70.897  1.00  0.00    -0.490 A  
HETATM   48  H   UNL     1     -14.227  13.809  71.332  1.00  0.00     0.000 HD 
HETATM   49  O   UNL     1     -11.766  13.939  68.640  1.00  0.00    -0.315 OA 
HETATM   50  C   UNL     1     -12.784  12.751  70.403  1.00  0.00     0.074 A  
HETATM   51  C   UNL     1     -11.843  12.787  69.377  1.00  0.00    -0.300 A  
HETATM   52  C   UNL     1     -11.055  11.674  69.094  1.00  0.00    -0.302 A  
HETATM   53  C   UNL     1     -12.946  11.614  71.181  1.00  0.00    -0.308 A  
ENDBRANCH  31  44
ENDBRANCH  28  29
ENDBRANCH  17  28
ENDBRANCH  15  16
ENDBRANCH  14  15
ENDBRANCH   4  14
TORSDOF 6
ENDMDL
MODEL      140
REMARK 921   NORMALIZED FREE ENERGY PREDICTED BY IDOCK:   -3.93 KCAL/MOL
REMARK 922        TOTAL FREE ENERGY PREDICTED BY IDOCK:   -6.79 KCAL/MOL
REMARK 923 INTER-LIGAND FREE ENERGY PREDICTED BY IDOCK:   -8.05 KCAL/MOL
REMARK 924 INTRA-LIGAND FREE ENERGY PREDICTED BY IDOCK:    1.26 KCAL/MOL
REMARK 927      BINDING AFFINITY PREDICTED BY RF-SCORE:    0.00 PKD
ROOT
HETATM    1  C   UNL     1     -10.288  18.198  66.729  1.00  0.00    -0.376 C  
HETATM    2  C   UNL     1      -9.097  17.307  67.094  1.00  0.00    -0.227 C  
HETATM    3  O   UNL     1      -9.287  17.019  68.480  1.00  0.00    -0.250 OA 
HETATM    4  C   UNL     1      -8.198  16.583  69.282  1.00  0.00    -0.072 C  
HETATM    5  H   UNL     1      -5.207  17.830  66.162  1.00  0.00     0.000 HD 
HETATM    6  C   UNL     1      -6.860  17.258  68.945  1.00  0.00    -0.226 C  
HETATM    7  C   UNL     1      -6.621  17.247  67.428  1.00  0.00    -0.149 C  
HETATM    8  O   UNL     1      -7.615  18.063  65.314  1.00  0.00    -0.151 OA 
HETATM    9  O   UNL     1      -6.854  18.619  69.419  1.00  0.00    -0.253 OA 
HETATM   10  H   UNL     1      -6.027  19.037  69.210  1.00  0.00     0.000 HD 
HETATM   11  H   UNL     1      -6.796  18.492  65.096  1.00  0.00     0.000 HD 
HETATM   12  O   UNL     1      -5.354  17.837  67.100  1.00  0.00    -0.124 OA 
HETATM   13  C   UNL     1      -7.768  18.004  66.741  1.00  0.00    -0.225 C  
ENDROOT
BRANCH   4  14
HETATM   14  O   UNL     1      -8.011  15.167  69.340  1.00  0.00    -0.202 OA 
BRANCH  14  15
HETATM   15  C   UNL     1      -9.170  14.461  69.817  1.00  0.00     0.752 C  
BRANCH  15  16
HETATM   16  C   UNL     1     -10.368  15.418  69.805  1.00  0.00    -0.286 C  
HETATM   17  C   UNL     1     -12.333  14.024  69.270  1.00  0.00    -0.171 C  
HETATM   18  O   UNL     1     -11.367  15.005  68.839  1.00  0.00    -0.265 OA 
HETATM   19  H   UNL     1     -10.808  13.760  72.890  1.00  0.00     0.000 HD 
HETATM   20  C   UNL     1     -13.021  14.614  70.523  1.00  0.00    -0.268 C  
HETATM   21  H   UNL     1     -11.614  17.340  72.107  1.00  0.00     0.000 HD 
HETATM   22  O   UNL     1     -13.640  15.888  70.214  1.00  0.00    -0.554 OA 
HETATM   23  C   UNL     1     -12.012  14.826  71.664  1.00  0.00    -0.345 C  
HETATM   24  H   UNL     1     -14.062  16.250  70.984  1.00  0.00     0.000 HD 
HETATM   25  O   UNL     1     -11.298  17.132  71.236  1.00  0.00     0.383 OA 
HETATM   26  O   UNL     1     -11.431  13.629  72.184  1.00  0.00     1.748 OA 
HETATM   27  C   UNL     1     -10.880  15.755  71.218  1.00  0.00     0.091 C  
BRANCH  17  28
HETATM   28  O   UNL     1     -11.730  12.728  69.411  1.00  0.00    -0.292 OA 
BRANCH  28  29
HETATM   29  C   UNL     1     -11.117  12.181  68.283  1.00  0.00    -0.243 C  
HETATM   30  O   UNL     1     -10.025  10.303  67.159  1.00  0.00    -0.181 OA 
HETATM   31  C   UNL     1     -10.417  11.019  68.292  1.00  0.00    -0.186 C  
HETATM   32  C   UNL     1     -10.222  10.862  65.922  1.00  0.00    -0.257 A  
HETATM   33  O   UNL     1     -12.519  13.347  66.818  1.00  0.00    -0.279 OA 
HETATM   34  H   UNL     1     -11.502  14.543  65.220  1.00  0.00     0.000 HD 
HETATM   35  C   UNL     1      -9.854  10.157  64.777  1.00  0.00    -0.382 A  
HETATM   36  C   UNL     1     -11.516  12.655  66.942  1.00  0.00    -0.343 C  
HETATM   37  C   UNL     1      -9.989  10.765  63.524  1.00  0.00    -0.344 A  
HETATM   38  C   UNL     1     -10.797  12.141  65.783  1.00  0.00    -0.319 A  
HETATM   39  O   UNL     1     -11.221  14.071  64.445  1.00  0.00    -0.368 OA 
HETATM   40  C   UNL     1     -10.418  12.083  63.402  1.00  0.00    -0.474 A  
HETATM   41  O   UNL     1      -9.710  10.105  62.363  1.00  0.00    -0.621 OA 
HETATM   42  H   UNL     1      -9.802  10.518  61.512  1.00  0.00     0.000 HD 
HETATM   43  C   UNL     1     -10.828  12.771  64.533  1.00  0.00    -0.347 A  
BRANCH  31  44
HETATM   44  C   UNL     1     -10.117  10.371  69.577  1.00  0.00    -0.246 A  
HETATM   45  O   UNL     1      -9.257   7.929  72.821  1.00  0.00    -0.174 OA 
HETATM   46  H   UNL     1     -11.601   8.140  73.124  1.00  0.00     0.000 HD 
HETATM   47  C   UNL     1      -8.788   9.994  69.856  1.00  0.00    -0.177 A  
HETATM   48  H   UNL     1      -8.363   7.656  72.986  1.00  0.00     0.000 HD 
HETATM   49  O   UNL     1     -11.809   8.696  72.382  1.00  0.00    -0.372 OA 
HETATM   50  C   UNL     1      -9.531   8.774  71.781  1.00  0.00    -0.293 A  
HETATM   51  C   UNL     1     -10.842   9.175  71.539  1.00  0.00    -0.366 A  
HETATM   52  C   UNL     1     -11.147   9.991  70.451  1.00  0.00    -0.393 A  
HETATM   53  C   UNL     1      -8.495   9.191  70.960  1.00  0.00    -0.221 A  
ENDBRANCH  31  44
ENDBRANCH  28  29
ENDBRANCH  17  28
ENDBRANCH  15  16
ENDBRANCH  14  15
ENDBRANCH   4  14
TORSDOF 6
ENDMDL
MODEL      141
REMARK 921   NORMALIZED FREE ENERGY PREDICTED BY IDOCK:   -3.86 KCAL/MOL
REMARK 922        TOTAL FREE ENERGY PREDICTED BY IDOCK:   -6.69 KCAL/MOL
REMARK 923 INTER-LIGAND FREE ENERGY PREDICTED BY IDOCK:   -8.14 KCAL/MOL
REMARK 924 INTRA-LIGAND FREE ENERGY PREDICTED BY IDOCK:    1.46 KCAL/MOL
REMARK 927      BINDING AFFINITY PREDICTED BY RF-SCORE:    0.00 PKD
ROOT
HETATM    1  C   UNL     1      -9.997  13.783  67.093  1.00  0.00    -0.243 C  
HETATM    2  C   UNL     1     -10.345  12.463  66.396  1.00  0.00    -0.234 C  
HETATM    3  O   UNL     1      -9.088  11.800  66.255  1.00  0.00    -0.214 OA 
HETATM    4  C   UNL     1      -8.924  10.762  65.300  1.00  0.00    -0.194 C  
HETATM    5  H   UNL     1     -12.749  11.875  63.211  1.00  0.00     0.000 HD 
HETATM    6  C   UNL     1      -9.677  10.996  63.982  1.00  0.00    -0.288 C  
HETATM    7  C   UNL     1     -11.125  11.427  64.261  1.00  0.00    -0.285 C  
HETATM    8  O   UNL     1     -12.423  13.216  65.372  1.00  0.00    -0.456 OA 
HETATM    9  O   UNL     1      -9.018  12.014  63.204  1.00  0.00    -0.579 OA 
HETATM   10  H   UNL     1      -9.484  12.160  62.390  1.00  0.00     0.000 HD 
HETATM   11  H   UNL     1     -12.892  13.377  64.562  1.00  0.00     0.000 HD 
HETATM   12  O   UNL     1     -11.855  11.609  63.039  1.00  0.00    -0.165 OA 
HETATM   13  C   UNL     1     -11.105  12.725  65.082  1.00  0.00    -0.291 C  
ENDROOT
BRANCH   4  14
HETATM   14  O   UNL     1      -9.205   9.444  65.776  1.00  0.00    -0.184 OA 
BRANCH  14  15
HETATM   15  C   UNL     1      -8.332   8.443  65.223  1.00  0.00    -0.160 C  
BRANCH  15  16
HETATM   16  C   UNL     1      -7.117   8.287  66.145  1.00  0.00    -0.065 C  
HETATM   17  C   UNL     1      -8.026   8.154  68.436  1.00  0.00    -0.123 C  
HETATM   18  O   UNL     1      -7.337   8.924  67.427  1.00  0.00    -0.080 OA 
HETATM   19  H   UNL     1      -8.412   5.003  66.106  1.00  0.00     0.000 HD 
HETATM   20  C   UNL     1      -7.206   6.856  68.624  1.00  0.00    -0.088 C  
HETATM   21  H   UNL     1      -4.803   6.013  66.292  1.00  0.00     0.000 HD 
HETATM   22  O   UNL     1      -5.843   7.165  69.010  1.00  0.00    -0.018 OA 
HETATM   23  C   UNL     1      -7.169   6.027  67.329  1.00  0.00    -0.076 C  
HETATM   24  H   UNL     1      -5.339   6.368  69.126  1.00  0.00     0.000 HD 
HETATM   25  O   UNL     1      -5.138   6.901  66.270  1.00  0.00    -0.020 OA 
HETATM   26  O   UNL     1      -8.435   5.516  66.906  1.00  0.00    -0.111 OA 
HETATM   27  C   UNL     1      -6.573   6.845  66.181  1.00  0.00    -0.052 C  
BRANCH  17  28
HETATM   28  O   UNL     1      -9.417   8.000  68.113  1.00  0.00    -0.142 OA 
BRANCH  28  29
HETATM   29  C   UNL     1     -10.345   8.527  69.012  1.00  0.00    -0.216 C  
HETATM   30  O   UNL     1     -11.430   8.503  71.203  1.00  0.00    -0.263 OA 
HETATM   31  C   UNL     1     -10.726   7.906  70.155  1.00  0.00    -0.244 C  
HETATM   32  C   UNL     1     -11.914   9.776  71.035  1.00  0.00    -0.352 A  
HETATM   33  O   UNL     1      -9.993  10.715  68.263  1.00  0.00    -0.151 OA 
HETATM   34  H   UNL     1     -11.824  11.862  67.671  1.00  0.00     0.000 HD 
HETATM   35  C   UNL     1     -12.604  10.396  72.075  1.00  0.00    -0.265 A  
HETATM   36  C   UNL     1     -10.682   9.964  68.944  1.00  0.00    -0.221 C  
HETATM   37  C   UNL     1     -13.159  11.665  71.868  1.00  0.00    -0.385 A  
HETATM   38  C   UNL     1     -11.723  10.474  69.826  1.00  0.00    -0.354 A  
HETATM   39  O   UNL     1     -12.321  12.269  68.372  1.00  0.00    -0.173 OA 
HETATM   40  C   UNL     1     -13.096  12.289  70.626  1.00  0.00     0.301 A  
HETATM   41  O   UNL     1     -13.787  12.353  72.865  1.00  0.00    -0.527 OA 
HETATM   42  H   UNL     1     -14.164  13.214  72.725  1.00  0.00     0.000 HD 
HETATM   43  C   UNL     1     -12.371  11.695  69.604  1.00  0.00    -0.108 A  
BRANCH  31  44
HETATM   44  C   UNL     1     -10.294   6.522  70.400  1.00  0.00    -0.237 A  
HETATM   45  O   UNL     1      -9.778   2.476  71.163  1.00  0.00    -0.153 OA 
HETATM   46  H   UNL     1      -9.336   3.324  73.334  1.00  0.00     0.000 HD 
HETATM   47  C   UNL     1     -10.410   5.578  69.361  1.00  0.00    -0.348 A  
HETATM   48  H   UNL     1      -9.886   1.843  70.464  1.00  0.00     0.000 HD 
HETATM   49  O   UNL     1      -9.455   4.252  73.171  1.00  0.00    -0.112 OA 
HETATM   50  C   UNL     1      -9.899   3.812  70.898  1.00  0.00    -0.122 A  
HETATM   51  C   UNL     1      -9.740   4.741  71.924  1.00  0.00    -0.163 A  
HETATM   52  C   UNL     1      -9.915   6.101  71.684  1.00  0.00    -0.203 A  
HETATM   53  C   UNL     1     -10.215   4.218  69.611  1.00  0.00     0.217 A  
ENDBRANCH  31  44
ENDBRANCH  28  29
ENDBRANCH  17  28
ENDBRANCH  15  16
ENDBRANCH  14  15
ENDBRANCH   4  14
TORSDOF 6
ENDMDL
MODEL      142
REMARK 921   NORMALIZED FREE ENERGY PREDICTED BY IDOCK:   -3.85 KCAL/MOL
REMARK 922        TOTAL FREE ENERGY PREDICTED BY IDOCK:   -6.68 KCAL/MOL
REMARK 923 INTER-LIGAND FREE ENERGY PREDICTED BY IDOCK:   -7.48 KCAL/MOL
REMARK 924 INTRA-LIGAND FREE ENERGY PREDICTED BY IDOCK:    0.80 KCAL/MOL
REMARK 927      BINDING AFFINITY PREDICTED BY RF-SCORE:    0.00 PKD
ROOT
HETATM    1  C   UNL     1     -11.988  10.954  69.901  1.00  0.00    -0.430 C  
HETATM    2  C   UNL     1     -10.856  10.436  69.009  1.00  0.00    -0.234 C  
HETATM    3  O   UNL     1     -11.529   9.842  67.898  1.00  0.00    -0.123 OA 
HETATM    4  C   UNL     1     -10.865   8.895  67.075  1.00  0.00     0.031 C  
HETATM    5  H   UNL     1      -7.570   8.360  70.091  1.00  0.00     0.000 HD 
HETATM    6  C   UNL     1      -9.929   7.947  67.839  1.00  0.00    -0.178 C  
HETATM    7  C   UNL     1      -9.034   8.739  68.803  1.00  0.00    -0.138 C  
HETATM    8  O   UNL     1      -9.171  10.248  70.759  1.00  0.00    -0.113 OA 
HETATM    9  O   UNL     1     -10.695   6.980  68.583  1.00  0.00    -0.242 OA 
HETATM   10  H   UNL     1     -10.116   6.394  69.056  1.00  0.00     0.000 HD 
HETATM   11  H   UNL     1      -8.599   9.667  71.246  1.00  0.00     0.000 HD 
HETATM   12  O   UNL     1      -8.123   7.871  69.494  1.00  0.00    -0.116 OA 
HETATM   13  C   UNL     1      -9.928   9.493  69.799  1.00  0.00    -0.213 C  
ENDROOT
BRANCH   4  14
HETATM   14  O   UNL     1     -10.170   9.441  65.952  1.00  0.00    -0.259 OA 
BRANCH  14  15
HETATM   15  C   UNL     1      -9.835  10.831  66.113  1.00  0.00    -0.221 C  
BRANCH  15  16
HETATM   16  C   UNL     1     -11.133  11.649  66.133  1.00  0.00    -0.280 C  
HETATM   17  C   UNL     1     -10.449  13.978  66.584  1.00  0.00    -0.272 C  
HETATM   18  O   UNL     1     -11.049  12.756  67.065  1.00  0.00    -0.260 OA 
HETATM   19  H   UNL     1      -9.786  12.518  62.988  1.00  0.00     0.000 HD 
HETATM   20  C   UNL     1     -11.263  14.397  65.337  1.00  0.00    -0.335 C  
HETATM   21  H   UNL     1     -13.412  12.128  63.870  1.00  0.00     0.000 HD 
HETATM   22  O   UNL     1     -12.662  14.572  65.675  1.00  0.00    -0.322 OA 
HETATM   23  C   UNL     1     -11.159  13.341  64.223  1.00  0.00    -0.388 C  
HETATM   24  H   UNL     1     -13.161  14.830  64.909  1.00  0.00     0.000 HD 
HETATM   25  O   UNL     1     -13.091  11.923  64.740  1.00  0.00    -0.207 OA 
HETATM   26  O   UNL     1      -9.850  13.170  63.676  1.00  0.00     0.073 OA 
HETATM   27  C   UNL     1     -11.653  11.981  64.721  1.00  0.00    -0.281 C  
BRANCH  17  28
HETATM   28  O   UNL     1      -9.031  13.829  66.413  1.00  0.00    -0.132 OA 
BRANCH  28  29
HETATM   29  C   UNL     1      -8.226  14.040  67.532  1.00  0.00    -0.186 C  
HETATM   30  O   UNL     1      -7.547  15.424  69.431  1.00  0.00    -0.197 OA 
HETATM   31  C   UNL     1      -8.114  15.232  68.169  1.00  0.00    -0.136 C  
HETATM   32  C   UNL     1      -6.914  14.369  70.039  1.00  0.00     0.033 A  
HETATM   33  O   UNL     1      -8.217  11.769  68.091  1.00  0.00    -0.138 OA 
HETATM   34  H   UNL     1      -6.204  10.835  68.401  1.00  0.00     0.000 HD 
HETATM   35  C   UNL     1      -6.356  14.535  71.306  1.00  0.00     0.267 A  
HETATM   36  C   UNL     1      -7.738  12.876  68.301  1.00  0.00    -0.137 C  
HETATM   37  C   UNL     1      -5.648  13.476  71.887  1.00  0.00    -0.032 A  
HETATM   38  C   UNL     1      -6.820  13.113  69.408  1.00  0.00     0.032 A  
HETATM   39  O   UNL     1      -5.799  10.962  69.251  1.00  0.00    -0.041 OA 
HETATM   40  C   UNL     1      -5.430  12.287  71.198  1.00  0.00    -0.056 A  
HETATM   41  O   UNL     1      -5.137  13.552  73.150  1.00  0.00    -0.295 OA 
HETATM   42  H   UNL     1      -4.656  12.833  73.544  1.00  0.00     0.000 HD 
HETATM   43  C   UNL     1      -6.022  12.102  69.958  1.00  0.00    -0.156 A  
BRANCH  31  44
HETATM   44  C   UNL     1      -8.721  16.428  67.567  1.00  0.00    -0.188 A  
HETATM   45  O   UNL     1      -9.828  20.140  66.078  1.00  0.00    -0.540 OA 
HETATM   46  H   UNL     1     -11.020  20.191  68.129  1.00  0.00     0.000 HD 
HETATM   47  C   UNL     1      -8.282  16.848  66.296  1.00  0.00    -0.344 A  
HETATM   48  H   UNL     1      -9.505  20.429  65.233  1.00  0.00     0.000 HD 
HETATM   49  O   UNL     1     -10.770  19.345  68.481  1.00  0.00    -0.131 OA 
HETATM   50  C   UNL     1      -9.502  18.897  66.544  1.00  0.00    -0.340 A  
HETATM   51  C   UNL     1      -9.976  18.473  67.784  1.00  0.00    -0.343 A  
HETATM   52  C   UNL     1      -9.609  17.232  68.299  1.00  0.00    -0.288 A  
HETATM   53  C   UNL     1      -8.671  18.088  65.784  1.00  0.00     0.369 A  
ENDBRANCH  31  44
ENDBRANCH  28  29
ENDBRANCH  17  28
ENDBRANCH  15  16
ENDBRANCH  14  15
ENDBRANCH   4  14
TORSDOF 6
ENDMDL
MODEL      143
REMARK 921   NORMALIZED FREE ENERGY PREDICTED BY IDOCK:   -3.82 KCAL/MOL
REMARK 922        TOTAL FREE ENERGY PREDICTED BY IDOCK:   -6.63 KCAL/MOL
REMARK 923 INTER-LIGAND FREE ENERGY PREDICTED BY IDOCK:   -5.54 KCAL/MOL
REMARK 924 INTRA-LIGAND FREE ENERGY PREDICTED BY IDOCK:   -1.09 KCAL/MOL
REMARK 927      BINDING AFFINITY PREDICTED BY RF-SCORE:    0.00 PKD
ROOT
HETATM    1  C   UNL     1     -13.135   6.616  71.825  1.00  0.00    -0.147 C  
HETATM    2  C   UNL     1     -12.013   7.637  71.617  1.00  0.00    -0.299 C  
HETATM    3  O   UNL     1     -12.644   8.713  70.921  1.00  0.00    -0.133 OA 
HETATM    4  C   UNL     1     -11.869   9.648  70.184  1.00  0.00    -0.031 C  
HETATM    5  H   UNL     1      -8.245   6.986  70.332  1.00  0.00     0.000 HD 
HETATM    6  C   UNL     1     -10.666   9.030  69.456  1.00  0.00    -0.206 C  
HETATM    7  C   UNL     1      -9.882   8.108  70.401  1.00  0.00    -0.186 C  
HETATM    8  O   UNL     1     -10.159   6.065  71.768  1.00  0.00    -0.183 OA 
HETATM    9  O   UNL     1     -11.109   8.275  68.311  1.00  0.00    -0.429 OA 
HETATM   10  H   UNL     1     -10.365   7.893  67.861  1.00  0.00     0.000 HD 
HETATM   11  H   UNL     1      -9.421   5.667  71.321  1.00  0.00     0.000 HD 
HETATM   12  O   UNL     1      -8.730   7.556  69.747  1.00  0.00    -0.139 OA 
HETATM   13  C   UNL     1     -10.817   6.992  70.891  1.00  0.00    -0.241 C  
ENDROOT
BRANCH   4  14
HETATM   14  O   UNL     1     -11.438  10.797  70.917  1.00  0.00    -0.260 OA 
BRANCH  14  15
HETATM   15  C   UNL     1     -11.691  12.036  70.231  1.00  0.00    -0.179 C  
BRANCH  15  16
HETATM   16  C   UNL     1     -12.101  13.093  71.263  1.00  0.00     0.235 C  
HETATM   17  C   UNL     1     -10.798  15.114  70.704  1.00  0.00    -0.179 C  
HETATM   18  O   UNL     1     -11.001  13.983  71.577  1.00  0.00     1.512 OA 
HETATM   19  H   UNL     1     -13.845  14.180  68.393  1.00  0.00     0.000 HD 
HETATM   20  C   UNL     1     -12.130  15.901  70.699  1.00  0.00    -0.333 C  
HETATM   21  H   UNL     1     -14.982  14.419  71.960  1.00  0.00     0.000 HD 
HETATM   22  O   UNL     1     -12.488  16.308  72.044  1.00  0.00    -0.533 OA 
HETATM   23  C   UNL     1     -13.276  15.052  70.126  1.00  0.00     0.130 C  
HETATM   24  H   UNL     1     -13.306  16.791  72.041  1.00  0.00     0.000 HD 
HETATM   25  O   UNL     1     -14.151  14.007  72.164  1.00  0.00    -0.483 OA 
HETATM   26  O   UNL     1     -13.136  14.704  68.747  1.00  0.00     1.049 OA 
HETATM   27  C   UNL     1     -13.449  13.762  70.932  1.00  0.00     0.072 C  
BRANCH  17  28
HETATM   28  O   UNL     1     -10.285  14.701  69.428  1.00  0.00    -0.185 OA 
BRANCH  28  29
HETATM   29  C   UNL     1      -9.415  15.574  68.775  1.00  0.00    -0.210 C  
HETATM   30  O   UNL     1      -7.461  15.959  67.355  1.00  0.00    -0.150 OA 
HETATM   31  C   UNL     1      -8.227  15.198  68.241  1.00  0.00    -0.144 C  
HETATM   32  C   UNL     1      -7.842  17.251  67.094  1.00  0.00    -0.198 A  
HETATM   33  O   UNL     1     -11.126  17.094  68.293  1.00  0.00    -0.310 OA 
HETATM   34  H   UNL     1     -10.762  19.218  68.906  1.00  0.00     0.000 HD 
HETATM   35  C   UNL     1      -7.102  18.023  66.199  1.00  0.00    -0.330 A  
HETATM   36  C   UNL     1      -9.920  16.881  68.306  1.00  0.00    -0.282 C  
HETATM   37  C   UNL     1      -7.453  19.363  65.996  1.00  0.00    -0.289 A  
HETATM   38  C   UNL     1      -8.974  17.817  67.712  1.00  0.00    -0.249 A  
HETATM   39  O   UNL     1     -10.236  19.750  68.319  1.00  0.00    -0.425 OA 
HETATM   40  C   UNL     1      -8.480  19.959  66.720  1.00  0.00    -0.377 A  
HETATM   41  O   UNL     1      -6.811  20.151  65.085  1.00  0.00    -0.306 OA 
HETATM   42  H   UNL     1      -7.050  21.060  64.948  1.00  0.00     0.000 HD 
HETATM   43  C   UNL     1      -9.247  19.184  67.576  1.00  0.00    -0.296 A  
BRANCH  31  44
HETATM   44  C   UNL     1      -7.715  13.845  68.506  1.00  0.00    -0.139 A  
HETATM   45  O   UNL     1      -5.763  10.193  68.771  1.00  0.00    -0.038 OA 
HETATM   46  H   UNL     1      -7.509   9.575  67.288  1.00  0.00     0.000 HD 
HETATM   47  C   UNL     1      -6.594  13.693  69.346  1.00  0.00    -0.090 A  
HETATM   48  H   UNL     1      -4.991  10.105  69.316  1.00  0.00     0.000 HD 
HETATM   49  O   UNL     1      -7.962  10.408  67.218  1.00  0.00    -0.109 OA 
HETATM   50  C   UNL     1      -6.433  11.383  68.724  1.00  0.00    -0.056 A  
HETATM   51  C   UNL     1      -7.567  11.512  67.925  1.00  0.00    -0.113 A  
HETATM   52  C   UNL     1      -8.230  12.733  67.822  1.00  0.00    -0.176 A  
HETATM   53  C   UNL     1      -5.949  12.459  69.453  1.00  0.00    -0.100 A  
ENDBRANCH  31  44
ENDBRANCH  28  29
ENDBRANCH  17  28
ENDBRANCH  15  16
ENDBRANCH  14  15
ENDBRANCH   4  14
TORSDOF 6
ENDMDL
MODEL      144
REMARK 921   NORMALIZED FREE ENERGY PREDICTED BY IDOCK:   -3.80 KCAL/MOL
REMARK 922        TOTAL FREE ENERGY PREDICTED BY IDOCK:   -6.61 KCAL/MOL
REMARK 923 INTER-LIGAND FREE ENERGY PREDICTED BY IDOCK:   -7.64 KCAL/MOL
REMARK 924 INTRA-LIGAND FREE ENERGY PREDICTED BY IDOCK:    1.04 KCAL/MOL
REMARK 927      BINDING AFFINITY PREDICTED BY RF-SCORE:    0.00 PKD
ROOT
HETATM    1  C   UNL     1     -11.101   4.556  65.862  1.00  0.00     0.578 C  
HETATM    2  C   UNL     1      -9.903   5.418  66.272  1.00  0.00    -0.164 C  
HETATM    3  O   UNL     1     -10.440   6.736  66.380  1.00  0.00    -0.075 OA 
HETATM    4  C   UNL     1      -9.586   7.870  66.326  1.00  0.00    -0.130 C  
HETATM    5  H   UNL     1      -6.174   5.408  64.733  1.00  0.00     0.000 HD 
HETATM    6  C   UNL     1      -8.421   7.731  65.334  1.00  0.00    -0.110 C  
HETATM    7  C   UNL     1      -7.723   6.375  65.513  1.00  0.00    -0.096 C  
HETATM    8  O   UNL     1      -8.173   3.945  65.391  1.00  0.00    -0.100 OA 
HETATM    9  O   UNL     1      -8.901   7.846  63.981  1.00  0.00    -0.216 OA 
HETATM   10  H   UNL     1      -8.181   7.760  63.367  1.00  0.00     0.000 HD 
HETATM   11  H   UNL     1      -7.461   3.845  64.771  1.00  0.00     0.000 HD 
HETATM   12  O   UNL     1      -6.605   6.247  64.622  1.00  0.00    -0.036 OA 
HETATM   13  C   UNL     1      -8.747   5.256  65.266  1.00  0.00    -0.151 C  
ENDROOT
BRANCH   4  14
HETATM   14  O   UNL     1      -9.082   8.316  67.587  1.00  0.00    -0.131 OA 
BRANCH  14  15
HETATM   15  C   UNL     1      -8.953   9.746  67.672  1.00  0.00    -0.128 C  
BRANCH  15  16
HETATM   16  C   UNL     1      -7.620  10.158  67.035  1.00  0.00    -0.092 C  
HETATM   17  C   UNL     1      -7.592  12.626  67.075  1.00  0.00     0.013 C  
HETATM   18  O   UNL     1      -7.740  11.409  66.313  1.00  0.00    -0.108 OA 
HETATM   19  H   UNL     1      -6.978  10.713  70.461  1.00  0.00     0.000 HD 
HETATM   20  C   UNL     1      -6.208  12.541  67.761  1.00  0.00    -0.119 C  
HETATM   21  H   UNL     1      -4.547   9.517  67.866  1.00  0.00     0.000 HD 
HETATM   22  O   UNL     1      -5.158  12.385  66.774  1.00  0.00    -0.333 OA 
HETATM   23  C   UNL     1      -6.141  11.354  68.736  1.00  0.00    -0.048 C  
HETATM   24  H   UNL     1      -4.308  12.334  67.195  1.00  0.00     0.000 HD 
HETATM   25  O   UNL     1      -5.280   9.589  67.267  1.00  0.00    -0.036 OA 
HETATM   26  O   UNL     1      -7.020  11.446  69.859  1.00  0.00    -0.057 OA 
HETATM   27  C   UNL     1      -6.430  10.040  68.006  1.00  0.00    -0.058 C  
BRANCH  17  28
HETATM   28  O   UNL     1      -8.726  12.846  67.928  1.00  0.00    -0.166 OA 
BRANCH  28  29
HETATM   29  C   UNL     1      -9.319  14.108  67.892  1.00  0.00    -0.204 C  
HETATM   30  O   UNL     1     -10.954  15.713  68.749  1.00  0.00    -0.250 OA 
HETATM   31  C   UNL     1     -10.473  14.419  68.532  1.00  0.00    -0.254 C  
HETATM   32  C   UNL     1     -10.306  16.767  68.157  1.00  0.00    -0.318 A  
HETATM   33  O   UNL     1      -7.304  15.161  67.345  1.00  0.00    -0.185 OA 
HETATM   34  H   UNL     1      -7.343  16.494  65.544  1.00  0.00     0.000 HD 
HETATM   35  C   UNL     1     -10.760  18.067  68.374  1.00  0.00    -0.132 A  
HETATM   36  C   UNL     1      -8.519  15.271  67.454  1.00  0.00    -0.179 C  
HETATM   37  C   UNL     1     -10.139  19.130  67.706  1.00  0.00    -0.382 A  
HETATM   38  C   UNL     1      -9.182  16.562  67.332  1.00  0.00    -0.220 A  
HETATM   39  O   UNL     1      -7.674  17.376  65.671  1.00  0.00    -0.452 OA 
HETATM   40  C   UNL     1      -9.126  18.909  66.778  1.00  0.00    -0.323 A  
HETATM   41  O   UNL     1     -10.491  20.430  67.927  1.00  0.00    -0.255 OA 
HETATM   42  H   UNL     1     -10.070  21.151  67.473  1.00  0.00     0.000 HD 
HETATM   43  C   UNL     1      -8.642  17.623  66.595  1.00  0.00    -0.257 A  
BRANCH  31  44
HETATM   44  C   UNL     1     -11.261  13.346  69.157  1.00  0.00    -0.300 A  
HETATM   45  O   UNL     1     -12.957  10.306  71.416  1.00  0.00    -0.373 OA 
HETATM   46  H   UNL     1     -11.923   8.989  69.735  1.00  0.00     0.000 HD 
HETATM   47  C   UNL     1     -12.051  13.648  70.284  1.00  0.00    -0.427 A  
HETATM   48  H   UNL     1     -13.465  10.516  72.190  1.00  0.00     0.000 HD 
HETATM   49  O   UNL     1     -11.528   9.677  69.213  1.00  0.00    -0.041 OA 
HETATM   50  C   UNL     1     -12.441  11.311  70.646  1.00  0.00    -0.348 A  
HETATM   51  C   UNL     1     -11.698  11.003  69.509  1.00  0.00    -0.329 A  
HETATM   52  C   UNL     1     -11.118  12.012  68.743  1.00  0.00    -0.298 A  
HETATM   53  C   UNL     1     -12.640  12.628  71.032  1.00  0.00    -0.354 A  
ENDBRANCH  31  44
ENDBRANCH  28  29
ENDBRANCH  17  28
ENDBRANCH  15  16
ENDBRANCH  14  15
ENDBRANCH   4  14
TORSDOF 6
ENDMDL
MODEL      145
REMARK 921   NORMALIZED FREE ENERGY PREDICTED BY IDOCK:   -3.71 KCAL/MOL
REMARK 922        TOTAL FREE ENERGY PREDICTED BY IDOCK:   -6.49 KCAL/MOL
REMARK 923 INTER-LIGAND FREE ENERGY PREDICTED BY IDOCK:   -7.42 KCAL/MOL
REMARK 924 INTRA-LIGAND FREE ENERGY PREDICTED BY IDOCK:    0.93 KCAL/MOL
REMARK 927      BINDING AFFINITY PREDICTED BY RF-SCORE:    0.00 PKD
ROOT
HETATM    1  C   UNL     1     -13.195  10.957  71.364  1.00  0.00    -0.355 C  
HETATM    2  C   UNL     1     -11.885  10.686  70.619  1.00  0.00    -0.363 C  
HETATM    3  O   UNL     1     -11.701  11.843  69.802  1.00  0.00    -0.308 OA 
HETATM    4  C   UNL     1     -10.846  11.797  68.669  1.00  0.00    -0.220 C  
HETATM    5  H   UNL     1     -10.720   7.301  68.758  1.00  0.00     0.000 HD 
HETATM    6  C   UNL     1     -10.895  10.469  67.899  1.00  0.00    -0.282 C  
HETATM    7  C   UNL     1     -10.786   9.283  68.868  1.00  0.00    -0.156 C  
HETATM    8  O   UNL     1     -11.948   8.257  70.796  1.00  0.00    -0.442 OA 
HETATM    9  O   UNL     1     -12.125  10.368  67.155  1.00  0.00     0.649 OA 
HETATM   10  H   UNL     1     -12.155   9.546  66.680  1.00  0.00     0.000 HD 
HETATM   11  H   UNL     1     -11.992   7.431  70.329  1.00  0.00     0.000 HD 
HETATM   12  O   UNL     1     -10.787   8.035  68.159  1.00  0.00    -0.079 OA 
HETATM   13  C   UNL     1     -11.957   9.347  69.860  1.00  0.00     0.351 C  
ENDROOT
BRANCH   4  14
HETATM   14  O   UNL     1      -9.483  12.149  68.917  1.00  0.00    -0.008 OA 
BRANCH  14  15
HETATM   15  C   UNL     1      -8.704  11.063  69.447  1.00  0.00     0.220 C  
BRANCH  15  16
HETATM   16  C   UNL     1      -7.558  10.760  68.472  1.00  0.00    -0.104 C  
HETATM   17  C   UNL     1      -7.407  12.724  66.986  1.00  0.00     0.099 C  
HETATM   18  O   UNL     1      -7.800  11.348  67.170  1.00  0.00    -0.140 OA 
HETATM   19  H   UNL     1      -6.043  13.077  70.662  1.00  0.00     0.000 HD 
HETATM   20  C   UNL     1      -5.900  12.794  67.326  1.00  0.00    -0.013 C  
HETATM   21  H   UNL     1      -4.408  10.152  68.974  1.00  0.00     0.000 HD 
HETATM   22  O   UNL     1      -5.143  11.893  66.479  1.00  0.00    -0.305 OA 
HETATM   23  C   UNL     1      -5.642  12.414  68.794  1.00  0.00    -0.054 C  
HETATM   24  H   UNL     1      -4.217  11.936  66.689  1.00  0.00     0.000 HD 
HETATM   25  O   UNL     1      -5.266   9.999  68.595  1.00  0.00    -0.036 OA 
HETATM   26  O   UNL     1      -6.202  13.311  69.755  1.00  0.00    -0.123 OA 
HETATM   27  C   UNL     1      -6.168  11.006  69.088  1.00  0.00    -0.049 C  
BRANCH  17  28
HETATM   28  O   UNL     1      -8.276  13.613  67.705  1.00  0.00    -0.151 OA 
BRANCH  28  29
HETATM   29  C   UNL     1      -8.301  14.949  67.302  1.00  0.00    -0.210 C  
HETATM   30  O   UNL     1      -9.462  16.831  66.258  1.00  0.00    -0.268 OA 
HETATM   31  C   UNL     1      -9.236  15.469  66.469  1.00  0.00    -0.293 C  
HETATM   32  C   UNL     1      -8.595  17.739  66.811  1.00  0.00    -0.252 A  
HETATM   33  O   UNL     1      -7.048  15.645  69.150  1.00  0.00    -0.142 OA 
HETATM   34  H   UNL     1      -5.227  16.872  68.703  1.00  0.00     0.000 HD 
HETATM   35  C   UNL     1      -8.813  19.104  66.626  1.00  0.00    -0.340 A  
HETATM   36  C   UNL     1      -7.522  15.948  68.062  1.00  0.00    -0.126 C  
HETATM   37  C   UNL     1      -7.881  20.020  67.129  1.00  0.00    -0.304 A  
HETATM   38  C   UNL     1      -7.485  17.319  67.569  1.00  0.00    -0.186 A  
HETATM   39  O   UNL     1      -5.363  17.799  68.549  1.00  0.00    -0.148 OA 
HETATM   40  C   UNL     1      -6.710  19.596  67.749  1.00  0.00    -0.272 A  
HETATM   41  O   UNL     1      -8.071  21.369  67.041  1.00  0.00    -0.585 OA 
HETATM   42  H   UNL     1      -7.439  21.991  67.383  1.00  0.00     0.000 HD 
HETATM   43  C   UNL     1      -6.513  18.242  67.975  1.00  0.00    -0.193 A  
BRANCH  31  44
HETATM   44  C   UNL     1     -10.180  14.566  65.794  1.00  0.00    -0.354 A  
HETATM   45  O   UNL     1     -12.806  11.627  64.495  1.00  0.00    -0.079 OA 
HETATM   46  H   UNL     1     -10.831  10.860  63.429  1.00  0.00     0.000 HD 
HETATM   47  C   UNL     1     -11.544  14.621  66.143  1.00  0.00    -0.332 A  
HETATM   48  H   UNL     1     -13.718  11.655  64.758  1.00  0.00     0.000 HD 
HETATM   49  O   UNL     1     -10.220  11.525  63.723  1.00  0.00    -0.305 OA 
HETATM   50  C   UNL     1     -11.954  12.624  64.883  1.00  0.00    -0.406 A  
HETATM   51  C   UNL     1     -10.616  12.583  64.497  1.00  0.00    -0.336 A  
HETATM   52  C   UNL     1      -9.722  13.560  64.929  1.00  0.00     0.120 A  
HETATM   53  C   UNL     1     -12.433  13.645  65.689  1.00  0.00    -0.540 A  
ENDBRANCH  31  44
ENDBRANCH  28  29
ENDBRANCH  17  28
ENDBRANCH  15  16
ENDBRANCH  14  15
ENDBRANCH   4  14
TORSDOF 6
ENDMDL
MODEL      146
REMARK 921   NORMALIZED FREE ENERGY PREDICTED BY IDOCK:   -3.61 KCAL/MOL
REMARK 922        TOTAL FREE ENERGY PREDICTED BY IDOCK:   -6.35 KCAL/MOL
REMARK 923 INTER-LIGAND FREE ENERGY PREDICTED BY IDOCK:   -8.39 KCAL/MOL
REMARK 924 INTRA-LIGAND FREE ENERGY PREDICTED BY IDOCK:    2.03 KCAL/MOL
REMARK 927      BINDING AFFINITY PREDICTED BY RF-SCORE:    0.00 PKD
ROOT
HETATM    1  C   UNL     1     -10.051  18.008  67.365  1.00  0.00    -0.354 C  
HETATM    2  C   UNL     1      -8.886  17.013  67.363  1.00  0.00    -0.203 C  
HETATM    3  O   UNL     1      -8.940  16.409  68.655  1.00  0.00    -0.213 OA 
HETATM    4  C   UNL     1      -7.800  15.754  69.193  1.00  0.00    -0.227 C  
HETATM    5  H   UNL     1      -5.098  17.601  66.107  1.00  0.00     0.000 HD 
HETATM    6  C   UNL     1      -6.467  16.441  68.861  1.00  0.00    -0.152 C  
HETATM    7  C   UNL     1      -6.398  16.784  67.366  1.00  0.00    -0.168 C  
HETATM    8  O   UNL     1      -7.565  18.118  65.639  1.00  0.00    -0.538 OA 
HETATM    9  O   UNL     1      -6.320  17.648  69.635  1.00  0.00    -0.244 OA 
HETATM   10  H   UNL     1      -5.496  18.073  69.430  1.00  0.00     0.000 HD 
HETATM   11  H   UNL     1      -6.749  18.557  65.428  1.00  0.00     0.000 HD 
HETATM   12  O   UNL     1      -5.140  17.389  67.031  1.00  0.00    -0.120 OA 
HETATM   13  C   UNL     1      -7.563  17.725  67.021  1.00  0.00    -0.204 C  
ENDROOT
BRANCH   4  14
HETATM   14  O   UNL     1      -7.699  14.360  68.897  1.00  0.00    -0.136 OA 
BRANCH  14  15
HETATM   15  C   UNL     1      -8.950  13.661  69.022  1.00  0.00     0.333 C  
BRANCH  15  16
HETATM   16  C   UNL     1      -9.990  14.353  68.132  1.00  0.00    -0.223 C  
HETATM   17  C   UNL     1     -11.027  12.556  66.794  1.00  0.00    -0.265 C  
HETATM   18  O   UNL     1     -10.126  13.682  66.854  1.00  0.00    -0.251 OA 
HETATM   19  H   UNL     1     -12.034  12.854  70.588  1.00  0.00     0.000 HD 
HETATM   20  C   UNL     1     -12.404  13.079  67.266  1.00  0.00     0.078 C  
HETATM   21  H   UNL     1     -12.605  16.135  68.859  1.00  0.00     0.000 HD 
HETATM   22  O   UNL     1     -12.847  14.178  66.429  1.00  0.00    -0.490 OA 
HETATM   23  C   UNL     1     -12.345  13.569  68.722  1.00  0.00     0.048 C  
HETATM   24  H   UNL     1     -13.693  14.498  66.719  1.00  0.00     0.000 HD 
HETATM   25  O   UNL     1     -11.798  15.937  68.400  1.00  0.00    -0.322 OA 
HETATM   26  O   UNL     1     -12.070  12.552  69.688  1.00  0.00    -0.279 OA 
HETATM   27  C   UNL     1     -11.298  14.675  68.878  1.00  0.00    -0.283 C  
BRANCH  17  28
HETATM   28  O   UNL     1     -10.490  11.422  67.492  1.00  0.00    -0.190 OA 
BRANCH  28  29
HETATM   29  C   UNL     1      -9.638  10.577  66.781  1.00  0.00    -0.170 C  
HETATM   30  O   UNL     1      -8.267   8.555  66.659  1.00  0.00    -0.105 OA 
HETATM   31  C   UNL     1      -8.910   9.584  67.351  1.00  0.00    -0.128 C  
HETATM   32  C   UNL     1      -8.229   8.602  65.289  1.00  0.00    -0.147 A  
HETATM   33  O   UNL     1     -10.756  10.966  64.763  1.00  0.00    -0.292 OA 
HETATM   34  H   UNL     1      -9.481  11.608  63.036  1.00  0.00     0.000 HD 
HETATM   35  C   UNL     1      -7.606   7.576  64.579  1.00  0.00    -0.110 A  
HETATM   36  C   UNL     1      -9.772  10.484  65.312  1.00  0.00    -0.270 C  
HETATM   37  C   UNL     1      -7.506   7.669  63.186  1.00  0.00    -0.112 A  
HETATM   38  C   UNL     1      -8.812   9.670  64.579  1.00  0.00    -0.257 A  
HETATM   39  O   UNL     1      -9.029  10.922  62.559  1.00  0.00    -0.271 OA 
HETATM   40  C   UNL     1      -7.952   8.796  62.502  1.00  0.00    -0.147 A  
HETATM   41  O   UNL     1      -6.969   6.669  62.428  1.00  0.00    -0.045 OA 
HETATM   42  H   UNL     1      -6.901   6.732  61.483  1.00  0.00     0.000 HD 
HETATM   43  C   UNL     1      -8.612   9.796  63.199  1.00  0.00    -0.198 A  
BRANCH  31  44
HETATM   44  C   UNL     1      -8.854   9.484  68.816  1.00  0.00    -0.132 A  
HETATM   45  O   UNL     1      -8.784   8.493  72.845  1.00  0.00    -0.337 OA 
HETATM   46  H   UNL     1     -11.046   9.189  72.672  1.00  0.00     0.000 HD 
HETATM   47  C   UNL     1      -7.661   9.046  69.424  1.00  0.00    -0.078 A  
HETATM   48  H   UNL     1      -7.984   8.171  73.242  1.00  0.00     0.000 HD 
HETATM   49  O   UNL     1     -11.074   9.415  71.750  1.00  0.00    -0.370 OA 
HETATM   50  C   UNL     1      -8.791   8.866  71.530  1.00  0.00    -0.183 A  
HETATM   51  C   UNL     1      -9.965   9.339  70.948  1.00  0.00    -0.297 A  
HETATM   52  C   UNL     1     -10.006   9.671  69.597  1.00  0.00    -0.239 A  
HETATM   53  C   UNL     1      -7.630   8.733  70.785  1.00  0.00    -0.097 A  
ENDBRANCH  31  44
ENDBRANCH  28  29
ENDBRANCH  17  28
ENDBRANCH  15  16
ENDBRANCH  14  15
ENDBRANCH   4  14
TORSDOF 6
ENDMDL
MODEL      147
REMARK 921   NORMALIZED FREE ENERGY PREDICTED BY IDOCK:   -3.58 KCAL/MOL
REMARK 922        TOTAL FREE ENERGY PREDICTED BY IDOCK:   -6.32 KCAL/MOL
REMARK 923 INTER-LIGAND FREE ENERGY PREDICTED BY IDOCK:   -8.01 KCAL/MOL
REMARK 924 INTRA-LIGAND FREE ENERGY PREDICTED BY IDOCK:    1.69 KCAL/MOL
REMARK 927      BINDING AFFINITY PREDICTED BY RF-SCORE:    0.00 PKD
ROOT
HETATM    1  C   UNL     1      -8.363   5.999  71.901  1.00  0.00    -0.115 C  
HETATM    2  C   UNL     1      -8.241   7.102  70.845  1.00  0.00    -0.116 C  
HETATM    3  O   UNL     1      -7.291   6.590  69.911  1.00  0.00    -0.081 OA 
HETATM    4  C   UNL     1      -6.599   7.465  69.032  1.00  0.00    -0.044 C  
HETATM    5  H   UNL     1      -7.835  11.075  71.416  1.00  0.00     0.000 HD 
HETATM    6  C   UNL     1      -6.218   8.814  69.661  1.00  0.00    -0.036 C  
HETATM    7  C   UNL     1      -7.420   9.420  70.401  1.00  0.00    -0.135 C  
HETATM    8  O   UNL     1      -8.977   8.941  72.263  1.00  0.00    -0.388 OA 
HETATM    9  O   UNL     1      -5.125   8.643  70.585  1.00  0.00    -0.022 OA 
HETATM   10  H   UNL     1      -4.890   9.477  70.975  1.00  0.00     0.000 HD 
HETATM   11  H   UNL     1      -8.745   9.769  72.668  1.00  0.00     0.000 HD 
HETATM   12  O   UNL     1      -7.092  10.701  70.959  1.00  0.00     0.253 OA 
HETATM   13  C   UNL     1      -7.865   8.445  71.502  1.00  0.00    -0.120 C  
ENDROOT
BRANCH   4  14
HETATM   14  O   UNL     1      -7.235   7.695  67.773  1.00  0.00    -0.082 OA 
BRANCH  14  15
HETATM   15  C   UNL     1      -6.568   7.048  66.674  1.00  0.00    -0.052 C  
BRANCH  15  16
HETATM   16  C   UNL     1      -7.327   7.371  65.381  1.00  0.00    -0.072 C  
HETATM   17  C   UNL     1      -9.489   8.325  66.093  1.00  0.00    -0.171 C  
HETATM   18  O   UNL     1      -8.757   7.207  65.549  1.00  0.00    -0.121 OA 
HETATM   19  H   UNL     1      -6.277  10.579  66.416  1.00  0.00     0.000 HD 
HETATM   20  C   UNL     1      -9.201   9.526  65.163  1.00  0.00    -0.244 C  
HETATM   21  H   UNL     1      -6.606   9.330  62.893  1.00  0.00     0.000 HD 
HETATM   22  O   UNL     1      -9.599   9.224  63.802  1.00  0.00    -0.335 OA 
HETATM   23  C   UNL     1      -7.706   9.885  65.164  1.00  0.00    -0.131 C  
HETATM   24  H   UNL     1      -9.422   9.962  63.230  1.00  0.00     0.000 HD 
HETATM   25  O   UNL     1      -6.892   8.520  63.297  1.00  0.00    -0.089 OA 
HETATM   26  O   UNL     1      -7.201  10.356  66.416  1.00  0.00    -0.106 OA 
HETATM   27  C   UNL     1      -6.861   8.686  64.726  1.00  0.00    -0.073 C  
BRANCH  17  28
HETATM   28  O   UNL     1      -9.203   8.503  67.489  1.00  0.00    -0.132 OA 
BRANCH  28  29
HETATM   29  C   UNL     1     -10.259   8.339  68.386  1.00  0.00    -0.209 C  
HETATM   30  O   UNL     1     -11.640   6.902  69.803  1.00  0.00    -0.240 OA 
HETATM   31  C   UNL     1     -10.783   7.136  68.725  1.00  0.00    -0.169 C  
HETATM   32  C   UNL     1     -12.124   7.975  70.509  1.00  0.00     0.139 A  
HETATM   33  O   UNL     1      -9.855  10.404  69.410  1.00  0.00    -0.220 OA 
HETATM   34  H   UNL     1     -11.610  11.787  69.570  1.00  0.00     0.000 HD 
HETATM   35  C   UNL     1     -12.967   7.763  71.599  1.00  0.00    -0.374 A  
HETATM   36  C   UNL     1     -10.615   9.450  69.294  1.00  0.00    -0.225 C  
HETATM   37  C   UNL     1     -13.515   8.865  72.265  1.00  0.00    -0.455 A  
HETATM   38  C   UNL     1     -11.781   9.295  70.155  1.00  0.00    -0.008 A  
HETATM   39  O   UNL     1     -12.208  11.639  70.293  1.00  0.00    -0.331 OA 
HETATM   40  C   UNL     1     -13.292  10.164  71.821  1.00  0.00    -0.485 A  
HETATM   41  O   UNL     1     -14.292   8.726  73.379  1.00  0.00    -1.155 OA 
HETATM   42  H   UNL     1     -14.664   9.474  73.832  1.00  0.00     0.000 HD 
HETATM   43  C   UNL     1     -12.418  10.381  70.767  1.00  0.00    -0.368 A  
BRANCH  31  44
HETATM   44  C   UNL     1     -10.359   5.935  67.991  1.00  0.00    -0.257 A  
HETATM   45  O   UNL     1      -8.600   2.947  65.711  1.00  0.00    -0.107 OA 
HETATM   46  H   UNL     1     -10.214   3.708  64.148  1.00  0.00     0.000 HD 
HETATM   47  C   UNL     1      -9.334   5.132  68.532  1.00  0.00    -0.161 A  
HETATM   48  H   UNL     1      -7.890   2.429  66.071  1.00  0.00     0.000 HD 
HETATM   49  O   UNL     1     -10.621   4.396  64.660  1.00  0.00    -0.135 OA 
HETATM   50  C   UNL     1      -9.211   3.897  66.481  1.00  0.00    -0.166 A  
HETATM   51  C   UNL     1     -10.252   4.656  65.953  1.00  0.00    -0.276 A  
HETATM   52  C   UNL     1     -10.849   5.665  66.704  1.00  0.00    -0.280 A  
HETATM   53  C   UNL     1      -8.756   4.112  67.773  1.00  0.00    -0.120 A  
ENDBRANCH  31  44
ENDBRANCH  28  29
ENDBRANCH  17  28
ENDBRANCH  15  16
ENDBRANCH  14  15
ENDBRANCH   4  14
TORSDOF 6
ENDMDL
MODEL      148
REMARK 921   NORMALIZED FREE ENERGY PREDICTED BY IDOCK:   -3.48 KCAL/MOL
REMARK 922        TOTAL FREE ENERGY PREDICTED BY IDOCK:   -6.18 KCAL/MOL
REMARK 923 INTER-LIGAND FREE ENERGY PREDICTED BY IDOCK:   -4.46 KCAL/MOL
REMARK 924 INTRA-LIGAND FREE ENERGY PREDICTED BY IDOCK:   -1.72 KCAL/MOL
REMARK 927      BINDING AFFINITY PREDICTED BY RF-SCORE:    0.00 PKD
ROOT
HETATM    1  C   UNL     1     -12.088  15.967  71.084  1.00  0.00    -0.406 C  
HETATM    2  C   UNL     1     -11.331  15.650  69.790  1.00  0.00    -0.327 C  
HETATM    3  O   UNL     1     -10.003  15.358  70.225  1.00  0.00    -0.217 OA 
HETATM    4  C   UNL     1      -8.914  15.429  69.316  1.00  0.00    -0.261 C  
HETATM    5  H   UNL     1     -11.386  17.674  66.301  1.00  0.00     0.000 HD 
HETATM    6  C   UNL     1      -9.019  16.577  68.300  1.00  0.00    -0.214 C  
HETATM    7  C   UNL     1     -10.420  16.612  67.672  1.00  0.00    -0.320 C  
HETATM    8  O   UNL     1     -12.801  16.880  68.286  1.00  0.00     1.524 OA 
HETATM    9  O   UNL     1      -8.753  17.839  68.944  1.00  0.00    -0.231 OA 
HETATM   10  H   UNL     1      -8.818  18.549  68.316  1.00  0.00     0.000 HD 
HETATM   11  H   UNL     1     -12.879  17.597  67.667  1.00  0.00     0.000 HD 
HETATM   12  O   UNL     1     -10.520  17.653  66.689  1.00  0.00    -0.335 OA 
HETATM   13  C   UNL     1     -11.457  16.813  68.787  1.00  0.00     0.082 C  
ENDROOT
BRANCH   4  14
HETATM   14  O   UNL     1      -8.614  14.215  68.625  1.00  0.00    -0.171 OA 
BRANCH  14  15
HETATM   15  C   UNL     1      -9.518  13.142  68.944  1.00  0.00     0.244 C  
BRANCH  15  16
HETATM   16  C   UNL     1      -9.746  12.301  67.682  1.00  0.00    -0.194 C  
HETATM   17  C   UNL     1      -8.879  10.051  68.210  1.00  0.00    -0.116 C  
HETATM   18  O   UNL     1      -8.708  11.303  67.513  1.00  0.00    -0.134 OA 
HETATM   19  H   UNL     1     -12.317  11.129  69.798  1.00  0.00     0.000 HD 
HETATM   20  C   UNL     1     -10.241   9.481  67.748  1.00  0.00    -0.216 C  
HETATM   21  H   UNL     1     -12.457  11.528  66.070  1.00  0.00     0.000 HD 
HETATM   22  O   UNL     1     -10.261   9.311  66.308  1.00  0.00    -0.273 OA 
HETATM   23  C   UNL     1     -11.398  10.412  68.145  1.00  0.00    -0.213 C  
HETATM   24  H   UNL     1     -11.098   8.961  66.025  1.00  0.00     0.000 HD 
HETATM   25  O   UNL     1     -11.562  11.833  66.154  1.00  0.00    -0.418 OA 
HETATM   26  O   UNL     1     -11.601  10.554  69.553  1.00  0.00    -0.255 OA 
HETATM   27  C   UNL     1     -11.199  11.807  67.546  1.00  0.00    -0.291 C  
BRANCH  17  28
HETATM   28  O   UNL     1      -8.690  10.213  69.624  1.00  0.00    -0.186 OA 
BRANCH  28  29
HETATM   29  C   UNL     1      -7.810   9.336  70.258  1.00  0.00    -0.141 C  
HETATM   30  O   UNL     1      -5.774   8.935  71.552  1.00  0.00    -0.043 OA 
HETATM   31  C   UNL     1      -6.571   9.685  70.685  1.00  0.00    -0.114 C  
HETATM   32  C   UNL     1      -6.185   7.674  71.905  1.00  0.00    -0.039 A  
HETATM   33  O   UNL     1      -9.540   7.915  70.937  1.00  0.00    -0.160 OA 
HETATM   34  H   UNL     1      -9.305   5.751  70.408  1.00  0.00     0.000 HD 
HETATM   35  C   UNL     1      -5.412   6.916  72.783  1.00  0.00    -0.038 A  
HETATM   36  C   UNL     1      -8.330   8.075  70.827  1.00  0.00    -0.115 C  
HETATM   37  C   UNL     1      -5.800   5.603  73.078  1.00  0.00    -0.035 A  
HETATM   38  C   UNL     1      -7.381   7.129  71.398  1.00  0.00    -0.078 A  
HETATM   39  O   UNL     1      -8.760   5.226  70.983  1.00  0.00    -0.126 OA 
HETATM   40  C   UNL     1      -6.901   5.017  72.461  1.00  0.00    -0.070 A  
HETATM   41  O   UNL     1      -5.125   4.832  73.980  1.00  0.00    -0.008 OA 
HETATM   42  H   UNL     1      -5.388   3.942  74.180  1.00  0.00     0.000 HD 
HETATM   43  C   UNL     1      -7.697   5.784  71.623  1.00  0.00    -0.101 A  
BRANCH  31  44
HETATM   44  C   UNL     1      -6.028  11.000  70.316  1.00  0.00    -0.139 A  
HETATM   45  O   UNL     1      -5.174  14.945  69.349  1.00  0.00    -0.088 OA 
HETATM   46  H   UNL     1      -5.326  14.049  67.158  1.00  0.00     0.000 HD 
HETATM   47  C   UNL     1      -5.793  11.950  71.329  1.00  0.00     0.477 A  
HETATM   48  H   UNL     1      -5.045  15.586  70.038  1.00  0.00     0.000 HD 
HETATM   49  O   UNL     1      -5.526  13.144  67.368  1.00  0.00    -0.322 OA 
HETATM   50  C   UNL     1      -5.406  13.636  69.671  1.00  0.00    -0.087 A  
HETATM   51  C   UNL     1      -5.594  12.696  68.660  1.00  0.00    -0.062 A  
HETATM   52  C   UNL     1      -5.886  11.370  68.969  1.00  0.00    -0.048 A  
HETATM   53  C   UNL     1      -5.484  13.273  71.006  1.00  0.00    -0.196 A  
ENDBRANCH  31  44
ENDBRANCH  28  29
ENDBRANCH  17  28
ENDBRANCH  15  16
ENDBRANCH  14  15
ENDBRANCH   4  14
TORSDOF 6
ENDMDL
MODEL      149
REMARK 921   NORMALIZED FREE ENERGY PREDICTED BY IDOCK:   -3.46 KCAL/MOL
REMARK 922        TOTAL FREE ENERGY PREDICTED BY IDOCK:   -6.16 KCAL/MOL
REMARK 923 INTER-LIGAND FREE ENERGY PREDICTED BY IDOCK:   -6.24 KCAL/MOL
REMARK 924 INTRA-LIGAND FREE ENERGY PREDICTED BY IDOCK:    0.08 KCAL/MOL
REMARK 927      BINDING AFFINITY PREDICTED BY RF-SCORE:    0.00 PKD
ROOT
HETATM    1  C   UNL     1      -9.859   2.052  71.112  1.00  0.00    -0.126 C  
HETATM    2  C   UNL     1      -8.764   3.122  71.172  1.00  0.00    -0.074 C  
HETATM    3  O   UNL     1      -8.503   3.434  69.803  1.00  0.00    -0.051 OA 
HETATM    4  C   UNL     1      -7.284   4.057  69.425  1.00  0.00    -0.050 C  
HETATM    5  H   UNL     1      -5.408   3.143  73.411  1.00  0.00     0.000 HD 
HETATM    6  C   UNL     1      -6.060   3.573  70.218  1.00  0.00    -0.023 C  
HETATM    7  C   UNL     1      -6.367   3.560  71.723  1.00  0.00    -0.015 C  
HETATM    8  O   UNL     1      -7.896   2.524  73.368  1.00  0.00    -0.052 OA 
HETATM    9  O   UNL     1      -5.683   2.248  69.796  1.00  0.00    -0.017 OA 
HETATM   10  H   UNL     1      -4.927   1.949  70.286  1.00  0.00     0.000 HD 
HETATM   11  H   UNL     1      -7.149   2.212  73.865  1.00  0.00     0.000 HD 
HETATM   12  O   UNL     1      -5.219   3.151  72.481  1.00  0.00     0.000 OA 
HETATM   13  C   UNL     1      -7.552   2.616  71.977  1.00  0.00    -0.048 C  
ENDROOT
BRANCH   4  14
HETATM   14  O   UNL     1      -7.305   5.486  69.415  1.00  0.00    -0.063 OA 
BRANCH  14  15
HETATM   15  C   UNL     1      -6.021   6.070  69.133  1.00  0.00    -0.024 C  
BRANCH  15  16
HETATM   16  C   UNL     1      -5.740   7.161  70.175  1.00  0.00    -0.024 C  
HETATM   17  C   UNL     1      -6.682   9.241  69.238  1.00  0.00    -0.049 C  
HETATM   18  O   UNL     1      -5.517   8.448  69.548  1.00  0.00    -0.030 OA 
HETATM   19  H   UNL     1      -9.182   6.561  70.679  1.00  0.00     0.000 HD 
HETATM   20  C   UNL     1      -7.447   9.426  70.570  1.00  0.00    -0.145 C  
HETATM   21  H   UNL     1      -6.632   7.452  73.283  1.00  0.00     0.000 HD 
HETATM   22  O   UNL     1      -6.601  10.064  71.559  1.00  0.00    -0.298 OA 
HETATM   23  C   UNL     1      -7.920   8.075  71.132  1.00  0.00    -0.094 C  
HETATM   24  H   UNL     1      -7.071  10.178  72.377  1.00  0.00     0.000 HD 
HETATM   25  O   UNL     1      -6.020   7.468  72.557  1.00  0.00    -0.040 OA 
HETATM   26  O   UNL     1      -8.888   7.395  70.331  1.00  0.00    -0.147 OA 
HETATM   27  C   UNL     1      -6.733   7.135  71.352  1.00  0.00    -0.051 C  
BRANCH  17  28
HETATM   28  O   UNL     1      -7.418   8.676  68.142  1.00  0.00    -0.093 OA 
BRANCH  28  29
HETATM   29  C   UNL     1      -8.338   9.501  67.495  1.00  0.00    -0.125 C  
HETATM   30  O   UNL     1     -10.528   9.841  66.461  1.00  0.00    -0.211 OA 
HETATM   31  C   UNL     1      -9.456   9.048  66.876  1.00  0.00    -0.167 C  
HETATM   32  C   UNL     1     -10.412  11.205  66.541  1.00  0.00    -0.255 A  
HETATM   33  O   UNL     1      -7.678  11.382  68.719  1.00  0.00    -0.132 OA 
HETATM   34  H   UNL     1      -7.135  13.198  67.525  1.00  0.00     0.000 HD 
HETATM   35  C   UNL     1     -11.477  12.014  66.147  1.00  0.00    -0.401 A  
HETATM   36  C   UNL     1      -8.329  10.953  67.774  1.00  0.00    -0.117 C  
HETATM   37  C   UNL     1     -11.322  13.406  66.161  1.00  0.00    -0.303 A  
HETATM   38  C   UNL     1      -9.232  11.810  67.018  1.00  0.00    -0.187 A  
HETATM   39  O   UNL     1      -7.852  13.745  67.227  1.00  0.00    -0.162 OA 
HETATM   40  C   UNL     1     -10.106  13.995  66.492  1.00  0.00    -0.287 A  
HETATM   41  O   UNL     1     -12.347  14.253  65.853  1.00  0.00    -0.430 OA 
HETATM   42  H   UNL     1     -12.241  15.197  65.862  1.00  0.00     0.000 HD 
HETATM   43  C   UNL     1      -9.060  13.196  66.927  1.00  0.00    -0.229 A  
BRANCH  31  44
HETATM   44  C   UNL     1      -9.645   7.600  66.703  1.00  0.00    -0.271 A  
HETATM   45  O   UNL     1     -10.008   3.472  66.915  1.00  0.00    -0.356 OA 
HETATM   46  H   UNL     1      -7.820   3.607  66.010  1.00  0.00     0.000 HD 
HETATM   47  C   UNL     1     -10.842   7.010  67.153  1.00  0.00    -0.427 A  
HETATM   48  H   UNL     1     -10.808   3.081  67.247  1.00  0.00     0.000 HD 
HETATM   49  O   UNL     1      -7.725   4.550  65.960  1.00  0.00    -0.092 OA 
HETATM   50  C   UNL     1      -9.910   4.830  66.800  1.00  0.00    -0.208 A  
HETATM   51  C   UNL     1      -8.737   5.403  66.313  1.00  0.00    -0.125 A  
HETATM   52  C   UNL     1      -8.598   6.787  66.240  1.00  0.00    -0.141 A  
HETATM   53  C   UNL     1     -10.974   5.621  67.204  1.00  0.00    -0.101 A  
ENDBRANCH  31  44
ENDBRANCH  28  29
ENDBRANCH  17  28
ENDBRANCH  15  16
ENDBRANCH  14  15
ENDBRANCH   4  14
TORSDOF 6
ENDMDL
MODEL      150
REMARK 921   NORMALIZED FREE ENERGY PREDICTED BY IDOCK:   -3.45 KCAL/MOL
REMARK 922        TOTAL FREE ENERGY PREDICTED BY IDOCK:   -6.14 KCAL/MOL
REMARK 923 INTER-LIGAND FREE ENERGY PREDICTED BY IDOCK:   -6.12 KCAL/MOL
REMARK 924 INTRA-LIGAND FREE ENERGY PREDICTED BY IDOCK:   -0.02 KCAL/MOL
REMARK 927      BINDING AFFINITY PREDICTED BY RF-SCORE:    0.00 PKD
ROOT
HETATM    1  C   UNL     1     -12.608  15.369  69.734  1.00  0.00    -0.138 C  
HETATM    2  C   UNL     1     -11.534  14.490  69.085  1.00  0.00    -0.294 C  
HETATM    3  O   UNL     1     -11.320  15.085  67.805  1.00  0.00    -0.311 OA 
HETATM    4  C   UNL     1     -10.723  14.340  66.753  1.00  0.00    -0.287 C  
HETATM    5  H   UNL     1     -11.347  10.462  68.948  1.00  0.00     0.000 HD 
HETATM    6  C   UNL     1     -11.146  12.864  66.712  1.00  0.00    -0.281 C  
HETATM    7  C   UNL     1     -11.053  12.239  68.112  1.00  0.00    -0.240 C  
HETATM    8  O   UNL     1     -11.972  12.483  70.396  1.00  0.00    -0.463 OA 
HETATM    9  O   UNL     1     -12.497  12.745  66.225  1.00  0.00    -0.477 OA 
HETATM   10  H   UNL     1     -12.759  11.832  66.200  1.00  0.00     0.000 HD 
HETATM   11  H   UNL     1     -12.246  11.574  70.381  1.00  0.00     0.000 HD 
HETATM   12  O   UNL     1     -11.404  10.848  68.082  1.00  0.00    -0.282 OA 
HETATM   13  C   UNL     1     -11.979  13.015  69.061  1.00  0.00    -0.267 C  
ENDROOT
BRANCH   4  14
HETATM   14  O   UNL     1      -9.299  14.425  66.676  1.00  0.00    -0.258 OA 
BRANCH  14  15
HETATM   15  C   UNL     1      -8.629  13.313  67.296  1.00  0.00    -0.210 C  
BRANCH  15  16
HETATM   16  C   UNL     1      -7.765  13.841  68.448  1.00  0.00    -0.134 C  
HETATM   17  C   UNL     1      -6.760  11.848  69.500  1.00  0.00    -0.054 C  
HETATM   18  O   UNL     1      -7.734  12.911  69.559  1.00  0.00     0.495 OA 
HETATM   19  H   UNL     1      -5.321  13.034  66.033  1.00  0.00     0.000 HD 
HETATM   20  C   UNL     1      -5.382  12.532  69.345  1.00  0.00    -0.072 C  
HETATM   21  H   UNL     1      -5.231  15.872  68.485  1.00  0.00     0.000 HD 
HETATM   22  O   UNL     1      -5.134  13.437  70.450  1.00  0.00    -0.092 OA 
HETATM   23  C   UNL     1      -5.300  13.329  68.033  1.00  0.00    -0.109 C  
HETATM   24  H   UNL     1      -4.287  13.857  70.354  1.00  0.00     0.000 HD 
HETATM   25  O   UNL     1      -6.070  15.535  68.777  1.00  0.00    -0.097 OA 
HETATM   26  O   UNL     1      -5.372  12.541  66.844  1.00  0.00    -0.342 OA 
HETATM   27  C   UNL     1      -6.405  14.388  67.975  1.00  0.00    -0.155 C  
BRANCH  17  28
HETATM   28  O   UNL     1      -7.115  10.872  68.508  1.00  0.00    -0.068 OA 
BRANCH  28  29
HETATM   29  C   UNL     1      -7.118   9.532  68.899  1.00  0.00    -0.067 C  
HETATM   30  O   UNL     1      -7.007   7.154  68.338  1.00  0.00    -0.070 OA 
HETATM   31  C   UNL     1      -7.266   8.494  68.040  1.00  0.00    -0.087 C  
HETATM   32  C   UNL     1      -6.714   6.810  69.634  1.00  0.00    -0.050 A  
HETATM   33  O   UNL     1      -5.952   9.993  70.875  1.00  0.00    -0.085 OA 
HETATM   34  H   UNL     1      -6.874   9.225  72.767  1.00  0.00     0.000 HD 
HETATM   35  C   UNL     1      -6.435   5.481  69.949  1.00  0.00    -0.034 A  
HETATM   36  C   UNL     1      -6.586   9.167  70.229  1.00  0.00    -0.052 C  
HETATM   37  C   UNL     1      -6.212   5.126  71.285  1.00  0.00    -0.029 A  
HETATM   38  C   UNL     1      -6.686   7.778  70.657  1.00  0.00    -0.038 A  
HETATM   39  O   UNL     1      -6.715   8.313  72.982  1.00  0.00    -0.094 OA 
HETATM   40  C   UNL     1      -6.331   6.058  72.311  1.00  0.00    -0.050 A  
HETATM   41  O   UNL     1      -5.868   3.857  71.651  1.00  0.00    -0.011 OA 
HETATM   42  H   UNL     1      -5.717   3.616  72.557  1.00  0.00     0.000 HD 
HETATM   43  C   UNL     1      -6.563   7.388  71.996  1.00  0.00    -0.050 A  
BRANCH  31  44
HETATM   44  C   UNL     1      -7.627   8.765  66.641  1.00  0.00    -0.089 A  
HETATM   45  O   UNL     1      -9.007   8.909  62.730  1.00  0.00    -0.430 OA 
HETATM   46  H   UNL     1      -6.833   8.050  62.326  1.00  0.00     0.000 HD 
HETATM   47  C   UNL     1      -8.909   9.274  66.353  1.00  0.00    -0.169 A  
HETATM   48  H   UNL     1      -9.883   9.226  62.546  1.00  0.00     0.000 HD 
HETATM   49  O   UNL     1      -6.508   8.010  63.218  1.00  0.00    -0.074 OA 
HETATM   50  C   UNL     1      -8.537   8.909  64.014  1.00  0.00    -0.100 A  
HETATM   51  C   UNL     1      -7.252   8.445  64.283  1.00  0.00    -0.092 A  
HETATM   52  C   UNL     1      -6.776   8.386  65.590  1.00  0.00    -0.056 A  
HETATM   53  C   UNL     1      -9.367   9.343  65.036  1.00  0.00    -0.258 A  
ENDBRANCH  31  44
ENDBRANCH  28  29
ENDBRANCH  17  28
ENDBRANCH  15  16
ENDBRANCH  14  15
ENDBRANCH   4  14
TORSDOF 6
ENDMDL
MODEL      151
REMARK 921   NORMALIZED FREE ENERGY PREDICTED BY IDOCK:   -3.44 KCAL/MOL
REMARK 922        TOTAL FREE ENERGY PREDICTED BY IDOCK:   -6.13 KCAL/MOL
REMARK 923 INTER-LIGAND FREE ENERGY PREDICTED BY IDOCK:   -5.44 KCAL/MOL
REMARK 924 INTRA-LIGAND FREE ENERGY PREDICTED BY IDOCK:   -0.69 KCAL/MOL
REMARK 927      BINDING AFFINITY PREDICTED BY RF-SCORE:    0.00 PKD
ROOT
HETATM    1  C   UNL     1      -6.980   4.591  70.225  1.00  0.00    -0.044 C  
HETATM    2  C   UNL     1      -8.111   5.166  71.083  1.00  0.00    -0.108 C  
HETATM    3  O   UNL     1      -7.493   6.226  71.813  1.00  0.00    -0.091 OA 
HETATM    4  C   UNL     1      -8.085   6.722  73.005  1.00  0.00    -0.108 C  
HETATM    5  H   UNL     1     -10.832   3.172  73.296  1.00  0.00     0.000 HD 
HETATM    6  C   UNL     1      -8.742   5.641  73.877  1.00  0.00    -0.117 C  
HETATM    7  C   UNL     1      -9.629   4.727  73.019  1.00  0.00    -0.132 C  
HETATM    8  O   UNL     1      -9.504   3.167  71.102  1.00  0.00    -0.130 OA 
HETATM    9  O   UNL     1      -7.734   4.849  74.534  1.00  0.00    -0.088 OA 
HETATM   10  H   UNL     1      -8.140   4.180  75.073  1.00  0.00     0.000 HD 
HETATM   11  H   UNL     1      -9.903   2.487  71.632  1.00  0.00     0.000 HD 
HETATM   12  O   UNL     1     -10.284   3.737  73.826  1.00  0.00    -0.121 OA 
HETATM   13  C   UNL     1      -8.758   4.062  71.942  1.00  0.00    -0.104 C  
ENDROOT
BRANCH   4  14
HETATM   14  O   UNL     1      -8.999   7.806  72.828  1.00  0.00    -0.148 OA 
BRANCH  14  15
HETATM   15  C   UNL     1      -8.654   8.666  71.728  1.00  0.00    -0.173 C  
BRANCH  15  16
HETATM   16  C   UNL     1      -9.884   9.503  71.355  1.00  0.00     0.082 C  
HETATM   17  C   UNL     1      -9.915   9.586  68.888  1.00  0.00    -0.179 C  
HETATM   18  O   UNL     1      -9.662  10.260  70.139  1.00  0.00    -0.114 OA 
HETATM   19  H   UNL     1     -11.002   6.232  70.641  1.00  0.00     0.000 HD 
HETATM   20  C   UNL     1     -11.382   9.099  68.949  1.00  0.00     0.393 C  
HETATM   21  H   UNL     1     -13.044   9.084  71.975  1.00  0.00     0.000 HD 
HETATM   22  O   UNL     1     -12.283  10.216  69.158  1.00  0.00    -0.517 OA 
HETATM   23  C   UNL     1     -11.587   8.088  70.088  1.00  0.00     0.086 C  
HETATM   24  H   UNL     1     -13.184   9.916  69.195  1.00  0.00     0.000 HD 
HETATM   25  O   UNL     1     -12.233   9.576  71.926  1.00  0.00    -0.374 OA 
HETATM   26  O   UNL     1     -10.875   6.857  69.937  1.00  0.00    -0.233 OA 
HETATM   27  C   UNL     1     -11.199   8.705  71.434  1.00  0.00    -0.277 C  
BRANCH  17  28
HETATM   28  O   UNL     1      -8.913   8.593  68.621  1.00  0.00    -0.141 OA 
BRANCH  28  29
HETATM   29  C   UNL     1      -8.920   8.000  67.359  1.00  0.00    -0.134 C  
HETATM   30  O   UNL     1      -8.382   8.071  64.974  1.00  0.00    -0.147 OA 
HETATM   31  C   UNL     1      -8.652   8.666  66.208  1.00  0.00    -0.137 C  
HETATM   32  C   UNL     1      -8.532   6.713  64.847  1.00  0.00     0.040 A  
HETATM   33  O   UNL     1      -8.579   5.860  68.241  1.00  0.00    -0.114 OA 
HETATM   34  H   UNL     1     -10.028   4.280  67.590  1.00  0.00     0.000 HD 
HETATM   35  C   UNL     1      -8.252   6.097  63.628  1.00  0.00    -0.003 A  
HETATM   36  C   UNL     1      -8.858   6.527  67.252  1.00  0.00    -0.112 C  
HETATM   37  C   UNL     1      -8.480   4.724  63.486  1.00  0.00    -0.127 A  
HETATM   38  C   UNL     1      -8.964   5.923  65.930  1.00  0.00    -0.149 A  
HETATM   39  O   UNL     1      -9.864   3.870  66.749  1.00  0.00    -0.206 OA 
HETATM   40  C   UNL     1      -9.045   3.973  64.512  1.00  0.00    -0.142 A  
HETATM   41  O   UNL     1      -8.163   4.050  62.342  1.00  0.00    -0.072 OA 
HETATM   42  H   UNL     1      -8.317   3.118  62.245  1.00  0.00     0.000 HD 
HETATM   43  C   UNL     1      -9.283   4.573  65.739  1.00  0.00    -0.146 A  
BRANCH  31  44
HETATM   44  C   UNL     1      -8.520  10.130  66.240  1.00  0.00    -0.132 A  
HETATM   45  O   UNL     1      -8.335  14.201  67.023  1.00  0.00    -0.307 OA 
HETATM   46  H   UNL     1     -10.494  14.107  66.045  1.00  0.00     0.000 HD 
HETATM   47  C   UNL     1      -7.359  10.698  66.800  1.00  0.00    -0.120 A  
HETATM   48  H   UNL     1      -7.560  14.572  67.427  1.00  0.00     0.000 HD 
HETATM   49  O   UNL     1     -10.548  13.177  65.865  1.00  0.00    -0.273 OA 
HETATM   50  C   UNL     1      -8.374  12.868  66.721  1.00  0.00     0.045 A  
HETATM   51  C   UNL     1      -9.510  12.323  66.127  1.00  0.00    -0.217 A  
HETATM   52  C   UNL     1      -9.589  10.958  65.862  1.00  0.00    -0.257 A  
HETATM   53  C   UNL     1      -7.287  12.071  67.044  1.00  0.00    -0.097 A  
ENDBRANCH  31  44
ENDBRANCH  28  29
ENDBRANCH  17  28
ENDBRANCH  15  16
ENDBRANCH  14  15
ENDBRANCH   4  14
TORSDOF 6
ENDMDL
MODEL      152
REMARK 921   NORMALIZED FREE ENERGY PREDICTED BY IDOCK:   -3.42 KCAL/MOL
REMARK 922        TOTAL FREE ENERGY PREDICTED BY IDOCK:   -6.09 KCAL/MOL
REMARK 923 INTER-LIGAND FREE ENERGY PREDICTED BY IDOCK:   -4.93 KCAL/MOL
REMARK 924 INTRA-LIGAND FREE ENERGY PREDICTED BY IDOCK:   -1.16 KCAL/MOL
REMARK 927      BINDING AFFINITY PREDICTED BY RF-SCORE:    0.00 PKD
ROOT
HETATM    1  C   UNL     1     -12.774  15.839  70.793  1.00  0.00    -0.388 C  
HETATM    2  C   UNL     1     -11.857  14.614  70.708  1.00  0.00    -0.311 C  
HETATM    3  O   UNL     1     -11.318  14.671  69.387  1.00  0.00    -0.257 OA 
HETATM    4  C   UNL     1     -10.766  13.510  68.783  1.00  0.00    -0.238 C  
HETATM    5  H   UNL     1     -12.622  10.832  71.885  1.00  0.00     0.000 HD 
HETATM    6  C   UNL     1     -11.519  12.213  69.113  1.00  0.00    -0.296 C  
HETATM    7  C   UNL     1     -11.789  12.118  70.622  1.00  0.00     0.032 C  
HETATM    8  O   UNL     1     -12.955  13.311  72.450  1.00  0.00    -0.323 OA 
HETATM    9  O   UNL     1     -12.771  12.166  68.400  1.00  0.00     0.463 OA 
HETATM   10  H   UNL     1     -13.237  11.364  68.605  1.00  0.00     0.000 HD 
HETATM   11  H   UNL     1     -13.434  12.518  72.660  1.00  0.00     0.000 HD 
HETATM   12  O   UNL     1     -12.455  10.890  70.952  1.00  0.00    -0.343 OA 
HETATM   13  C   UNL     1     -12.634  13.328  71.050  1.00  0.00    -0.324 C  
ENDROOT
BRANCH   4  14
HETATM   14  O   UNL     1      -9.368  13.313  69.002  1.00  0.00     0.171 OA 
BRANCH  14  15
HETATM   15  C   UNL     1      -8.849  12.145  68.340  1.00  0.00    -0.143 C  
BRANCH  15  16
HETATM   16  C   UNL     1      -8.617  12.482  66.862  1.00  0.00    -0.158 C  
HETATM   17  C   UNL     1      -8.157  10.327  65.749  1.00  0.00    -0.149 C  
HETATM   18  O   UNL     1      -7.656  11.582  66.257  1.00  0.00    -0.048 OA 
HETATM   19  H   UNL     1     -11.872  11.119  66.784  1.00  0.00     0.000 HD 
HETATM   20  C   UNL     1      -9.262  10.684  64.728  1.00  0.00    -0.220 C  
HETATM   21  H   UNL     1     -10.527  13.896  64.649  1.00  0.00     0.000 HD 
HETATM   22  O   UNL     1      -8.731  11.526  63.674  1.00  0.00    -0.369 OA 
HETATM   23  C   UNL     1     -10.426  11.427  65.404  1.00  0.00    -0.280 C  
HETATM   24  H   UNL     1      -9.410  11.745  63.047  1.00  0.00     0.000 HD 
HETATM   25  O   UNL     1      -9.719  13.758  65.128  1.00  0.00    -0.139 OA 
HETATM   26  O   UNL     1     -11.152  10.660  66.367  1.00  0.00    -0.074 OA 
HETATM   27  C   UNL     1      -9.928  12.705  66.085  1.00  0.00    -0.261 C  
BRANCH  17  28
HETATM   28  O   UNL     1      -8.524   9.443  66.819  1.00  0.00    -0.125 OA 
BRANCH  28  29
HETATM   29  C   UNL     1      -7.822   8.242  66.927  1.00  0.00    -0.096 C  
HETATM   30  O   UNL     1      -6.602   6.607  68.278  1.00  0.00    -0.053 OA 
HETATM   31  C   UNL     1      -7.089   7.890  68.012  1.00  0.00    -0.085 C  
HETATM   32  C   UNL     1      -6.736   5.637  67.317  1.00  0.00    -0.059 A  
HETATM   33  O   UNL     1      -9.162   7.188  65.325  1.00  0.00     0.297 OA 
HETATM   34  H   UNL     1      -8.080   6.193  63.634  1.00  0.00     0.000 HD 
HETATM   35  C   UNL     1      -6.272   4.347  67.568  1.00  0.00    -0.036 A  
HETATM   36  C   UNL     1      -8.148   7.130  66.010  1.00  0.00    -0.115 C  
HETATM   37  C   UNL     1      -6.345   3.384  66.555  1.00  0.00    -0.032 A  
HETATM   38  C   UNL     1      -7.339   5.919  66.075  1.00  0.00    -0.077 A  
HETATM   39  O   UNL     1      -7.735   5.323  63.798  1.00  0.00    -0.069 OA 
HETATM   40  C   UNL     1      -6.805   3.704  65.282  1.00  0.00    -0.052 A  
HETATM   41  O   UNL     1      -5.971   2.087  66.759  1.00  0.00    -0.018 OA 
HETATM   42  H   UNL     1      -6.020   1.433  66.071  1.00  0.00     0.000 HD 
HETATM   43  C   UNL     1      -7.309   4.974  65.042  1.00  0.00    -0.068 A  
BRANCH  31  44
HETATM   44  C   UNL     1      -6.853   8.880  69.073  1.00  0.00    -0.059 A  
HETATM   45  O   UNL     1      -5.508  11.431  72.057  1.00  0.00    -0.300 OA 
HETATM   46  H   UNL     1      -6.498   9.757  73.416  1.00  0.00     0.000 HD 
HETATM   47  C   UNL     1      -6.215  10.092  68.743  1.00  0.00    -0.047 A  
HETATM   48  H   UNL     1      -5.053  12.232  71.828  1.00  0.00     0.000 HD 
HETATM   49  O   UNL     1      -6.807   9.164  72.741  1.00  0.00    -0.311 OA 
HETATM   50  C   UNL     1      -5.994  10.617  71.072  1.00  0.00     0.073 A  
HETATM   51  C   UNL     1      -6.663   9.442  71.408  1.00  0.00     0.055 A  
HETATM   52  C   UNL     1      -7.116   8.574  70.418  1.00  0.00    -0.038 A  
HETATM   53  C   UNL     1      -5.781  10.962  69.746  1.00  0.00    -0.059 A  
ENDBRANCH  31  44
ENDBRANCH  28  29
ENDBRANCH  17  28
ENDBRANCH  15  16
ENDBRANCH  14  15
ENDBRANCH   4  14
TORSDOF 6
ENDMDL
MODEL      153
REMARK 921   NORMALIZED FREE ENERGY PREDICTED BY IDOCK:   -3.38 KCAL/MOL
REMARK 922        TOTAL FREE ENERGY PREDICTED BY IDOCK:   -6.04 KCAL/MOL
REMARK 923 INTER-LIGAND FREE ENERGY PREDICTED BY IDOCK:   -5.55 KCAL/MOL
REMARK 924 INTRA-LIGAND FREE ENERGY PREDICTED BY IDOCK:   -0.49 KCAL/MOL
REMARK 927      BINDING AFFINITY PREDICTED BY RF-SCORE:    0.00 PKD
ROOT
HETATM    1  C   UNL     1     -12.284  14.197  66.795  1.00  0.00    -0.429 C  
HETATM    2  C   UNL     1     -10.856  13.656  66.672  1.00  0.00    -0.283 C  
HETATM    3  O   UNL     1     -10.767  12.669  67.701  1.00  0.00    -0.213 OA 
HETATM    4  C   UNL     1      -9.500  12.244  68.184  1.00  0.00    -0.213 C  
HETATM    5  H   UNL     1      -7.423  15.730  66.242  1.00  0.00     0.000 HD 
HETATM    6  C   UNL     1      -8.457  13.367  68.280  1.00  0.00    -0.166 C  
HETATM    7  C   UNL     1      -8.436  14.193  66.985  1.00  0.00    -0.156 C  
HETATM    8  O   UNL     1      -9.898  15.612  65.582  1.00  0.00    -0.330 OA 
HETATM    9  O   UNL     1      -8.755  14.232  69.393  1.00  0.00    -0.359 OA 
HETATM   10  H   UNL     1      -8.110  14.927  69.452  1.00  0.00     0.000 HD 
HETATM   11  H   UNL     1      -9.265  16.318  65.638  1.00  0.00     0.000 HD 
HETATM   12  O   UNL     1      -7.436  15.220  67.043  1.00  0.00    -0.198 OA 
HETATM   13  C   UNL     1      -9.830  14.801  66.765  1.00  0.00    -0.255 C  
ENDROOT
BRANCH   4  14
HETATM   14  O   UNL     1      -8.929  11.126  67.503  1.00  0.00    -0.138 OA 
BRANCH  14  15
HETATM   15  C   UNL     1      -8.027  10.362  68.322  1.00  0.00    -0.111 C  
BRANCH  15  16
HETATM   16  C   UNL     1      -6.722  10.145  67.545  1.00  0.00    -0.072 C  
HETATM   17  C   UNL     1      -6.937   7.929  66.479  1.00  0.00    -0.071 C  
HETATM   18  O   UNL     1      -6.349   8.745  67.514  1.00  0.00    -0.055 OA 
HETATM   19  H   UNL     1      -8.981  10.926  64.947  1.00  0.00     0.000 HD 
HETATM   20  C   UNL     1      -6.573   8.604  65.136  1.00  0.00    -0.064 C  
HETATM   21  H   UNL     1      -5.345  11.831  65.135  1.00  0.00     0.000 HD 
HETATM   22  O   UNL     1      -5.134   8.711  64.992  1.00  0.00    -0.034 OA 
HETATM   23  C   UNL     1      -7.179  10.014  65.038  1.00  0.00    -0.139 C  
HETATM   24  H   UNL     1      -4.911   9.126  64.167  1.00  0.00     0.000 HD 
HETATM   25  O   UNL     1      -5.361  11.372  65.966  1.00  0.00    -0.243 OA 
HETATM   26  O   UNL     1      -8.607  10.055  65.009  1.00  0.00    -0.143 OA 
HETATM   27  C   UNL     1      -6.697  10.890  66.197  1.00  0.00    -0.103 C  
BRANCH  17  28
HETATM   28  O   UNL     1      -8.332   7.698  66.730  1.00  0.00    -0.119 OA 
BRANCH  28  29
HETATM   29  C   UNL     1      -8.859   6.468  66.336  1.00  0.00    -0.143 C  
HETATM   30  O   UNL     1     -10.457   4.642  66.646  1.00  0.00    -0.225 OA 
HETATM   31  C   UNL     1      -9.701   5.727  67.097  1.00  0.00    -0.136 C  
HETATM   32  C   UNL     1     -10.248   4.175  65.373  1.00  0.00    -0.177 A  
HETATM   33  O   UNL     1      -8.528   6.929  64.067  1.00  0.00     0.111 OA 
HETATM   34  H   UNL     1      -7.404   5.384  62.898  1.00  0.00     0.000 HD 
HETATM   35  C   UNL     1     -11.004   3.105  64.897  1.00  0.00     1.164 A  
HETATM   36  C   UNL     1      -8.815   6.087  64.908  1.00  0.00     0.164 C  
HETATM   37  C   UNL     1     -10.732   2.586  63.625  1.00  0.00    -0.131 A  
HETATM   38  C   UNL     1      -9.282   4.759  64.531  1.00  0.00    -0.061 A  
HETATM   39  O   UNL     1      -7.901   4.635  62.589  1.00  0.00    -0.062 OA 
HETATM   40  C   UNL     1      -9.679   3.070  62.856  1.00  0.00    -0.093 A  
HETATM   41  O   UNL     1     -11.480   1.585  63.075  1.00  0.00    -0.260 OA 
HETATM   42  H   UNL     1     -11.295   1.233  62.212  1.00  0.00     0.000 HD 
HETATM   43  C   UNL     1      -8.955   4.163  63.307  1.00  0.00    -0.119 A  
BRANCH  31  44
HETATM   44  C   UNL     1      -9.949   6.125  68.491  1.00  0.00    -0.173 A  
HETATM   45  O   UNL     1     -10.703   7.920  72.156  1.00  0.00    -0.224 OA 
HETATM   46  H   UNL     1      -8.341   7.755  72.300  1.00  0.00     0.000 HD 
HETATM   47  C   UNL     1     -11.271   6.392  68.898  1.00  0.00    -0.385 A  
HETATM   48  H   UNL     1     -11.594   8.123  72.411  1.00  0.00     0.000 HD 
HETATM   49  O   UNL     1      -8.157   7.348  71.462  1.00  0.00    -0.098 OA 
HETATM   50  C   UNL     1     -10.461   7.284  70.970  1.00  0.00    -0.215 A  
HETATM   51  C   UNL     1      -9.153   6.985  70.595  1.00  0.00    -0.158 A  
HETATM   52  C   UNL     1      -8.884   6.388  69.367  1.00  0.00    -0.132 A  
HETATM   53  C   UNL     1     -11.528   6.976  70.140  1.00  0.00    -0.302 A  
ENDBRANCH  31  44
ENDBRANCH  28  29
ENDBRANCH  17  28
ENDBRANCH  15  16
ENDBRANCH  14  15
ENDBRANCH   4  14
TORSDOF 6
ENDMDL
MODEL      154
REMARK 921   NORMALIZED FREE ENERGY PREDICTED BY IDOCK:   -3.20 KCAL/MOL
REMARK 922        TOTAL FREE ENERGY PREDICTED BY IDOCK:   -5.81 KCAL/MOL
REMARK 923 INTER-LIGAND FREE ENERGY PREDICTED BY IDOCK:   -6.41 KCAL/MOL
REMARK 924 INTRA-LIGAND FREE ENERGY PREDICTED BY IDOCK:    0.61 KCAL/MOL
REMARK 927      BINDING AFFINITY PREDICTED BY RF-SCORE:    0.00 PKD
ROOT
HETATM    1  C   UNL     1     -13.263  15.333  69.855  1.00  0.00     0.365 C  
HETATM    2  C   UNL     1     -12.294  14.223  70.275  1.00  0.00    -0.354 C  
HETATM    3  O   UNL     1     -11.723  13.773  69.046  1.00  0.00    -0.284 OA 
HETATM    4  C   UNL     1     -11.108  12.495  68.963  1.00  0.00    -0.234 C  
HETATM    5  H   UNL     1     -12.929  11.197  72.866  1.00  0.00     0.000 HD 
HETATM    6  C   UNL     1     -11.814  11.404  69.781  1.00  0.00    -0.364 C  
HETATM    7  C   UNL     1     -12.119  11.908  71.199  1.00  0.00     0.120 C  
HETATM    8  O   UNL     1     -13.380  13.675  72.386  1.00  0.00    -0.473 OA 
HETATM    9  O   UNL     1     -13.044  11.015  69.138  1.00  0.00    -0.081 OA 
HETATM   10  H   UNL     1     -13.481  10.340  69.644  1.00  0.00     0.000 HD 
HETATM   11  H   UNL     1     -13.830  13.011  72.894  1.00  0.00     0.000 HD 
HETATM   12  O   UNL     1     -12.741  10.885  71.990  1.00  0.00    -0.325 OA 
HETATM   13  C   UNL     1     -13.024  13.145  71.099  1.00  0.00    -0.198 C  
ENDROOT
BRANCH   4  14
HETATM   14  O   UNL     1      -9.709  12.470  69.252  1.00  0.00     0.392 OA 
BRANCH  14  15
HETATM   15  C   UNL     1      -9.029  11.344  68.670  1.00  0.00    -0.131 C  
BRANCH  15  16
HETATM   16  C   UNL     1      -8.677  11.682  67.215  1.00  0.00    -0.159 C  
HETATM   17  C   UNL     1      -8.024   9.543  66.171  1.00  0.00    -0.107 C  
HETATM   18  O   UNL     1      -7.626  10.821  66.710  1.00  0.00    -0.116 OA 
HETATM   19  H   UNL     1     -11.849  10.177  66.854  1.00  0.00     0.000 HD 
HETATM   20  C   UNL     1      -9.046   9.845  65.050  1.00  0.00    -0.218 C  
HETATM   21  H   UNL     1     -10.436  12.997  64.823  1.00  0.00     0.000 HD 
HETATM   22  O   UNL     1      -8.457  10.703  64.040  1.00  0.00    -0.276 OA 
HETATM   23  C   UNL     1     -10.298  10.540  65.609  1.00  0.00    -0.204 C  
HETATM   24  H   UNL     1      -9.084  10.888  63.351  1.00  0.00     0.000 HD 
HETATM   25  O   UNL     1      -9.669  12.899  65.376  1.00  0.00    -0.165 OA 
HETATM   26  O   UNL     1     -11.075   9.747  66.509  1.00  0.00     0.151 OA 
HETATM   27  C   UNL     1      -9.920  11.842  66.320  1.00  0.00    -0.220 C  
BRANCH  17  28
HETATM   28  O   UNL     1      -8.449   8.650  67.211  1.00  0.00    -0.114 OA 
BRANCH  28  29
HETATM   29  C   UNL     1      -8.482   7.287  66.913  1.00  0.00    -0.119 C  
HETATM   30  O   UNL     1      -9.486   5.074  67.189  1.00  0.00    -0.123 OA 
HETATM   31  C   UNL     1      -9.210   6.378  67.607  1.00  0.00    -0.116 C  
HETATM   32  C   UNL     1      -8.870   4.597  66.060  1.00  0.00    -0.121 A  
HETATM   33  O   UNL     1      -7.810   7.644  64.701  1.00  0.00    -0.114 OA 
HETATM   34  H   UNL     1      -6.044   6.456  64.000  1.00  0.00     0.000 HD 
HETATM   35  C   UNL     1      -9.145   3.305  65.616  1.00  0.00    -0.152 A  
HETATM   36  C   UNL     1      -8.010   6.826  65.590  1.00  0.00    -0.116 C  
HETATM   37  C   UNL     1      -8.455   2.800  64.507  1.00  0.00    -0.088 A  
HETATM   38  C   UNL     1      -7.962   5.393  65.333  1.00  0.00    -0.107 A  
HETATM   39  O   UNL     1      -6.212   5.564  63.719  1.00  0.00    -0.021 OA 
HETATM   40  C   UNL     1      -7.452   3.534  63.882  1.00  0.00    -0.066 A  
HETATM   41  O   UNL     1      -8.727   1.569  63.982  1.00  0.00    -0.080 OA 
HETATM   42  H   UNL     1      -8.259   1.227  63.230  1.00  0.00     0.000 HD 
HETATM   43  C   UNL     1      -7.208   4.836  64.292  1.00  0.00    -0.054 A  
BRANCH  31  44
HETATM   44  C   UNL     1      -9.868   6.787  68.856  1.00  0.00    -0.146 A  
HETATM   45  O   UNL     1     -12.109   8.389  71.960  1.00  0.00    -0.312 OA 
HETATM   46  H   UNL     1     -10.141   9.691  72.210  1.00  0.00     0.000 HD 
HETATM   47  C   UNL     1     -11.150   6.281  69.148  1.00  0.00    -0.457 A  
HETATM   48  H   UNL     1     -12.983   8.063  72.133  1.00  0.00     0.000 HD 
HETATM   49  O   UNL     1      -9.621   9.334  71.500  1.00  0.00    -0.252 OA 
HETATM   50  C   UNL     1     -11.354   7.826  70.969  1.00  0.00    -0.271 A  
HETATM   51  C   UNL     1     -10.071   8.305  70.716  1.00  0.00    -0.190 A  
HETATM   52  C   UNL     1      -9.308   7.781  69.675  1.00  0.00    -0.153 A  
HETATM   53  C   UNL     1     -11.897   6.804  70.206  1.00  0.00    -0.359 A  
ENDBRANCH  31  44
ENDBRANCH  28  29
ENDBRANCH  17  28
ENDBRANCH  15  16
ENDBRANCH  14  15
ENDBRANCH   4  14
TORSDOF 6
ENDMDL
MODEL      155
REMARK 921   NORMALIZED FREE ENERGY PREDICTED BY IDOCK:   -3.10 KCAL/MOL
REMARK 922        TOTAL FREE ENERGY PREDICTED BY IDOCK:   -5.67 KCAL/MOL
REMARK 923 INTER-LIGAND FREE ENERGY PREDICTED BY IDOCK:   -6.31 KCAL/MOL
REMARK 924 INTRA-LIGAND FREE ENERGY PREDICTED BY IDOCK:    0.63 KCAL/MOL
REMARK 927      BINDING AFFINITY PREDICTED BY RF-SCORE:    0.00 PKD
ROOT
HETATM    1  C   UNL     1     -12.372  15.394  70.648  1.00  0.00    -0.451 C  
HETATM    2  C   UNL     1     -11.953  14.688  69.355  1.00  0.00    -0.313 C  
HETATM    3  O   UNL     1     -11.419  13.439  69.796  1.00  0.00    -0.245 OA 
HETATM    4  C   UNL     1     -10.552  12.688  68.958  1.00  0.00    -0.041 C  
HETATM    5  H   UNL     1      -9.906  16.205  66.227  1.00  0.00     0.000 HD 
HETATM    6  C   UNL     1      -9.581  13.545  68.131  1.00  0.00    -0.215 C  
HETATM    7  C   UNL     1     -10.330  14.703  67.455  1.00  0.00    -0.234 C  
HETATM    8  O   UNL     1     -11.693  16.695  67.999  1.00  0.00     0.065 OA 
HETATM    9  O   UNL     1      -8.542  14.077  68.976  1.00  0.00    -0.358 OA 
HETATM   10  H   UNL     1      -7.941  14.607  68.465  1.00  0.00     0.000 HD 
HETATM   11  H   UNL     1     -11.097  17.239  67.498  1.00  0.00     0.000 HD 
HETATM   12  O   UNL     1      -9.443  15.489  66.645  1.00  0.00    -0.229 OA 
HETATM   13  C   UNL     1     -10.985  15.569  68.542  1.00  0.00    -0.288 C  
ENDROOT
BRANCH   4  14
HETATM   14  O   UNL     1     -11.197  11.746  68.099  1.00  0.00    -0.222 OA 
BRANCH  14  15
HETATM   15  C   UNL     1     -10.824  10.383  68.370  1.00  0.00    -0.245 C  
BRANCH  15  16
HETATM   16  C   UNL     1      -9.790  10.373  69.503  1.00  0.00    -0.184 C  
HETATM   17  C   UNL     1      -9.469   7.999  70.096  1.00  0.00    -0.160 C  
HETATM   18  O   UNL     1     -10.029   9.286  70.431  1.00  0.00    -0.202 OA 
HETATM   19  H   UNL     1      -7.850   9.306  66.754  1.00  0.00     0.000 HD 
HETATM   20  C   UNL     1      -7.948   8.221  69.922  1.00  0.00    -0.108 C  
HETATM   21  H   UNL     1      -6.724  11.436  69.630  1.00  0.00     0.000 HD 
HETATM   22  O   UNL     1      -7.370   8.768  71.134  1.00  0.00    -0.079 OA 
HETATM   23  C   UNL     1      -7.655   9.187  68.763  1.00  0.00    -0.083 C  
HETATM   24  H   UNL     1      -6.436   8.904  71.027  1.00  0.00     0.000 HD 
HETATM   25  O   UNL     1      -7.615  11.337  69.942  1.00  0.00     0.234 OA 
HETATM   26  O   UNL     1      -8.032   8.709  67.470  1.00  0.00    -0.104 OA 
HETATM   27  C   UNL     1      -8.344  10.534  68.996  1.00  0.00    -0.154 C  
BRANCH  17  28
HETATM   28  O   UNL     1     -10.167   7.399  68.994  1.00  0.00    -0.188 OA 
BRANCH  28  29
HETATM   29  C   UNL     1      -9.563   6.307  68.371  1.00  0.00    -0.121 C  
HETATM   30  O   UNL     1      -8.898   3.953  68.385  1.00  0.00    -0.096 OA 
HETATM   31  C   UNL     1      -9.245   5.153  69.010  1.00  0.00    -0.117 C  
HETATM   32  C   UNL     1      -8.714   3.944  67.026  1.00  0.00    -0.111 A  
HETATM   33  O   UNL     1     -10.298   6.967  66.251  1.00  0.00     0.026 OA 
HETATM   34  H   UNL     1      -8.725   7.121  64.664  1.00  0.00     0.000 HD 
HETATM   35  C   UNL     1      -8.384   2.752  66.381  1.00  0.00    -0.093 A  
HETATM   36  C   UNL     1      -9.576   6.216  66.896  1.00  0.00    -0.142 C  
HETATM   37  C   UNL     1      -8.125   2.767  65.005  1.00  0.00    -0.083 A  
HETATM   38  C   UNL     1      -8.858   5.119  66.262  1.00  0.00    -0.124 A  
HETATM   39  O   UNL     1      -8.470   6.313  64.233  1.00  0.00    -0.014 OA 
HETATM   40  C   UNL     1      -8.122   3.955  64.282  1.00  0.00    -0.090 A  
HETATM   41  O   UNL     1      -7.863   1.625  64.304  1.00  0.00    -0.062 OA 
HETATM   42  H   UNL     1      -7.687   1.635  63.371  1.00  0.00     0.000 HD 
HETATM   43  C   UNL     1      -8.495   5.134  64.910  1.00  0.00    -0.149 A  
BRANCH  31  44
HETATM   44  C   UNL     1      -9.366   5.085  70.473  1.00  0.00    -0.213 A  
HETATM   45  O   UNL     1      -9.743   4.179  74.505  1.00  0.00    -0.114 OA 
HETATM   46  H   UNL     1     -12.000   4.743  74.038  1.00  0.00     0.000 HD 
HETATM   47  C   UNL     1      -8.236   4.726  71.234  1.00  0.00    -0.102 A  
HETATM   48  H   UNL     1      -8.982   3.909  75.005  1.00  0.00     0.000 HD 
HETATM   49  O   UNL     1     -11.925   4.950  73.113  1.00  0.00    -0.223 OA 
HETATM   50  C   UNL     1      -9.607   4.525  73.190  1.00  0.00    -0.130 A  
HETATM   51  C   UNL     1     -10.724   4.920  72.456  1.00  0.00    -0.196 A  
HETATM   52  C   UNL     1     -10.614   5.223  71.101  1.00  0.00    -0.243 A  
HETATM   53  C   UNL     1      -8.357   4.442  72.596  1.00  0.00    -0.106 A  
ENDBRANCH  31  44
ENDBRANCH  28  29
ENDBRANCH  17  28
ENDBRANCH  15  16
ENDBRANCH  14  15
ENDBRANCH   4  14
TORSDOF 6
ENDMDL
MODEL      156
REMARK 921   NORMALIZED FREE ENERGY PREDICTED BY IDOCK:   -3.05 KCAL/MOL
REMARK 922        TOTAL FREE ENERGY PREDICTED BY IDOCK:   -5.60 KCAL/MOL
REMARK 923 INTER-LIGAND FREE ENERGY PREDICTED BY IDOCK:   -7.35 KCAL/MOL
REMARK 924 INTRA-LIGAND FREE ENERGY PREDICTED BY IDOCK:    1.76 KCAL/MOL
REMARK 927      BINDING AFFINITY PREDICTED BY RF-SCORE:    0.00 PKD
ROOT
HETATM    1  C   UNL     1      -9.529   8.369  71.800  1.00  0.00    -0.302 C  
HETATM    2  C   UNL     1     -10.870   8.641  71.111  1.00  0.00    -0.259 C  
HETATM    3  O   UNL     1     -10.689   9.911  70.483  1.00  0.00    -0.288 OA 
HETATM    4  C   UNL     1     -11.811  10.696  70.107  1.00  0.00    -0.337 C  
HETATM    5  H   UNL     1     -14.589   8.192  72.608  1.00  0.00     0.000 HD 
HETATM    6  C   UNL     1     -12.983  10.631  71.097  1.00  0.00    -0.387 C  
HETATM    7  C   UNL     1     -13.283   9.174  71.479  1.00  0.00    -0.352 C  
HETATM    8  O   UNL     1     -12.225   7.202  72.534  1.00  0.00    -0.497 OA 
HETATM    9  O   UNL     1     -12.674  11.382  72.287  1.00  0.00    -0.036 OA 
HETATM   10  H   UNL     1     -13.399  11.342  72.900  1.00  0.00     0.000 HD 
HETATM   11  H   UNL     1     -12.940   7.154  73.158  1.00  0.00     0.000 HD 
HETATM   12  O   UNL     1     -14.404   9.093  72.372  1.00  0.00    -0.463 OA 
HETATM   13  C   UNL     1     -12.029   8.564  72.123  1.00  0.00    -0.383 C  
ENDROOT
BRANCH   4  14
HETATM   14  O   UNL     1     -12.299  10.469  68.783  1.00  0.00    -0.238 OA 
BRANCH  14  15
HETATM   15  C   UNL     1     -11.589  11.217  67.780  1.00  0.00    -0.223 C  
BRANCH  15  16
HETATM   16  C   UNL     1     -11.061  12.510  68.414  1.00  0.00    -0.258 C  
HETATM   17  C   UNL     1      -8.936  13.004  67.260  1.00  0.00    -0.212 C  
HETATM   18  O   UNL     1      -9.613  12.534  68.445  1.00  0.00    -0.217 OA 
HETATM   19  H   UNL     1     -12.295  13.680  65.320  1.00  0.00     0.000 HD 
HETATM   20  C   UNL     1      -9.482  14.424  66.983  1.00  0.00    -0.248 C  
HETATM   21  H   UNL     1     -12.337  15.490  68.607  1.00  0.00     0.000 HD 
HETATM   22  O   UNL     1      -9.251  15.291  68.122  1.00  0.00    -0.179 OA 
HETATM   23  C   UNL     1     -10.992  14.393  66.693  1.00  0.00    -0.318 C  
HETATM   24  H   UNL     1      -9.587  16.163  67.952  1.00  0.00     0.000 HD 
HETATM   25  O   UNL     1     -11.910  14.712  68.944  1.00  0.00    -0.305 OA 
HETATM   26  O   UNL     1     -11.362  13.699  65.500  1.00  0.00    -0.296 OA 
HETATM   27  C   UNL     1     -11.755  13.772  67.866  1.00  0.00    -0.360 C  
BRANCH  17  28
HETATM   28  O   UNL     1      -9.038  12.050  66.191  1.00  0.00    -0.203 OA 
BRANCH  28  29
HETATM   29  C   UNL     1      -8.119  11.001  66.178  1.00  0.00    -0.141 C  
HETATM   30  O   UNL     1      -6.193   9.851  67.153  1.00  0.00    -0.061 OA 
HETATM   31  C   UNL     1      -6.989  10.976  66.928  1.00  0.00    -0.125 C  
HETATM   32  C   UNL     1      -6.467   8.698  66.461  1.00  0.00    -0.059 A  
HETATM   33  O   UNL     1      -9.705   9.475  65.384  1.00  0.00    -0.294 OA 
HETATM   34  H   UNL     1      -9.130   8.314  63.557  1.00  0.00     0.000 HD 
HETATM   35  C   UNL     1      -5.695   7.559  66.684  1.00  0.00    -0.031 A  
HETATM   36  C   UNL     1      -8.523   9.693  65.620  1.00  0.00    -0.132 C  
HETATM   37  C   UNL     1      -5.932   6.410  65.920  1.00  0.00    -0.025 A  
HETATM   38  C   UNL     1      -7.520   8.640  65.528  1.00  0.00    -0.085 A  
HETATM   39  O   UNL     1      -8.581   7.549  63.690  1.00  0.00     0.220 OA 
HETATM   40  C   UNL     1      -6.874   6.403  64.897  1.00  0.00    -0.050 A  
HETATM   41  O   UNL     1      -5.258   5.243  66.136  1.00  0.00    -0.008 OA 
HETATM   42  H   UNL     1      -5.419   4.463  65.617  1.00  0.00     0.000 HD 
HETATM   43  C   UNL     1      -7.675   7.519  64.704  1.00  0.00    -0.122 A  
BRANCH  31  44
HETATM   44  C   UNL     1      -6.591  12.183  67.668  1.00  0.00    -0.116 A  
HETATM   45  O   UNL     1      -6.175  15.729  69.781  1.00  0.00    -0.158 OA 
HETATM   46  H   UNL     1      -5.708  16.538  67.601  1.00  0.00     0.000 HD 
HETATM   47  C   UNL     1      -6.733  12.200  69.069  1.00  0.00    -0.103 A  
HETATM   48  H   UNL     1      -6.300  15.739  70.723  1.00  0.00     0.000 HD 
HETATM   49  O   UNL     1      -5.804  15.733  67.107  1.00  0.00    -0.334 OA 
HETATM   50  C   UNL     1      -6.264  14.551  69.094  1.00  0.00    -0.096 A  
HETATM   51  C   UNL     1      -6.079  14.536  67.714  1.00  0.00    -0.117 A  
HETATM   52  C   UNL     1      -6.220  13.355  66.990  1.00  0.00     0.816 A  
HETATM   53  C   UNL     1      -6.572  13.389  69.785  1.00  0.00     0.028 A  
ENDBRANCH  31  44
ENDBRANCH  28  29
ENDBRANCH  17  28
ENDBRANCH  15  16
ENDBRANCH  14  15
ENDBRANCH   4  14
TORSDOF 6
ENDMDL
MODEL      157
REMARK 921   NORMALIZED FREE ENERGY PREDICTED BY IDOCK:   -3.03 KCAL/MOL
REMARK 922        TOTAL FREE ENERGY PREDICTED BY IDOCK:   -5.57 KCAL/MOL
REMARK 923 INTER-LIGAND FREE ENERGY PREDICTED BY IDOCK:   -8.89 KCAL/MOL
REMARK 924 INTRA-LIGAND FREE ENERGY PREDICTED BY IDOCK:    3.32 KCAL/MOL
REMARK 927      BINDING AFFINITY PREDICTED BY RF-SCORE:    0.00 PKD
ROOT
HETATM    1  C   UNL     1      -8.943   4.425  67.688  1.00  0.00    -0.134 C  
HETATM    2  C   UNL     1      -9.482   5.835  67.424  1.00  0.00    -0.112 C  
HETATM    3  O   UNL     1      -8.358   6.549  66.909  1.00  0.00    -0.112 OA 
HETATM    4  C   UNL     1      -8.330   7.969  66.939  1.00  0.00    -0.116 C  
HETATM    5  H   UNL     1     -11.779   8.123  69.825  1.00  0.00     0.000 HD 
HETATM    6  C   UNL     1      -8.958   8.582  68.200  1.00  0.00    -0.142 C  
HETATM    7  C   UNL     1     -10.319   7.932  68.492  1.00  0.00    -0.200 C  
HETATM    8  O   UNL     1     -11.335   5.735  69.002  1.00  0.00    -0.137 OA 
HETATM    9  O   UNL     1      -8.087   8.396  69.333  1.00  0.00    -0.110 OA 
HETATM   10  H   UNL     1      -8.475   8.775  70.113  1.00  0.00     0.000 HD 
HETATM   11  H   UNL     1     -11.723   6.099  69.790  1.00  0.00     0.000 HD 
HETATM   12  O   UNL     1     -10.938   8.524  69.644  1.00  0.00    -0.197 OA 
HETATM   13  C   UNL     1     -10.112   6.424  68.701  1.00  0.00    -0.158 C  
ENDROOT
BRANCH   4  14
HETATM   14  O   UNL     1      -8.867   8.615  65.783  1.00  0.00    -0.172 OA 
BRANCH  14  15
HETATM   15  C   UNL     1      -9.285   9.969  66.032  1.00  0.00    -0.162 C  
BRANCH  15  16
HETATM   16  C   UNL     1      -8.042  10.866  66.078  1.00  0.00    -0.142 C  
HETATM   17  C   UNL     1      -8.872  13.132  66.598  1.00  0.00    -0.064 C  
HETATM   18  O   UNL     1      -8.340  12.210  65.624  1.00  0.00     0.525 OA 
HETATM   19  H   UNL     1      -8.776  10.484  69.510  1.00  0.00     0.000 HD 
HETATM   20  C   UNL     1      -7.844  13.181  67.753  1.00  0.00    -0.152 C  
HETATM   21  H   UNL     1      -5.382  10.768  67.937  1.00  0.00     0.000 HD 
HETATM   22  O   UNL     1      -6.544  13.595  67.263  1.00  0.00    -0.411 OA 
HETATM   23  C   UNL     1      -7.697  11.806  68.425  1.00  0.00    -0.131 C  
HETATM   24  H   UNL     1      -5.913  13.624  67.973  1.00  0.00     0.000 HD 
HETATM   25  O   UNL     1      -5.860  10.840  67.120  1.00  0.00    -0.045 OA 
HETATM   26  O   UNL     1      -8.868  11.333  69.094  1.00  0.00    -0.027 OA 
HETATM   27  C   UNL     1      -7.267  10.749  67.404  1.00  0.00    -0.093 C  
BRANCH  17  28
HETATM   28  O   UNL     1     -10.224  12.798  66.947  1.00  0.00    -0.233 OA 
BRANCH  28  29
HETATM   29  C   UNL     1     -10.742  13.361  68.113  1.00  0.00    -0.253 C  
HETATM   30  O   UNL     1     -11.501  15.314  69.376  1.00  0.00    -0.274 OA 
HETATM   31  C   UNL     1     -10.761  14.693  68.367  1.00  0.00    -0.241 C  
HETATM   32  C   UNL     1     -12.160  14.531  70.290  1.00  0.00    -0.323 A  
HETATM   33  O   UNL     1     -12.087  11.496  68.547  1.00  0.00    -0.522 OA 
HETATM   34  H   UNL     1     -11.893  10.592  70.587  1.00  0.00     0.000 HD 
HETATM   35  C   UNL     1     -12.918  15.131  71.294  1.00  0.00    -0.478 A  
HETATM   36  C   UNL     1     -11.635  12.554  68.971  1.00  0.00    -0.314 C  
HETATM   37  C   UNL     1     -13.525  14.327  72.267  1.00  0.00    -0.457 A  
HETATM   38  C   UNL     1     -12.089  13.125  70.232  1.00  0.00    -0.399 A  
HETATM   39  O   UNL     1     -12.384  11.006  71.288  1.00  0.00    -0.353 OA 
HETATM   40  C   UNL     1     -13.330  12.950  72.292  1.00  0.00    -0.597 A  
HETATM   41  O   UNL     1     -14.335  14.847  73.235  1.00  0.00     0.105 OA 
HETATM   42  H   UNL     1     -14.746  14.301  73.895  1.00  0.00     0.000 HD 
HETATM   43  C   UNL     1     -12.615  12.346  71.269  1.00  0.00    -0.230 A  
BRANCH  31  44
HETATM   44  C   UNL     1     -10.042  15.606  67.466  1.00  0.00    -0.253 A  
HETATM   45  O   UNL     1      -8.054  18.653  65.471  1.00  0.00    -0.310 OA 
HETATM   46  H   UNL     1     -10.218  18.953  64.547  1.00  0.00     0.000 HD 
HETATM   47  C   UNL     1      -8.660  15.803  67.657  1.00  0.00    -0.173 A  
HETATM   48  H   UNL     1      -7.128  18.798  65.626  1.00  0.00     0.000 HD 
HETATM   49  O   UNL     1     -10.684  18.261  65.001  1.00  0.00    -0.594 OA 
HETATM   50  C   UNL     1      -8.695  17.618  66.091  1.00  0.00    -0.106 A  
HETATM   51  C   UNL     1     -10.052  17.404  65.863  1.00  0.00    -0.205 A  
HETATM   52  C   UNL     1     -10.734  16.389  66.529  1.00  0.00    -0.163 A  
HETATM   53  C   UNL     1      -7.985  16.813  66.970  1.00  0.00    -0.231 A  
ENDBRANCH  31  44
ENDBRANCH  28  29
ENDBRANCH  17  28
ENDBRANCH  15  16
ENDBRANCH  14  15
ENDBRANCH   4  14
TORSDOF 6
ENDMDL
MODEL      158
REMARK 921   NORMALIZED FREE ENERGY PREDICTED BY IDOCK:   -2.98 KCAL/MOL
REMARK 922        TOTAL FREE ENERGY PREDICTED BY IDOCK:   -5.51 KCAL/MOL
REMARK 923 INTER-LIGAND FREE ENERGY PREDICTED BY IDOCK:   -4.72 KCAL/MOL
REMARK 924 INTRA-LIGAND FREE ENERGY PREDICTED BY IDOCK:   -0.79 KCAL/MOL
REMARK 927      BINDING AFFINITY PREDICTED BY RF-SCORE:    0.00 PKD
ROOT
HETATM    1  C   UNL     1      -7.442   5.226  70.204  1.00  0.00    -0.068 C  
HETATM    2  C   UNL     1      -8.686   5.639  70.997  1.00  0.00    -0.134 C  
HETATM    3  O   UNL     1      -8.227   6.694  71.842  1.00  0.00    -0.104 OA 
HETATM    4  C   UNL     1      -8.955   7.053  73.008  1.00  0.00    -0.130 C  
HETATM    5  H   UNL     1     -11.380   3.267  72.838  1.00  0.00     0.000 HD 
HETATM    6  C   UNL     1      -9.578   5.860  73.750  1.00  0.00    -0.147 C  
HETATM    7  C   UNL     1     -10.306   4.936  72.764  1.00  0.00    -0.190 C  
HETATM    8  O   UNL     1      -9.887   3.532  70.770  1.00  0.00    -0.169 OA 
HETATM    9  O   UNL     1      -8.557   5.113  74.440  1.00  0.00    -0.109 OA 
HETATM   10  H   UNL     1      -8.942   4.376  74.899  1.00  0.00     0.000 HD 
HETATM   11  H   UNL     1     -10.262   2.784  71.220  1.00  0.00     0.000 HD 
HETATM   12  O   UNL     1     -10.930   3.839  73.448  1.00  0.00    -0.203 OA 
HETATM   13  C   UNL     1      -9.295   4.426  71.726  1.00  0.00    -0.140 C  
ENDROOT
BRANCH   4  14
HETATM   14  O   UNL     1      -9.948   8.063  72.822  1.00  0.00    -0.250 OA 
BRANCH  14  15
HETATM   15  C   UNL     1      -9.536   9.105  71.919  1.00  0.00     0.040 C  
BRANCH  15  16
HETATM   16  C   UNL     1     -10.787   9.798  71.367  1.00  0.00    -0.110 C  
HETATM   17  C   UNL     1     -10.119  10.751  69.190  1.00  0.00    -0.205 C  
HETATM   18  O   UNL     1     -10.444  10.966  70.580  1.00  0.00     0.443 OA 
HETATM   19  H   UNL     1     -10.677   6.860  69.414  1.00  0.00     0.000 HD 
HETATM   20  C   UNL     1     -11.339  10.033  68.567  1.00  0.00    -0.052 C  
HETATM   21  H   UNL     1     -13.737   8.656  70.633  1.00  0.00     0.000 HD 
HETATM   22  O   UNL     1     -12.539  10.831  68.729  1.00  0.00    -0.732 OA 
HETATM   23  C   UNL     1     -11.573   8.662  69.222  1.00  0.00     0.796 C  
HETATM   24  H   UNL     1     -13.288  10.390  68.345  1.00  0.00     0.000 HD 
HETATM   25  O   UNL     1     -13.121   9.262  71.026  1.00  0.00    -0.236 OA 
HETATM   26  O   UNL     1     -10.531   7.707  69.010  1.00  0.00    -0.212 OA 
HETATM   27  C   UNL     1     -11.787   8.814  70.730  1.00  0.00    -0.178 C  
BRANCH  17  28
HETATM   28  O   UNL     1      -8.844  10.105  69.048  1.00  0.00    -0.145 OA 
BRANCH  28  29
HETATM   29  C   UNL     1      -8.332   9.975  67.757  1.00  0.00    -0.114 C  
HETATM   30  O   UNL     1      -6.974  10.834  65.913  1.00  0.00    -0.131 OA 
HETATM   31  C   UNL     1      -7.732  10.983  67.077  1.00  0.00    -0.134 C  
HETATM   32  C   UNL     1      -6.931   9.605  65.305  1.00  0.00    -0.101 A  
HETATM   33  O   UNL     1      -8.123   7.653  67.954  1.00  0.00    -0.119 OA 
HETATM   34  H   UNL     1      -9.069   6.435  66.330  1.00  0.00     0.000 HD 
HETATM   35  C   UNL     1      -6.166   9.431  64.152  1.00  0.00    -0.092 A  
HETATM   36  C   UNL     1      -8.088   8.624  67.208  1.00  0.00    -0.101 C  
HETATM   37  C   UNL     1      -6.188   8.195  63.496  1.00  0.00    -0.072 A  
HETATM   38  C   UNL     1      -7.645   8.508  65.825  1.00  0.00    -0.085 A  
HETATM   39  O   UNL     1      -8.571   6.329  65.528  1.00  0.00    -0.150 OA 
HETATM   40  C   UNL     1      -7.009   7.159  63.929  1.00  0.00    -0.057 A  
HETATM   41  O   UNL     1      -5.410   7.939  62.403  1.00  0.00    -0.057 OA 
HETATM   42  H   UNL     1      -5.425   7.100  61.958  1.00  0.00     0.000 HD 
HETATM   43  C   UNL     1      -7.736   7.314  65.100  1.00  0.00    -0.113 A  
BRANCH  31  44
HETATM   44  C   UNL     1      -7.769  12.345  67.630  1.00  0.00    -0.151 A  
HETATM   45  O   UNL     1      -7.966  15.859  69.827  1.00  0.00    -0.065 OA 
HETATM   46  H   UNL     1     -10.199  15.793  69.029  1.00  0.00     0.000 HD 
HETATM   47  C   UNL     1      -6.624  12.847  68.279  1.00  0.00    -0.091 A  
HETATM   48  H   UNL     1      -7.198  16.177  70.286  1.00  0.00     0.000 HD 
HETATM   49  O   UNL     1     -10.166  14.988  68.526  1.00  0.00    -0.217 OA 
HETATM   50  C   UNL     1      -7.885  14.728  69.064  1.00  0.00    -0.150 A  
HETATM   51  C   UNL     1      -9.012  14.263  68.390  1.00  0.00    -0.189 A  
HETATM   52  C   UNL     1      -8.963  13.082  67.652  1.00  0.00    -0.192 A  
HETATM   53  C   UNL     1      -6.683  14.041  69.001  1.00  0.00    -0.109 A  
ENDBRANCH  31  44
ENDBRANCH  28  29
ENDBRANCH  17  28
ENDBRANCH  15  16
ENDBRANCH  14  15
ENDBRANCH   4  14
TORSDOF 6
ENDMDL
MODEL      159
REMARK 921   NORMALIZED FREE ENERGY PREDICTED BY IDOCK:   -2.89 KCAL/MOL
REMARK 922        TOTAL FREE ENERGY PREDICTED BY IDOCK:   -5.38 KCAL/MOL
REMARK 923 INTER-LIGAND FREE ENERGY PREDICTED BY IDOCK:   -4.21 KCAL/MOL
REMARK 924 INTRA-LIGAND FREE ENERGY PREDICTED BY IDOCK:   -1.17 KCAL/MOL
REMARK 927      BINDING AFFINITY PREDICTED BY RF-SCORE:    0.00 PKD
ROOT
HETATM    1  C   UNL     1      -8.426  13.657  66.611  1.00  0.00     0.138 C  
HETATM    2  C   UNL     1      -9.577  12.653  66.495  1.00  0.00    -0.248 C  
HETATM    3  O   UNL     1      -8.976  11.497  65.910  1.00  0.00    -0.204 OA 
HETATM    4  C   UNL     1      -9.775  10.519  65.261  1.00  0.00    -0.270 C  
HETATM    5  H   UNL     1     -13.318  13.288  65.126  1.00  0.00     0.000 HD 
HETATM    6  C   UNL     1     -10.956  11.099  64.468  1.00  0.00    -0.185 C  
HETATM    7  C   UNL     1     -11.716  12.130  65.314  1.00  0.00    -0.308 C  
HETATM    8  O   UNL     1     -11.384  14.287  66.481  1.00  0.00    -0.326 OA 
HETATM    9  O   UNL     1     -10.486  11.727  63.259  1.00  0.00    -0.523 OA 
HETATM   10  H   UNL     1     -11.216  12.086  62.769  1.00  0.00     0.000 HD 
HETATM   11  H   UNL     1     -12.108  14.661  65.992  1.00  0.00     0.000 HD 
HETATM   12  O   UNL     1     -12.848  12.650  64.602  1.00  0.00    -0.704 OA 
HETATM   13  C   UNL     1     -10.750  13.260  65.701  1.00  0.00    -0.282 C  
ENDROOT
BRANCH   4  14
HETATM   14  O   UNL     1     -10.244   9.459  66.097  1.00  0.00    -0.279 OA 
BRANCH  14  15
HETATM   15  C   UNL     1      -9.969   9.674  67.493  1.00  0.00    -0.183 C  
BRANCH  15  16
HETATM   16  C   UNL     1     -11.242   9.374  68.295  1.00  0.00     0.189 C  
HETATM   17  C   UNL     1     -10.504   8.077  70.261  1.00  0.00    -0.222 C  
HETATM   18  O   UNL     1     -11.153   8.096  68.973  1.00  0.00     0.041 OA 
HETATM   19  H   UNL     1      -9.774  11.946  70.216  1.00  0.00     0.000 HD 
HETATM   20  C   UNL     1     -11.265   9.093  71.145  1.00  0.00    -0.325 C  
HETATM   21  H   UNL     1     -13.436  11.336  69.668  1.00  0.00     0.000 HD 
HETATM   22  O   UNL     1     -12.668   8.738  71.237  1.00  0.00    -0.400 OA 
HETATM   23  C   UNL     1     -11.159  10.517  70.575  1.00  0.00    -0.187 C  
HETATM   24  H   UNL     1     -13.136   9.362  71.780  1.00  0.00     0.000 HD 
HETATM   25  O   UNL     1     -13.147  10.599  69.143  1.00  0.00     0.291 OA 
HETATM   26  O   UNL     1      -9.840  11.066  70.568  1.00  0.00     1.423 OA 
HETATM   27  C   UNL     1     -11.709  10.569  69.147  1.00  0.00    -0.189 C  
BRANCH  17  28
HETATM   28  O   UNL     1      -9.086   8.267  70.132  1.00  0.00    -0.144 OA 
BRANCH  28  29
HETATM   29  C   UNL     1      -8.293   7.123  70.040  1.00  0.00    -0.138 C  
HETATM   30  O   UNL     1      -6.099   6.073  69.775  1.00  0.00    -0.024 OA 
HETATM   31  C   UNL     1      -7.002   7.129  69.626  1.00  0.00    -0.051 C  
HETATM   32  C   UNL     1      -6.562   4.870  70.245  1.00  0.00    -0.036 A  
HETATM   33  O   UNL     1      -9.614   5.950  71.574  1.00  0.00    -0.153 OA 
HETATM   34  H   UNL     1     -10.353   3.943  70.909  1.00  0.00     0.000 HD 
HETATM   35  C   UNL     1      -5.674   3.808  70.418  1.00  0.00    -0.013 A  
HETATM   36  C   UNL     1      -8.712   5.894  70.747  1.00  0.00    -0.134 C  
HETATM   37  C   UNL     1      -6.167   2.563  70.825  1.00  0.00    -0.019 A  
HETATM   38  C   UNL     1      -7.922   4.684  70.562  1.00  0.00    -0.061 A  
HETATM   39  O   UNL     1      -9.750   3.214  70.996  1.00  0.00    -0.162 OA 
HETATM   40  C   UNL     1      -7.530   2.344  70.994  1.00  0.00    -0.033 A  
HETATM   41  O   UNL     1      -5.343   1.504  71.077  1.00  0.00    -0.004 OA 
HETATM   42  H   UNL     1      -5.678   0.659  71.353  1.00  0.00     0.000 HD 
HETATM   43  C   UNL     1      -8.410   3.408  70.868  1.00  0.00    -0.065 A  
BRANCH  31  44
HETATM   44  C   UNL     1      -6.433   8.363  69.064  1.00  0.00    -0.048 A  
HETATM   45  O   UNL     1      -5.515  12.071  67.442  1.00  0.00    -0.089 OA 
HETATM   46  H   UNL     1      -5.438  10.768  65.461  1.00  0.00     0.000 HD 
HETATM   47  C   UNL     1      -6.309   9.495  69.893  1.00  0.00    -0.050 A  
HETATM   48  H   UNL     1      -5.461  12.835  68.003  1.00  0.00     0.000 HD 
HETATM   49  O   UNL     1      -5.651   9.915  65.821  1.00  0.00    -0.047 OA 
HETATM   50  C   UNL     1      -5.768  10.842  67.986  1.00  0.00    -0.042 A  
HETATM   51  C   UNL     1      -5.846   9.721  67.163  1.00  0.00    -0.051 A  
HETATM   52  C   UNL     1      -6.158   8.471  67.692  1.00  0.00    -0.048 A  
HETATM   53  C   UNL     1      -5.979  10.739  69.352  1.00  0.00    -0.046 A  
ENDBRANCH  31  44
ENDBRANCH  28  29
ENDBRANCH  17  28
ENDBRANCH  15  16
ENDBRANCH  14  15
ENDBRANCH   4  14
TORSDOF 6
ENDMDL
MODEL      160
REMARK 921   NORMALIZED FREE ENERGY PREDICTED BY IDOCK:   -2.79 KCAL/MOL
REMARK 922        TOTAL FREE ENERGY PREDICTED BY IDOCK:   -5.25 KCAL/MOL
REMARK 923 INTER-LIGAND FREE ENERGY PREDICTED BY IDOCK:   -6.07 KCAL/MOL
REMARK 924 INTRA-LIGAND FREE ENERGY PREDICTED BY IDOCK:    0.82 KCAL/MOL
REMARK 927      BINDING AFFINITY PREDICTED BY RF-SCORE:    0.00 PKD
ROOT
HETATM    1  C   UNL     1      -8.374   5.631  71.643  1.00  0.00    -0.124 C  
HETATM    2  C   UNL     1      -8.219   6.697  70.553  1.00  0.00    -0.118 C  
HETATM    3  O   UNL     1      -7.145   6.217  69.744  1.00  0.00    -0.068 OA 
HETATM    4  C   UNL     1      -6.428   7.104  68.897  1.00  0.00    -0.032 C  
HETATM    5  H   UNL     1      -8.142  10.709  70.973  1.00  0.00     0.000 HD 
HETATM    6  C   UNL     1      -6.205   8.500  69.497  1.00  0.00    -0.036 C  
HETATM    7  C   UNL     1      -7.515   9.048  70.084  1.00  0.00    -0.072 C  
HETATM    8  O   UNL     1      -9.218   8.534  71.803  1.00  0.00    -0.198 OA 
HETATM    9  O   UNL     1      -5.204   8.446  70.532  1.00  0.00    -0.022 OA 
HETATM   10  H   UNL     1      -5.066   9.309  70.903  1.00  0.00     0.000 HD 
HETATM   11  H   UNL     1      -9.085   9.392  72.189  1.00  0.00     0.000 HD 
HETATM   12  O   UNL     1      -7.332  10.370  70.610  1.00  0.00    -0.197 OA 
HETATM   13  C   UNL     1      -8.003   8.088  71.180  1.00  0.00    -0.094 C  
ENDROOT
BRANCH   4  14
HETATM   14  O   UNL     1      -6.945   7.236  67.572  1.00  0.00    -0.070 OA 
BRANCH  14  15
HETATM   15  C   UNL     1      -5.925   7.203  66.558  1.00  0.00    -0.035 C  
BRANCH  15  16
HETATM   16  C   UNL     1      -6.600   7.084  65.186  1.00  0.00    -0.047 C  
HETATM   17  C   UNL     1      -8.692   8.383  65.354  1.00  0.00    -0.141 C  
HETATM   18  O   UNL     1      -8.045   7.095  65.302  1.00  0.00    -0.125 OA 
HETATM   19  H   UNL     1      -5.301  10.364  65.064  1.00  0.00     0.000 HD 
HETATM   20  C   UNL     1      -8.258   9.137  64.075  1.00  0.00    -0.168 C  
HETATM   21  H   UNL     1      -5.607   7.941  62.215  1.00  0.00     0.000 HD 
HETATM   22  O   UNL     1      -8.630   8.388  62.890  1.00  0.00    -0.398 OA 
HETATM   23  C   UNL     1      -6.738   9.364  64.050  1.00  0.00    -0.096 C  
HETATM   24  H   UNL     1      -8.364   8.851  62.105  1.00  0.00     0.000 HD 
HETATM   25  O   UNL     1      -5.982   7.357  62.864  1.00  0.00    -0.048 OA 
HETATM   26  O   UNL     1      -6.241  10.223  65.079  1.00  0.00    -0.116 OA 
HETATM   27  C   UNL     1      -5.991   8.031  64.135  1.00  0.00    -0.057 C  
BRANCH  17  28
HETATM   28  O   UNL     1      -8.445   9.039  66.607  1.00  0.00    -0.119 OA 
BRANCH  28  29
HETATM   29  C   UNL     1      -9.398   9.958  67.048  1.00  0.00    -0.147 C  
HETATM   30  O   UNL     1     -11.222  10.569  68.558  1.00  0.00    -0.258 OA 
HETATM   31  C   UNL     1     -10.420   9.646  67.883  1.00  0.00    -0.246 C  
HETATM   32  C   UNL     1     -11.086  11.902  68.267  1.00  0.00    -0.239 A  
HETATM   33  O   UNL     1      -7.988  11.781  66.641  1.00  0.00    -0.148 OA 
HETATM   34  H   UNL     1      -8.841  13.427  65.383  1.00  0.00     0.000 HD 
HETATM   35  C   UNL     1     -11.865  12.840  68.942  1.00  0.00    -0.351 A  
HETATM   36  C   UNL     1      -9.121  11.404  66.919  1.00  0.00    -0.175 C  
HETATM   37  C   UNL     1     -11.774  14.191  68.585  1.00  0.00    -0.350 A  
HETATM   38  C   UNL     1     -10.166  12.346  67.296  1.00  0.00    -0.224 A  
HETATM   39  O   UNL     1      -9.396  14.060  65.824  1.00  0.00    -0.081 OA 
HETATM   40  C   UNL     1     -10.974  14.608  67.526  1.00  0.00    -0.301 A  
HETATM   41  O   UNL     1     -12.459  15.166  69.252  1.00  0.00    -0.570 OA 
HETATM   42  H   UNL     1     -12.396  16.082  69.010  1.00  0.00     0.000 HD 
HETATM   43  C   UNL     1     -10.163  13.684  66.883  1.00  0.00    -0.261 A  
BRANCH  31  44
HETATM   44  C   UNL     1     -10.671   8.236  68.215  1.00  0.00    -0.076 A  
HETATM   45  O   UNL     1     -10.775   4.305  69.540  1.00  0.00     0.884 OA 
HETATM   46  H   UNL     1      -9.826   3.950  67.395  1.00  0.00     0.000 HD 
HETATM   47  C   UNL     1     -11.221   7.920  69.473  1.00  0.00     0.123 A  
HETATM   48  H   UNL     1     -11.120   4.103  70.401  1.00  0.00     0.000 HD 
HETATM   49  O   UNL     1      -9.794   4.847  67.083  1.00  0.00    -0.162 OA 
HETATM   50  C   UNL     1     -10.788   5.595  69.086  1.00  0.00    -0.211 A  
HETATM   51  C   UNL     1     -10.282   5.892  67.823  1.00  0.00    -0.182 A  
HETATM   52  C   UNL     1     -10.236   7.206  67.366  1.00  0.00    -0.291 A  
HETATM   53  C   UNL     1     -11.277   6.596  69.912  1.00  0.00    -0.421 A  
ENDBRANCH  31  44
ENDBRANCH  28  29
ENDBRANCH  17  28
ENDBRANCH  15  16
ENDBRANCH  14  15
ENDBRANCH   4  14
TORSDOF 6
ENDMDL
MODEL      161
REMARK 921   NORMALIZED FREE ENERGY PREDICTED BY IDOCK:   -2.56 KCAL/MOL
REMARK 922        TOTAL FREE ENERGY PREDICTED BY IDOCK:   -4.94 KCAL/MOL
REMARK 923 INTER-LIGAND FREE ENERGY PREDICTED BY IDOCK:   -4.02 KCAL/MOL
REMARK 924 INTRA-LIGAND FREE ENERGY PREDICTED BY IDOCK:   -0.92 KCAL/MOL
REMARK 927      BINDING AFFINITY PREDICTED BY RF-SCORE:    0.00 PKD
ROOT
HETATM    1  C   UNL     1     -11.330   9.773  70.816  1.00  0.00    -0.416 C  
HETATM    2  C   UNL     1     -10.414   8.548  70.725  1.00  0.00    -0.200 C  
HETATM    3  O   UNL     1     -10.957   7.783  69.649  1.00  0.00    -0.220 OA 
HETATM    4  C   UNL     1     -10.658   6.401  69.524  1.00  0.00    -0.253 C  
HETATM    5  H   UNL     1      -9.052   6.217  73.722  1.00  0.00     0.000 HD 
HETATM    6  C   UNL     1     -10.574   5.653  70.864  1.00  0.00    -0.258 C  
HETATM    7  C   UNL     1      -9.709   6.438  71.862  1.00  0.00    -0.151 C  
HETATM    8  O   UNL     1      -9.607   8.620  73.023  1.00  0.00    -0.131 OA 
HETATM    9  O   UNL     1     -11.892   5.468  71.416  1.00  0.00     0.305 OA 
HETATM   10  H   UNL     1     -11.840   5.006  72.245  1.00  0.00     0.000 HD 
HETATM   11  H   UNL     1      -9.561   8.172  73.859  1.00  0.00     0.000 HD 
HETATM   12  O   UNL     1      -9.586   5.732  73.105  1.00  0.00    -0.147 OA 
HETATM   13  C   UNL     1     -10.341   7.821  72.082  1.00  0.00    -0.224 C  
ENDROOT
BRANCH   4  14
HETATM   14  O   UNL     1      -9.505   6.093  68.739  1.00  0.00    -0.122 OA 
BRANCH  14  15
HETATM   15  C   UNL     1      -9.411   6.877  67.536  1.00  0.00    -0.128 C  
BRANCH  15  16
HETATM   16  C   UNL     1      -9.693   5.967  66.334  1.00  0.00    -0.121 C  
HETATM   17  C   UNL     1      -8.661   7.086  64.391  1.00  0.00     0.379 C  
HETATM   18  O   UNL     1      -9.858   6.733  65.115  1.00  0.00     1.283 OA 
HETATM   19  H   UNL     1      -6.287   5.286  66.965  1.00  0.00     0.000 HD 
HETATM   20  C   UNL     1      -7.933   5.757  64.085  1.00  0.00    -0.122 C  
HETATM   21  H   UNL     1      -8.888   2.878  65.735  1.00  0.00     0.000 HD 
HETATM   22  O   UNL     1      -8.789   4.870  63.322  1.00  0.00    -0.190 OA 
HETATM   23  C   UNL     1      -7.516   5.039  65.379  1.00  0.00    -0.073 C  
HETATM   24  H   UNL     1      -8.341   4.053  63.134  1.00  0.00     0.000 HD 
HETATM   25  O   UNL     1      -9.477   3.622  65.781  1.00  0.00    -0.165 OA 
HETATM   26  O   UNL     1      -6.545   5.731  66.166  1.00  0.00    -0.048 OA 
HETATM   27  C   UNL     1      -8.738   4.761  66.259  1.00  0.00    -0.114 C  
BRANCH  17  28
HETATM   28  O   UNL     1      -7.909   8.091  65.089  1.00  0.00    -0.101 OA 
BRANCH  28  29
HETATM   29  C   UNL     1      -8.517   9.333  65.274  1.00  0.00    -0.154 C  
HETATM   30  O   UNL     1      -8.609  11.510  66.386  1.00  0.00    -0.178 OA 
HETATM   31  C   UNL     1      -8.236  10.166  66.307  1.00  0.00    -0.127 C  
HETATM   32  C   UNL     1      -9.446  12.022  65.427  1.00  0.00    -0.066 A  
HETATM   33  O   UNL     1      -9.095   9.511  63.014  1.00  0.00    -0.252 OA 
HETATM   34  H   UNL     1     -11.249   9.947  62.577  1.00  0.00     0.000 HD 
HETATM   35  C   UNL     1      -9.815  13.365  65.478  1.00  0.00    -0.157 A  
HETATM   36  C   UNL     1      -9.231   9.964  64.144  1.00  0.00    -0.262 C  
HETATM   37  C   UNL     1     -10.729  13.860  64.540  1.00  0.00    -0.366 A  
HETATM   38  C   UNL     1      -9.940  11.214  64.384  1.00  0.00    -0.354 A  
HETATM   39  O   UNL     1     -11.522  10.855  62.634  1.00  0.00     0.993 OA 
HETATM   40  C   UNL     1     -11.328  13.025  63.603  1.00  0.00    -0.392 A  
HETATM   41  O   UNL     1     -11.079  15.179  64.495  1.00  0.00    -0.611 OA 
HETATM   42  H   UNL     1     -11.699  15.515  63.858  1.00  0.00     0.000 HD 
HETATM   43  C   UNL     1     -10.929  11.700  63.520  1.00  0.00    -0.407 A  
BRANCH  31  44
HETATM   44  C   UNL     1      -7.384   9.687  67.405  1.00  0.00    -0.087 A  
HETATM   45  O   UNL     1      -5.229   7.680  70.329  1.00  0.00    -0.023 OA 
HETATM   46  H   UNL     1      -7.046   8.433  71.656  1.00  0.00     0.000 HD 
HETATM   47  C   UNL     1      -6.148   9.086  67.096  1.00  0.00    -0.058 A  
HETATM   48  H   UNL     1      -4.410   7.253  70.107  1.00  0.00     0.000 HD 
HETATM   49  O   UNL     1      -7.549   8.892  70.994  1.00  0.00    -0.096 OA 
HETATM   50  C   UNL     1      -5.912   8.383  69.375  1.00  0.00    -0.037 A  
HETATM   51  C   UNL     1      -7.112   9.010  69.701  1.00  0.00    -0.059 A  
HETATM   52  C   UNL     1      -7.849   9.683  68.730  1.00  0.00    -0.081 A  
HETATM   53  C   UNL     1      -5.411   8.429  68.084  1.00  0.00    -0.034 A  
ENDBRANCH  31  44
ENDBRANCH  28  29
ENDBRANCH  17  28
ENDBRANCH  15  16
ENDBRANCH  14  15
ENDBRANCH   4  14
TORSDOF 6
ENDMDL
MODEL      162
REMARK 921   NORMALIZED FREE ENERGY PREDICTED BY IDOCK:   -2.41 KCAL/MOL
REMARK 922        TOTAL FREE ENERGY PREDICTED BY IDOCK:   -4.74 KCAL/MOL
REMARK 923 INTER-LIGAND FREE ENERGY PREDICTED BY IDOCK:   -5.99 KCAL/MOL
REMARK 924 INTRA-LIGAND FREE ENERGY PREDICTED BY IDOCK:    1.25 KCAL/MOL
REMARK 927      BINDING AFFINITY PREDICTED BY RF-SCORE:    0.00 PKD
ROOT
HETATM    1  C   UNL     1      -9.478   9.889  65.069  1.00  0.00    -0.343 C  
HETATM    2  C   UNL     1      -8.138   9.153  64.966  1.00  0.00    -0.130 C  
HETATM    3  O   UNL     1      -7.372   9.669  66.055  1.00  0.00    -0.095 OA 
HETATM    4  C   UNL     1      -5.956   9.559  66.056  1.00  0.00    -0.062 C  
HETATM    5  H   UNL     1      -5.886   8.508  61.682  1.00  0.00     0.000 HD 
HETATM    6  C   UNL     1      -5.311   9.744  64.674  1.00  0.00    -0.066 C  
HETATM    7  C   UNL     1      -6.047   8.901  63.622  1.00  0.00    -0.080 C  
HETATM    8  O   UNL     1      -8.280   8.625  62.592  1.00  0.00    -0.176 OA 
HETATM    9  O   UNL     1      -5.349  11.131  64.286  1.00  0.00    -0.479 OA 
HETATM   10  H   UNL     1      -4.951  11.245  63.431  1.00  0.00     0.000 HD 
HETATM   11  H   UNL     1      -7.896   8.745  61.731  1.00  0.00     0.000 HD 
HETATM   12  O   UNL     1      -5.431   9.029  62.332  1.00  0.00    -0.082 OA 
HETATM   13  C   UNL     1      -7.516   9.348  63.570  1.00  0.00    -0.107 C  
ENDROOT
BRANCH   4  14
HETATM   14  O   UNL     1      -5.434   8.377  66.666  1.00  0.00    -0.031 OA 
BRANCH  14  15
HETATM   15  C   UNL     1      -5.344   8.469  68.098  1.00  0.00    -0.034 C  
BRANCH  15  16
HETATM   16  C   UNL     1      -6.541   9.277  68.615  1.00  0.00    -0.053 C  
HETATM   17  C   UNL     1      -8.336   7.632  69.019  1.00  0.00    -0.128 C  
HETATM   18  O   UNL     1      -7.798   8.690  68.197  1.00  0.00    -0.100 OA 
HETATM   19  H   UNL     1      -5.352   7.783  71.583  1.00  0.00     0.000 HD 
HETATM   20  C   UNL     1      -8.473   8.217  70.443  1.00  0.00    -0.129 C  
HETATM   21  H   UNL     1      -6.890  11.186  71.218  1.00  0.00     0.000 HD 
HETATM   22  O   UNL     1      -9.329   9.388  70.434  1.00  0.00    -0.232 OA 
HETATM   23  C   UNL     1      -7.104   8.620  71.015  1.00  0.00    -0.076 C  
HETATM   24  H   UNL     1      -9.413   9.748  71.309  1.00  0.00     0.000 HD 
HETATM   25  O   UNL     1      -6.965  10.961  70.299  1.00  0.00    -0.213 OA 
HETATM   26  O   UNL     1      -6.199   7.535  71.230  1.00  0.00    -0.036 OA 
HETATM   27  C   UNL     1      -6.419   9.644  70.106  1.00  0.00    -0.075 C  
BRANCH  17  28
HETATM   28  O   UNL     1      -7.566   6.427  68.885  1.00  0.00    -0.095 OA 
BRANCH  28  29
HETATM   29  C   UNL     1      -8.097   5.412  68.088  1.00  0.00    -0.095 C  
HETATM   30  O   UNL     1     -10.024   4.193  67.205  1.00  0.00    -0.184 OA 
HETATM   31  C   UNL     1      -9.386   4.999  68.151  1.00  0.00    -0.126 C  
HETATM   32  C   UNL     1      -9.277   3.642  66.194  1.00  0.00    -0.167 A  
HETATM   33  O   UNL     1      -6.438   5.672  66.459  1.00  0.00    -0.047 OA 
HETATM   34  H   UNL     1      -5.335   3.814  65.868  1.00  0.00     0.000 HD 
HETATM   35  C   UNL     1      -9.897   2.848  65.230  1.00  0.00     0.207 A  
HETATM   36  C   UNL     1      -7.368   4.990  66.874  1.00  0.00    -0.086 C  
HETATM   37  C   UNL     1      -9.116   2.229  64.247  1.00  0.00    -0.116 A  
HETATM   38  C   UNL     1      -7.889   3.865  66.109  1.00  0.00    -0.090 A  
HETATM   39  O   UNL     1      -5.757   3.249  65.231  1.00  0.00    -0.017 OA 
HETATM   40  C   UNL     1      -7.729   2.332  64.254  1.00  0.00    -0.068 A  
HETATM   41  O   UNL     1      -9.668   1.496  63.237  1.00  0.00    -0.096 OA 
HETATM   42  H   UNL     1      -9.138   1.076  62.570  1.00  0.00     0.000 HD 
HETATM   43  C   UNL     1      -7.113   3.156  65.183  1.00  0.00    -0.061 A  
BRANCH  31  44
HETATM   44  C   UNL     1     -10.251   5.501  69.229  1.00  0.00    -0.315 A  
HETATM   45  O   UNL     1     -12.190   7.435  72.347  1.00  0.00    -0.477 OA 
HETATM   46  H   UNL     1     -11.135   5.704  73.580  1.00  0.00     0.000 HD 
HETATM   47  C   UNL     1     -11.080   6.611  68.976  1.00  0.00    -0.318 A  
HETATM   48  H   UNL     1     -12.724   8.200  72.173  1.00  0.00     0.000 HD 
HETATM   49  O   UNL     1     -10.684   5.256  72.875  1.00  0.00    -0.216 OA 
HETATM   50  C   UNL     1     -11.593   6.770  71.312  1.00  0.00    -0.320 A  
HETATM   51  C   UNL     1     -10.809   5.647  71.568  1.00  0.00    -0.230 A  
HETATM   52  C   UNL     1     -10.148   4.991  70.533  1.00  0.00    -0.323 A  
HETATM   53  C   UNL     1     -11.751   7.250  70.021  1.00  0.00    -0.022 A  
ENDBRANCH  31  44
ENDBRANCH  28  29
ENDBRANCH  17  28
ENDBRANCH  15  16
ENDBRANCH  14  15
ENDBRANCH   4  14
TORSDOF 6
ENDMDL
MODEL      163
REMARK 921   NORMALIZED FREE ENERGY PREDICTED BY IDOCK:   -2.31 KCAL/MOL
REMARK 922        TOTAL FREE ENERGY PREDICTED BY IDOCK:   -4.60 KCAL/MOL
REMARK 923 INTER-LIGAND FREE ENERGY PREDICTED BY IDOCK:   -3.36 KCAL/MOL
REMARK 924 INTRA-LIGAND FREE ENERGY PREDICTED BY IDOCK:   -1.23 KCAL/MOL
REMARK 927      BINDING AFFINITY PREDICTED BY RF-SCORE:    0.00 PKD
ROOT
HETATM    1  C   UNL     1      -7.621   5.833  69.203  1.00  0.00    -0.089 C  
HETATM    2  C   UNL     1      -8.244   5.862  67.804  1.00  0.00    -0.105 C  
HETATM    3  O   UNL     1      -8.789   7.177  67.690  1.00  0.00    -0.121 OA 
HETATM    4  C   UNL     1      -9.798   7.459  66.731  1.00  0.00    -0.220 C  
HETATM    5  H   UNL     1     -10.581   3.082  66.048  1.00  0.00     0.000 HD 
HETATM    6  C   UNL     1     -10.815   6.324  66.538  1.00  0.00    -0.067 C  
HETATM    7  C   UNL     1     -10.092   4.978  66.374  1.00  0.00    -0.249 C  
HETATM    8  O   UNL     1      -8.557   3.457  67.576  1.00  0.00    -0.094 OA 
HETATM    9  O   UNL     1     -11.705   6.253  67.669  1.00  0.00    -0.430 OA 
HETATM   10  H   UNL     1     -12.334   5.551  67.550  1.00  0.00     0.000 HD 
HETATM   11  H   UNL     1      -9.180   2.747  67.471  1.00  0.00     0.000 HD 
HETATM   12  O   UNL     1     -11.028   3.913  66.150  1.00  0.00     1.099 OA 
HETATM   13  C   UNL     1      -9.254   4.711  67.633  1.00  0.00    -0.129 C  
ENDROOT
BRANCH   4  14
HETATM   14  O   UNL     1      -9.324   7.890  65.454  1.00  0.00     0.171 OA 
BRANCH  14  15
HETATM   15  C   UNL     1      -9.498   9.301  65.231  1.00  0.00    -0.164 C  
BRANCH  15  16
HETATM   16  C   UNL     1      -8.323   9.813  64.389  1.00  0.00    -0.168 C  
HETATM   17  C   UNL     1      -7.138  11.443  65.815  1.00  0.00     0.464 C  
HETATM   18  O   UNL     1      -8.014  11.196  64.695  1.00  0.00     0.318 OA 
HETATM   19  H   UNL     1      -6.699   7.615  66.623  1.00  0.00     0.000 HD 
HETATM   20  C   UNL     1      -5.836  10.661  65.527  1.00  0.00    -0.130 C  
HETATM   21  H   UNL     1      -5.806   8.269  63.037  1.00  0.00     0.000 HD 
HETATM   22  O   UNL     1      -5.249  11.091  64.272  1.00  0.00    -0.428 OA 
HETATM   23  C   UNL     1      -6.099   9.149  65.449  1.00  0.00    -0.063 C  
HETATM   24  H   UNL     1      -4.449  10.610  64.095  1.00  0.00     0.000 HD 
HETATM   25  O   UNL     1      -6.540   8.871  63.053  1.00  0.00    -0.091 OA 
HETATM   26  O   UNL     1      -6.536   8.550  66.671  1.00  0.00    -0.058 OA 
HETATM   27  C   UNL     1      -7.133   8.836  64.364  1.00  0.00    -0.089 C  
BRANCH  17  28
HETATM   28  O   UNL     1      -7.798  11.168  67.061  1.00  0.00    -0.128 OA 
BRANCH  28  29
HETATM   29  C   UNL     1      -8.620  12.165  67.585  1.00  0.00    -0.166 C  
HETATM   30  O   UNL     1     -10.039  13.023  69.383  1.00  0.00     0.371 OA 
HETATM   31  C   UNL     1      -9.417  11.996  68.669  1.00  0.00    -0.062 C  
HETATM   32  C   UNL     1      -9.976  14.302  68.892  1.00  0.00    -0.156 A  
HETATM   33  O   UNL     1      -7.349  13.875  66.619  1.00  0.00     0.548 OA 
HETATM   34  H   UNL     1      -8.476  15.368  65.386  1.00  0.00     0.000 HD 
HETATM   35  C   UNL     1     -10.575  15.344  69.598  1.00  0.00    -0.285 A  
HETATM   36  C   UNL     1      -8.383  13.573  67.202  1.00  0.00    -0.139 C  
HETATM   37  C   UNL     1     -10.572  16.633  69.052  1.00  0.00    -0.340 A  
HETATM   38  C   UNL     1      -9.311  14.587  67.683  1.00  0.00    -0.202 A  
HETATM   39  O   UNL     1      -8.912  16.069  65.855  1.00  0.00    -0.326 OA 
HETATM   40  C   UNL     1     -10.044  16.883  67.790  1.00  0.00    -0.292 A  
HETATM   41  O   UNL     1     -11.081  17.707  69.724  1.00  0.00     0.116 OA 
HETATM   42  H   UNL     1     -11.078  18.582  69.353  1.00  0.00     0.000 HD 
HETATM   43  C   UNL     1      -9.407  15.859  67.105  1.00  0.00    -0.212 A  
BRANCH  31  44
HETATM   44  C   UNL     1      -9.582  10.650  69.237  1.00  0.00    -0.164 A  
HETATM   45  O   UNL     1     -10.308   7.195  71.418  1.00  0.00    -0.198 OA 
HETATM   46  H   UNL     1      -7.988   7.429  71.852  1.00  0.00     0.000 HD 
HETATM   47  C   UNL     1     -10.864  10.067  69.246  1.00  0.00    -0.261 A  
HETATM   48  H   UNL     1     -11.182   6.824  71.443  1.00  0.00     0.000 HD 
HETATM   49  O   UNL     1      -7.811   8.221  71.358  1.00  0.00    -0.087 OA 
HETATM   50  C   UNL     1     -10.061   8.305  70.658  1.00  0.00    -0.191 A  
HETATM   51  C   UNL     1      -8.779   8.849  70.621  1.00  0.00    -0.197 A  
HETATM   52  C   UNL     1      -8.521  10.010  69.897  1.00  0.00    -0.171 A  
HETATM   53  C   UNL     1     -11.105   8.892  69.962  1.00  0.00    -0.180 A  
ENDBRANCH  31  44
ENDBRANCH  28  29
ENDBRANCH  17  28
ENDBRANCH  15  16
ENDBRANCH  14  15
ENDBRANCH   4  14
TORSDOF 6
ENDMDL
MODEL      164
REMARK 921   NORMALIZED FREE ENERGY PREDICTED BY IDOCK:   -2.17 KCAL/MOL
REMARK 922        TOTAL FREE ENERGY PREDICTED BY IDOCK:   -4.41 KCAL/MOL
REMARK 923 INTER-LIGAND FREE ENERGY PREDICTED BY IDOCK:   -5.65 KCAL/MOL
REMARK 924 INTRA-LIGAND FREE ENERGY PREDICTED BY IDOCK:    1.24 KCAL/MOL
REMARK 927      BINDING AFFINITY PREDICTED BY RF-SCORE:    0.00 PKD
ROOT
HETATM    1  C   UNL     1     -13.035   9.374  72.765  1.00  0.00    -0.031 C  
HETATM    2  C   UNL     1     -11.744   8.906  72.086  1.00  0.00    -0.341 C  
HETATM    3  O   UNL     1     -11.682   9.674  70.884  1.00  0.00    -0.289 OA 
HETATM    4  C   UNL     1     -10.878   9.245  69.795  1.00  0.00    -0.224 C  
HETATM    5  H   UNL     1     -10.423   5.131  71.557  1.00  0.00     0.000 HD 
HETATM    6  C   UNL     1     -10.865   7.724  69.585  1.00  0.00    -0.184 C  
HETATM    7  C   UNL     1     -10.627   7.000  70.918  1.00  0.00    -0.217 C  
HETATM    8  O   UNL     1     -11.622   6.726  73.167  1.00  0.00    -0.491 OA 
HETATM    9  O   UNL     1     -12.117   7.287  69.022  1.00  0.00     0.473 OA 
HETATM   10  H   UNL     1     -12.110   6.346  68.893  1.00  0.00     0.000 HD 
HETATM   11  H   UNL     1     -11.628   5.783  73.048  1.00  0.00     0.000 HD 
HETATM   12  O   UNL     1     -10.570   5.578  70.732  1.00  0.00    -0.256 OA 
HETATM   13  C   UNL     1     -11.753   7.377  71.893  1.00  0.00    -0.288 C  
ENDROOT
BRANCH   4  14
HETATM   14  O   UNL     1      -9.534   9.733  69.797  1.00  0.00    -0.201 OA 
BRANCH  14  15
HETATM   15  C   UNL     1      -9.251  10.622  68.703  1.00  0.00    -0.181 C  
BRANCH  15  16
HETATM   16  C   UNL     1     -10.216  10.309  67.553  1.00  0.00    -0.210 C  
HETATM   17  C   UNL     1      -9.570  11.815  65.707  1.00  0.00    -0.233 C  
HETATM   18  O   UNL     1     -10.500  11.489  66.761  1.00  0.00    -0.222 OA 
HETATM   19  H   UNL     1      -7.260   8.717  66.462  1.00  0.00     0.000 HD 
HETATM   20  C   UNL     1      -9.498  10.570  64.793  1.00  0.00    -0.259 C  
HETATM   21  H   UNL     1     -10.788   7.568  65.908  1.00  0.00     0.000 HD 
HETATM   22  O   UNL     1     -10.812  10.239  64.277  1.00  0.00    -0.033 OA 
HETATM   23  C   UNL     1      -8.952   9.350  65.554  1.00  0.00    -0.204 C  
HETATM   24  H   UNL     1     -10.767   9.474  63.715  1.00  0.00     0.000 HD 
HETATM   25  O   UNL     1     -11.029   8.350  66.390  1.00  0.00     0.470 OA 
HETATM   26  O   UNL     1      -7.597   9.471  65.992  1.00  0.00    -0.098 OA 
HETATM   27  C   UNL     1      -9.825   9.039  66.772  1.00  0.00    -0.234 C  
BRANCH  17  28
HETATM   28  O   UNL     1      -8.328  12.299  66.242  1.00  0.00     0.068 OA 
BRANCH  28  29
HETATM   29  C   UNL     1      -8.373  13.457  67.019  1.00  0.00    -0.075 C  
HETATM   30  O   UNL     1      -7.414  14.890  68.753  1.00  0.00    -0.116 OA 
HETATM   31  C   UNL     1      -7.599  13.662  68.114  1.00  0.00    -0.137 C  
HETATM   32  C   UNL     1      -8.169  15.964  68.355  1.00  0.00    -0.161 A  
HETATM   33  O   UNL     1      -9.279  14.725  65.276  1.00  0.00     0.291 OA 
HETATM   34  H   UNL     1     -11.150  15.863  65.751  1.00  0.00     0.000 HD 
HETATM   35  C   UNL     1      -7.987  17.203  68.969  1.00  0.00    -0.136 A  
HETATM   36  C   UNL     1      -9.006  14.673  66.469  1.00  0.00    -0.204 C  
HETATM   37  C   UNL     1      -8.814  18.273  68.609  1.00  0.00    -0.275 A  
HETATM   38  C   UNL     1      -9.128  15.841  67.331  1.00  0.00    -0.206 A  
HETATM   39  O   UNL     1     -11.043  16.698  66.193  1.00  0.00     0.037 OA 
HETATM   40  C   UNL     1      -9.857  18.110  67.704  1.00  0.00    -0.316 A  
HETATM   41  O   UNL     1      -8.642  19.527  69.123  1.00  0.00    -0.293 OA 
HETATM   42  H   UNL     1      -9.204  20.253  68.878  1.00  0.00     0.000 HD 
HETATM   43  C   UNL     1     -10.012  16.893  67.059  1.00  0.00    -0.279 A  
BRANCH  31  44
HETATM   44  C   UNL     1      -6.790  12.554  68.641  1.00  0.00    -0.088 A  
HETATM   45  O   UNL     1      -5.138   9.079  70.195  1.00  0.00    -0.028 OA 
HETATM   46  H   UNL     1      -5.208  10.377  72.179  1.00  0.00     0.000 HD 
HETATM   47  C   UNL     1      -6.501  11.461  67.800  1.00  0.00    -0.065 A  
HETATM   48  H   UNL     1      -4.972   8.336  69.627  1.00  0.00     0.000 HD 
HETATM   49  O   UNL     1      -5.589  11.176  71.834  1.00  0.00    -0.296 OA 
HETATM   50  C   UNL     1      -5.636  10.239  69.672  1.00  0.00    -0.038 A  
HETATM   51  C   UNL     1      -5.878  11.329  70.504  1.00  0.00    -0.135 A  
HETATM   52  C   UNL     1      -6.437  12.500  69.999  1.00  0.00     0.096 A  
HETATM   53  C   UNL     1      -5.924  10.299  68.317  1.00  0.00    -0.041 A  
ENDBRANCH  31  44
ENDBRANCH  28  29
ENDBRANCH  17  28
ENDBRANCH  15  16
ENDBRANCH  14  15
ENDBRANCH   4  14
TORSDOF 6
ENDMDL
MODEL      165
REMARK 921   NORMALIZED FREE ENERGY PREDICTED BY IDOCK:   -1.95 KCAL/MOL
REMARK 922        TOTAL FREE ENERGY PREDICTED BY IDOCK:   -4.12 KCAL/MOL
REMARK 923 INTER-LIGAND FREE ENERGY PREDICTED BY IDOCK:   -7.87 KCAL/MOL
REMARK 924 INTRA-LIGAND FREE ENERGY PREDICTED BY IDOCK:    3.76 KCAL/MOL
REMARK 927      BINDING AFFINITY PREDICTED BY RF-SCORE:    0.00 PKD
ROOT
HETATM    1  C   UNL     1      -6.273   9.853  62.996  1.00  0.00    -0.119 C  
HETATM    2  C   UNL     1      -7.252   9.909  64.173  1.00  0.00    -0.134 C  
HETATM    3  O   UNL     1      -6.411   9.909  65.327  1.00  0.00    -0.087 OA 
HETATM    4  C   UNL     1      -6.927   9.534  66.596  1.00  0.00    -0.085 C  
HETATM    5  H   UNL     1     -10.615   7.753  64.734  1.00  0.00     0.000 HD 
HETATM    6  C   UNL     1      -7.945   8.384  66.544  1.00  0.00    -0.096 C  
HETATM    7  C   UNL     1      -8.988   8.640  65.446  1.00  0.00    -0.130 C  
HETATM    8  O   UNL     1      -9.169   8.969  63.001  1.00  0.00    -0.458 OA 
HETATM    9  O   UNL     1      -7.275   7.135  66.285  1.00  0.00    -0.072 OA 
HETATM   10  H   UNL     1      -7.904   6.424  66.253  1.00  0.00     0.000 HD 
HETATM   11  H   UNL     1      -9.794   8.255  62.952  1.00  0.00     0.000 HD 
HETATM   12  O   UNL     1      -9.971   7.595  65.413  1.00  0.00     1.078 OA 
HETATM   13  C   UNL     1      -8.265   8.750  64.095  1.00  0.00    -0.162 C  
ENDROOT
BRANCH   4  14
HETATM   14  O   UNL     1      -7.463  10.603  67.379  1.00  0.00    -0.091 OA 
BRANCH  14  15
HETATM   15  C   UNL     1      -7.998  11.676  66.584  1.00  0.00    -0.098 C  
BRANCH  15  16
HETATM   16  C   UNL     1      -9.525  11.546  66.548  1.00  0.00    -0.204 C  
HETATM   17  C   UNL     1     -10.370  13.064  68.301  1.00  0.00    -0.252 C  
HETATM   18  O   UNL     1     -10.105  11.714  67.865  1.00  0.00    -0.180 OA 
HETATM   19  H   UNL     1      -9.035  14.659  64.958  1.00  0.00     0.000 HD 
HETATM   20  C   UNL     1     -11.296  13.689  67.232  1.00  0.00    -0.323 C  
HETATM   21  H   UNL     1     -11.680  12.113  64.185  1.00  0.00     0.000 HD 
HETATM   22  O   UNL     1     -12.513  12.913  67.094  1.00  0.00    -0.248 OA 
HETATM   23  C   UNL     1     -10.602  13.755  65.862  1.00  0.00    -0.289 C  
HETATM   24  H   UNL     1     -13.082  13.297  66.437  1.00  0.00     0.000 HD 
HETATM   25  O   UNL     1     -11.283  11.611  64.887  1.00  0.00    -0.290 OA 
HETATM   26  O   UNL     1      -9.464  14.618  65.805  1.00  0.00    -0.268 OA 
HETATM   27  C   UNL     1     -10.169  12.359  65.408  1.00  0.00    -0.278 C  
BRANCH  17  28
HETATM   28  O   UNL     1      -9.150  13.765  68.592  1.00  0.00    -0.163 OA 
BRANCH  28  29
HETATM   29  C   UNL     1      -9.174  15.156  68.498  1.00  0.00    -0.192 C  
HETATM   30  O   UNL     1      -9.678  17.344  69.469  1.00  0.00     0.029 OA 
HETATM   31  C   UNL     1      -9.844  15.961  69.359  1.00  0.00    -0.280 C  
HETATM   32  C   UNL     1      -8.888  17.990  68.553  1.00  0.00    -0.295 A  
HETATM   33  O   UNL     1      -7.190  15.216  67.260  1.00  0.00    -0.202 OA 
HETATM   34  H   UNL     1      -7.263  16.357  65.333  1.00  0.00     0.000 HD 
HETATM   35  C   UNL     1      -8.696  19.367  68.656  1.00  0.00    -0.403 A  
HETATM   36  C   UNL     1      -8.160  15.842  67.669  1.00  0.00    -0.147 C  
HETATM   37  C   UNL     1      -7.950  20.030  67.673  1.00  0.00    -0.303 A  
HETATM   38  C   UNL     1      -8.260  17.286  67.507  1.00  0.00    -0.204 A  
HETATM   39  O   UNL     1      -7.160  17.300  65.389  1.00  0.00     0.124 OA 
HETATM   40  C   UNL     1      -7.455  19.355  66.562  1.00  0.00    -0.258 A  
HETATM   41  O   UNL     1      -7.668  21.363  67.752  1.00  0.00    -0.216 OA 
HETATM   42  H   UNL     1      -7.162  21.812  67.086  1.00  0.00     0.000 HD 
HETATM   43  C   UNL     1      -7.606  17.979  66.481  1.00  0.00    -0.245 A  
BRANCH  31  44
HETATM   44  C   UNL     1     -10.752  15.359  70.347  1.00  0.00    -0.312 A  
HETATM   45  O   UNL     1     -13.796  14.137  72.888  1.00  0.00    -0.639 OA 
HETATM   46  H   UNL     1     -12.605  15.543  74.383  1.00  0.00     0.000 HD 
HETATM   47  C   UNL     1     -11.724  14.439  69.907  1.00  0.00    -0.363 A  
HETATM   48  H   UNL     1     -14.465  13.539  72.576  1.00  0.00     0.000 HD 
HETATM   49  O   UNL     1     -11.906  15.831  73.808  1.00  0.00    -0.352 OA 
HETATM   50  C   UNL     1     -12.767  14.499  72.065  1.00  0.00    -0.338 A  
HETATM   51  C   UNL     1     -11.786  15.376  72.522  1.00  0.00    -0.462 A  
HETATM   52  C   UNL     1     -10.761  15.799  71.680  1.00  0.00     0.527 A  
HETATM   53  C   UNL     1     -12.736  14.010  70.768  1.00  0.00    -0.396 A  
ENDBRANCH  31  44
ENDBRANCH  28  29
ENDBRANCH  17  28
ENDBRANCH  15  16
ENDBRANCH  14  15
ENDBRANCH   4  14
TORSDOF 6
ENDMDL
MODEL      166
REMARK 921   NORMALIZED FREE ENERGY PREDICTED BY IDOCK:   -1.86 KCAL/MOL
REMARK 922        TOTAL FREE ENERGY PREDICTED BY IDOCK:   -3.99 KCAL/MOL
REMARK 923 INTER-LIGAND FREE ENERGY PREDICTED BY IDOCK:   -4.85 KCAL/MOL
REMARK 924 INTRA-LIGAND FREE ENERGY PREDICTED BY IDOCK:    0.85 KCAL/MOL
REMARK 927      BINDING AFFINITY PREDICTED BY RF-SCORE:    0.00 PKD
ROOT
HETATM    1  C   UNL     1      -9.789   9.255  66.852  1.00  0.00    -0.276 C  
HETATM    2  C   UNL     1      -8.262   9.256  66.737  1.00  0.00    -0.115 C  
HETATM    3  O   UNL     1      -7.812   8.876  68.038  1.00  0.00    -0.100 OA 
HETATM    4  C   UNL     1      -6.486   9.166  68.455  1.00  0.00    -0.054 C  
HETATM    5  H   UNL     1      -5.885  12.047  65.053  1.00  0.00     0.000 HD 
HETATM    6  C   UNL     1      -5.955  10.521  67.964  1.00  0.00    -0.047 C  
HETATM    7  C   UNL     1      -6.238  10.696  66.464  1.00  0.00    -0.097 C  
HETATM    8  O   UNL     1      -8.115  10.799  64.857  1.00  0.00    -0.337 OA 
HETATM    9  O   UNL     1      -6.576  11.596  68.695  1.00  0.00    -0.057 OA 
HETATM   10  H   UNL     1      -6.248  12.434  68.391  1.00  0.00     0.000 HD 
HETATM   11  H   UNL     1      -7.803  11.641  64.548  1.00  0.00     0.000 HD 
HETATM   12  O   UNL     1      -5.710  11.939  65.980  1.00  0.00    -0.011 OA 
HETATM   13  C   UNL     1      -7.755  10.623  66.236  1.00  0.00    -0.143 C  
ENDROOT
BRANCH   4  14
HETATM   14  O   UNL     1      -5.520   8.151  68.174  1.00  0.00    -0.032 OA 
BRANCH  14  15
HETATM   15  C   UNL     1      -5.310   7.247  69.273  1.00  0.00    -0.015 C  
BRANCH  15  16
HETATM   16  C   UNL     1      -6.175   7.702  70.455  1.00  0.00    -0.037 C  
HETATM   17  C   UNL     1      -7.873   5.937  70.762  1.00  0.00    -0.102 C  
HETATM   18  O   UNL     1      -7.550   7.268  70.306  1.00  0.00    -0.086 OA 
HETATM   19  H   UNL     1      -4.193   5.190  71.945  1.00  0.00     0.000 HD 
HETATM   20  C   UNL     1      -7.458   5.877  72.250  1.00  0.00    -0.099 C  
HETATM   21  H   UNL     1      -5.427   8.349  73.549  1.00  0.00     0.000 HD 
HETATM   22  O   UNL     1      -8.148   6.897  73.015  1.00  0.00    -0.106 OA 
HETATM   23  C   UNL     1      -5.944   6.086  72.416  1.00  0.00    -0.037 C  
HETATM   24  H   UNL     1      -7.893   6.860  73.929  1.00  0.00     0.000 HD 
HETATM   25  O   UNL     1      -5.834   8.517  72.707  1.00  0.00    -0.063 OA 
HETATM   26  O   UNL     1      -5.129   5.061  71.842  1.00  0.00    -0.004 OA 
HETATM   27  C   UNL     1      -5.516   7.429  71.821  1.00  0.00    -0.036 C  
BRANCH  17  28
HETATM   28  O   UNL     1      -7.315   4.940  69.892  1.00  0.00    -0.053 OA 
BRANCH  28  29
HETATM   29  C   UNL     1      -8.006   4.658  68.714  1.00  0.00    -0.079 C  
HETATM   30  O   UNL     1     -10.062   4.717  67.390  1.00  0.00    -0.164 OA 
HETATM   31  C   UNL     1      -9.355   4.722  68.595  1.00  0.00    -0.137 C  
HETATM   32  C   UNL     1      -9.377   4.486  66.223  1.00  0.00    -0.151 A  
HETATM   33  O   UNL     1      -6.128   5.075  67.383  1.00  0.00    -0.028 OA 
HETATM   34  H   UNL     1      -5.564   3.459  65.936  1.00  0.00     0.000 HD 
HETATM   35  C   UNL     1     -10.061   4.494  65.008  1.00  0.00    -0.105 A  
HETATM   36  C   UNL     1      -7.270   4.635  67.432  1.00  0.00    -0.073 C  
HETATM   37  C   UNL     1      -9.370   4.183  63.831  1.00  0.00    -0.152 A  
HETATM   38  C   UNL     1      -7.990   4.244  66.227  1.00  0.00    -0.098 A  
HETATM   39  O   UNL     1      -6.040   3.435  65.114  1.00  0.00    -0.022 OA 
HETATM   40  C   UNL     1      -8.033   3.800  63.856  1.00  0.00    -0.088 A  
HETATM   41  O   UNL     1      -9.965   4.239  62.604  1.00  0.00    -0.235 OA 
HETATM   42  H   UNL     1      -9.495   4.028  61.805  1.00  0.00     0.000 HD 
HETATM   43  C   UNL     1      -7.339   3.836  65.057  1.00  0.00    -0.068 A  
BRANCH  31  44
HETATM   44  C   UNL     1     -10.174   4.920  69.799  1.00  0.00    -0.284 A  
HETATM   45  O   UNL     1     -11.972   5.948  73.396  1.00  0.00    -0.067 OA 
HETATM   46  H   UNL     1     -10.921   3.930  74.068  1.00  0.00     0.000 HD 
HETATM   47  C   UNL     1     -10.985   6.069  69.891  1.00  0.00    -0.458 A  
HETATM   48  H   UNL     1     -12.494   6.739  73.457  1.00  0.00     0.000 HD 
HETATM   49  O   UNL     1     -10.502   3.687  73.250  1.00  0.00    -0.155 OA 
HETATM   50  C   UNL     1     -11.422   5.585  72.197  1.00  0.00    -0.106 A  
HETATM   51  C   UNL     1     -10.658   4.425  72.107  1.00  0.00    -0.031 A  
HETATM   52  C   UNL     1     -10.044   4.069  70.908  1.00  0.00    -0.061 A  
HETATM   53  C   UNL     1     -11.609   6.404  71.094  1.00  0.00    -0.378 A  
ENDBRANCH  31  44
ENDBRANCH  28  29
ENDBRANCH  17  28
ENDBRANCH  15  16
ENDBRANCH  14  15
ENDBRANCH   4  14
TORSDOF 6
ENDMDL
MODEL      167
REMARK 921   NORMALIZED FREE ENERGY PREDICTED BY IDOCK:   -1.63 KCAL/MOL
REMARK 922        TOTAL FREE ENERGY PREDICTED BY IDOCK:   -3.69 KCAL/MOL
REMARK 923 INTER-LIGAND FREE ENERGY PREDICTED BY IDOCK:   -4.98 KCAL/MOL
REMARK 924 INTRA-LIGAND FREE ENERGY PREDICTED BY IDOCK:    1.29 KCAL/MOL
REMARK 927      BINDING AFFINITY PREDICTED BY RF-SCORE:    0.00 PKD
ROOT
HETATM    1  C   UNL     1      -8.300  18.248  66.978  1.00  0.00    -0.256 C  
HETATM    2  C   UNL     1      -8.468  17.162  68.045  1.00  0.00    -0.219 C  
HETATM    3  O   UNL     1      -7.472  16.192  67.717  1.00  0.00    -0.123 OA 
HETATM    4  C   UNL     1      -7.576  14.860  68.198  1.00  0.00    -0.113 C  
HETATM    5  H   UNL     1     -11.879  15.461  69.367  1.00  0.00     0.000 HD 
HETATM    6  C   UNL     1      -9.013  14.317  68.235  1.00  0.00    -0.187 C  
HETATM    7  C   UNL     1      -9.957  15.339  68.885  1.00  0.00    -0.225 C  
HETATM    8  O   UNL     1     -10.791  17.650  68.591  1.00  0.00    -0.280 OA 
HETATM    9  O   UNL     1      -9.471  14.025  66.900  1.00  0.00    -0.245 OA 
HETATM   10  H   UNL     1     -10.359  13.690  66.923  1.00  0.00     0.000 HD 
HETATM   11  H   UNL     1     -11.685  17.327  68.604  1.00  0.00     0.000 HD 
HETATM   12  O   UNL     1     -11.296  14.829  68.965  1.00  0.00    -0.247 OA 
HETATM   13  C   UNL     1      -9.917  16.639  68.066  1.00  0.00    -0.258 C  
ENDROOT
BRANCH   4  14
HETATM   14  O   UNL     1      -6.946  14.614  69.457  1.00  0.00    -0.153 OA 
BRANCH  14  15
HETATM   15  C   UNL     1      -6.941  13.224  69.827  1.00  0.00     0.335 C  
BRANCH  15  16
HETATM   16  C   UNL     1      -5.930  12.484  68.941  1.00  0.00    -0.070 C  
HETATM   17  C   UNL     1      -6.418  10.082  69.230  1.00  0.00    -0.049 C  
HETATM   18  O   UNL     1      -5.558  11.206  69.514  1.00  0.00    -0.041 OA 
HETATM   19  H   UNL     1      -8.885  12.219  67.029  1.00  0.00     0.000 HD 
HETATM   20  C   UNL     1      -6.491   9.970  67.690  1.00  0.00    -0.063 C  
HETATM   21  H   UNL     1      -5.381  12.597  65.743  1.00  0.00     0.000 HD 
HETATM   22  O   UNL     1      -5.166   9.798  67.127  1.00  0.00    -0.038 OA 
HETATM   23  C   UNL     1      -7.124  11.227  67.069  1.00  0.00    -0.129 C  
HETATM   24  H   UNL     1      -5.211   9.729  66.181  1.00  0.00     0.000 HD 
HETATM   25  O   UNL     1      -5.135  12.601  66.660  1.00  0.00    -0.219 OA 
HETATM   26  O   UNL     1      -8.494  11.443  67.413  1.00  0.00    -0.136 OA 
HETATM   27  C   UNL     1      -6.329  12.477  67.453  1.00  0.00    -0.157 C  
BRANCH  17  28
HETATM   28  O   UNL     1      -7.666  10.193  69.932  1.00  0.00    -0.160 OA 
BRANCH  28  29
HETATM   29  C   UNL     1      -8.397   9.020  70.128  1.00  0.00    -0.151 C  
HETATM   30  O   UNL     1     -10.231   7.529  69.500  1.00  0.00    -0.196 OA 
HETATM   31  C   UNL     1      -9.600   8.774  69.553  1.00  0.00    -0.167 C  
HETATM   32  C   UNL     1      -9.686   6.481  70.199  1.00  0.00    -0.167 A  
HETATM   33  O   UNL     1      -6.496   7.810  70.755  1.00  0.00    -0.038 OA 
HETATM   34  H   UNL     1      -6.625   6.705  72.700  1.00  0.00     0.000 HD 
HETATM   35  C   UNL     1     -10.291   5.226  70.145  1.00  0.00    -0.354 A  
HETATM   36  C   UNL     1      -7.718   7.830  70.683  1.00  0.00    -0.091 C  
HETATM   37  C   UNL     1      -9.772   4.182  70.920  1.00  0.00    -0.189 A  
HETATM   38  C   UNL     1      -8.519   6.647  70.970  1.00  0.00    -0.129 A  
HETATM   39  O   UNL     1      -7.057   5.859  72.684  1.00  0.00    -0.081 OA 
HETATM   40  C   UNL     1      -8.709   4.388  71.795  1.00  0.00    -0.133 A  
HETATM   41  O   UNL     1     -10.275   2.915  70.861  1.00  0.00     0.248 OA 
HETATM   42  H   UNL     1      -9.923   2.207  71.387  1.00  0.00     0.000 HD 
HETATM   43  C   UNL     1      -8.078   5.622  71.816  1.00  0.00    -0.118 A  
BRANCH  31  44
HETATM   44  C   UNL     1     -10.281   9.852  68.823  1.00  0.00    -0.205 A  
HETATM   45  O   UNL     1     -12.800  12.496  66.850  1.00  0.00     0.643 OA 
HETATM   46  H   UNL     1     -11.875  11.387  64.968  1.00  0.00     0.000 HD 
HETATM   47  C   UNL     1     -11.041  10.792  69.547  1.00  0.00    -0.334 A  
HETATM   48  H   UNL     1     -13.330  13.107  67.347  1.00  0.00     0.000 HD 
HETATM   49  O   UNL     1     -11.298  10.776  65.409  1.00  0.00     0.255 OA 
HETATM   50  C   UNL     1     -11.934  11.660  67.500  1.00  0.00     0.033 A  
HETATM   51  C   UNL     1     -11.156  10.764  66.771  1.00  0.00    -0.082 A  
HETATM   52  C   UNL     1     -10.309   9.868  67.419  1.00  0.00    -0.301 A  
HETATM   53  C   UNL     1     -11.872  11.697  68.884  1.00  0.00    -0.392 A  
ENDBRANCH  31  44
ENDBRANCH  28  29
ENDBRANCH  17  28
ENDBRANCH  15  16
ENDBRANCH  14  15
ENDBRANCH   4  14
TORSDOF 6
ENDMDL
MODEL      168
REMARK 921   NORMALIZED FREE ENERGY PREDICTED BY IDOCK:   -1.57 KCAL/MOL
REMARK 922        TOTAL FREE ENERGY PREDICTED BY IDOCK:   -3.60 KCAL/MOL
REMARK 923 INTER-LIGAND FREE ENERGY PREDICTED BY IDOCK:   -5.53 KCAL/MOL
REMARK 924 INTRA-LIGAND FREE ENERGY PREDICTED BY IDOCK:    1.94 KCAL/MOL
REMARK 927      BINDING AFFINITY PREDICTED BY RF-SCORE:    0.00 PKD
ROOT
HETATM    1  C   UNL     1      -9.435   6.934  70.567  1.00  0.00    -0.169 C  
HETATM    2  C   UNL     1     -10.818   7.516  70.259  1.00  0.00    -0.246 C  
HETATM    3  O   UNL     1     -10.574   8.908  70.051  1.00  0.00    -0.210 OA 
HETATM    4  C   UNL     1     -11.631   9.850  70.158  1.00  0.00    -0.218 C  
HETATM    5  H   UNL     1     -14.299   6.848  72.186  1.00  0.00     0.000 HD 
HETATM    6  C   UNL     1     -12.641   9.535  71.272  1.00  0.00    -0.339 C  
HETATM    7  C   UNL     1     -13.063   8.060  71.213  1.00  0.00    -0.162 C  
HETATM    8  O   UNL     1     -12.117   5.779  71.367  1.00  0.00     0.242 OA 
HETATM    9  O   UNL     1     -12.065   9.817  72.562  1.00  0.00     0.210 OA 
HETATM   10  H   UNL     1     -12.689   9.622  73.251  1.00  0.00     0.000 HD 
HETATM   11  H   UNL     1     -12.731   5.572  72.062  1.00  0.00     0.000 HD 
HETATM   12  O   UNL     1     -14.039   7.760  72.222  1.00  0.00    -0.181 OA 
HETATM   13  C   UNL     1     -11.813   7.182  71.387  1.00  0.00    -0.308 C  
ENDROOT
BRANCH   4  14
HETATM   14  O   UNL     1     -12.336  10.118  68.944  1.00  0.00     0.184 OA 
BRANCH  14  15
HETATM   15  C   UNL     1     -11.566  10.879  67.997  1.00  0.00    -0.215 C  
BRANCH  15  16
HETATM   16  C   UNL     1     -10.690  11.877  68.765  1.00  0.00    -0.224 C  
HETATM   17  C   UNL     1      -8.487  11.830  67.652  1.00  0.00    -0.149 C  
HETATM   18  O   UNL     1      -9.302  11.460  68.785  1.00  0.00    -0.179 OA 
HETATM   19  H   UNL     1     -11.441  13.694  65.834  1.00  0.00     0.000 HD 
HETATM   20  C   UNL     1      -8.575  13.370  67.541  1.00  0.00    -0.200 C  
HETATM   21  H   UNL     1     -11.016  15.063  69.301  1.00  0.00     0.000 HD 
HETATM   22  O   UNL     1      -8.122  13.997  68.767  1.00  0.00    -0.208 OA 
HETATM   23  C   UNL     1     -10.017  13.827  67.264  1.00  0.00    -0.239 C  
HETATM   24  H   UNL     1      -8.176  14.943  68.698  1.00  0.00     0.000 HD 
HETATM   25  O   UNL     1     -10.850  14.161  69.546  1.00  0.00    -0.188 OA 
HETATM   26  O   UNL     1     -10.550  13.411  66.005  1.00  0.00    -0.280 OA 
HETATM   27  C   UNL     1     -10.959  13.341  68.368  1.00  0.00    -0.264 C  
BRANCH  17  28
HETATM   28  O   UNL     1      -8.846  11.074  66.485  1.00  0.00    -0.158 OA 
BRANCH  28  29
HETATM   29  C   UNL     1      -8.051   9.973  66.166  1.00  0.00    -0.122 C  
HETATM   30  O   UNL     1      -6.533   8.179  66.844  1.00  0.00    -0.054 OA 
HETATM   31  C   UNL     1      -7.144   9.424  67.012  1.00  0.00    -0.086 C  
HETATM   32  C   UNL     1      -6.734   7.496  65.672  1.00  0.00    -0.045 A  
HETATM   33  O   UNL     1      -9.528   9.249  64.503  1.00  0.00    -0.043 OA 
HETATM   34  H   UNL     1      -8.634   8.872  62.483  1.00  0.00     0.000 HD 
HETATM   35  C   UNL     1      -6.147   6.244  65.492  1.00  0.00    -0.030 A  
HETATM   36  C   UNL     1      -8.424   9.121  65.017  1.00  0.00    -0.171 C  
HETATM   37  C   UNL     1      -6.295   5.588  64.265  1.00  0.00    -0.022 A  
HETATM   38  C   UNL     1      -7.530   8.034  64.642  1.00  0.00    -0.097 A  
HETATM   39  O   UNL     1      -8.207   8.034  62.353  1.00  0.00    -0.164 OA 
HETATM   40  C   UNL     1      -6.957   6.188  63.198  1.00  0.00    -0.046 A  
HETATM   41  O   UNL     1      -5.802   4.333  64.049  1.00  0.00    -0.014 OA 
HETATM   42  H   UNL     1      -5.903   3.888  63.216  1.00  0.00     0.000 HD 
HETATM   43  C   UNL     1      -7.581   7.411  63.388  1.00  0.00    -0.114 A  
BRANCH  31  44
HETATM   44  C   UNL     1      -6.830  10.112  68.272  1.00  0.00    -0.062 A  
HETATM   45  O   UNL     1      -5.298  11.730  71.773  1.00  0.00    -0.357 OA 
HETATM   46  H   UNL     1      -6.541   9.936  72.704  1.00  0.00     0.000 HD 
HETATM   47  C   UNL     1      -6.033  11.273  68.235  1.00  0.00    -0.045 A  
HETATM   48  H   UNL     1      -4.738  12.496  71.738  1.00  0.00     0.000 HD 
HETATM   49  O   UNL     1      -6.894   9.556  71.909  1.00  0.00    -0.292 OA 
HETATM   50  C   UNL     1      -5.841  11.229  70.623  1.00  0.00    -0.097 A  
HETATM   51  C   UNL     1      -6.663  10.105  70.675  1.00  0.00    -0.039 A  
HETATM   52  C   UNL     1      -7.181   9.548  69.509  1.00  0.00    -0.074 A  
HETATM   53  C   UNL     1      -5.535  11.832  69.413  1.00  0.00    -0.059 A  
ENDBRANCH  31  44
ENDBRANCH  28  29
ENDBRANCH  17  28
ENDBRANCH  15  16
ENDBRANCH  14  15
ENDBRANCH   4  14
TORSDOF 6
ENDMDL
MODEL      169
REMARK 921   NORMALIZED FREE ENERGY PREDICTED BY IDOCK:   -1.52 KCAL/MOL
REMARK 922        TOTAL FREE ENERGY PREDICTED BY IDOCK:   -3.54 KCAL/MOL
REMARK 923 INTER-LIGAND FREE ENERGY PREDICTED BY IDOCK:   -3.48 KCAL/MOL
REMARK 924 INTRA-LIGAND FREE ENERGY PREDICTED BY IDOCK:   -0.05 KCAL/MOL
REMARK 927      BINDING AFFINITY PREDICTED BY RF-SCORE:    0.00 PKD
ROOT
HETATM    1  C   UNL     1      -7.822   5.306  69.309  1.00  0.00    -0.088 C  
HETATM    2  C   UNL     1      -8.651   6.390  70.005  1.00  0.00    -0.135 C  
HETATM    3  O   UNL     1      -7.679   7.323  70.480  1.00  0.00    -0.090 OA 
HETATM    4  C   UNL     1      -8.001   8.232  71.523  1.00  0.00    -0.123 C  
HETATM    5  H   UNL     1     -11.713   5.924  72.590  1.00  0.00     0.000 HD 
HETATM    6  C   UNL     1      -8.910   7.641  72.612  1.00  0.00    -0.149 C  
HETATM    7  C   UNL     1     -10.097   6.902  71.977  1.00  0.00    -0.185 C  
HETATM    8  O   UNL     1     -10.604   5.010  70.466  1.00  0.00    -0.209 OA 
HETATM    9  O   UNL     1      -8.166   6.727  73.441  1.00  0.00    -0.112 OA 
HETATM   10  H   UNL     1      -8.728   6.361  74.114  1.00  0.00     0.000 HD 
HETATM   11  H   UNL     1     -11.163   4.629  71.133  1.00  0.00     0.000 HD 
HETATM   12  O   UNL     1     -10.979   6.381  72.982  1.00  0.00    -0.252 OA 
HETATM   13  C   UNL     1      -9.557   5.772  71.087  1.00  0.00    -0.167 C  
ENDROOT
BRANCH   4  14
HETATM   14  O   UNL     1      -8.531   9.488  71.096  1.00  0.00    -0.278 OA 
BRANCH  14  15
HETATM   15  C   UNL     1      -8.097   9.870  69.779  1.00  0.00    -0.176 C  
BRANCH  15  16
HETATM   16  C   UNL     1      -9.227  10.649  69.096  1.00  0.00    -0.148 C  
HETATM   17  C   UNL     1      -9.807   9.356  67.076  1.00  0.00    -0.201 C  
HETATM   18  O   UNL     1      -9.170  10.514  67.654  1.00  0.00    -0.144 OA 
HETATM   19  H   UNL     1     -10.992   7.968  70.564  1.00  0.00     0.000 HD 
HETATM   20  C   UNL     1     -11.280   9.392  67.545  1.00  0.00     0.389 C  
HETATM   21  H   UNL     1     -12.188  11.497  70.126  1.00  0.00     0.000 HD 
HETATM   22  O   UNL     1     -11.917  10.627  67.132  1.00  0.00     0.026 OA 
HETATM   23  C   UNL     1     -11.380   9.280  69.075  1.00  0.00     0.289 C  
HETATM   24  H   UNL     1     -12.822  10.649  67.421  1.00  0.00     0.000 HD 
HETATM   25  O   UNL     1     -11.341  11.644  69.723  1.00  0.00    -0.258 OA 
HETATM   26  O   UNL     1     -10.929   8.037  69.619  1.00  0.00    -0.210 OA 
HETATM   27  C   UNL     1     -10.601  10.410  69.752  1.00  0.00    -0.258 C  
BRANCH  17  28
HETATM   28  O   UNL     1      -9.065   8.159  67.359  1.00  0.00    -0.132 OA 
BRANCH  28  29
HETATM   29  C   UNL     1      -8.816   7.292  66.295  1.00  0.00    -0.159 C  
HETATM   30  O   UNL     1      -7.321   6.429  64.562  1.00  0.00    -0.067 OA 
HETATM   31  C   UNL     1      -7.757   7.410  65.456  1.00  0.00    -0.107 C  
HETATM   32  C   UNL     1      -8.084   5.302  64.393  1.00  0.00    -0.121 A  
HETATM   33  O   UNL     1     -10.085   5.576  67.252  1.00  0.00    -0.149 OA 
HETATM   34  H   UNL     1     -11.670   4.676  65.949  1.00  0.00     0.000 HD 
HETATM   35  C   UNL     1      -7.657   4.303  63.519  1.00  0.00    -0.059 A  
HETATM   36  C   UNL     1      -9.495   5.980  66.257  1.00  0.00    -0.127 C  
HETATM   37  C   UNL     1      -8.479   3.192  63.295  1.00  0.00    -0.086 A  
HETATM   38  C   UNL     1      -9.296   5.130  65.090  1.00  0.00    -0.011 A  
HETATM   39  O   UNL     1     -11.390   4.012  65.330  1.00  0.00     0.257 OA 
HETATM   40  C   UNL     1      -9.741   3.097  63.872  1.00  0.00    -0.145 A  
HETATM   41  O   UNL     1      -8.089   2.149  62.504  1.00  0.00    -0.061 OA 
HETATM   42  H   UNL     1      -8.647   1.395  62.353  1.00  0.00     0.000 HD 
HETATM   43  C   UNL     1     -10.149   4.065  64.776  1.00  0.00    -0.213 A  
BRANCH  31  44
HETATM   44  C   UNL     1      -6.909   8.609  65.533  1.00  0.00    -0.075 A  
HETATM   45  O   UNL     1      -5.128  12.338  65.912  1.00  0.00     0.115 OA 
HETATM   46  H   UNL     1      -5.342  12.265  63.551  1.00  0.00     0.000 HD 
HETATM   47  C   UNL     1      -6.529   9.094  66.800  1.00  0.00    -0.067 A  
HETATM   48  H   UNL     1      -4.901  12.671  66.772  1.00  0.00     0.000 HD 
HETATM   49  O   UNL     1      -5.753  11.415  63.453  1.00  0.00     0.408 OA 
HETATM   50  C   UNL     1      -5.669  11.088  65.786  1.00  0.00    -0.084 A  
HETATM   51  C   UNL     1      -6.001  10.599  64.525  1.00  0.00     0.017 A  
HETATM   52  C   UNL     1      -6.604   9.352  64.382  1.00  0.00    -0.090 A  
HETATM   53  C   UNL     1      -5.910  10.339  66.927  1.00  0.00    -0.051 A  
ENDBRANCH  31  44
ENDBRANCH  28  29
ENDBRANCH  17  28
ENDBRANCH  15  16
ENDBRANCH  14  15
ENDBRANCH   4  14
TORSDOF 6
ENDMDL
MODEL      170
REMARK 921   NORMALIZED FREE ENERGY PREDICTED BY IDOCK:   -1.31 KCAL/MOL
REMARK 922        TOTAL FREE ENERGY PREDICTED BY IDOCK:   -3.24 KCAL/MOL
REMARK 923 INTER-LIGAND FREE ENERGY PREDICTED BY IDOCK:   -7.52 KCAL/MOL
REMARK 924 INTRA-LIGAND FREE ENERGY PREDICTED BY IDOCK:    4.27 KCAL/MOL
REMARK 927      BINDING AFFINITY PREDICTED BY RF-SCORE:    0.00 PKD
ROOT
HETATM    1  C   UNL     1     -12.299  13.314  70.632  1.00  0.00    -0.416 C  
HETATM    2  C   UNL     1     -11.406  13.561  69.413  1.00  0.00    -0.233 C  
HETATM    3  O   UNL     1     -10.230  12.797  69.680  1.00  0.00     0.642 OA 
HETATM    4  C   UNL     1      -9.012  13.088  69.009  1.00  0.00     0.506 C  
HETATM    5  H   UNL     1     -10.571  17.065  67.596  1.00  0.00     0.000 HD 
HETATM    6  C   UNL     1      -8.765  14.587  68.782  1.00  0.00    -0.147 C  
HETATM    7  C   UNL     1     -10.022  15.257  68.208  1.00  0.00    -0.222 C  
HETATM    8  O   UNL     1     -12.396  15.688  68.756  1.00  0.00    -0.570 OA 
HETATM    9  O   UNL     1      -8.405  15.228  70.021  1.00  0.00    -0.289 OA 
HETATM   10  H   UNL     1      -8.253  16.155  69.880  1.00  0.00     0.000 HD 
HETATM   11  H   UNL     1     -12.256  16.619  68.626  1.00  0.00     0.000 HD 
HETATM   12  O   UNL     1      -9.793  16.651  67.950  1.00  0.00    -0.240 OA 
HETATM   13  C   UNL     1     -11.178  15.071  69.203  1.00  0.00    -0.281 C  
ENDROOT
BRANCH   4  14
HETATM   14  O   UNL     1      -8.806  12.384  67.783  1.00  0.00    -0.159 OA 
BRANCH  14  15
HETATM   15  C   UNL     1      -7.614  11.579  67.785  1.00  0.00    -0.111 C  
BRANCH  15  16
HETATM   16  C   UNL     1      -7.476  10.909  69.157  1.00  0.00    -0.130 C  
HETATM   17  C   UNL     1      -8.181   8.565  68.832  1.00  0.00    -0.117 C  
HETATM   18  O   UNL     1      -8.479   9.880  69.349  1.00  0.00    -0.137 OA 
HETATM   19  H   UNL     1      -4.653   9.645  67.457  1.00  0.00     0.000 HD 
HETATM   20  C   UNL     1      -6.848   8.134  69.488  1.00  0.00    -0.042 C  
HETATM   21  H   UNL     1      -4.910  10.491  71.103  1.00  0.00     0.000 HD 
HETATM   22  O   UNL     1      -6.966   8.138  70.933  1.00  0.00    -0.040 OA 
HETATM   23  C   UNL     1      -5.701   9.077  69.091  1.00  0.00    -0.036 C  
HETATM   24  H   UNL     1      -6.148   7.873  71.336  1.00  0.00     0.000 HD 
HETATM   25  O   UNL     1      -5.806  10.732  70.897  1.00  0.00    -0.242 OA 
HETATM   26  O   UNL     1      -5.362   9.062  67.703  1.00  0.00    -0.034 OA 
HETATM   27  C   UNL     1      -6.024  10.519  69.491  1.00  0.00    -0.046 C  
BRANCH  17  28
HETATM   28  O   UNL     1      -8.232   8.547  67.397  1.00  0.00    -0.108 OA 
BRANCH  28  29
HETATM   29  C   UNL     1      -9.218   9.319  66.782  1.00  0.00    -0.147 C  
HETATM   30  O   UNL     1     -11.345  10.522  66.880  1.00  0.00    -0.212 OA 
HETATM   31  C   UNL     1     -10.441   9.552  67.319  1.00  0.00    -0.262 C  
HETATM   32  C   UNL     1     -11.066  11.214  65.729  1.00  0.00    -0.014 A  
HETATM   33  O   UNL     1      -7.658  10.462  65.466  1.00  0.00    -0.146 OA 
HETATM   34  H   UNL     1      -8.056  10.489  63.261  1.00  0.00     0.000 HD 
HETATM   35  C   UNL     1     -11.947  12.199  65.284  1.00  0.00    -0.313 A  
HETATM   36  C   UNL     1      -8.841  10.228  65.679  1.00  0.00    -0.168 C  
HETATM   37  C   UNL     1     -11.692  12.847  64.069  1.00  0.00    -0.434 A  
HETATM   38  C   UNL     1      -9.898  10.952  64.986  1.00  0.00    -0.336 A  
HETATM   39  O   UNL     1      -8.674  11.138  62.946  1.00  0.00    -0.207 OA 
HETATM   40  C   UNL     1     -10.618  12.482  63.265  1.00  0.00    -0.121 A  
HETATM   41  O   UNL     1     -12.478  13.865  63.612  1.00  0.00    -0.872 OA 
HETATM   42  H   UNL     1     -12.305  14.305  62.787  1.00  0.00     0.000 HD 
HETATM   43  C   UNL     1      -9.715  11.536  63.726  1.00  0.00    -0.276 A  
BRANCH  31  44
HETATM   44  C   UNL     1     -10.846   8.820  68.528  1.00  0.00    -0.016 A  
HETATM   45  O   UNL     1     -11.290   6.781  72.115  1.00  0.00    -0.251 OA 
HETATM   46  H   UNL     1     -11.239   4.927  70.636  1.00  0.00     0.000 HD 
HETATM   47  C   UNL     1     -10.978   9.526  69.740  1.00  0.00    -0.245 A  
HETATM   48  H   UNL     1     -11.349   7.263  72.931  1.00  0.00     0.000 HD 
HETATM   49  O   UNL     1     -11.134   5.383  69.810  1.00  0.00    -0.152 OA 
HETATM   50  C   UNL     1     -11.194   7.457  70.930  1.00  0.00    -0.270 A  
HETATM   51  C   UNL     1     -11.108   6.750  69.733  1.00  0.00    -0.316 A  
HETATM   52  C   UNL     1     -10.954   7.420  68.522  1.00  0.00     0.021 A  
HETATM   53  C   UNL     1     -11.149   8.842  70.945  1.00  0.00    -0.328 A  
ENDBRANCH  31  44
ENDBRANCH  28  29
ENDBRANCH  17  28
ENDBRANCH  15  16
ENDBRANCH  14  15
ENDBRANCH   4  14
TORSDOF 6
ENDMDL
MODEL      171
REMARK 921   NORMALIZED FREE ENERGY PREDICTED BY IDOCK:   -1.25 KCAL/MOL
REMARK 922        TOTAL FREE ENERGY PREDICTED BY IDOCK:   -3.17 KCAL/MOL
REMARK 923 INTER-LIGAND FREE ENERGY PREDICTED BY IDOCK:   -4.48 KCAL/MOL
REMARK 924 INTRA-LIGAND FREE ENERGY PREDICTED BY IDOCK:    1.31 KCAL/MOL
REMARK 927      BINDING AFFINITY PREDICTED BY RF-SCORE:    0.00 PKD
ROOT
HETATM    1  C   UNL     1     -12.150  15.172  70.216  1.00  0.00    -0.385 C  
HETATM    2  C   UNL     1     -11.759  13.781  70.725  1.00  0.00    -0.001 C  
HETATM    3  O   UNL     1     -11.222  13.126  69.576  1.00  0.00    -0.192 OA 
HETATM    4  C   UNL     1     -11.139  11.709  69.526  1.00  0.00    -0.164 C  
HETATM    5  H   UNL     1     -13.904  11.275  73.049  1.00  0.00     0.000 HD 
HETATM    6  C   UNL     1     -12.329  10.988  70.178  1.00  0.00    -0.311 C  
HETATM    7  C   UNL     1     -12.633  11.593  71.556  1.00  0.00    -0.236 C  
HETATM    8  O   UNL     1     -13.287  13.727  72.622  1.00  0.00    -0.526 OA 
HETATM    9  O   UNL     1     -13.497  11.095  69.341  1.00  0.00     0.736 OA 
HETATM   10  H   UNL     1     -14.233  10.649  69.744  1.00  0.00     0.000 HD 
HETATM   11  H   UNL     1     -14.032  13.296  73.025  1.00  0.00     0.000 HD 
HETATM   12  O   UNL     1     -13.716  10.902  72.196  1.00  0.00    -0.155 OA 
HETATM   13  C   UNL     1     -12.967  13.082  71.379  1.00  0.00    -0.283 C  
ENDROOT
BRANCH   4  14
HETATM   14  O   UNL     1      -9.920  11.150  70.020  1.00  0.00     0.531 OA 
BRANCH  14  15
HETATM   15  C   UNL     1      -9.233  10.340  69.049  1.00  0.00    -0.183 C  
BRANCH  15  16
HETATM   16  C   UNL     1      -9.056  11.158  67.764  1.00  0.00    -0.149 C  
HETATM   17  C   UNL     1      -7.633   9.786  66.287  1.00  0.00    -0.100 C  
HETATM   18  O   UNL     1      -7.759  10.927  67.162  1.00  0.00    -0.113 OA 
HETATM   19  H   UNL     1     -11.395   8.720  66.744  1.00  0.00     0.000 HD 
HETATM   20  C   UNL     1      -8.703   9.965  65.185  1.00  0.00    -0.165 C  
HETATM   21  H   UNL     1     -11.213  12.295  65.620  1.00  0.00     0.000 HD 
HETATM   22  O   UNL     1      -8.505  11.216  64.480  1.00  0.00    -0.371 OA 
HETATM   23  C   UNL     1     -10.121   9.960  65.780  1.00  0.00    -0.247 C  
HETATM   24  H   UNL     1      -9.163  11.326  63.803  1.00  0.00     0.000 HD 
HETATM   25  O   UNL     1     -10.464  12.351  66.200  1.00  0.00    -0.240 OA 
HETATM   26  O   UNL     1     -10.519   8.723  66.377  1.00  0.00    -0.216 OA 
HETATM   27  C   UNL     1     -10.273  11.068  66.824  1.00  0.00    -0.229 C  
BRANCH  17  28
HETATM   28  O   UNL     1      -7.665   8.556  67.029  1.00  0.00    -0.091 OA 
BRANCH  28  29
HETATM   29  C   UNL     1      -7.107   7.429  66.425  1.00  0.00    -0.074 C  
HETATM   30  O   UNL     1      -6.733   5.013  66.372  1.00  0.00    -0.051 OA 
HETATM   31  C   UNL     1      -7.027   6.214  67.021  1.00  0.00    -0.072 C  
HETATM   32  C   UNL     1      -6.349   5.050  65.055  1.00  0.00    -0.035 A  
HETATM   33  O   UNL     1      -7.431   8.285  64.272  1.00  0.00    -0.095 OA 
HETATM   34  H   UNL     1      -5.629   8.320  62.941  1.00  0.00     0.000 HD 
HETATM   35  C   UNL     1      -6.067   3.861  64.384  1.00  0.00    -0.022 A  
HETATM   36  C   UNL     1      -6.908   7.417  64.961  1.00  0.00    -0.050 C  
HETATM   37  C   UNL     1      -5.603   3.913  63.064  1.00  0.00    -0.013 A  
HETATM   38  C   UNL     1      -6.236   6.271  64.362  1.00  0.00    -0.030 A  
HETATM   39  O   UNL     1      -5.409   7.509  62.497  1.00  0.00    -0.044 OA 
HETATM   40  C   UNL     1      -5.352   5.126  62.432  1.00  0.00    -0.013 A  
HETATM   41  O   UNL     1      -5.374   2.785  62.330  1.00  0.00    -0.004 OA 
HETATM   42  H   UNL     1      -5.060   2.820  61.434  1.00  0.00     0.000 HD 
HETATM   43  C   UNL     1      -5.674   6.309  63.080  1.00  0.00    -0.022 A  
BRANCH  31  44
HETATM   44  C   UNL     1      -7.374   6.087  68.444  1.00  0.00    -0.085 A  
HETATM   45  O   UNL     1      -8.133   5.045  72.389  1.00  0.00    -0.106 OA 
HETATM   46  H   UNL     1     -10.328   4.827  71.517  1.00  0.00     0.000 HD 
HETATM   47  C   UNL     1      -6.342   6.117  69.403  1.00  0.00    -0.041 A  
HETATM   48  H   UNL     1      -7.427   5.039  73.023  1.00  0.00     0.000 HD 
HETATM   49  O   UNL     1     -10.165   5.060  70.611  1.00  0.00    -0.238 OA 
HETATM   50  C   UNL     1      -7.890   5.437  71.102  1.00  0.00    -0.104 A  
HETATM   51  C   UNL     1      -8.927   5.446  70.171  1.00  0.00    -0.134 A  
HETATM   52  C   UNL     1      -8.687   5.789  68.843  1.00  0.00    -0.111 A  
HETATM   53  C   UNL     1      -6.600   5.787  70.735  1.00  0.00    -0.048 A  
ENDBRANCH  31  44
ENDBRANCH  28  29
ENDBRANCH  17  28
ENDBRANCH  15  16
ENDBRANCH  14  15
ENDBRANCH   4  14
TORSDOF 6
ENDMDL
MODEL      172
REMARK 921   NORMALIZED FREE ENERGY PREDICTED BY IDOCK:   -1.23 KCAL/MOL
REMARK 922        TOTAL FREE ENERGY PREDICTED BY IDOCK:   -3.14 KCAL/MOL
REMARK 923 INTER-LIGAND FREE ENERGY PREDICTED BY IDOCK:   -6.65 KCAL/MOL
REMARK 924 INTRA-LIGAND FREE ENERGY PREDICTED BY IDOCK:    3.51 KCAL/MOL
REMARK 927      BINDING AFFINITY PREDICTED BY RF-SCORE:    0.00 PKD
ROOT
HETATM    1  C   UNL     1     -12.817  13.802  68.219  1.00  0.00     1.423 C  
HETATM    2  C   UNL     1     -12.363  15.118  68.858  1.00  0.00     0.014 C  
HETATM    3  O   UNL     1     -10.969  15.192  68.557  1.00  0.00    -0.243 OA 
HETATM    4  C   UNL     1     -10.110  16.029  69.317  1.00  0.00    -0.249 C  
HETATM    5  H   UNL     1     -13.205  16.529  72.543  1.00  0.00     0.000 HD 
HETATM    6  C   UNL     1     -10.446  16.078  70.815  1.00  0.00     0.402 C  
HETATM    7  C   UNL     1     -11.951  16.301  71.020  1.00  0.00    -0.116 C  
HETATM    8  O   UNL     1     -14.139  15.260  70.520  1.00  0.00    -0.611 OA 
HETATM    9  O   UNL     1     -10.053  14.848  71.455  1.00  0.00     0.578 OA 
HETATM   10  H   UNL     1     -10.261  14.878  72.381  1.00  0.00     0.000 HD 
HETATM   11  H   UNL     1     -14.357  15.277  71.444  1.00  0.00     0.000 HD 
HETATM   12  O   UNL     1     -12.275  16.391  72.416  1.00  0.00    -0.479 OA 
HETATM   13  C   UNL     1     -12.717  15.145  70.358  1.00  0.00    -0.333 C  
ENDROOT
BRANCH   4  14
HETATM   14  O   UNL     1      -9.961  17.362  68.823  1.00  0.00    -0.300 OA 
BRANCH  14  15
HETATM   15  C   UNL     1      -8.931  18.105  69.497  1.00  0.00     0.662 C  
BRANCH  15  16
HETATM   16  C   UNL     1      -7.941  18.632  68.450  1.00  0.00    -0.324 C  
HETATM   17  C   UNL     1      -7.548  16.756  66.895  1.00  0.00    -0.217 C  
HETATM   18  O   UNL     1      -7.063  17.583  67.974  1.00  0.00    -0.191 OA 
HETATM   19  H   UNL     1     -10.977  18.676  66.650  1.00  0.00     0.000 HD 
HETATM   20  C   UNL     1      -7.899  17.719  65.737  1.00  0.00     0.085 C  
HETATM   21  H   UNL     1      -8.134  21.107  66.357  1.00  0.00     0.000 HD 
HETATM   22  O   UNL     1      -6.737  18.494  65.348  1.00  0.00    -0.440 OA 
HETATM   23  C   UNL     1      -9.020  18.690  66.139  1.00  0.00    -0.122 C  
HETATM   24  H   UNL     1      -6.952  19.086  64.636  1.00  0.00     0.000 HD 
HETATM   25  O   UNL     1      -7.719  20.571  67.022  1.00  0.00    -0.313 OA 
HETATM   26  O   UNL     1     -10.284  18.076  66.402  1.00  0.00    -0.360 OA 
HETATM   27  C   UNL     1      -8.615  19.502  67.372  1.00  0.00    -0.304 C  
BRANCH  17  28
HETATM   28  O   UNL     1      -8.590  15.875  67.344  1.00  0.00    -0.163 OA 
BRANCH  28  29
HETATM   29  C   UNL     1      -8.247  14.544  67.579  1.00  0.00    -0.187 C  
HETATM   30  O   UNL     1      -8.283  12.190  66.916  1.00  0.00    -0.177 OA 
HETATM   31  C   UNL     1      -8.783  13.495  66.909  1.00  0.00    -0.145 C  
HETATM   32  C   UNL     1      -7.255  11.881  67.770  1.00  0.00    -0.104 A  
HETATM   33  O   UNL     1      -6.186  15.128  68.521  1.00  0.00    -0.087 OA 
HETATM   34  H   UNL     1      -5.745  14.270  70.543  1.00  0.00     0.000 HD 
HETATM   35  C   UNL     1      -6.731  10.589  67.780  1.00  0.00    -0.069 A  
HETATM   36  C   UNL     1      -7.004  14.239  68.320  1.00  0.00    -0.108 C  
HETATM   37  C   UNL     1      -5.734  10.262  68.707  1.00  0.00    -0.041 A  
HETATM   38  C   UNL     1      -6.713  12.847  68.639  1.00  0.00    -0.095 A  
HETATM   39  O   UNL     1      -5.412  13.380  70.568  1.00  0.00    -0.122 OA 
HETATM   40  C   UNL     1      -5.305  11.177  69.662  1.00  0.00    -0.043 A  
HETATM   41  O   UNL     1      -5.132   9.036  68.723  1.00  0.00    -0.033 OA 
HETATM   42  H   UNL     1      -4.455   8.815  69.352  1.00  0.00     0.000 HD 
HETATM   43  C   UNL     1      -5.791  12.475  69.625  1.00  0.00    -0.115 A  
BRANCH  31  44
HETATM   44  C   UNL     1      -9.920  13.724  66.006  1.00  0.00    -0.319 A  
HETATM   45  O   UNL     1     -12.667  14.199  62.932  1.00  0.00    -0.692 OA 
HETATM   46  H   UNL     1     -12.058  16.471  63.242  1.00  0.00     0.000 HD 
HETATM   47  C   UNL     1     -10.618  12.613  65.492  1.00  0.00    -0.301 A  
HETATM   48  H   UNL     1     -13.112  13.442  62.570  1.00  0.00     0.000 HD 
HETATM   49  O   UNL     1     -11.425  16.373  63.943  1.00  0.00    -1.063 OA 
HETATM   50  C   UNL     1     -11.800  14.046  63.978  1.00  0.00    -0.308 A  
HETATM   51  C   UNL     1     -11.148  15.157  64.508  1.00  0.00    -0.237 A  
HETATM   52  C   UNL     1     -10.220  15.013  65.537  1.00  0.00    -0.406 A  
HETATM   53  C   UNL     1     -11.558  12.774  64.472  1.00  0.00    -0.397 A  
ENDBRANCH  31  44
ENDBRANCH  28  29
ENDBRANCH  17  28
ENDBRANCH  15  16
ENDBRANCH  14  15
ENDBRANCH   4  14
TORSDOF 6
ENDMDL
MODEL      173
REMARK 921   NORMALIZED FREE ENERGY PREDICTED BY IDOCK:   -1.19 KCAL/MOL
REMARK 922        TOTAL FREE ENERGY PREDICTED BY IDOCK:   -3.08 KCAL/MOL
REMARK 923 INTER-LIGAND FREE ENERGY PREDICTED BY IDOCK:   -4.87 KCAL/MOL
REMARK 924 INTRA-LIGAND FREE ENERGY PREDICTED BY IDOCK:    1.78 KCAL/MOL
REMARK 927      BINDING AFFINITY PREDICTED BY RF-SCORE:    0.00 PKD
ROOT
HETATM    1  C   UNL     1      -6.403   9.804  70.934  1.00  0.00    -0.073 C  
HETATM    2  C   UNL     1      -7.622   9.598  70.029  1.00  0.00    -0.147 C  
HETATM    3  O   UNL     1      -8.367  10.809  70.164  1.00  0.00     0.410 OA 
HETATM    4  C   UNL     1      -9.746  10.848  69.825  1.00  0.00     0.412 C  
HETATM    5  H   UNL     1     -10.009   6.358  69.748  1.00  0.00     0.000 HD 
HETATM    6  C   UNL     1     -10.520   9.574  70.196  1.00  0.00    -0.255 C  
HETATM    7  C   UNL     1      -9.752   8.327  69.733  1.00  0.00    -0.180 C  
HETATM    8  O   UNL     1      -7.594   7.162  70.057  1.00  0.00    -0.087 OA 
HETATM    9  O   UNL     1     -10.722   9.509  71.621  1.00  0.00    -0.320 OA 
HETATM   10  H   UNL     1     -11.200   8.721  71.850  1.00  0.00     0.000 HD 
HETATM   11  H   UNL     1      -8.059   6.369  70.295  1.00  0.00     0.000 HD 
HETATM   12  O   UNL     1     -10.483   7.129  70.034  1.00  0.00    -0.210 OA 
HETATM   13  C   UNL     1      -8.376   8.311  70.416  1.00  0.00    -0.120 C  
ENDROOT
BRANCH   4  14
HETATM   14  O   UNL     1     -10.033  11.197  68.470  1.00  0.00    -0.186 OA 
BRANCH  14  15
HETATM   15  C   UNL     1      -9.817  12.590  68.184  1.00  0.00    -0.221 C  
BRANCH  15  16
HETATM   16  C   UNL     1      -8.570  13.060  68.945  1.00  0.00     0.301 C  
HETATM   17  C   UNL     1      -6.672  12.698  67.408  1.00  0.00    -0.142 C  
HETATM   18  O   UNL     1      -7.402  12.282  68.582  1.00  0.00    -0.105 OA 
HETATM   19  H   UNL     1      -9.082  15.729  66.693  1.00  0.00     0.000 HD 
HETATM   20  C   UNL     1      -6.272  14.173  67.648  1.00  0.00    -0.085 C  
HETATM   21  H   UNL     1      -7.773  15.946  70.203  1.00  0.00     0.000 HD 
HETATM   22  O   UNL     1      -5.479  14.297  68.855  1.00  0.00    -0.083 OA 
HETATM   23  C   UNL     1      -7.512  15.071  67.786  1.00  0.00    -0.159 C  
HETATM   24  H   UNL     1      -5.233  15.203  69.002  1.00  0.00     0.000 HD 
HETATM   25  O   UNL     1      -7.877  15.002  70.209  1.00  0.00     0.217 OA 
HETATM   26  O   UNL     1      -8.316  15.173  66.608  1.00  0.00    -0.236 OA 
HETATM   27  C   UNL     1      -8.403  14.591  68.934  1.00  0.00    -0.112 C  
BRANCH  17  28
HETATM   28  O   UNL     1      -7.410  12.414  66.209  1.00  0.00     0.599 OA 
BRANCH  28  29
HETATM   29  C   UNL     1      -7.756  11.083  65.971  1.00  0.00    -0.059 C  
HETATM   30  O   UNL     1      -9.017   9.409  64.711  1.00  0.00    -0.201 OA 
HETATM   31  C   UNL     1      -8.799  10.701  65.193  1.00  0.00    -0.193 C  
HETATM   32  C   UNL     1      -8.211   8.392  65.156  1.00  0.00    -0.157 A  
HETATM   33  O   UNL     1      -5.606  10.317  66.484  1.00  0.00    -0.048 OA 
HETATM   34  H   UNL     1      -5.479   8.679  68.007  1.00  0.00     0.000 HD 
HETATM   35  C   UNL     1      -8.401   7.098  64.673  1.00  0.00     0.048 A  
HETATM   36  C   UNL     1      -6.773  10.018  66.257  1.00  0.00    -0.094 C  
HETATM   37  C   UNL     1      -7.623   6.054  65.189  1.00  0.00    -0.089 A  
HETATM   38  C   UNL     1      -7.186   8.631  66.093  1.00  0.00    -0.085 A  
HETATM   39  O   UNL     1      -5.632   7.794  67.699  1.00  0.00    -0.034 OA 
HETATM   40  C   UNL     1      -6.715   6.268  66.220  1.00  0.00    -0.056 A  
HETATM   41  O   UNL     1      -7.713   4.778  64.711  1.00  0.00    -0.075 OA 
HETATM   42  H   UNL     1      -7.186   4.070  65.061  1.00  0.00     0.000 HD 
HETATM   43  C   UNL     1      -6.491   7.561  66.670  1.00  0.00    -0.049 A  
BRANCH  31  44
HETATM   44  C   UNL     1      -9.744  11.718  64.708  1.00  0.00    -0.184 A  
HETATM   45  O   UNL     1     -12.673  14.574  64.012  1.00  0.00    -0.759 OA 
HETATM   46  H   UNL     1     -13.789  12.674  63.134  1.00  0.00     0.000 HD 
HETATM   47  C   UNL     1      -9.515  13.070  65.031  1.00  0.00     0.372 A  
HETATM   48  H   UNL     1     -12.523  15.479  64.258  1.00  0.00     0.000 HD 
HETATM   49  O   UNL     1     -13.127  12.012  63.292  1.00  0.00    -0.701 OA 
HETATM   50  C   UNL     1     -11.688  13.645  64.197  1.00  0.00    -0.386 A  
HETATM   51  C   UNL     1     -11.908  12.318  63.835  1.00  0.00    -0.464 A  
HETATM   52  C   UNL     1     -10.936  11.347  64.067  1.00  0.00    -0.428 A  
HETATM   53  C   UNL     1     -10.491  14.036  64.777  1.00  0.00    -0.445 A  
ENDBRANCH  31  44
ENDBRANCH  28  29
ENDBRANCH  17  28
ENDBRANCH  15  16
ENDBRANCH  14  15
ENDBRANCH   4  14
TORSDOF 6
ENDMDL
MODEL      174
REMARK 921   NORMALIZED FREE ENERGY PREDICTED BY IDOCK:   -0.91 KCAL/MOL
REMARK 922        TOTAL FREE ENERGY PREDICTED BY IDOCK:   -2.71 KCAL/MOL
REMARK 923 INTER-LIGAND FREE ENERGY PREDICTED BY IDOCK:   -2.12 KCAL/MOL
REMARK 924 INTRA-LIGAND FREE ENERGY PREDICTED BY IDOCK:   -0.59 KCAL/MOL
REMARK 927      BINDING AFFINITY PREDICTED BY RF-SCORE:    0.00 PKD
ROOT
HETATM    1  C   UNL     1      -5.136  11.302  72.856  1.00  0.00     0.428 C  
HETATM    2  C   UNL     1      -6.234  11.655  71.847  1.00  0.00     2.561 C  
HETATM    3  O   UNL     1      -6.104  10.663  70.828  1.00  0.00    -0.249 OA 
HETATM    4  C   UNL     1      -6.646  10.883  69.534  1.00  0.00    -0.109 C  
HETATM    5  H   UNL     1      -7.178  15.277  70.343  1.00  0.00     0.000 HD 
HETATM    6  C   UNL     1      -6.519  12.332  69.039  1.00  0.00    -0.096 C  
HETATM    7  C   UNL     1      -6.971  13.313  70.130  1.00  0.00     0.741 C  
HETATM    8  O   UNL     1      -6.428  14.009  72.441  1.00  0.00    -0.084 OA 
HETATM    9  O   UNL     1      -5.154  12.618  68.675  1.00  0.00    -0.055 OA 
HETATM   10  H   UNL     1      -5.076  13.514  68.370  1.00  0.00     0.000 HD 
HETATM   11  H   UNL     1      -6.338  14.909  72.148  1.00  0.00     0.000 HD 
HETATM   12  O   UNL     1      -6.899  14.670  69.668  1.00  0.00    -0.152 OA 
HETATM   13  C   UNL     1      -6.088  13.113  71.371  1.00  0.00     0.777 C  
ENDROOT
BRANCH   4  14
HETATM   14  O   UNL     1      -7.992  10.438  69.350  1.00  0.00    -0.144 OA 
BRANCH  14  15
HETATM   15  C   UNL     1      -8.201   9.078  69.767  1.00  0.00    -0.122 C  
BRANCH  15  16
HETATM   16  C   UNL     1      -9.463   9.019  70.636  1.00  0.00    -0.236 C  
HETATM   17  C   UNL     1     -11.001  10.707  69.698  1.00  0.00    -0.278 C  
HETATM   18  O   UNL     1     -10.091  10.321  70.750  1.00  0.00     0.170 OA 
HETATM   19  H   UNL     1     -10.524   7.336  67.720  1.00  0.00     0.000 HD 
HETATM   20  C   UNL     1     -12.082   9.603  69.634  1.00  0.00     0.501 C  
HETATM   21  H   UNL     1     -11.543   6.603  71.256  1.00  0.00     0.000 HD 
HETATM   22  O   UNL     1     -12.752   9.469  70.913  1.00  0.00    -0.467 OA 
HETATM   23  C   UNL     1     -11.468   8.243  69.262  1.00  0.00     0.639 C  
HETATM   24  H   UNL     1     -13.416   8.791  70.873  1.00  0.00     0.000 HD 
HETATM   25  O   UNL     1     -10.972   7.328  71.481  1.00  0.00    -0.232 OA 
HETATM   26  O   UNL     1     -10.903   8.177  67.951  1.00  0.00    -0.116 OA 
HETATM   27  C   UNL     1     -10.389   7.843  70.271  1.00  0.00    -0.212 C  
BRANCH  17  28
HETATM   28  O   UNL     1     -10.296  10.996  68.481  1.00  0.00    -0.174 OA 
BRANCH  28  29
HETATM   29  C   UNL     1     -10.138  12.338  68.135  1.00  0.00    -0.211 C  
HETATM   30  O   UNL     1      -9.896  14.080  66.435  1.00  0.00    -0.278 OA 
HETATM   31  C   UNL     1      -9.801  12.764  66.892  1.00  0.00    -0.236 C  
HETATM   32  C   UNL     1     -10.218  15.069  67.330  1.00  0.00    -0.234 A  
HETATM   33  O   UNL     1     -11.471  13.067  69.913  1.00  0.00    -0.202 OA 
HETATM   34  H   UNL     1     -10.570  14.625  71.249  1.00  0.00     0.000 HD 
HETATM   35  C   UNL     1     -10.335  16.387  66.891  1.00  0.00    -0.300 A  
HETATM   36  C   UNL     1     -10.695  13.383  69.019  1.00  0.00    -0.127 C  
HETATM   37  C   UNL     1     -10.589  17.400  67.824  1.00  0.00    -0.371 A  
HETATM   38  C   UNL     1     -10.437  14.778  68.691  1.00  0.00    -0.250 A  
HETATM   39  O   UNL     1     -10.619  15.525  70.950  1.00  0.00    -0.241 OA 
HETATM   40  C   UNL     1     -10.657  17.129  69.186  1.00  0.00    -0.259 A  
HETATM   41  O   UNL     1     -10.782  18.699  67.450  1.00  0.00    -0.431 OA 
HETATM   42  H   UNL     1     -10.954  19.386  68.083  1.00  0.00     0.000 HD 
HETATM   43  C   UNL     1     -10.587  15.814  69.621  1.00  0.00    -0.295 A  
BRANCH  31  44
HETATM   44  C   UNL     1      -9.397  11.778  65.880  1.00  0.00    -0.214 A  
HETATM   45  O   UNL     1      -8.664   8.533  63.399  1.00  0.00    -0.425 OA 
HETATM   46  H   UNL     1      -6.689   8.452  64.710  1.00  0.00     0.000 HD 
HETATM   47  C   UNL     1     -10.304  11.441  64.856  1.00  0.00    -0.347 A  
HETATM   48  H   UNL     1      -9.294   8.294  62.730  1.00  0.00     0.000 HD 
HETATM   49  O   UNL     1      -6.848   9.191  65.286  1.00  0.00    -0.075 OA 
HETATM   50  C   UNL     1      -8.884   9.632  64.182  1.00  0.00    -0.226 A  
HETATM   51  C   UNL     1      -7.959   9.982  65.163  1.00  0.00    -0.145 A  
HETATM   52  C   UNL     1      -8.193  11.066  66.006  1.00  0.00    -0.129 A  
HETATM   53  C   UNL     1     -10.049  10.363  64.006  1.00  0.00    -0.216 A  
ENDBRANCH  31  44
ENDBRANCH  28  29
ENDBRANCH  17  28
ENDBRANCH  15  16
ENDBRANCH  14  15
ENDBRANCH   4  14
TORSDOF 6
ENDMDL
MODEL      175
REMARK 921   NORMALIZED FREE ENERGY PREDICTED BY IDOCK:   -0.79 KCAL/MOL
REMARK 922        TOTAL FREE ENERGY PREDICTED BY IDOCK:   -2.55 KCAL/MOL
REMARK 923 INTER-LIGAND FREE ENERGY PREDICTED BY IDOCK:   -4.48 KCAL/MOL
REMARK 924 INTRA-LIGAND FREE ENERGY PREDICTED BY IDOCK:    1.93 KCAL/MOL
REMARK 927      BINDING AFFINITY PREDICTED BY RF-SCORE:    0.00 PKD
ROOT
HETATM    1  C   UNL     1      -9.542  17.763  69.630  1.00  0.00     0.577 C  
HETATM    2  C   UNL     1      -9.208  16.408  68.999  1.00  0.00    -0.247 C  
HETATM    3  O   UNL     1      -7.968  16.631  68.327  1.00  0.00    -0.178 OA 
HETATM    4  C   UNL     1      -7.543  15.760  67.289  1.00  0.00    -0.210 C  
HETATM    5  H   UNL     1     -11.644  13.944  66.932  1.00  0.00     0.000 HD 
HETATM    6  C   UNL     1      -8.680  15.258  66.386  1.00  0.00    -0.230 C  
HETATM    7  C   UNL     1      -9.860  14.762  67.235  1.00  0.00    -0.230 C  
HETATM    8  O   UNL     1     -11.489  15.556  68.920  1.00  0.00    -0.309 OA 
HETATM    9  O   UNL     1      -9.129  16.314  65.515  1.00  0.00    -0.374 OA 
HETATM   10  H   UNL     1      -9.833  16.004  64.957  1.00  0.00     0.000 HD 
HETATM   11  H   UNL     1     -12.203  15.257  68.369  1.00  0.00     0.000 HD 
HETATM   12  O   UNL     1     -10.915  14.250  66.407  1.00  0.00    -0.303 OA 
HETATM   13  C   UNL     1     -10.366  15.924  68.104  1.00  0.00    -0.256 C  
ENDROOT
BRANCH   4  14
HETATM   14  O   UNL     1      -6.749  14.649  67.710  1.00  0.00    -0.150 OA 
BRANCH  14  15
HETATM   15  C   UNL     1      -7.498  13.426  67.821  1.00  0.00    -0.160 C  
BRANCH  15  16
HETATM   16  C   UNL     1      -7.485  12.973  69.287  1.00  0.00     0.308 C  
HETATM   17  C   UNL     1      -8.052  10.571  69.252  1.00  0.00    -0.148 C  
HETATM   18  O   UNL     1      -8.459  11.928  69.529  1.00  0.00     0.685 OA 
HETATM   19  H   UNL     1      -4.442  11.638  68.098  1.00  0.00     0.000 HD 
HETATM   20  C   UNL     1      -6.783  10.319  70.099  1.00  0.00    -0.146 C  
HETATM   21  H   UNL     1      -5.134  12.995  71.527  1.00  0.00     0.000 HD 
HETATM   22  O   UNL     1      -7.059  10.528  71.507  1.00  0.00     0.666 OA 
HETATM   23  C   UNL     1      -5.639  11.258  69.683  1.00  0.00    -0.061 C  
HETATM   24  H   UNL     1      -6.280  10.373  72.028  1.00  0.00     0.000 HD 
HETATM   25  O   UNL     1      -6.010  13.151  71.196  1.00  0.00    -0.273 OA 
HETATM   26  O   UNL     1      -5.149  11.058  68.355  1.00  0.00    -0.041 OA 
HETATM   27  C   UNL     1      -6.063  12.722  69.823  1.00  0.00    -0.131 C  
BRANCH  17  28
HETATM   28  O   UNL     1      -7.944  10.339  67.839  1.00  0.00    -0.101 OA 
BRANCH  28  29
HETATM   29  C   UNL     1      -9.087  10.548  67.066  1.00  0.00    -0.143 C  
HETATM   30  O   UNL     1     -11.497  10.929  66.897  1.00  0.00    -0.342 OA 
HETATM   31  C   UNL     1     -10.351  10.468  67.550  1.00  0.00    -0.223 C  
HETATM   32  C   UNL     1     -11.388  11.372  65.603  1.00  0.00     0.001 A  
HETATM   33  O   UNL     1      -7.916  11.802  65.476  1.00  0.00     0.555 OA 
HETATM   34  H   UNL     1      -8.144  11.153  63.344  1.00  0.00     0.000 HD 
HETATM   35  C   UNL     1     -12.516  11.852  64.939  1.00  0.00     0.183 A  
HETATM   36  C   UNL     1      -8.963  11.233  65.763  1.00  0.00    -0.181 C  
HETATM   37  C   UNL     1     -12.411  12.231  63.596  1.00  0.00    -0.562 A  
HETATM   38  C   UNL     1     -10.151  11.356  64.929  1.00  0.00    -0.323 A  
HETATM   39  O   UNL     1      -8.921  11.450  62.886  1.00  0.00    -0.255 OA 
HETATM   40  C   UNL     1     -11.222  12.075  62.890  1.00  0.00     0.201 A  
HETATM   41  O   UNL     1     -13.460  12.771  62.910  1.00  0.00     0.747 OA 
HETATM   42  H   UNL     1     -13.389  13.029  61.998  1.00  0.00     0.000 HD 
HETATM   43  C   UNL     1     -10.087  11.642  63.559  1.00  0.00    -0.425 A  
BRANCH  31  44
HETATM   44  C   UNL     1     -10.569   9.959  68.912  1.00  0.00    -0.239 A  
HETATM   45  O   UNL     1     -11.740   8.165  72.466  1.00  0.00    -0.378 OA 
HETATM   46  H   UNL     1     -12.765  10.284  72.763  1.00  0.00     0.000 HD 
HETATM   47  C   UNL     1     -10.145   8.654  69.227  1.00  0.00    -0.203 A  
HETATM   48  H   UNL     1     -11.474   7.275  72.659  1.00  0.00     0.000 HD 
HETATM   49  O   UNL     1     -12.505  10.703  71.951  1.00  0.00    -0.294 OA 
HETATM   50  C   UNL     1     -11.312   8.771  71.318  1.00  0.00    -0.291 A  
HETATM   51  C   UNL     1     -11.701  10.079  71.035  1.00  0.00    -0.392 A  
HETATM   52  C   UNL     1     -11.320  10.692  69.844  1.00  0.00    -0.386 A  
HETATM   53  C   UNL     1     -10.520   8.056  70.432  1.00  0.00    -0.218 A  
ENDBRANCH  31  44
ENDBRANCH  28  29
ENDBRANCH  17  28
ENDBRANCH  15  16
ENDBRANCH  14  15
ENDBRANCH   4  14
TORSDOF 6
ENDMDL
MODEL      176
REMARK 921   NORMALIZED FREE ENERGY PREDICTED BY IDOCK:   -0.15 KCAL/MOL
REMARK 922        TOTAL FREE ENERGY PREDICTED BY IDOCK:   -1.69 KCAL/MOL
REMARK 923 INTER-LIGAND FREE ENERGY PREDICTED BY IDOCK:   -5.13 KCAL/MOL
REMARK 924 INTRA-LIGAND FREE ENERGY PREDICTED BY IDOCK:    3.44 KCAL/MOL
REMARK 927      BINDING AFFINITY PREDICTED BY RF-SCORE:    0.00 PKD
ROOT
HETATM    1  C   UNL     1      -5.899   3.013  66.323  1.00  0.00    -0.023 C  
HETATM    2  C   UNL     1      -7.165   3.701  66.842  1.00  0.00    -0.064 C  
HETATM    3  O   UNL     1      -6.678   4.696  67.743  1.00  0.00    -0.048 OA 
HETATM    4  C   UNL     1      -7.531   5.254  68.732  1.00  0.00    -0.074 C  
HETATM    5  H   UNL     1     -10.581   1.998  68.148  1.00  0.00     0.000 HD 
HETATM    6  C   UNL     1      -8.510   4.247  69.356  1.00  0.00    -0.072 C  
HETATM    7  C   UNL     1      -9.203   3.424  68.260  1.00  0.00    -0.179 C  
HETATM    8  O   UNL     1      -8.694   1.853  66.418  1.00  0.00    -0.108 OA 
HETATM    9  O   UNL     1      -7.812   3.360  70.251  1.00  0.00    -0.046 OA 
HETATM   10  H   UNL     1      -8.417   2.737  70.636  1.00  0.00     0.000 HD 
HETATM   11  H   UNL     1      -9.290   1.217  66.796  1.00  0.00     0.000 HD 
HETATM   12  O   UNL     1     -10.153   2.507  68.825  1.00  0.00     0.455 OA 
HETATM   13  C   UNL     1      -8.132   2.671  67.456  1.00  0.00    -0.069 C  
ENDROOT
BRANCH   4  14
HETATM   14  O   UNL     1      -8.248   6.423  68.332  1.00  0.00    -0.112 OA 
BRANCH  14  15
HETATM   15  C   UNL     1      -9.185   6.179  67.268  1.00  0.00    -0.117 C  
BRANCH  15  16
HETATM   16  C   UNL     1      -8.453   6.319  65.928  1.00  0.00    -0.146 C  
HETATM   17  C   UNL     1      -9.031   8.565  65.081  1.00  0.00    -0.006 C  
HETATM   18  O   UNL     1      -9.205   7.135  64.995  1.00  0.00     0.504 OA 
HETATM   19  H   UNL     1      -6.454   8.312  68.048  1.00  0.00     0.000 HD 
HETATM   20  C   UNL     1      -7.516   8.828  64.912  1.00  0.00    -0.095 C  
HETATM   21  H   UNL     1      -5.297   6.196  65.174  1.00  0.00     0.000 HD 
HETATM   22  O   UNL     1      -7.044   8.297  63.648  1.00  0.00    -0.082 OA 
HETATM   23  C   UNL     1      -6.707   8.177  66.046  1.00  0.00    -0.053 C  
HETATM   24  H   UNL     1      -6.114   8.458  63.544  1.00  0.00     0.000 HD 
HETATM   25  O   UNL     1      -6.216   5.981  65.072  1.00  0.00    -0.031 OA 
HETATM   26  O   UNL     1      -6.954   8.714  67.347  1.00  0.00    -0.076 OA 
HETATM   27  C   UNL     1      -6.961   6.668  66.093  1.00  0.00    -0.062 C  
BRANCH  17  28
HETATM   28  O   UNL     1      -9.652   9.094  66.263  1.00  0.00    -0.211 OA 
BRANCH  28  29
HETATM   29  C   UNL     1     -10.130  10.403  66.204  1.00  0.00    -0.237 C  
HETATM   30  O   UNL     1     -10.001  12.745  66.897  1.00  0.00    -0.224 OA 
HETATM   31  C   UNL     1      -9.769  11.379  67.074  1.00  0.00    -0.190 C  
HETATM   32  C   UNL     1     -10.779  13.153  65.842  1.00  0.00    -0.274 A  
HETATM   33  O   UNL     1     -10.680  10.218  63.938  1.00  0.00     0.476 OA 
HETATM   34  H   UNL     1     -12.775  10.780  63.381  1.00  0.00     0.000 HD 
HETATM   35  C   UNL     1     -11.008  14.513  65.639  1.00  0.00    -0.323 A  
HETATM   36  C   UNL     1     -10.771  10.883  64.963  1.00  0.00    -0.146 C  
HETATM   37  C   UNL     1     -11.863  14.916  64.606  1.00  0.00    -0.407 A  
HETATM   38  C   UNL     1     -11.349  12.221  64.954  1.00  0.00    -0.373 A  
HETATM   39  O   UNL     1     -12.954  11.706  63.264  1.00  0.00    -0.489 OA 
HETATM   40  C   UNL     1     -12.542  13.987  63.824  1.00  0.00     0.089 A  
HETATM   41  O   UNL     1     -12.076  16.232  64.312  1.00  0.00    -0.641 OA 
HETATM   42  H   UNL     1     -12.656  16.505  63.611  1.00  0.00     0.000 HD 
HETATM   43  C   UNL     1     -12.280  12.636  63.994  1.00  0.00    -0.463 A  
BRANCH  31  44
HETATM   44  C   UNL     1      -8.974  11.028  68.259  1.00  0.00    -0.155 A  
HETATM   45  O   UNL     1      -6.384   9.584  71.163  1.00  0.00    -0.097 OA 
HETATM   46  H   UNL     1      -8.281   8.248  71.658  1.00  0.00     0.000 HD 
HETATM   47  C   UNL     1      -7.683  11.572  68.400  1.00  0.00    -0.129 A  
HETATM   48  H   UNL     1      -5.505   9.936  71.233  1.00  0.00     0.000 HD 
HETATM   49  O   UNL     1      -8.881   8.568  70.995  1.00  0.00    -0.145 OA 
HETATM   50  C   UNL     1      -7.252  10.096  70.238  1.00  0.00    -0.121 A  
HETATM   51  C   UNL     1      -8.542   9.580  70.136  1.00  0.00    -0.224 A  
HETATM   52  C   UNL     1      -9.421  10.051  69.164  1.00  0.00    -0.214 A  
HETATM   53  C   UNL     1      -6.818  11.103  69.390  1.00  0.00    -0.125 A  
ENDBRANCH  31  44
ENDBRANCH  28  29
ENDBRANCH  17  28
ENDBRANCH  15  16
ENDBRANCH  14  15
ENDBRANCH   4  14
TORSDOF 6
ENDMDL
MODEL      177
REMARK 921   NORMALIZED FREE ENERGY PREDICTED BY IDOCK:    0.06 KCAL/MOL
REMARK 922        TOTAL FREE ENERGY PREDICTED BY IDOCK:   -1.40 KCAL/MOL
REMARK 923 INTER-LIGAND FREE ENERGY PREDICTED BY IDOCK:   -5.02 KCAL/MOL
REMARK 924 INTRA-LIGAND FREE ENERGY PREDICTED BY IDOCK:    3.62 KCAL/MOL
REMARK 927      BINDING AFFINITY PREDICTED BY RF-SCORE:    0.00 PKD
ROOT
HETATM    1  C   UNL     1     -10.116  13.870  68.824  1.00  0.00    -0.161 C  
HETATM    2  C   UNL     1     -10.297  12.690  69.785  1.00  0.00     1.209 C  
HETATM    3  O   UNL     1      -9.827  11.562  69.046  1.00  0.00    -0.127 OA 
HETATM    4  C   UNL     1     -10.212  10.246  69.418  1.00  0.00    -0.235 C  
HETATM    5  H   UNL     1     -13.498  11.796  72.071  1.00  0.00     0.000 HD 
HETATM    6  C   UNL     1     -11.663  10.132  69.910  1.00  0.00    -0.179 C  
HETATM    7  C   UNL     1     -11.969  11.234  70.936  1.00  0.00    -0.214 C  
HETATM    8  O   UNL     1     -12.043  13.697  71.153  1.00  0.00    -0.424 OA 
HETATM    9  O   UNL     1     -12.577  10.243  68.802  1.00  0.00    -0.235 OA 
HETATM   10  H   UNL     1     -13.474  10.173  69.107  1.00  0.00     0.000 HD 
HETATM   11  H   UNL     1     -12.943  13.642  71.452  1.00  0.00     0.000 HD 
HETATM   12  O   UNL     1     -13.308  11.115  71.438  1.00  0.00    -0.261 OA 
HETATM   13  C   UNL     1     -11.757  12.602  70.269  1.00  0.00    -0.111 C  
ENDROOT
BRANCH   4  14
HETATM   14  O   UNL     1      -9.345   9.595  70.348  1.00  0.00    -0.251 OA 
BRANCH  14  15
HETATM   15  C   UNL     1      -8.628   8.487  69.777  1.00  0.00    -0.131 C  
BRANCH  15  16
HETATM   16  C   UNL     1      -7.630   9.027  68.745  1.00  0.00    -0.087 C  
HETATM   17  C   UNL     1      -6.430   7.053  67.877  1.00  0.00    -0.051 C  
HETATM   18  O   UNL     1      -6.420   8.231  68.710  1.00  0.00    -0.050 OA 
HETATM   19  H   UNL     1     -10.130   7.647  66.669  1.00  0.00     0.000 HD 
HETATM   20  C   UNL     1      -6.788   7.533  66.452  1.00  0.00    -0.061 C  
HETATM   21  H   UNL     1      -8.067  10.709  66.002  1.00  0.00     0.000 HD 
HETATM   22  O   UNL     1      -5.830   8.519  65.989  1.00  0.00    -0.046 OA 
HETATM   23  C   UNL     1      -8.191   8.161  66.411  1.00  0.00    -0.108 C  
HETATM   24  H   UNL     1      -6.051   8.814  65.113  1.00  0.00     0.000 HD 
HETATM   25  O   UNL     1      -7.664  10.517  66.840  1.00  0.00    -0.107 OA 
HETATM   26  O   UNL     1      -9.263   7.259  66.695  1.00  0.00    -0.145 OA 
HETATM   27  C   UNL     1      -8.284   9.338  67.385  1.00  0.00    -0.117 C  
BRANCH  17  28
HETATM   28  O   UNL     1      -7.258   6.024  68.442  1.00  0.00    -0.079 OA 
BRANCH  28  29
HETATM   29  C   UNL     1      -7.771   5.064  67.570  1.00  0.00    -0.091 C  
HETATM   30  O   UNL     1      -9.676   3.882  66.591  1.00  0.00    -0.211 OA 
HETATM   31  C   UNL     1      -9.053   4.625  67.597  1.00  0.00    -0.118 C  
HETATM   32  C   UNL     1      -8.918   3.421  65.544  1.00  0.00    -0.140 A  
HETATM   33  O   UNL     1      -6.114   5.473  65.970  1.00  0.00    -0.031 OA 
HETATM   34  H   UNL     1      -4.978   3.683  65.244  1.00  0.00     0.000 HD 
HETATM   35  C   UNL     1      -9.523   2.693  64.521  1.00  0.00    -0.140 A  
HETATM   36  C   UNL     1      -7.032   4.746  66.329  1.00  0.00    -0.070 C  
HETATM   37  C   UNL     1      -8.729   2.162  63.497  1.00  0.00    -0.085 A  
HETATM   38  C   UNL     1      -7.533   3.674  65.480  1.00  0.00    -0.077 A  
HETATM   39  O   UNL     1      -5.390   3.161  64.564  1.00  0.00    -0.008 OA 
HETATM   40  C   UNL     1      -7.344   2.287  63.515  1.00  0.00    -0.053 A  
HETATM   41  O   UNL     1      -9.268   1.499  62.432  1.00  0.00    -0.074 OA 
HETATM   42  H   UNL     1      -8.729   1.139  61.737  1.00  0.00     0.000 HD 
HETATM   43  C   UNL     1      -6.744   3.050  64.506  1.00  0.00    -0.036 A  
BRANCH  31  44
HETATM   44  C   UNL     1      -9.928   5.030  68.707  1.00  0.00    -0.225 A  
HETATM   45  O   UNL     1     -12.014   6.787  71.835  1.00  0.00    -0.306 OA 
HETATM   46  H   UNL     1     -10.530   5.429  73.093  1.00  0.00     0.000 HD 
HETATM   47  C   UNL     1     -10.991   5.917  68.448  1.00  0.00    -0.264 A  
HETATM   48  H   UNL     1     -12.711   7.406  71.654  1.00  0.00     0.000 HD 
HETATM   49  O   UNL     1     -10.044   5.023  72.385  1.00  0.00    -0.174 OA 
HETATM   50  C   UNL     1     -11.362   6.172  70.803  1.00  0.00    -0.295 A  
HETATM   51  C   UNL     1     -10.340   5.263  71.069  1.00  0.00    -0.228 A  
HETATM   52  C   UNL     1      -9.628   4.669  70.030  1.00  0.00    -0.259 A  
HETATM   53  C   UNL     1     -11.709   6.492  69.499  1.00  0.00    -0.162 A  
ENDBRANCH  31  44
ENDBRANCH  28  29
ENDBRANCH  17  28
ENDBRANCH  15  16
ENDBRANCH  14  15
ENDBRANCH   4  14
TORSDOF 6
ENDMDL
MODEL      178
REMARK 921   NORMALIZED FREE ENERGY PREDICTED BY IDOCK:    0.08 KCAL/MOL
REMARK 922        TOTAL FREE ENERGY PREDICTED BY IDOCK:   -1.37 KCAL/MOL
REMARK 923 INTER-LIGAND FREE ENERGY PREDICTED BY IDOCK:   -3.90 KCAL/MOL
REMARK 924 INTRA-LIGAND FREE ENERGY PREDICTED BY IDOCK:    2.53 KCAL/MOL
REMARK 927      BINDING AFFINITY PREDICTED BY RF-SCORE:    0.00 PKD
ROOT
HETATM    1  C   UNL     1      -8.249   5.256  71.507  1.00  0.00    -0.117 C  
HETATM    2  C   UNL     1      -9.746   5.478  71.267  1.00  0.00    -0.166 C  
HETATM    3  O   UNL     1      -9.849   6.872  70.974  1.00  0.00    -0.178 OA 
HETATM    4  C   UNL     1     -11.092   7.547  71.107  1.00  0.00    -0.251 C  
HETATM    5  H   UNL     1     -12.855   4.143  73.463  1.00  0.00     0.000 HD 
HETATM    6  C   UNL     1     -11.935   7.078  72.303  1.00  0.00    -0.211 C  
HETATM    7  C   UNL     1     -11.997   5.544  72.348  1.00  0.00     0.029 C  
HETATM    8  O   UNL     1     -10.532   3.561  72.548  1.00  0.00    -0.151 OA 
HETATM    9  O   UNL     1     -11.370   7.569  73.535  1.00  0.00    -0.620 OA 
HETATM   10  H   UNL     1     -11.891   7.279  74.275  1.00  0.00     0.000 HD 
HETATM   11  H   UNL     1     -11.039   3.263  73.294  1.00  0.00     0.000 HD 
HETATM   12  O   UNL     1     -12.817   5.092  73.436  1.00  0.00     0.635 OA 
HETATM   13  C   UNL     1     -10.568   4.995  72.477  1.00  0.00    -0.219 C  
ENDROOT
BRANCH   4  14
HETATM   14  O   UNL     1     -11.907   7.565  69.934  1.00  0.00     0.118 OA 
BRANCH  14  15
HETATM   15  C   UNL     1     -11.356   8.362  68.871  1.00  0.00     0.664 C  
BRANCH  15  16
HETATM   16  C   UNL     1     -10.639   9.571  69.486  1.00  0.00    -0.221 C  
HETATM   17  C   UNL     1      -8.505   9.778  68.263  1.00  0.00    -0.114 C  
HETATM   18  O   UNL     1      -9.200   9.400  69.470  1.00  0.00    -0.156 OA 
HETATM   19  H   UNL     1     -11.804  10.905  66.433  1.00  0.00     0.000 HD 
HETATM   20  C   UNL     1      -8.865  11.259  68.003  1.00  0.00    -0.148 C  
HETATM   21  H   UNL     1     -11.496  12.695  69.716  1.00  0.00     0.000 HD 
HETATM   22  O   UNL     1      -8.483  12.084  69.132  1.00  0.00    -0.339 OA 
HETATM   23  C   UNL     1     -10.373  11.432  67.762  1.00  0.00    -0.182 C  
HETATM   24  H   UNL     1      -8.704  12.994  68.972  1.00  0.00     0.000 HD 
HETATM   25  O   UNL     1     -11.167  11.865  70.041  1.00  0.00    -0.098 OA 
HETATM   26  O   UNL     1     -10.871  10.798  66.582  1.00  0.00    -0.237 OA 
HETATM   27  C   UNL     1     -11.174  10.916  68.959  1.00  0.00    -0.266 C  
BRANCH  17  28
HETATM   28  O   UNL     1      -8.769   8.850  67.199  1.00  0.00    -0.119 OA 
BRANCH  28  29
HETATM   29  C   UNL     1      -7.889   7.777  67.052  1.00  0.00    -0.112 C  
HETATM   30  O   UNL     1      -6.207   6.265  67.982  1.00  0.00    -0.029 OA 
HETATM   31  C   UNL     1      -6.920   7.466  67.948  1.00  0.00    -0.072 C  
HETATM   32  C   UNL     1      -6.375   5.366  66.960  1.00  0.00    -0.039 A  
HETATM   33  O   UNL     1      -9.337   6.647  65.603  1.00  0.00     0.077 OA 
HETATM   34  H   UNL     1      -8.460   5.983  63.651  1.00  0.00     0.000 HD 
HETATM   35  C   UNL     1      -5.686   4.154  66.985  1.00  0.00    -0.022 A  
HETATM   36  C   UNL     1      -8.214   6.703  66.090  1.00  0.00    -0.124 C  
HETATM   37  C   UNL     1      -5.805   3.277  65.901  1.00  0.00    -0.019 A  
HETATM   38  C   UNL     1      -7.238   5.642  65.881  1.00  0.00    -0.072 A  
HETATM   39  O   UNL     1      -7.965   5.172  63.657  1.00  0.00    -0.085 OA 
HETATM   40  C   UNL     1      -6.541   3.617  64.770  1.00  0.00    -0.039 A  
HETATM   41  O   UNL     1      -5.211   2.047  65.894  1.00  0.00    -0.004 OA 
HETATM   42  H   UNL     1      -5.292   1.452  65.158  1.00  0.00     0.000 HD 
HETATM   43  C   UNL     1      -7.264   4.801  64.762  1.00  0.00    -0.063 A  
BRANCH  31  44
HETATM   44  C   UNL     1      -6.637   8.394  69.052  1.00  0.00    -0.048 A  
HETATM   45  O   UNL     1      -5.243  10.616  72.268  1.00  0.00    -0.310 OA 
HETATM   46  H   UNL     1      -6.808   9.247  73.411  1.00  0.00     0.000 HD 
HETATM   47  C   UNL     1      -5.687   9.416  68.857  1.00  0.00    -0.039 A  
HETATM   48  H   UNL     1      -4.582  11.284  72.133  1.00  0.00     0.000 HD 
HETATM   49  O   UNL     1      -7.131   8.730  72.682  1.00  0.00    -0.310 OA 
HETATM   50  C   UNL     1      -5.737   9.920  71.200  1.00  0.00    -0.071 A  
HETATM   51  C   UNL     1      -6.708   8.941  71.397  1.00  0.00    -0.085 A  
HETATM   52  C   UNL     1      -7.182   8.184  70.329  1.00  0.00    -0.052 A  
HETATM   53  C   UNL     1      -5.233  10.179  69.934  1.00  0.00    -0.038 A  
ENDBRANCH  31  44
ENDBRANCH  28  29
ENDBRANCH  17  28
ENDBRANCH  15  16
ENDBRANCH  14  15
ENDBRANCH   4  14
TORSDOF 6
ENDMDL
MODEL      179
REMARK 921   NORMALIZED FREE ENERGY PREDICTED BY IDOCK:    0.11 KCAL/MOL
REMARK 922        TOTAL FREE ENERGY PREDICTED BY IDOCK:   -1.33 KCAL/MOL
REMARK 923 INTER-LIGAND FREE ENERGY PREDICTED BY IDOCK:   -2.13 KCAL/MOL
REMARK 924 INTRA-LIGAND FREE ENERGY PREDICTED BY IDOCK:    0.80 KCAL/MOL
REMARK 927      BINDING AFFINITY PREDICTED BY RF-SCORE:    0.00 PKD
ROOT
HETATM    1  C   UNL     1      -8.550  16.918  65.296  1.00  0.00     1.919 C  
HETATM    2  C   UNL     1      -8.753  17.004  66.812  1.00  0.00    -0.245 C  
HETATM    3  O   UNL     1     -10.171  17.049  66.973  1.00  0.00    -0.290 OA 
HETATM    4  C   UNL     1     -10.745  17.548  68.173  1.00  0.00    -0.329 C  
HETATM    5  H   UNL     1      -6.839  19.370  69.460  1.00  0.00     0.000 HD 
HETATM    6  C   UNL     1      -9.993  18.742  68.779  1.00  0.00    -0.391 C  
HETATM    7  C   UNL     1      -8.484  18.457  68.827  1.00  0.00    -0.228 C  
HETATM    8  O   UNL     1      -6.571  17.950  67.343  1.00  0.00    -0.161 OA 
HETATM    9  O   UNL     1     -10.230  19.930  68.000  1.00  0.00    -0.422 OA 
HETATM   10  H   UNL     1      -9.764  20.668  68.374  1.00  0.00     0.000 HD 
HETATM   11  H   UNL     1      -6.097  18.690  67.703  1.00  0.00     0.000 HD 
HETATM   12  O   UNL     1      -7.771  19.546  69.431  1.00  0.00    -0.267 OA 
HETATM   13  C   UNL     1      -7.983  18.205  67.397  1.00  0.00    -0.226 C  
ENDROOT
BRANCH   4  14
HETATM   14  O   UNL     1     -10.980  16.572  69.190  1.00  0.00    -0.312 OA 
BRANCH  14  15
HETATM   15  C   UNL     1     -11.770  17.071  70.283  1.00  0.00     1.528 C  
BRANCH  15  16
HETATM   16  C   UNL     1     -12.723  15.962  70.747  1.00  0.00    -0.159 C  
HETATM   17  C   UNL     1     -12.248  14.022  69.297  1.00  0.00    -0.278 C  
HETATM   18  O   UNL     1     -13.127  15.113  69.644  1.00  0.00     0.208 OA 
HETATM   19  H   UNL     1      -9.655  14.895  72.128  1.00  0.00     0.000 HD 
HETATM   20  C   UNL     1     -12.080  13.177  70.581  1.00  0.00    -0.264 C  
HETATM   21  H   UNL     1     -13.074  14.485  73.618  1.00  0.00     0.000 HD 
HETATM   22  O   UNL     1     -13.368  12.709  71.057  1.00  0.00     0.055 OA 
HETATM   23  C   UNL     1     -11.413  13.992  71.702  1.00  0.00     1.166 C  
HETATM   24  H   UNL     1     -13.264  12.190  71.846  1.00  0.00     0.000 HD 
HETATM   25  O   UNL     1     -13.376  14.928  72.834  1.00  0.00    -0.444 OA 
HETATM   26  O   UNL     1     -10.067  14.392  71.436  1.00  0.00     2.275 OA 
HETATM   27  C   UNL     1     -12.233  15.245  72.019  1.00  0.00    -0.367 C  
BRANCH  17  28
HETATM   28  O   UNL     1     -11.046  14.500  68.674  1.00  0.00    -0.237 OA 
BRANCH  28  29
HETATM   29  C   UNL     1     -10.592  13.815  67.548  1.00  0.00    -0.244 C  
HETATM   30  O   UNL     1      -8.993  12.301  66.482  1.00  0.00    -0.208 OA 
HETATM   31  C   UNL     1      -9.378  13.215  67.466  1.00  0.00    -0.207 C  
HETATM   32  C   UNL     1      -9.833  12.078  65.421  1.00  0.00    -0.220 A  
HETATM   33  O   UNL     1     -12.764  13.444  66.762  1.00  0.00    -0.111 OA 
HETATM   34  H   UNL     1     -13.168  14.066  64.648  1.00  0.00     0.000 HD 
HETATM   35  C   UNL     1      -9.475  11.157  64.438  1.00  0.00    -0.251 A  
HETATM   36  C   UNL     1     -11.564  13.391  66.518  1.00  0.00    -0.357 C  
HETATM   37  C   UNL     1     -10.302  10.991  63.320  1.00  0.00    -0.255 A  
HETATM   38  C   UNL     1     -11.059  12.762  65.305  1.00  0.00    -0.320 A  
HETATM   39  O   UNL     1     -12.906  13.460  63.965  1.00  0.00    -0.621 OA 
HETATM   40  C   UNL     1     -11.436  11.775  63.136  1.00  0.00    -0.191 A  
HETATM   41  O   UNL     1     -10.043  10.059  62.358  1.00  0.00    -0.613 OA 
HETATM   42  H   UNL     1     -10.604   9.947  61.599  1.00  0.00     0.000 HD 
HETATM   43  C   UNL     1     -11.819  12.659  64.134  1.00  0.00    -0.410 A  
BRANCH  31  44
HETATM   44  C   UNL     1      -8.395  13.434  68.536  1.00  0.00    -0.085 A  
HETATM   45  O   UNL     1      -5.198  14.317  71.031  1.00  0.00    -0.114 OA 
HETATM   46  H   UNL     1      -4.797  12.000  70.716  1.00  0.00     0.000 HD 
HETATM   47  C   UNL     1      -8.228  14.735  69.052  1.00  0.00    -0.141 A  
HETATM   48  H   UNL     1      -5.076  15.202  71.352  1.00  0.00     0.000 HD 
HETATM   49  O   UNL     1      -5.523  11.788  70.142  1.00  0.00    -0.089 OA 
HETATM   50  C   UNL     1      -6.279  14.018  70.250  1.00  0.00    -0.133 A  
HETATM   51  C   UNL     1      -6.459  12.719  69.779  1.00  0.00    -0.005 A  
HETATM   52  C   UNL     1      -7.524  12.409  68.938  1.00  0.00     0.001 A  
HETATM   53  C   UNL     1      -7.166  15.028  69.909  1.00  0.00    -0.088 A  
ENDBRANCH  31  44
ENDBRANCH  28  29
ENDBRANCH  17  28
ENDBRANCH  15  16
ENDBRANCH  14  15
ENDBRANCH   4  14
TORSDOF 6
ENDMDL
MODEL      180
REMARK 921   NORMALIZED FREE ENERGY PREDICTED BY IDOCK:    0.23 KCAL/MOL
REMARK 922        TOTAL FREE ENERGY PREDICTED BY IDOCK:   -1.17 KCAL/MOL
REMARK 923 INTER-LIGAND FREE ENERGY PREDICTED BY IDOCK:   -4.02 KCAL/MOL
REMARK 924 INTRA-LIGAND FREE ENERGY PREDICTED BY IDOCK:    2.85 KCAL/MOL
REMARK 927      BINDING AFFINITY PREDICTED BY RF-SCORE:    0.00 PKD
ROOT
HETATM    1  C   UNL     1     -12.645  15.085  67.068  1.00  0.00     0.980 C  
HETATM    2  C   UNL     1     -11.201  14.578  67.006  1.00  0.00    -0.337 C  
HETATM    3  O   UNL     1     -10.962  14.039  68.307  1.00  0.00    -0.242 OA 
HETATM    4  C   UNL     1      -9.635  13.859  68.781  1.00  0.00    -0.070 C  
HETATM    5  H   UNL     1      -7.956  16.452  65.510  1.00  0.00     0.000 HD 
HETATM    6  C   UNL     1      -8.662  14.970  68.358  1.00  0.00    -0.175 C  
HETATM    7  C   UNL     1      -8.802  15.263  66.857  1.00  0.00    -0.254 C  
HETATM    8  O   UNL     1     -10.464  16.026  65.190  1.00  0.00    -0.516 OA 
HETATM    9  O   UNL     1      -8.921  16.173  69.106  1.00  0.00    -0.242 OA 
HETATM   10  H   UNL     1      -8.319  16.860  68.845  1.00  0.00     0.000 HD 
HETATM   11  H   UNL     1      -9.876  16.722  64.924  1.00  0.00     0.000 HD 
HETATM   12  O   UNL     1      -7.869  16.270  66.437  1.00  0.00    -0.278 OA 
HETATM   13  C   UNL     1     -10.246  15.708  66.574  1.00  0.00    -0.283 C  
ENDROOT
BRANCH   4  14
HETATM   14  O   UNL     1      -9.052  12.586  68.496  1.00  0.00    -0.162 OA 
BRANCH  14  15
HETATM   15  C   UNL     1      -7.909  12.289  69.317  1.00  0.00     0.472 C  
BRANCH  15  16
HETATM   16  C   UNL     1      -6.736  11.905  68.406  1.00  0.00    -0.067 C  
HETATM   17  C   UNL     1      -6.460   9.466  68.660  1.00  0.00    -0.052 C  
HETATM   18  O   UNL     1      -5.980  10.796  68.951  1.00  0.00    -0.041 OA 
HETATM   19  H   UNL     1      -9.502  10.771  66.529  1.00  0.00     0.000 HD 
HETATM   20  C   UNL     1      -6.523   9.356  67.119  1.00  0.00    -0.067 C  
HETATM   21  H   UNL     1      -6.305  12.220  65.202  1.00  0.00     0.000 HD 
HETATM   22  O   UNL     1      -5.219   9.605  66.536  1.00  0.00    -0.042 OA 
HETATM   23  C   UNL     1      -7.521  10.366  66.528  1.00  0.00    -0.119 C  
HETATM   24  H   UNL     1      -5.258   9.537  65.589  1.00  0.00     0.000 HD 
HETATM   25  O   UNL     1      -6.056  12.288  66.116  1.00  0.00     0.465 OA 
HETATM   26  O   UNL     1      -8.885  10.148  66.894  1.00  0.00    -0.132 OA 
HETATM   27  C   UNL     1      -7.141  11.795  66.923  1.00  0.00    -0.097 C  
BRANCH  17  28
HETATM   28  O   UNL     1      -7.669   9.180  69.380  1.00  0.00    -0.075 OA 
BRANCH  28  29
HETATM   29  C   UNL     1      -8.334   7.993  69.071  1.00  0.00    -0.129 C  
HETATM   30  O   UNL     1     -10.408   6.764  68.661  1.00  0.00    -0.166 OA 
HETATM   31  C   UNL     1      -9.672   7.819  69.205  1.00  0.00    -0.161 C  
HETATM   32  C   UNL     1      -9.736   5.730  68.059  1.00  0.00    -0.124 A  
HETATM   33  O   UNL     1      -6.630   7.285  67.632  1.00  0.00    -0.052 OA 
HETATM   34  H   UNL     1      -5.808   5.235  68.009  1.00  0.00     0.000 HD 
HETATM   35  C   UNL     1     -10.453   4.675  67.495  1.00  0.00     0.115 A  
HETATM   36  C   UNL     1      -7.657   6.985  68.228  1.00  0.00    -0.111 C  
HETATM   37  C   UNL     1      -9.758   3.588  66.951  1.00  0.00    -0.011 A  
HETATM   38  C   UNL     1      -8.329   5.713  67.996  1.00  0.00    -0.100 A  
HETATM   39  O   UNL     1      -6.300   4.505  67.653  1.00  0.00    -0.035 OA 
HETATM   40  C   UNL     1      -8.372   3.506  67.023  1.00  0.00    -0.096 A  
HETATM   41  O   UNL     1     -10.398   2.558  66.324  1.00  0.00     0.883 OA 
HETATM   42  H   UNL     1      -9.927   1.821  65.955  1.00  0.00     0.000 HD 
HETATM   43  C   UNL     1      -7.654   4.573  67.542  1.00  0.00    -0.078 A  
BRANCH  31  44
HETATM   44  C   UNL     1     -10.468   8.855  69.879  1.00  0.00    -0.223 A  
HETATM   45  O   UNL     1     -13.285  11.403  71.549  1.00  0.00    -0.373 OA 
HETATM   46  H   UNL     1     -12.802  12.625  69.574  1.00  0.00     0.000 HD 
HETATM   47  C   UNL     1     -11.036   8.567  71.136  1.00  0.00    -0.306 A  
HETATM   48  H   UNL     1     -13.685  11.188  72.383  1.00  0.00     0.000 HD 
HETATM   49  O   UNL     1     -12.159  12.047  69.181  1.00  0.00    -0.274 OA 
HETATM   50  C   UNL     1     -12.321  10.588  71.025  1.00  0.00    -0.399 A  
HETATM   51  C   UNL     1     -11.733  10.903  69.802  1.00  0.00    -0.338 A  
HETATM   52  C   UNL     1     -10.790  10.055  69.227  1.00  0.00    -0.261 A  
HETATM   53  C   UNL     1     -11.968   9.434  71.709  1.00  0.00    -0.452 A  
ENDBRANCH  31  44
ENDBRANCH  28  29
ENDBRANCH  17  28
ENDBRANCH  15  16
ENDBRANCH  14  15
ENDBRANCH   4  14
TORSDOF 6
ENDMDL
MODEL      181
REMARK 921   NORMALIZED FREE ENERGY PREDICTED BY IDOCK:    0.63 KCAL/MOL
REMARK 922        TOTAL FREE ENERGY PREDICTED BY IDOCK:   -0.63 KCAL/MOL
REMARK 923 INTER-LIGAND FREE ENERGY PREDICTED BY IDOCK:   -3.32 KCAL/MOL
REMARK 924 INTRA-LIGAND FREE ENERGY PREDICTED BY IDOCK:    2.69 KCAL/MOL
REMARK 927      BINDING AFFINITY PREDICTED BY RF-SCORE:    0.00 PKD
ROOT
HETATM    1  C   UNL     1      -9.830   6.061  66.292  1.00  0.00    -0.102 C  
HETATM    2  C   UNL     1      -8.609   6.950  66.552  1.00  0.00    -0.129 C  
HETATM    3  O   UNL     1      -9.167   8.218  66.897  1.00  0.00    -0.143 OA 
HETATM    4  C   UNL     1      -8.386   9.400  66.798  1.00  0.00    -0.123 C  
HETATM    5  H   UNL     1      -5.257   7.305  64.337  1.00  0.00     0.000 HD 
HETATM    6  C   UNL     1      -7.433   9.424  65.594  1.00  0.00    -0.095 C  
HETATM    7  C   UNL     1      -6.660   8.101  65.495  1.00  0.00    -0.049 C  
HETATM    8  O   UNL     1      -7.029   5.671  65.210  1.00  0.00    -0.057 OA 
HETATM    9  O   UNL     1      -8.173   9.638  64.376  1.00  0.00    -0.137 OA 
HETATM   10  H   UNL     1      -7.584   9.652  63.631  1.00  0.00     0.000 HD 
HETATM   11  H   UNL     1      -6.448   5.672  64.458  1.00  0.00     0.000 HD 
HETATM   12  O   UNL     1      -5.734   8.123  64.398  1.00  0.00    -0.050 OA 
HETATM   13  C   UNL     1      -7.667   6.952  65.333  1.00  0.00    -0.107 C  
ENDROOT
BRANCH   4  14
HETATM   14  O   UNL     1      -7.663   9.755  67.979  1.00  0.00    -0.083 OA 
BRANCH  14  15
HETATM   15  C   UNL     1      -8.008  11.056  68.487  1.00  0.00    -0.137 C  
BRANCH  15  16
HETATM   16  C   UNL     1      -6.716  11.834  68.764  1.00  0.00    -0.083 C  
HETATM   17  C   UNL     1      -6.871  13.894  67.413  1.00  0.00    -0.007 C  
HETATM   18  O   UNL     1      -6.289  12.587  67.602  1.00  0.00    -0.107 OA 
HETATM   19  H   UNL     1      -9.068  13.648  70.672  1.00  0.00     0.000 HD 
HETATM   20  C   UNL     1      -6.567  14.693  68.702  1.00  0.00    -0.085 C  
HETATM   21  H   UNL     1      -5.465  13.022  71.516  1.00  0.00     0.000 HD 
HETATM   22  O   UNL     1      -5.137  14.762  68.934  1.00  0.00    -0.086 OA 
HETATM   23  C   UNL     1      -7.229  14.045  69.929  1.00  0.00     0.332 C  
HETATM   24  H   UNL     1      -4.950  15.253  69.726  1.00  0.00     0.000 HD 
HETATM   25  O   UNL     1      -5.443  12.550  70.692  1.00  0.00    -0.142 OA 
HETATM   26  O   UNL     1      -8.658  14.048  69.914  1.00  0.00     0.996 OA 
HETATM   27  C   UNL     1      -6.753  12.601  70.100  1.00  0.00     0.521 C  
BRANCH  17  28
HETATM   28  O   UNL     1      -8.250  13.798  67.021  1.00  0.00    -0.144 OA 
BRANCH  28  29
HETATM   29  C   UNL     1      -9.043  14.934  67.184  1.00  0.00    -0.222 C  
HETATM   30  O   UNL     1     -10.886  16.098  68.293  1.00  0.00    -0.297 OA 
HETATM   31  C   UNL     1     -10.208  14.950  67.877  1.00  0.00    -0.228 C  
HETATM   32  C   UNL     1     -10.442  17.322  67.860  1.00  0.00    -0.382 A  
HETATM   33  O   UNL     1      -7.249  16.379  66.779  1.00  0.00    -0.209 OA 
HETATM   34  H   UNL     1      -7.572  17.938  65.202  1.00  0.00     0.000 HD 
HETATM   35  C   UNL     1     -11.094  18.481  68.277  1.00  0.00     0.490 A  
HETATM   36  C   UNL     1      -8.460  16.266  66.918  1.00  0.00    -0.224 C  
HETATM   37  C   UNL     1     -10.681  19.719  67.771  1.00  0.00    -0.281 A  
HETATM   38  C   UNL     1      -9.331  17.432  67.001  1.00  0.00    -0.265 A  
HETATM   39  O   UNL     1      -8.039  18.723  65.465  1.00  0.00    -0.326 OA 
HETATM   40  C   UNL     1      -9.680  19.811  66.809  1.00  0.00    -0.512 A  
HETATM   41  O   UNL     1     -11.233  20.895  68.191  1.00  0.00     1.373 OA 
HETATM   42  H   UNL     1     -10.952  21.735  67.847  1.00  0.00     0.000 HD 
HETATM   43  C   UNL     1      -8.999  18.665  66.427  1.00  0.00    -0.279 A  
BRANCH  31  44
HETATM   44  C   UNL     1     -10.785  13.680  68.341  1.00  0.00    -0.272 A  
HETATM   45  O   UNL     1     -12.997  10.293  69.271  1.00  0.00    -0.232 OA 
HETATM   46  H   UNL     1     -13.386  11.547  71.247  1.00  0.00     0.000 HD 
HETATM   47  C   UNL     1     -10.822  12.584  67.456  1.00  0.00    -0.264 A  
HETATM   48  H   UNL     1     -13.040   9.571  68.657  1.00  0.00     0.000 HD 
HETATM   49  O   UNL     1     -12.885  12.328  71.043  1.00  0.00    -0.275 OA 
HETATM   50  C   UNL     1     -12.227  11.387  68.984  1.00  0.00    -0.134 A  
HETATM   51  C   UNL     1     -12.163  12.447  69.886  1.00  0.00    -0.157 A  
HETATM   52  C   UNL     1     -11.429  13.592  69.586  1.00  0.00    -0.283 A  
HETATM   53  C   UNL     1     -11.548  11.435  67.777  1.00  0.00    -0.325 A  
ENDBRANCH  31  44
ENDBRANCH  28  29
ENDBRANCH  17  28
ENDBRANCH  15  16
ENDBRANCH  14  15
ENDBRANCH   4  14
TORSDOF 6
ENDMDL
MODEL      182
REMARK 921   NORMALIZED FREE ENERGY PREDICTED BY IDOCK:    1.45 KCAL/MOL
REMARK 922        TOTAL FREE ENERGY PREDICTED BY IDOCK:    0.48 KCAL/MOL
REMARK 923 INTER-LIGAND FREE ENERGY PREDICTED BY IDOCK:   -1.33 KCAL/MOL
REMARK 924 INTRA-LIGAND FREE ENERGY PREDICTED BY IDOCK:    1.82 KCAL/MOL
REMARK 927      BINDING AFFINITY PREDICTED BY RF-SCORE:    0.00 PKD
ROOT
HETATM    1  C   UNL     1      -9.695  17.117  69.010  1.00  0.00    -0.212 C  
HETATM    2  C   UNL     1     -10.356  15.876  68.404  1.00  0.00    -0.240 C  
HETATM    3  O   UNL     1      -9.292  15.209  67.723  1.00  0.00    -0.187 OA 
HETATM    4  C   UNL     1      -9.570  14.264  66.701  1.00  0.00    -0.289 C  
HETATM    5  H   UNL     1     -13.846  15.630  66.394  1.00  0.00     0.000 HD 
HETATM    6  C   UNL     1     -10.767  14.634  65.812  1.00  0.00    -0.315 C  
HETATM    7  C   UNL     1     -11.965  15.058  66.675  1.00  0.00     0.031 C  
HETATM    8  O   UNL     1     -12.628  16.754  68.351  1.00  0.00     0.855 OA 
HETATM    9  O   UNL     1     -10.415  15.711  64.922  1.00  0.00    -0.462 OA 
HETATM   10  H   UNL     1     -11.155  15.940  64.373  1.00  0.00     0.000 HD 
HETATM   11  H   UNL     1     -13.368  16.999  67.808  1.00  0.00     0.000 HD 
HETATM   12  O   UNL     1     -13.105  15.367  65.861  1.00  0.00     1.334 OA 
HETATM   13  C   UNL     1     -11.557  16.273  67.523  1.00  0.00     0.299 C  
ENDROOT
BRANCH   4  14
HETATM   14  O   UNL     1      -9.709  12.911  67.140  1.00  0.00    -0.212 OA 
BRANCH  14  15
HETATM   15  C   UNL     1      -8.486  12.158  67.054  1.00  0.00    -0.183 C  
BRANCH  15  16
HETATM   16  C   UNL     1      -8.297  11.695  65.604  1.00  0.00     0.374 C  
HETATM   17  C   UNL     1      -8.331   9.228  65.679  1.00  0.00    -0.123 C  
HETATM   18  O   UNL     1      -7.567  10.444  65.537  1.00  0.00    -0.146 OA 
HETATM   19  H   UNL     1     -11.749  11.139  66.087  1.00  0.00     0.000 HD 
HETATM   20  C   UNL     1      -9.416   9.267  64.578  1.00  0.00     0.249 C  
HETATM   21  H   UNL     1     -10.051  12.230  62.924  1.00  0.00     0.000 HD 
HETATM   22  O   UNL     1      -8.808   9.378  63.266  1.00  0.00    -0.275 OA 
HETATM   23  C   UNL     1     -10.369  10.457  64.776  1.00  0.00    -0.151 C  
HETATM   24  H   UNL     1      -9.475   9.402  62.590  1.00  0.00     0.000 HD 
HETATM   25  O   UNL     1      -9.253  12.180  63.436  1.00  0.00    -0.043 OA 
HETATM   26  O   UNL     1     -11.160  10.404  65.965  1.00  0.00     0.144 OA 
HETATM   27  C   UNL     1      -9.592  11.776  64.774  1.00  0.00    -0.089 C  
BRANCH  17  28
HETATM   28  O   UNL     1      -8.785   9.054  67.030  1.00  0.00    -0.115 OA 
BRANCH  28  29
HETATM   29  C   UNL     1      -8.135   8.094  67.806  1.00  0.00    -0.127 C  
HETATM   30  O   UNL     1      -6.731   7.503  69.720  1.00  0.00    -0.042 OA 
HETATM   31  C   UNL     1      -7.202   8.387  68.745  1.00  0.00    -0.079 C  
HETATM   32  C   UNL     1      -7.117   6.188  69.662  1.00  0.00    -0.073 A  
HETATM   33  O   UNL     1      -9.840   6.523  67.488  1.00  0.00    -0.118 OA 
HETATM   34  H   UNL     1      -9.200   4.510  66.744  1.00  0.00     0.000 HD 
HETATM   35  C   UNL     1      -6.672   5.294  70.635  1.00  0.00    -0.043 A  
HETATM   36  C   UNL     1      -8.705   6.733  67.900  1.00  0.00    -0.120 C  
HETATM   37  C   UNL     1      -7.008   3.940  70.526  1.00  0.00    -0.034 A  
HETATM   38  C   UNL     1      -7.961   5.720  68.636  1.00  0.00    -0.101 A  
HETATM   39  O   UNL     1      -8.870   3.898  67.391  1.00  0.00    -0.109 OA 
HETATM   40  C   UNL     1      -7.718   3.456  69.432  1.00  0.00    -0.051 A  
HETATM   41  O   UNL     1      -6.662   3.027  71.480  1.00  0.00    -0.028 OA 
HETATM   42  H   UNL     1      -6.890   2.107  71.406  1.00  0.00     0.000 HD 
HETATM   43  C   UNL     1      -8.201   4.349  68.487  1.00  0.00    -0.084 A  
BRANCH  31  44
HETATM   44  C   UNL     1      -6.694   9.762  68.850  1.00  0.00    -0.050 A  
HETATM   45  O   UNL     1      -5.933  13.840  68.965  1.00  0.00    -0.077 OA 
HETATM   46  H   UNL     1      -5.086  13.364  66.801  1.00  0.00     0.000 HD 
HETATM   47  C   UNL     1      -6.992  10.513  70.004  1.00  0.00    -0.150 A  
HETATM   48  H   UNL     1      -6.163  14.345  69.736  1.00  0.00     0.000 HD 
HETATM   49  O   UNL     1      -5.259  12.431  66.763  1.00  0.00    -0.338 OA 
HETATM   50  C   UNL     1      -6.139  12.489  68.949  1.00  0.00    -0.075 A  
HETATM   51  C   UNL     1      -5.801  11.748  67.819  1.00  0.00    -0.057 A  
HETATM   52  C   UNL     1      -6.054  10.380  67.763  1.00  0.00    -0.052 A  
HETATM   53  C   UNL     1      -6.717  11.881  70.053  1.00  0.00     0.231 A  
ENDBRANCH  31  44
ENDBRANCH  28  29
ENDBRANCH  17  28
ENDBRANCH  15  16
ENDBRANCH  14  15
ENDBRANCH   4  14
TORSDOF 6
ENDMDL
MODEL      183
REMARK 921   NORMALIZED FREE ENERGY PREDICTED BY IDOCK:    2.04 KCAL/MOL
REMARK 922        TOTAL FREE ENERGY PREDICTED BY IDOCK:    1.27 KCAL/MOL
REMARK 923 INTER-LIGAND FREE ENERGY PREDICTED BY IDOCK:   -0.29 KCAL/MOL
REMARK 924 INTRA-LIGAND FREE ENERGY PREDICTED BY IDOCK:    1.56 KCAL/MOL
REMARK 927      BINDING AFFINITY PREDICTED BY RF-SCORE:    0.00 PKD
ROOT
HETATM    1  C   UNL     1      -7.942  13.020  66.176  1.00  0.00     1.470 C  
HETATM    2  C   UNL     1      -9.186  12.127  66.215  1.00  0.00    -0.183 C  
HETATM    3  O   UNL     1      -8.701  10.835  65.847  1.00  0.00    -0.170 OA 
HETATM    4  C   UNL     1      -9.593   9.841  65.363  1.00  0.00    -0.292 C  
HETATM    5  H   UNL     1     -12.849  12.874  64.701  1.00  0.00     0.000 HD 
HETATM    6  C   UNL     1     -10.713  10.387  64.464  1.00  0.00     0.499 C  
HETATM    7  C   UNL     1     -11.368  11.617  65.110  1.00  0.00    -0.156 C  
HETATM    8  O   UNL     1     -10.825  13.900  65.894  1.00  0.00    -0.283 OA 
HETATM    9  O   UNL     1     -10.185  10.749  63.173  1.00  0.00    -0.550 OA 
HETATM   10  H   UNL     1     -10.878  11.087  62.618  1.00  0.00     0.000 HD 
HETATM   11  H   UNL     1     -11.509  14.253  65.337  1.00  0.00     0.000 HD 
HETATM   12  O   UNL     1     -12.445  12.113  64.302  1.00  0.00    -0.414 OA 
HETATM   13  C   UNL     1     -10.295  12.699  65.312  1.00  0.00    -0.289 C  
ENDROOT
BRANCH   4  14
HETATM   14  O   UNL     1     -10.161   8.992  66.362  1.00  0.00    -0.288 OA 
BRANCH  14  15
HETATM   15  C   UNL     1      -9.974   9.484  67.700  1.00  0.00    -0.180 C  
BRANCH  15  16
HETATM   16  C   UNL     1     -11.311   9.400  68.446  1.00  0.00     0.348 C  
HETATM   17  C   UNL     1     -10.768   8.561  70.703  1.00  0.00    -0.220 C  
HETATM   18  O   UNL     1     -11.322   8.305  69.395  1.00  0.00     0.129 OA 
HETATM   19  H   UNL     1      -9.886  12.304  69.858  1.00  0.00     0.000 HD 
HETATM   20  C   UNL     1     -11.551   9.766  71.276  1.00  0.00    -0.390 C  
HETATM   21  H   UNL     1     -13.520  11.667  69.172  1.00  0.00     0.000 HD 
HETATM   22  O   UNL     1     -12.969   9.472  71.334  1.00  0.00    -0.339 OA 
HETATM   23  C   UNL     1     -11.348  11.023  70.415  1.00  0.00    -0.132 C  
HETATM   24  H   UNL     1     -13.450  10.212  71.686  1.00  0.00     0.000 HD 
HETATM   25  O   UNL     1     -13.224  10.825  68.848  1.00  0.00     1.133 OA 
HETATM   26  O   UNL     1     -10.011  11.527  70.390  1.00  0.00     1.952 OA 
HETATM   27  C   UNL     1     -11.791  10.766  68.972  1.00  0.00    -0.254 C  
BRANCH  17  28
HETATM   28  O   UNL     1      -9.338   8.685  70.647  1.00  0.00    -0.163 OA 
BRANCH  28  29
HETATM   29  C   UNL     1      -8.674   7.989  69.637  1.00  0.00    -0.133 C  
HETATM   30  O   UNL     1      -6.606   7.374  68.485  1.00  0.00    -0.046 OA 
HETATM   31  C   UNL     1      -7.384   8.214  69.286  1.00  0.00    -0.077 C  
HETATM   32  C   UNL     1      -7.205   6.302  67.872  1.00  0.00    -0.087 A  
HETATM   33  O   UNL     1     -10.140   6.171  69.774  1.00  0.00    -0.166 OA 
HETATM   34  H   UNL     1     -11.085   5.517  67.851  1.00  0.00     0.000 HD 
HETATM   35  C   UNL     1      -6.442   5.442  67.083  1.00  0.00    -0.048 A  
HETATM   36  C   UNL     1      -9.237   6.712  69.148  1.00  0.00    -0.136 C  
HETATM   37  C   UNL     1      -7.076   4.397  66.401  1.00  0.00    -0.071 A  
HETATM   38  C   UNL     1      -8.582   6.050  68.028  1.00  0.00    -0.114 A  
HETATM   39  O   UNL     1     -10.568   4.952  67.290  1.00  0.00    -0.102 OA 
HETATM   40  C   UNL     1      -8.457   4.239  66.439  1.00  0.00    -0.112 A  
HETATM   41  O   UNL     1      -6.378   3.481  65.668  1.00  0.00    -0.030 OA 
HETATM   42  H   UNL     1      -6.807   2.771  65.205  1.00  0.00     0.000 HD 
HETATM   43  C   UNL     1      -9.212   5.064  67.259  1.00  0.00    -0.121 A  
BRANCH  31  44
HETATM   44  C   UNL     1      -6.674   9.367  69.857  1.00  0.00    -0.058 A  
HETATM   45  O   UNL     1      -5.156  12.579  72.002  1.00  0.00    -0.331 OA 
HETATM   46  H   UNL     1      -6.453  13.772  70.414  1.00  0.00     0.000 HD 
HETATM   47  C   UNL     1      -5.773   9.156  70.919  1.00  0.00    -0.043 A  
HETATM   48  H   UNL     1      -4.572  12.427  72.735  1.00  0.00     0.000 HD 
HETATM   49  O   UNL     1      -6.809  13.044  69.918  1.00  0.00     0.134 OA 
HETATM   50  C   UNL     1      -5.615  11.522  71.266  1.00  0.00     0.128 A  
HETATM   51  C   UNL     1      -6.472  11.745  70.191  1.00  0.00     0.065 A  
HETATM   52  C   UNL     1      -6.993  10.677  69.464  1.00  0.00    -0.121 A  
HETATM   53  C   UNL     1      -5.244  10.236  71.628  1.00  0.00    -0.048 A  
ENDBRANCH  31  44
ENDBRANCH  28  29
ENDBRANCH  17  28
ENDBRANCH  15  16
ENDBRANCH  14  15
ENDBRANCH   4  14
TORSDOF 6
ENDMDL
MODEL      184
REMARK 921   NORMALIZED FREE ENERGY PREDICTED BY IDOCK:    2.25 KCAL/MOL
REMARK 922        TOTAL FREE ENERGY PREDICTED BY IDOCK:    1.56 KCAL/MOL
REMARK 923 INTER-LIGAND FREE ENERGY PREDICTED BY IDOCK:    2.32 KCAL/MOL
REMARK 924 INTRA-LIGAND FREE ENERGY PREDICTED BY IDOCK:   -0.76 KCAL/MOL
REMARK 927      BINDING AFFINITY PREDICTED BY RF-SCORE:    0.00 PKD
ROOT
HETATM    1  C   UNL     1     -11.615   9.705  70.661  1.00  0.00    -0.371 C  
HETATM    2  C   UNL     1     -10.836   8.511  71.223  1.00  0.00    -0.251 C  
HETATM    3  O   UNL     1     -10.831   7.563  70.156  1.00  0.00    -0.243 OA 
HETATM    4  C   UNL     1     -10.584   6.188  70.414  1.00  0.00    -0.257 C  
HETATM    5  H   UNL     1     -11.220   6.749  74.832  1.00  0.00     0.000 HD 
HETATM    6  C   UNL     1     -11.198   5.675  71.725  1.00  0.00    -0.158 C  
HETATM    7  C   UNL     1     -10.884   6.640  72.878  1.00  0.00    -0.262 C  
HETATM    8  O   UNL     1     -11.238   8.986  73.578  1.00  0.00     2.081 OA 
HETATM    9  O   UNL     1     -12.627   5.543  71.590  1.00  0.00     1.041 OA 
HETATM   10  H   UNL     1     -13.007   5.226  72.401  1.00  0.00     0.000 HD 
HETATM   11  H   UNL     1     -11.627   8.683  74.391  1.00  0.00     0.000 HD 
HETATM   12  O   UNL     1     -11.415   6.153  74.119  1.00  0.00     0.851 OA 
HETATM   13  C   UNL     1     -11.467   8.020  72.540  1.00  0.00    -0.409 C  
ENDROOT
BRANCH   4  14
HETATM   14  O   UNL     1      -9.213   5.791  70.347  1.00  0.00    -0.149 OA 
BRANCH  14  15
HETATM   15  C   UNL     1      -8.380   6.739  69.658  1.00  0.00    -0.132 C  
BRANCH  15  16
HETATM   16  C   UNL     1      -8.283   6.328  68.184  1.00  0.00    -0.115 C  
HETATM   17  C   UNL     1      -6.467   7.697  67.224  1.00  0.00    -0.058 C  
HETATM   18  O   UNL     1      -7.883   7.441  67.347  1.00  0.00    -0.108 OA 
HETATM   19  H   UNL     1      -5.478   4.692  69.569  1.00  0.00     0.000 HD 
HETATM   20  C   UNL     1      -5.835   6.386  66.700  1.00  0.00    -0.020 C  
HETATM   21  H   UNL     1      -7.670   3.463  66.782  1.00  0.00     0.000 HD 
HETATM   22  O   UNL     1      -6.431   6.002  65.435  1.00  0.00    -0.040 OA 
HETATM   23  C   UNL     1      -6.029   5.235  67.700  1.00  0.00    -0.022 C  
HETATM   24  H   UNL     1      -6.042   5.197  65.113  1.00  0.00     0.000 HD 
HETATM   25  O   UNL     1      -8.143   4.277  66.909  1.00  0.00    -0.100 OA 
HETATM   26  O   UNL     1      -5.359   5.404  68.951  1.00  0.00    -0.003 OA 
HETATM   27  C   UNL     1      -7.517   5.007  67.979  1.00  0.00    -0.075 C  
BRANCH  17  28
HETATM   28  O   UNL     1      -5.929   8.235  68.442  1.00  0.00    -0.039 OA 
BRANCH  28  29
HETATM   29  C   UNL     1      -6.248   9.556  68.755  1.00  0.00    -0.043 C  
HETATM   30  O   UNL     1      -6.409  11.375  70.382  1.00  0.00    -0.257 OA 
HETATM   31  C   UNL     1      -6.362  10.026  70.022  1.00  0.00    -0.079 C  
HETATM   32  C   UNL     1      -6.492  12.322  69.392  1.00  0.00    -0.105 A  
HETATM   33  O   UNL     1      -5.522  10.341  66.674  1.00  0.00    -0.043 OA 
HETATM   34  H   UNL     1      -6.980  11.599  65.530  1.00  0.00     0.000 HD 
HETATM   35  C   UNL     1      -6.522  13.674  69.730  1.00  0.00    -0.060 A  
HETATM   36  C   UNL     1      -6.115  10.598  67.715  1.00  0.00    -0.047 C  
HETATM   37  C   UNL     1      -6.684  14.629  68.719  1.00  0.00    -0.088 A  
HETATM   38  C   UNL     1      -6.544  11.953  68.033  1.00  0.00    -0.063 A  
HETATM   39  O   UNL     1      -7.031  12.518  65.766  1.00  0.00     1.968 OA 
HETATM   40  C   UNL     1      -6.883  14.254  67.394  1.00  0.00    -0.042 A  
HETATM   41  O   UNL     1      -6.653  15.969  68.975  1.00  0.00    -0.133 OA 
HETATM   42  H   UNL     1      -6.763  16.617  68.289  1.00  0.00     0.000 HD 
HETATM   43  C   UNL     1      -6.808  12.913  67.049  1.00  0.00     0.273 A  
BRANCH  31  44
HETATM   44  C   UNL     1      -6.331   9.079  71.145  1.00  0.00    -0.065 A  
HETATM   45  O   UNL     1      -6.759   6.054  73.954  1.00  0.00    -0.077 OA 
HETATM   46  H   UNL     1      -8.094   7.718  74.992  1.00  0.00     0.000 HD 
HETATM   47  C   UNL     1      -5.653   7.854  70.986  1.00  0.00    -0.033 A  
HETATM   48  H   UNL     1      -6.322   5.221  73.826  1.00  0.00     0.000 HD 
HETATM   49  O   UNL     1      -8.006   8.416  74.353  1.00  0.00    -0.251 OA 
HETATM   50  C   UNL     1      -6.576   7.066  73.053  1.00  0.00    -0.065 A  
HETATM   51  C   UNL     1      -7.216   8.289  73.242  1.00  0.00    -0.107 A  
HETATM   52  C   UNL     1      -7.086   9.312  72.306  1.00  0.00     0.518 A  
HETATM   53  C   UNL     1      -5.779   6.843  71.941  1.00  0.00    -0.037 A  
ENDBRANCH  31  44
ENDBRANCH  28  29
ENDBRANCH  17  28
ENDBRANCH  15  16
ENDBRANCH  14  15
ENDBRANCH   4  14
TORSDOF 6
ENDMDL
MODEL      185
REMARK 921   NORMALIZED FREE ENERGY PREDICTED BY IDOCK:    2.55 KCAL/MOL
REMARK 922        TOTAL FREE ENERGY PREDICTED BY IDOCK:    1.97 KCAL/MOL
REMARK 923 INTER-LIGAND FREE ENERGY PREDICTED BY IDOCK:   -1.55 KCAL/MOL
REMARK 924 INTRA-LIGAND FREE ENERGY PREDICTED BY IDOCK:    3.52 KCAL/MOL
REMARK 927      BINDING AFFINITY PREDICTED BY RF-SCORE:    0.00 PKD
ROOT
HETATM    1  C   UNL     1     -12.055   6.289  71.217  1.00  0.00    -0.102 C  
HETATM    2  C   UNL     1     -11.901   7.531  70.333  1.00  0.00    -0.036 C  
HETATM    3  O   UNL     1     -10.511   7.848  70.414  1.00  0.00    -0.210 OA 
HETATM    4  C   UNL     1     -10.049   9.151  70.086  1.00  0.00    -0.202 C  
HETATM    5  H   UNL     1     -14.220  10.831  70.235  1.00  0.00     0.000 HD 
HETATM    6  C   UNL     1     -10.992  10.281  70.526  1.00  0.00    -0.270 C  
HETATM    7  C   UNL     1     -12.438   9.962  70.119  1.00  0.00     0.141 C  
HETATM    8  O   UNL     1     -14.215   8.279  70.482  1.00  0.00    -0.020 OA 
HETATM    9  O   UNL     1     -10.926  10.459  71.954  1.00  0.00     0.992 OA 
HETATM   10  H   UNL     1     -11.509  11.157  72.227  1.00  0.00     0.000 HD 
HETATM   11  H   UNL     1     -14.807   8.966  70.764  1.00  0.00     0.000 HD 
HETATM   12  O   UNL     1     -13.326  11.028  70.486  1.00  0.00     0.065 OA 
HETATM   13  C   UNL     1     -12.861   8.646  70.791  1.00  0.00     0.292 C  
ENDROOT
BRANCH   4  14
HETATM   14  O   UNL     1      -9.687   9.344  68.717  1.00  0.00    -0.152 OA 
BRANCH  14  15
HETATM   15  C   UNL     1      -8.807   8.324  68.213  1.00  0.00    -0.140 C  
BRANCH  15  16
HETATM   16  C   UNL     1      -9.531   7.558  67.099  1.00  0.00    -0.154 C  
HETATM   17  C   UNL     1      -7.957   5.807  66.358  1.00  0.00    -0.102 C  
HETATM   18  O   UNL     1      -8.602   7.072  66.098  1.00  0.00    -0.132 OA 
HETATM   19  H   UNL     1      -9.795   5.306  69.803  1.00  0.00     0.000 HD 
HETATM   20  C   UNL     1      -9.092   4.779  66.570  1.00  0.00    -0.121 C  
HETATM   21  H   UNL     1     -12.318   5.892  67.090  1.00  0.00     0.000 HD 
HETATM   22  O   UNL     1      -9.954   4.722  65.406  1.00  0.00    -0.291 OA 
HETATM   23  C   UNL     1      -9.950   5.139  67.794  1.00  0.00    -0.156 C  
HETATM   24  H   UNL     1     -10.651   4.090  65.536  1.00  0.00     0.000 HD 
HETATM   25  O   UNL     1     -11.689   6.521  66.758  1.00  0.00     0.323 OA 
HETATM   26  O   UNL     1      -9.264   5.083  69.047  1.00  0.00    -0.104 OA 
HETATM   27  C   UNL     1     -10.551   6.538  67.638  1.00  0.00    -0.269 C  
BRANCH  17  28
HETATM   28  O   UNL     1      -6.985   5.926  67.408  1.00  0.00    -0.065 OA 
BRANCH  28  29
HETATM   29  C   UNL     1      -6.968   4.926  68.381  1.00  0.00    -0.057 C  
HETATM   30  O   UNL     1      -6.343   2.675  69.105  1.00  0.00    -0.028 OA 
HETATM   31  C   UNL     1      -6.635   3.635  68.133  1.00  0.00    -0.041 C  
HETATM   32  C   UNL     1      -6.538   2.991  70.426  1.00  0.00    -0.032 A  
HETATM   33  O   UNL     1      -6.737   6.472  70.121  1.00  0.00    -0.046 OA 
HETATM   34  H   UNL     1      -8.218   6.305  71.794  1.00  0.00     0.000 HD 
HETATM   35  C   UNL     1      -6.236   2.053  71.412  1.00  0.00    -0.018 A  
HETATM   36  C   UNL     1      -6.956   5.308  69.809  1.00  0.00    -0.058 C  
HETATM   37  C   UNL     1      -6.509   2.355  72.752  1.00  0.00    -0.017 A  
HETATM   38  C   UNL     1      -7.036   4.252  70.809  1.00  0.00    -0.037 A  
HETATM   39  O   UNL     1      -8.040   5.652  72.461  1.00  0.00    -0.103 OA 
HETATM   40  C   UNL     1      -7.138   3.543  73.112  1.00  0.00    -0.046 A  
HETATM   41  O   UNL     1      -6.176   1.509  73.769  1.00  0.00    -0.010 OA 
HETATM   42  H   UNL     1      -6.361   1.714  74.678  1.00  0.00     0.000 HD 
HETATM   43  C   UNL     1      -7.397   4.496  72.139  1.00  0.00    -0.072 A  
BRANCH  31  44
HETATM   44  C   UNL     1      -6.451   3.194  66.743  1.00  0.00    -0.036 A  
HETATM   45  O   UNL     1      -6.226   2.586  62.644  1.00  0.00    -0.009 OA 
HETATM   46  H   UNL     1      -8.209   1.364  63.094  1.00  0.00     0.000 HD 
HETATM   47  C   UNL     1      -5.369   3.710  66.002  1.00  0.00    -0.013 A  
HETATM   48  H   UNL     1      -5.510   2.960  62.147  1.00  0.00     0.000 HD 
HETATM   49  O   UNL     1      -8.272   1.500  64.032  1.00  0.00    -0.064 OA 
HETATM   50  C   UNL     1      -6.271   2.746  64.001  1.00  0.00    -0.018 A  
HETATM   51  C   UNL     1      -7.322   2.196  64.732  1.00  0.00    -0.062 A  
HETATM   52  C   UNL     1      -7.414   2.395  66.107  1.00  0.00    -0.067 A  
HETATM   53  C   UNL     1      -5.281   3.488  64.626  1.00  0.00    -0.009 A  
ENDBRANCH  31  44
ENDBRANCH  28  29
ENDBRANCH  17  28
ENDBRANCH  15  16
ENDBRANCH  14  15
ENDBRANCH   4  14
TORSDOF 6
ENDMDL
MODEL      186
REMARK 921   NORMALIZED FREE ENERGY PREDICTED BY IDOCK:    2.61 KCAL/MOL
REMARK 922        TOTAL FREE ENERGY PREDICTED BY IDOCK:    2.05 KCAL/MOL
REMARK 923 INTER-LIGAND FREE ENERGY PREDICTED BY IDOCK:    1.83 KCAL/MOL
REMARK 924 INTRA-LIGAND FREE ENERGY PREDICTED BY IDOCK:    0.22 KCAL/MOL
REMARK 927      BINDING AFFINITY PREDICTED BY RF-SCORE:    0.00 PKD
ROOT
HETATM    1  C   UNL     1     -11.962   8.207  67.422  1.00  0.00     4.176 C  
HETATM    2  C   UNL     1     -11.160   6.946  67.757  1.00  0.00    -0.146 C  
HETATM    3  O   UNL     1     -10.080   7.421  68.561  1.00  0.00    -0.164 OA 
HETATM    4  C   UNL     1      -8.901   6.644  68.718  1.00  0.00    -0.126 C  
HETATM    5  H   UNL     1     -10.026   3.972  65.278  1.00  0.00     0.000 HD 
HETATM    6  C   UNL     1      -8.474   5.890  67.450  1.00  0.00    -0.103 C  
HETATM    7  C   UNL     1      -9.675   5.165  66.826  1.00  0.00    -0.165 C  
HETATM    8  O   UNL     1     -11.907   5.615  65.858  1.00  0.00     0.185 OA 
HETATM    9  O   UNL     1      -7.916   6.806  66.488  1.00  0.00    -0.101 OA 
HETATM   10  H   UNL     1      -7.652   6.340  65.704  1.00  0.00     0.000 HD 
HETATM   11  H   UNL     1     -11.653   5.158  65.064  1.00  0.00     0.000 HD 
HETATM   12  O   UNL     1      -9.283   4.420  65.664  1.00  0.00    -0.132 OA 
HETATM   13  C   UNL     1     -10.749   6.205  66.470  1.00  0.00    -0.137 C  
ENDROOT
BRANCH   4  14
HETATM   14  O   UNL     1      -8.908   5.741  69.826  1.00  0.00    -0.124 OA 
BRANCH  14  15
HETATM   15  C   UNL     1      -8.761   6.399  71.096  1.00  0.00    -0.135 C  
BRANCH  15  16
HETATM   16  C   UNL     1      -8.508   5.336  72.173  1.00  0.00    -0.126 C  
HETATM   17  C   UNL     1      -6.127   4.722  71.962  1.00  0.00    -0.017 C  
HETATM   18  O   UNL     1      -7.511   4.375  71.747  1.00  0.00    -0.065 OA 
HETATM   19  H   UNL     1      -7.005   8.187  73.613  1.00  0.00     0.000 HD 
HETATM   20  C   UNL     1      -5.981   4.999  73.476  1.00  0.00    -0.030 C  
HETATM   21  H   UNL     1      -8.812   5.430  75.405  1.00  0.00     0.000 HD 
HETATM   22  O   UNL     1      -6.377   3.838  74.249  1.00  0.00    -0.033 OA 
HETATM   23  C   UNL     1      -6.848   6.193  73.910  1.00  0.00    -0.080 C  
HETATM   24  H   UNL     1      -6.287   4.009  75.179  1.00  0.00     0.000 HD 
HETATM   25  O   UNL     1      -8.928   5.058  74.539  1.00  0.00    -0.111 OA 
HETATM   26  O   UNL     1      -6.469   7.449  73.344  1.00  0.00    -0.063 OA 
HETATM   27  C   UNL     1      -8.320   5.940  73.578  1.00  0.00    -0.113 C  
BRANCH  17  28
HETATM   28  O   UNL     1      -5.708   5.765  71.068  1.00  0.00    -0.016 OA 
BRANCH  28  29
HETATM   29  C   UNL     1      -5.738   5.489  69.701  1.00  0.00    -0.012 C  
HETATM   30  O   UNL     1      -5.205   6.106  67.396  1.00  0.00    -0.004 OA 
HETATM   31  C   UNL     1      -5.451   6.400  68.739  1.00  0.00    -0.015 C  
HETATM   32  C   UNL     1      -5.400   4.823  66.952  1.00  0.00    -0.012 A  
HETATM   33  O   UNL     1      -5.466   3.191  70.048  1.00  0.00    -0.014 OA 
HETATM   34  H   UNL     1      -6.968   1.858  69.056  1.00  0.00     0.000 HD 
HETATM   35  C   UNL     1      -5.144   4.505  65.619  1.00  0.00    -0.009 A  
HETATM   36  C   UNL     1      -5.726   4.082  69.248  1.00  0.00    -0.018 C  
HETATM   37  C   UNL     1      -5.418   3.212  65.158  1.00  0.00    -0.009 A  
HETATM   38  C   UNL     1      -5.855   3.812  67.822  1.00  0.00    -0.023 A  
HETATM   39  O   UNL     1      -6.821   1.653  68.140  1.00  0.00    -0.032 OA 
HETATM   40  C   UNL     1      -6.005   2.259  65.983  1.00  0.00    -0.023 A  
HETATM   41  O   UNL     1      -5.126   2.820  63.884  1.00  0.00    -0.007 OA 
HETATM   42  H   UNL     1      -5.312   1.942  63.571  1.00  0.00     0.000 HD 
HETATM   43  C   UNL     1      -6.219   2.557  67.320  1.00  0.00    -0.028 A  
BRANCH  31  44
HETATM   44  C   UNL     1      -5.271   7.809  69.115  1.00  0.00    -0.019 A  
HETATM   45  O   UNL     1      -5.465  11.770  70.338  1.00  0.00    -0.108 OA 
HETATM   46  H   UNL     1      -5.627  12.096  67.994  1.00  0.00     0.000 HD 
HETATM   47  C   UNL     1      -5.162   8.142  70.480  1.00  0.00    -0.022 A  
HETATM   48  H   UNL     1      -5.421  11.985  71.262  1.00  0.00     0.000 HD 
HETATM   49  O   UNL     1      -5.586  11.193  67.703  1.00  0.00    -0.040 OA 
HETATM   50  C   UNL     1      -5.351  10.469  69.935  1.00  0.00    -0.040 A  
HETATM   51  C   UNL     1      -5.416  10.154  68.579  1.00  0.00    -0.038 A  
HETATM   52  C   UNL     1      -5.357   8.829  68.154  1.00  0.00    -0.035 A  
HETATM   53  C   UNL     1      -5.206   9.476  70.891  1.00  0.00    -0.039 A  
ENDBRANCH  31  44
ENDBRANCH  28  29
ENDBRANCH  17  28
ENDBRANCH  15  16
ENDBRANCH  14  15
ENDBRANCH   4  14
TORSDOF 6
ENDMDL
MODEL      187
REMARK 921   NORMALIZED FREE ENERGY PREDICTED BY IDOCK:    3.23 KCAL/MOL
REMARK 922        TOTAL FREE ENERGY PREDICTED BY IDOCK:    2.89 KCAL/MOL
REMARK 923 INTER-LIGAND FREE ENERGY PREDICTED BY IDOCK:   -1.68 KCAL/MOL
REMARK 924 INTRA-LIGAND FREE ENERGY PREDICTED BY IDOCK:    4.57 KCAL/MOL
REMARK 927      BINDING AFFINITY PREDICTED BY RF-SCORE:    0.00 PKD
ROOT
HETATM    1  C   UNL     1     -10.233  19.601  68.113  1.00  0.00    -0.580 C  
HETATM    2  C   UNL     1      -9.905  18.164  67.697  1.00  0.00    -0.312 C  
HETATM    3  O   UNL     1      -9.054  18.314  66.561  1.00  0.00    -0.282 OA 
HETATM    4  C   UNL     1      -8.879  17.243  65.645  1.00  0.00     0.505 C  
HETATM    5  H   UNL     1     -12.423  15.035  67.319  1.00  0.00     0.000 HD 
HETATM    6  C   UNL     1     -10.151  16.421  65.389  1.00  0.00    -0.100 C  
HETATM    7  C   UNL     1     -10.833  16.061  66.717  1.00  0.00    -0.195 C  
HETATM    8  O   UNL     1     -11.862  17.118  68.703  1.00  0.00     0.345 OA 
HETATM    9  O   UNL     1     -11.070  17.166  64.567  1.00  0.00    -1.105 OA 
HETATM   10  H   UNL     1     -11.857  16.658  64.409  1.00  0.00     0.000 HD 
HETATM   11  H   UNL     1     -12.658  16.622  68.553  1.00  0.00     0.000 HD 
HETATM   12  O   UNL     1     -12.001  15.257  66.498  1.00  0.00     0.038 OA 
HETATM   13  C   UNL     1     -11.197  17.360  67.454  1.00  0.00     0.278 C  
ENDROOT
BRANCH   4  14
HETATM   14  O   UNL     1      -7.796  16.357  65.939  1.00  0.00    -0.007 OA 
BRANCH  14  15
HETATM   15  C   UNL     1      -8.186  15.232  66.746  1.00  0.00    -0.180 C  
BRANCH  15  16
HETATM   16  C   UNL     1      -8.321  15.697  68.202  1.00  0.00    -0.146 C  
HETATM   17  C   UNL     1      -8.937  13.685  69.493  1.00  0.00     1.176 C  
HETATM   18  O   UNL     1      -9.337  14.942  68.909  1.00  0.00    -0.194 OA 
HETATM   19  H   UNL     1      -5.211  14.028  68.267  1.00  0.00     0.000 HD 
HETATM   20  C   UNL     1      -7.759  14.004  70.443  1.00  0.00     1.716 C  
HETATM   21  H   UNL     1      -6.189  17.072  70.230  1.00  0.00     0.000 HD 
HETATM   22  O   UNL     1      -8.161  14.968  71.448  1.00  0.00     1.900 OA 
HETATM   23  C   UNL     1      -6.559  14.577  69.670  1.00  0.00    -0.153 C  
HETATM   24  H   UNL     1      -7.437  15.164  72.032  1.00  0.00     0.000 HD 
HETATM   25  O   UNL     1      -7.027  16.981  69.792  1.00  0.00    -0.039 OA 
HETATM   26  O   UNL     1      -5.952  13.674  68.744  1.00  0.00    -0.078 OA 
HETATM   27  C   UNL     1      -6.961  15.845  68.912  1.00  0.00    -0.143 C  
BRANCH  17  28
HETATM   28  O   UNL     1      -8.702  12.693  68.481  1.00  0.00    -0.147 OA 
BRANCH  28  29
HETATM   29  C   UNL     1      -9.751  12.411  67.606  1.00  0.00    -0.195 C  
HETATM   30  O   UNL     1     -12.122  12.540  67.018  1.00  0.00    -0.521 OA 
HETATM   31  C   UNL     1     -11.062  12.546  67.927  1.00  0.00    -0.245 C  
HETATM   32  C   UNL     1     -11.866  12.233  65.705  1.00  0.00    -0.352 A  
HETATM   33  O   UNL     1      -8.395  12.678  65.719  1.00  0.00     0.842 OA 
HETATM   34  H   UNL     1      -8.402  10.986  64.250  1.00  0.00     0.000 HD 
HETATM   35  C   UNL     1     -12.908  12.238  64.779  1.00  0.00    -0.059 A  
HETATM   36  C   UNL     1      -9.476  12.304  66.157  1.00  0.00    -0.217 C  
HETATM   37  C   UNL     1     -12.652  11.850  63.458  1.00  0.00    -0.459 A  
HETATM   38  C   UNL     1     -10.565  11.914  65.272  1.00  0.00    -0.320 A  
HETATM   39  O   UNL     1      -9.120  10.961  63.628  1.00  0.00    -0.202 OA 
HETATM   40  C   UNL     1     -11.397  11.394  63.068  1.00  0.00     0.206 A  
HETATM   41  O   UNL     1     -13.612  11.898  62.489  1.00  0.00     0.314 OA 
HETATM   42  H   UNL     1     -13.438  11.635  61.593  1.00  0.00     0.000 HD 
HETATM   43  C   UNL     1     -10.349  11.431  63.975  1.00  0.00    -0.362 A  
BRANCH  31  44
HETATM   44  C   UNL     1     -11.434  12.829  69.321  1.00  0.00    -0.349 A  
HETATM   45  O   UNL     1     -13.163  13.522  73.030  1.00  0.00    -0.493 OA 
HETATM   46  H   UNL     1     -12.880  15.769  72.325  1.00  0.00     0.000 HD 
HETATM   47  C   UNL     1     -11.753  11.754  70.173  1.00  0.00    -0.354 A  
HETATM   48  H   UNL     1     -13.401  12.791  73.587  1.00  0.00     0.000 HD 
HETATM   49  O   UNL     1     -12.487  15.622  71.473  1.00  0.00    -0.375 OA 
HETATM   50  C   UNL     1     -12.548  13.292  71.830  1.00  0.00    -0.040 A  
HETATM   51  C   UNL     1     -12.197  14.365  71.013  1.00  0.00    -0.351 A  
HETATM   52  C   UNL     1     -11.621  14.148  69.764  1.00  0.00    -0.351 A  
HETATM   53  C   UNL     1     -12.315  11.986  71.430  1.00  0.00    -0.093 A  
ENDBRANCH  31  44
ENDBRANCH  28  29
ENDBRANCH  17  28
ENDBRANCH  15  16
ENDBRANCH  14  15
ENDBRANCH   4  14
TORSDOF 6
ENDMDL
MODEL      188
REMARK 921   NORMALIZED FREE ENERGY PREDICTED BY IDOCK:    3.32 KCAL/MOL
REMARK 922        TOTAL FREE ENERGY PREDICTED BY IDOCK:    3.00 KCAL/MOL
REMARK 923 INTER-LIGAND FREE ENERGY PREDICTED BY IDOCK:   -0.06 KCAL/MOL
REMARK 924 INTRA-LIGAND FREE ENERGY PREDICTED BY IDOCK:    3.06 KCAL/MOL
REMARK 927      BINDING AFFINITY PREDICTED BY RF-SCORE:    0.00 PKD
ROOT
HETATM    1  C   UNL     1     -13.273  12.720  68.778  1.00  0.00     3.293 C  
HETATM    2  C   UNL     1     -11.941  11.999  68.548  1.00  0.00    -0.214 C  
HETATM    3  O   UNL     1     -11.100  12.471  69.601  1.00  0.00    -0.086 OA 
HETATM    4  C   UNL     1      -9.687  12.371  69.495  1.00  0.00     1.278 C  
HETATM    5  H   UNL     1      -9.928  11.511  65.086  1.00  0.00     0.000 HD 
HETATM    6  C   UNL     1      -9.144  12.619  68.080  1.00  0.00    -0.204 C  
HETATM    7  C   UNL     1      -9.951  11.818  67.048  1.00  0.00    -0.204 C  
HETATM    8  O   UNL     1     -12.251  11.573  66.169  1.00  0.00     0.063 OA 
HETATM    9  O   UNL     1      -9.214  14.021  67.757  1.00  0.00    -0.182 OA 
HETATM   10  H   UNL     1      -8.879  14.175  66.882  1.00  0.00     0.000 HD 
HETATM   11  H   UNL     1     -11.930  11.732  65.289  1.00  0.00     0.000 HD 
HETATM   12  O   UNL     1      -9.429  12.006  65.724  1.00  0.00    -0.236 OA 
HETATM   13  C   UNL     1     -11.421  12.258  67.120  1.00  0.00    -0.352 C  
ENDROOT
BRANCH   4  14
HETATM   14  O   UNL     1      -9.120  11.166  70.014  1.00  0.00     0.989 OA 
BRANCH  14  15
HETATM   15  C   UNL     1      -9.038  10.112  69.039  1.00  0.00    -0.173 C  
BRANCH  15  16
HETATM   16  C   UNL     1     -10.255   9.193  69.206  1.00  0.00    -0.210 C  
HETATM   17  C   UNL     1      -9.429   6.905  68.790  1.00  0.00    -0.135 C  
HETATM   18  O   UNL     1     -10.179   8.046  68.324  1.00  0.00    -0.194 OA 
HETATM   19  H   UNL     1      -8.503   8.613  72.215  1.00  0.00     0.000 HD 
HETATM   20  C   UNL     1     -10.062   6.493  70.140  1.00  0.00    -0.174 C  
HETATM   21  H   UNL     1     -12.223   8.663  71.733  1.00  0.00     0.000 HD 
HETATM   22  O   UNL     1     -11.469   6.188  69.972  1.00  0.00    -0.406 OA 
HETATM   23  C   UNL     1      -9.927   7.614  71.183  1.00  0.00    -0.177 C  
HETATM   24  H   UNL     1     -11.858   5.935  70.801  1.00  0.00     0.000 HD 
HETATM   25  O   UNL     1     -12.018   8.843  70.824  1.00  0.00    -0.253 OA 
HETATM   26  O   UNL     1      -8.586   7.920  71.570  1.00  0.00    -0.112 OA 
HETATM   27  C   UNL     1     -10.587   8.901  70.681  1.00  0.00    -0.229 C  
BRANCH  17  28
HETATM   28  O   UNL     1      -8.018   7.175  68.791  1.00  0.00    -0.119 OA 
BRANCH  28  29
HETATM   29  C   UNL     1      -7.430   7.515  67.573  1.00  0.00    -0.104 C  
HETATM   30  O   UNL     1      -7.175   7.167  65.166  1.00  0.00    -0.068 OA 
HETATM   31  C   UNL     1      -7.506   6.749  66.457  1.00  0.00    -0.078 C  
HETATM   32  C   UNL     1      -6.589   8.396  64.998  1.00  0.00    -0.063 A  
HETATM   33  O   UNL     1      -7.373   9.791  68.111  1.00  0.00    -0.079 OA 
HETATM   34  H   UNL     1      -5.386  10.806  67.900  1.00  0.00     0.000 HD 
HETATM   35  C   UNL     1      -6.267   8.839  63.716  1.00  0.00    -0.076 A  
HETATM   36  C   UNL     1      -7.008   8.912  67.340  1.00  0.00    -0.075 C  
HETATM   37  C   UNL     1      -5.602  10.061  63.560  1.00  0.00    -0.114 A  
HETATM   38  C   UNL     1      -6.309   9.227  66.100  1.00  0.00    -0.064 A  
HETATM   39  O   UNL     1      -5.141  11.090  67.027  1.00  0.00    -0.041 OA 
HETATM   40  C   UNL     1      -5.195  10.809  64.660  1.00  0.00    -0.107 A  
HETATM   41  O   UNL     1      -5.319  10.581  62.330  1.00  0.00    -0.105 OA 
HETATM   42  H   UNL     1      -4.868  11.411  62.225  1.00  0.00     0.000 HD 
HETATM   43  C   UNL     1      -5.554  10.394  65.933  1.00  0.00    -0.090 A  
BRANCH  31  44
HETATM   44  C   UNL     1      -8.076   5.397  66.551  1.00  0.00    -0.105 A  
HETATM   45  O   UNL     1      -9.883   1.779  67.481  1.00  0.00    -0.387 OA 
HETATM   46  H   UNL     1      -7.626   1.191  67.916  1.00  0.00     0.000 HD 
HETATM   47  C   UNL     1      -9.466   5.232  66.395  1.00  0.00    -0.161 A  
HETATM   48  H   UNL     1     -10.824   1.684  67.401  1.00  0.00     0.000 HD 
HETATM   49  O   UNL     1      -7.203   2.016  67.709  1.00  0.00    -0.046 OA 
HETATM   50  C   UNL     1      -9.284   2.956  67.126  1.00  0.00    -0.159 A  
HETATM   51  C   UNL     1      -7.903   3.096  67.242  1.00  0.00    -0.078 A  
HETATM   52  C   UNL     1      -7.283   4.305  66.938  1.00  0.00    -0.068 A  
HETATM   53  C   UNL     1     -10.073   4.008  66.687  1.00  0.00     0.042 A  
ENDBRANCH  31  44
ENDBRANCH  28  29
ENDBRANCH  17  28
ENDBRANCH  15  16
ENDBRANCH  14  15
ENDBRANCH   4  14
TORSDOF 6
ENDMDL
MODEL      189
REMARK 921   NORMALIZED FREE ENERGY PREDICTED BY IDOCK:    4.38 KCAL/MOL
REMARK 922        TOTAL FREE ENERGY PREDICTED BY IDOCK:    4.44 KCAL/MOL
REMARK 923 INTER-LIGAND FREE ENERGY PREDICTED BY IDOCK:   -0.92 KCAL/MOL
REMARK 924 INTRA-LIGAND FREE ENERGY PREDICTED BY IDOCK:    5.36 KCAL/MOL
REMARK 927      BINDING AFFINITY PREDICTED BY RF-SCORE:    0.00 PKD
ROOT
HETATM    1  C   UNL     1     -13.270  14.256  66.858  1.00  0.00     2.292 C  
HETATM    2  C   UNL     1     -12.374  15.041  67.822  1.00  0.00     0.417 C  
HETATM    3  O   UNL     1     -11.075  14.961  67.235  1.00  0.00    -0.317 OA 
HETATM    4  C   UNL     1      -9.914  15.193  68.020  1.00  0.00    -0.221 C  
HETATM    5  H   UNL     1     -12.249  14.834  71.849  1.00  0.00     0.000 HD 
HETATM    6  C   UNL     1     -10.006  14.647  69.453  1.00  0.00    -0.024 C  
HETATM    7  C   UNL     1     -11.340  15.051  70.097  1.00  0.00    -0.269 C  
HETATM    8  O   UNL     1     -13.782  14.790  69.794  1.00  0.00     0.564 OA 
HETATM    9  O   UNL     1      -9.893  13.211  69.449  1.00  0.00    -0.095 OA 
HETATM   10  H   UNL     1      -9.950  12.873  70.335  1.00  0.00     0.000 HD 
HETATM   11  H   UNL     1     -13.853  14.444  70.676  1.00  0.00     0.000 HD 
HETATM   12  O   UNL     1     -11.424  14.585  71.451  1.00  0.00    -0.190 OA 
HETATM   13  C   UNL     1     -12.489  14.479  69.252  1.00  0.00    -0.031 C  
ENDROOT
BRANCH   4  14
HETATM   14  O   UNL     1      -9.463  16.549  68.059  1.00  0.00    -0.218 OA 
BRANCH  14  15
HETATM   15  C   UNL     1      -8.521  16.804  69.116  1.00  0.00    -0.084 C  
BRANCH  15  16
HETATM   16  C   UNL     1      -7.343  17.600  68.541  1.00  0.00    -0.256 C  
HETATM   17  C   UNL     1      -6.145  16.041  67.049  1.00  0.00     0.114 C  
HETATM   18  O   UNL     1      -6.193  16.750  68.305  1.00  0.00    -0.128 OA 
HETATM   19  H   UNL     1      -9.568  17.536  65.802  1.00  0.00     0.000 HD 
HETATM   20  C   UNL     1      -6.246  17.115  65.941  1.00  0.00     0.369 C  
HETATM   21  H   UNL     1      -7.241  20.317  66.766  1.00  0.00     0.000 HD 
HETATM   22  O   UNL     1      -5.169  18.078  66.063  1.00  0.00    -0.153 OA 
HETATM   23  C   UNL     1      -7.585  17.869  66.016  1.00  0.00    -0.214 C  
HETATM   24  H   UNL     1      -5.232  18.738  65.383  1.00  0.00     0.000 HD 
HETATM   25  O   UNL     1      -6.987  19.743  67.478  1.00  0.00    -0.223 OA 
HETATM   26  O   UNL     1      -8.741  17.070  65.756  1.00  0.00    -0.522 OA 
HETATM   27  C   UNL     1      -7.756  18.530  67.385  1.00  0.00    -0.227 C  
BRANCH  17  28
HETATM   28  O   UNL     1      -7.113  14.981  67.014  1.00  0.00    -0.184 OA 
BRANCH  28  29
HETATM   29  C   UNL     1      -7.035  14.009  68.011  1.00  0.00    -0.145 C  
HETATM   30  O   UNL     1      -7.234  11.679  68.729  1.00  0.00    -0.103 OA 
HETATM   31  C   UNL     1      -7.524  12.751  67.881  1.00  0.00    -0.127 C  
HETATM   32  C   UNL     1      -6.516  11.916  69.873  1.00  0.00    -0.048 A  
HETATM   33  O   UNL     1      -5.226  15.064  69.052  1.00  0.00    -0.096 OA 
HETATM   34  H   UNL     1      -5.448  15.474  71.243  1.00  0.00     0.000 HD 
HETATM   35  C   UNL     1      -6.201  10.857  70.724  1.00  0.00     0.086 A  
HETATM   36  C   UNL     1      -6.082  14.192  69.126  1.00  0.00    -0.097 C  
HETATM   37  C   UNL     1      -5.534  11.120  71.926  1.00  0.00     0.410 A  
HETATM   38  C   UNL     1      -6.084  13.215  70.207  1.00  0.00    -0.079 A  
HETATM   39  O   UNL     1      -5.262  14.754  71.835  1.00  0.00    -0.144 OA 
HETATM   40  C   UNL     1      -5.240  12.420  72.322  1.00  0.00     0.284 A  
HETATM   41  O   UNL     1      -5.137  10.121  72.768  1.00  0.00    -0.252 OA 
HETATM   42  H   UNL     1      -4.684  10.299  73.584  1.00  0.00     0.000 HD 
HETATM   43  C   UNL     1      -5.510  13.471  71.458  1.00  0.00    -0.191 A  
BRANCH  31  44
HETATM   44  C   UNL     1      -8.346  12.417  66.709  1.00  0.00    -0.060 A  
HETATM   45  O   UNL     1     -10.067  11.616  63.019  1.00  0.00    -0.564 OA 
HETATM   46  H   UNL     1     -10.857  13.832  63.325  1.00  0.00     0.000 HD 
HETATM   47  C   UNL     1      -8.194  11.151  66.109  1.00  0.00    -0.128 A  
HETATM   48  H   UNL     1      -9.937  10.771  62.607  1.00  0.00     0.000 HD 
HETATM   49  O   UNL     1     -10.464  14.027  64.168  1.00  0.00    -0.142 OA 
HETATM   50  C   UNL     1      -9.541  11.860  64.257  1.00  0.00    -0.020 A  
HETATM   51  C   UNL     1      -9.733  13.100  64.861  1.00  0.00     0.120 A  
HETATM   52  C   UNL     1      -9.157  13.385  66.097  1.00  0.00     0.103 A  
HETATM   53  C   UNL     1      -8.791  10.873  64.877  1.00  0.00    -0.127 A  
ENDBRANCH  31  44
ENDBRANCH  28  29
ENDBRANCH  17  28
ENDBRANCH  15  16
ENDBRANCH  14  15
ENDBRANCH   4  14
TORSDOF 6
ENDMDL
MODEL      190
REMARK 921   NORMALIZED FREE ENERGY PREDICTED BY IDOCK:    4.98 KCAL/MOL
REMARK 922        TOTAL FREE ENERGY PREDICTED BY IDOCK:    5.25 KCAL/MOL
REMARK 923 INTER-LIGAND FREE ENERGY PREDICTED BY IDOCK:   -1.59 KCAL/MOL
REMARK 924 INTRA-LIGAND FREE ENERGY PREDICTED BY IDOCK:    6.84 KCAL/MOL
REMARK 927      BINDING AFFINITY PREDICTED BY RF-SCORE:    0.00 PKD
ROOT
HETATM    1  C   UNL     1      -5.250   5.892  66.286  1.00  0.00    -0.009 C  
HETATM    2  C   UNL     1      -6.498   6.061  67.159  1.00  0.00    -0.047 C  
HETATM    3  O   UNL     1      -6.155   7.115  68.059  1.00  0.00    -0.031 OA 
HETATM    4  C   UNL     1      -6.865   7.282  69.278  1.00  0.00    -0.054 C  
HETATM    5  H   UNL     1      -8.715   3.195  68.933  1.00  0.00     0.000 HD 
HETATM    6  C   UNL     1      -7.266   5.963  69.956  1.00  0.00    -0.073 C  
HETATM    7  C   UNL     1      -7.902   5.007  68.936  1.00  0.00    -0.077 C  
HETATM    8  O   UNL     1      -7.387   3.817  66.830  1.00  0.00    -0.067 OA 
HETATM    9  O   UNL     1      -6.112   5.333  70.546  1.00  0.00    -0.020 OA 
HETATM   10  H   UNL     1      -6.360   4.518  70.965  1.00  0.00     0.000 HD 
HETATM   11  H   UNL     1      -7.625   2.993  67.238  1.00  0.00     0.000 HD 
HETATM   12  O   UNL     1      -8.322   3.786  69.564  1.00  0.00    -0.056 OA 
HETATM   13  C   UNL     1      -6.883   4.724  67.822  1.00  0.00    -0.060 C  
ENDROOT
BRANCH   4  14
HETATM   14  O   UNL     1      -8.003   8.143  69.209  1.00  0.00    -0.111 OA 
BRANCH  14  15
HETATM   15  C   UNL     1      -7.812   9.393  69.893  1.00  0.00    -0.126 C  
BRANCH  15  16
HETATM   16  C   UNL     1      -8.758   9.442  71.099  1.00  0.00     0.108 C  
HETATM   17  C   UNL     1     -10.969  10.058  70.192  1.00  0.00    -0.310 C  
HETATM   18  O   UNL     1      -9.789  10.446  70.926  1.00  0.00     0.678 OA 
HETATM   19  H   UNL     1      -9.679   6.387  69.591  1.00  0.00     0.000 HD 
HETATM   20  C   UNL     1     -11.549   8.826  70.925  1.00  0.00    -0.277 C  
HETATM   21  H   UNL     1      -9.615   7.173  73.259  1.00  0.00     0.000 HD 
HETATM   22  O   UNL     1     -11.848   9.148  72.307  1.00  0.00    -0.312 OA 
HETATM   23  C   UNL     1     -10.562   7.648  70.903  1.00  0.00    -0.213 C  
HETATM   24  H   UNL     1     -12.205   8.392  72.757  1.00  0.00     0.000 HD 
HETATM   25  O   UNL     1      -9.323   8.034  72.983  1.00  0.00    -0.229 OA 
HETATM   26  O   UNL     1     -10.289   7.115  69.605  1.00  0.00    -0.202 OA 
HETATM   27  C   UNL     1      -9.232   8.046  71.547  1.00  0.00    -0.147 C  
BRANCH  17  28
HETATM   28  O   UNL     1     -10.684   9.904  68.792  1.00  0.00    -0.210 OA 
BRANCH  28  29
HETATM   29  C   UNL     1     -11.118  10.916  67.936  1.00  0.00    -0.302 C  
HETATM   30  O   UNL     1     -12.154  13.104  67.583  1.00  0.00    -0.331 OA 
HETATM   31  C   UNL     1     -11.921  11.940  68.319  1.00  0.00    -0.167 C  
HETATM   32  C   UNL     1     -11.662  13.188  66.305  1.00  0.00    -0.375 A  
HETATM   33  O   UNL     1      -9.344  10.570  66.451  1.00  0.00    -0.162 OA 
HETATM   34  H   UNL     1      -9.900  10.262  64.302  1.00  0.00     0.000 HD 
HETATM   35  C   UNL     1     -11.869  14.348  65.560  1.00  0.00    -0.357 A  
HETATM   36  C   UNL     1     -10.417  11.125  66.651  1.00  0.00    -0.250 C  
HETATM   37  C   UNL     1     -11.430  14.396  64.232  1.00  0.00    -0.211 A  
HETATM   38  C   UNL     1     -10.944  12.122  65.728  1.00  0.00    -0.338 A  
HETATM   39  O   UNL     1     -10.070  11.043  63.788  1.00  0.00    -0.302 OA 
HETATM   40  C   UNL     1     -10.852  13.289  63.619  1.00  0.00     0.117 A  
HETATM   41  O   UNL     1     -11.541  15.524  63.471  1.00  0.00    -0.407 OA 
HETATM   42  H   UNL     1     -11.243  15.557  62.570  1.00  0.00     0.000 HD 
HETATM   43  C   UNL     1     -10.604  12.150  64.370  1.00  0.00    -0.323 A  
BRANCH  31  44
HETATM   44  C   UNL     1     -12.532  11.911  69.656  1.00  0.00     0.027 A  
HETATM   45  O   UNL     1     -13.611  11.594  73.650  1.00  0.00     3.876 OA 
HETATM   46  H   UNL     1     -14.516   9.550  72.856  1.00  0.00     0.000 HD 
HETATM   47  C   UNL     1     -12.242  12.952  70.560  1.00  0.00    -0.395 A  
HETATM   48  H   UNL     1     -13.387  12.287  74.260  1.00  0.00     0.000 HD 
HETATM   49  O   UNL     1     -14.271   9.611  71.941  1.00  0.00    -0.082 OA 
HETATM   50  C   UNL     1     -13.298  11.724  72.326  1.00  0.00    -0.061 A  
HETATM   51  C   UNL     1     -13.628  10.708  71.432  1.00  0.00     0.114 A  
HETATM   52  C   UNL     1     -13.268  10.798  70.089  1.00  0.00     0.259 A  
HETATM   53  C   UNL     1     -12.623  12.857  71.900  1.00  0.00    -0.074 A  
ENDBRANCH  31  44
ENDBRANCH  28  29
ENDBRANCH  17  28
ENDBRANCH  15  16
ENDBRANCH  14  15
ENDBRANCH   4  14
TORSDOF 6
ENDMDL
MODEL      191
REMARK 921   NORMALIZED FREE ENERGY PREDICTED BY IDOCK:    5.18 KCAL/MOL
REMARK 922        TOTAL FREE ENERGY PREDICTED BY IDOCK:    5.51 KCAL/MOL
REMARK 923 INTER-LIGAND FREE ENERGY PREDICTED BY IDOCK:   -6.06 KCAL/MOL
REMARK 924 INTRA-LIGAND FREE ENERGY PREDICTED BY IDOCK:   11.57 KCAL/MOL
REMARK 927      BINDING AFFINITY PREDICTED BY RF-SCORE:    0.00 PKD
ROOT
HETATM    1  C   UNL     1     -11.586   5.658  72.766  1.00  0.00    -0.289 C  
HETATM    2  C   UNL     1     -11.955   6.441  71.502  1.00  0.00    -0.273 C  
HETATM    3  O   UNL     1     -10.742   6.481  70.749  1.00  0.00    -0.222 OA 
HETATM    4  C   UNL     1     -10.555   7.457  69.734  1.00  0.00    -0.236 C  
HETATM    5  H   UNL     1     -14.051   9.875  71.209  1.00  0.00     0.000 HD 
HETATM    6  C   UNL     1     -11.148   8.834  70.071  1.00  0.00    -0.162 C  
HETATM    7  C   UNL     1     -12.582   8.685  70.602  1.00  0.00     0.315 C  
HETATM    8  O   UNL     1     -13.855   7.638  72.446  1.00  0.00    -0.510 OA 
HETATM    9  O   UNL     1     -10.339   9.498  71.061  1.00  0.00    -0.298 OA 
HETATM   10  H   UNL     1     -10.706  10.349  71.270  1.00  0.00     0.000 HD 
HETATM   11  H   UNL     1     -14.224   8.484  72.671  1.00  0.00     0.000 HD 
HETATM   12  O   UNL     1     -13.165   9.967  70.881  1.00  0.00    -0.348 OA 
HETATM   13  C   UNL     1     -12.553   7.813  71.866  1.00  0.00    -0.311 C  
ENDROOT
BRANCH   4  14
HETATM   14  O   UNL     1     -10.979   7.068  68.426  1.00  0.00    -0.165 OA 
BRANCH  14  15
HETATM   15  C   UNL     1      -9.971   7.266  67.420  1.00  0.00    -0.174 C  
BRANCH  15  16
HETATM   16  C   UNL     1      -8.667   6.614  67.897  1.00  0.00    -0.116 C  
HETATM   17  C   UNL     1      -7.172   8.478  68.515  1.00  0.00    -0.081 C  
HETATM   18  O   UNL     1      -7.516   7.434  67.579  1.00  0.00    -0.095 OA 
HETATM   19  H   UNL     1     -10.135   7.595  70.953  1.00  0.00     0.000 HD 
HETATM   20  C   UNL     1      -6.966   7.783  69.881  1.00  0.00    -0.050 C  
HETATM   21  H   UNL     1      -8.057   4.537  70.317  1.00  0.00     0.000 HD 
HETATM   22  O   UNL     1      -5.931   6.772  69.789  1.00  0.00    -0.022 OA 
HETATM   23  C   UNL     1      -8.261   7.112  70.366  1.00  0.00    -0.126 C  
HETATM   24  H   UNL     1      -5.804   6.346  70.628  1.00  0.00     0.000 HD 
HETATM   25  O   UNL     1      -8.004   4.862  69.426  1.00  0.00    -0.073 OA 
HETATM   26  O   UNL     1      -9.335   8.011  70.653  1.00  0.00    -0.156 OA 
HETATM   27  C   UNL     1      -8.754   6.087  69.341  1.00  0.00    -0.121 C  
BRANCH  17  28
HETATM   28  O   UNL     1      -8.126   9.551  68.471  1.00  0.00    -0.099 OA 
BRANCH  28  29
HETATM   29  C   UNL     1      -7.626  10.853  68.473  1.00  0.00    -0.111 C  
HETATM   30  O   UNL     1      -7.579  13.113  67.538  1.00  0.00    -0.148 OA 
HETATM   31  C   UNL     1      -7.819  11.738  67.464  1.00  0.00    -0.148 C  
HETATM   32  C   UNL     1      -6.965  13.618  68.656  1.00  0.00    -0.103 A  
HETATM   33  O   UNL     1      -7.444  10.897  70.805  1.00  0.00     0.722 OA 
HETATM   34  H   UNL     1      -5.446  11.488  71.628  1.00  0.00     0.000 HD 
HETATM   35  C   UNL     1      -6.731  14.989  68.756  1.00  0.00    -0.099 A  
HETATM   36  C   UNL     1      -7.174  11.451  69.746  1.00  0.00     0.202 C  
HETATM   37  C   UNL     1      -6.037  15.486  69.866  1.00  0.00    -0.157 A  
HETATM   38  C   UNL     1      -6.567  12.775  69.712  1.00  0.00     0.071 A  
HETATM   39  O   UNL     1      -5.261  12.419  71.678  1.00  0.00    -0.321 OA 
HETATM   40  C   UNL     1      -5.516  14.634  70.835  1.00  0.00    -0.151 A  
HETATM   41  O   UNL     1      -5.836  16.822  70.057  1.00  0.00    -0.215 OA 
HETATM   42  H   UNL     1      -5.365  17.159  70.810  1.00  0.00     0.000 HD 
HETATM   43  C   UNL     1      -5.786  13.276  70.761  1.00  0.00    -0.132 A  
BRANCH  31  44
HETATM   44  C   UNL     1      -8.428  11.276  66.208  1.00  0.00    -0.156 A  
HETATM   45  O   UNL     1      -9.904  10.594  62.390  1.00  0.00    -0.629 OA 
HETATM   46  H   UNL     1     -11.890  11.381  63.422  1.00  0.00     0.000 HD 
HETATM   47  C   UNL     1      -7.597  10.736  65.207  1.00  0.00     0.079 A  
HETATM   48  H   UNL     1      -9.331  10.256  61.712  1.00  0.00     0.000 HD 
HETATM   49  O   UNL     1     -11.561  11.544  64.298  1.00  0.00    -0.265 OA 
HETATM   50  C   UNL     1      -9.428  10.770  63.660  1.00  0.00    -0.291 A  
HETATM   51  C   UNL     1     -10.269  11.264  64.655  1.00  0.00    -0.301 A  
HETATM   52  C   UNL     1      -9.787  11.503  65.939  1.00  0.00    -0.262 A  
HETATM   53  C   UNL     1      -8.098  10.485  63.928  1.00  0.00    -0.029 A  
ENDBRANCH  31  44
ENDBRANCH  28  29
ENDBRANCH  17  28
ENDBRANCH  15  16
ENDBRANCH  14  15
ENDBRANCH   4  14
TORSDOF 6
ENDMDL
MODEL      192
REMARK 921   NORMALIZED FREE ENERGY PREDICTED BY IDOCK:    5.49 KCAL/MOL
REMARK 922        TOTAL FREE ENERGY PREDICTED BY IDOCK:    5.94 KCAL/MOL
REMARK 923 INTER-LIGAND FREE ENERGY PREDICTED BY IDOCK:    1.91 KCAL/MOL
REMARK 924 INTRA-LIGAND FREE ENERGY PREDICTED BY IDOCK:    4.03 KCAL/MOL
REMARK 927      BINDING AFFINITY PREDICTED BY RF-SCORE:    0.00 PKD
ROOT
HETATM    1  C   UNL     1     -12.287   7.096  68.820  1.00  0.00     2.946 C  
HETATM    2  C   UNL     1     -11.806   8.424  69.415  1.00  0.00     1.227 C  
HETATM    3  O   UNL     1     -12.013   9.372  68.367  1.00  0.00     1.036 OA 
HETATM    4  C   UNL     1     -11.317  10.610  68.367  1.00  0.00    -0.283 C  
HETATM    5  H   UNL     1      -8.426   9.154  71.492  1.00  0.00     0.000 HD 
HETATM    6  C   UNL     1      -9.869  10.515  68.870  1.00  0.00    -0.201 C  
HETATM    7  C   UNL     1      -9.806   9.712  70.178  1.00  0.00    -0.262 C  
HETATM    8  O   UNL     1     -10.314   7.468  71.087  1.00  0.00    -0.201 OA 
HETATM    9  O   UNL     1      -9.036   9.881  67.880  1.00  0.00    -0.131 OA 
HETATM   10  H   UNL     1      -8.141   9.822  68.191  1.00  0.00     0.000 HD 
HETATM   11  H   UNL     1      -9.419   7.392  71.397  1.00  0.00     0.000 HD 
HETATM   12  O   UNL     1      -8.465   9.651  70.683  1.00  0.00    -0.212 OA 
HETATM   13  C   UNL     1     -10.355   8.301  69.917  1.00  0.00    -0.218 C  
ENDROOT
BRANCH   4  14
HETATM   14  O   UNL     1     -11.980  11.684  69.037  1.00  0.00    -0.324 OA 
BRANCH  14  15
HETATM   15  C   UNL     1     -11.382  12.967  68.782  1.00  0.00    -0.289 C  
BRANCH  15  16
HETATM   16  C   UNL     1     -11.634  13.875  69.992  1.00  0.00    -0.212 C  
HETATM   17  C   UNL     1     -10.158  15.829  69.684  1.00  0.00    -0.289 C  
HETATM   18  O   UNL     1     -10.436  14.594  70.377  1.00  0.00     0.139 OA 
HETATM   19  H   UNL     1     -13.385  15.577  67.443  1.00  0.00     0.000 HD 
HETATM   20  C   UNL     1     -11.400  16.727  69.885  1.00  0.00     0.288 C  
HETATM   21  H   UNL     1     -14.330  15.334  71.066  1.00  0.00     0.000 HD 
HETATM   22  O   UNL     1     -11.654  16.940  71.297  1.00  0.00    -0.448 OA 
HETATM   23  C   UNL     1     -12.653  16.095  69.255  1.00  0.00     0.911 C  
HETATM   24  H   UNL     1     -12.417  17.492  71.420  1.00  0.00     0.000 HD 
HETATM   25  O   UNL     1     -13.538  14.817  71.150  1.00  0.00    -0.385 OA 
HETATM   26  O   UNL     1     -12.611  15.966  67.832  1.00  0.00     1.038 OA 
HETATM   27  C   UNL     1     -12.920  14.713  69.855  1.00  0.00     0.182 C  
BRANCH  17  28
HETATM   28  O   UNL     1      -9.747  15.584  68.329  1.00  0.00    -0.199 OA 
BRANCH  28  29
HETATM   29  C   UNL     1      -9.173  14.344  68.048  1.00  0.00    -0.193 C  
HETATM   30  O   UNL     1      -8.719  12.517  66.486  1.00  0.00    -0.150 OA 
HETATM   31  C   UNL     1      -9.456  13.613  66.941  1.00  0.00    -0.262 C  
HETATM   32  C   UNL     1      -7.709  12.026  67.274  1.00  0.00    -0.168 A  
HETATM   33  O   UNL     1      -7.327  14.764  69.422  1.00  0.00    -0.161 OA 
HETATM   34  H   UNL     1      -6.864  13.201  70.959  1.00  0.00     0.000 HD 
HETATM   35  C   UNL     1      -6.950  10.944  66.830  1.00  0.00    -0.119 A  
HETATM   36  C   UNL     1      -7.947  13.936  68.765  1.00  0.00    -0.059 C  
HETATM   37  C   UNL     1      -5.972  10.402  67.672  1.00  0.00    -0.048 A  
HETATM   38  C   UNL     1      -7.418  12.599  68.528  1.00  0.00    -0.121 A  
HETATM   39  O   UNL     1      -6.370  12.444  70.666  1.00  0.00    -0.090 OA 
HETATM   40  C   UNL     1      -5.788  10.876  68.967  1.00  0.00    -0.040 A  
HETATM   41  O   UNL     1      -5.151   9.387  67.272  1.00  0.00    -0.035 OA 
HETATM   42  H   UNL     1      -4.487   9.020  67.844  1.00  0.00     0.000 HD 
HETATM   43  C   UNL     1      -6.508  11.981  69.395  1.00  0.00    -0.115 A  
BRANCH  31  44
HETATM   44  C   UNL     1     -10.555  14.038  66.062  1.00  0.00    -0.297 A  
HETATM   45  O   UNL     1     -13.181  15.140  63.043  1.00  0.00     1.252 OA 
HETATM   46  H   UNL     1     -12.513  17.299  63.763  1.00  0.00     0.000 HD 
HETATM   47  C   UNL     1     -11.268  13.059  65.342  1.00  0.00    -0.317 A  
HETATM   48  H   UNL     1     -13.636  14.474  62.543  1.00  0.00     0.000 HD 
HETATM   49  O   UNL     1     -11.907  17.058  64.454  1.00  0.00    -0.314 OA 
HETATM   50  C   UNL     1     -12.355  14.775  64.070  1.00  0.00    -0.092 A  
HETATM   51  C   UNL     1     -11.687  15.752  64.804  1.00  0.00    -0.081 A  
HETATM   52  C   UNL     1     -10.799  15.398  65.817  1.00  0.00    -0.349 A  
HETATM   53  C   UNL     1     -12.168  13.429  64.341  1.00  0.00    -0.444 A  
ENDBRANCH  31  44
ENDBRANCH  28  29
ENDBRANCH  17  28
ENDBRANCH  15  16
ENDBRANCH  14  15
ENDBRANCH   4  14
TORSDOF 6
ENDMDL
MODEL      193
REMARK 921   NORMALIZED FREE ENERGY PREDICTED BY IDOCK:    5.53 KCAL/MOL
REMARK 922        TOTAL FREE ENERGY PREDICTED BY IDOCK:    6.00 KCAL/MOL
REMARK 923 INTER-LIGAND FREE ENERGY PREDICTED BY IDOCK:   -3.26 KCAL/MOL
REMARK 924 INTRA-LIGAND FREE ENERGY PREDICTED BY IDOCK:    9.26 KCAL/MOL
REMARK 927      BINDING AFFINITY PREDICTED BY RF-SCORE:    0.00 PKD
ROOT
HETATM    1  C   UNL     1     -12.438  13.682  63.155  1.00  0.00     0.249 C  
HETATM    2  C   UNL     1     -11.567  13.536  64.406  1.00  0.00    -0.396 C  
HETATM    3  O   UNL     1     -12.468  13.769  65.489  1.00  0.00    -0.454 OA 
HETATM    4  C   UNL     1     -11.976  14.135  66.770  1.00  0.00    -0.447 C  
HETATM    5  H   UNL     1      -7.907  15.085  65.101  1.00  0.00     0.000 HD 
HETATM    6  C   UNL     1     -10.762  15.076  66.731  1.00  0.00    -0.308 C  
HETATM    7  C   UNL     1      -9.714  14.559  65.735  1.00  0.00    -0.274 C  
HETATM    8  O   UNL     1      -9.435  14.028  63.334  1.00  0.00     3.022 OA 
HETATM    9  O   UNL     1     -11.171  16.403  66.348  1.00  0.00     0.087 OA 
HETATM   10  H   UNL     1     -10.421  16.985  66.323  1.00  0.00     0.000 HD 
HETATM   11  H   UNL     1      -8.687  14.613  63.293  1.00  0.00     0.000 HD 
HETATM   12  O   UNL     1      -8.555  15.405  65.718  1.00  0.00     0.194 OA 
HETATM   13  C   UNL     1     -10.354  14.484  64.340  1.00  0.00     0.384 C  
ENDROOT
BRANCH   4  14
HETATM   14  O   UNL     1     -11.700  13.046  67.654  1.00  0.00    -0.331 OA 
BRANCH  14  15
HETATM   15  C   UNL     1     -10.521  13.247  68.453  1.00  0.00    -0.253 C  
BRANCH  15  16
HETATM   16  C   UNL     1      -9.670  11.973  68.402  1.00  0.00    -0.199 C  
HETATM   17  C   UNL     1     -11.120  10.165  69.251  1.00  0.00    -0.225 C  
HETATM   18  O   UNL     1     -10.013  11.062  69.476  1.00  0.00    -0.076 OA 
HETATM   19  H   UNL     1     -11.795  11.526  65.619  1.00  0.00     0.000 HD 
HETATM   20  C   UNL     1     -10.778   9.367  67.971  1.00  0.00    -0.190 C  
HETATM   21  H   UNL     1      -8.214  10.452  65.930  1.00  0.00     0.000 HD 
HETATM   22  O   UNL     1      -9.525   8.656  68.132  1.00  0.00    -0.139 OA 
HETATM   23  C   UNL     1     -10.658  10.296  66.751  1.00  0.00    -0.185 C  
HETATM   24  H   UNL     1      -9.315   8.166  67.345  1.00  0.00     0.000 HD 
HETATM   25  O   UNL     1      -8.265  10.828  66.800  1.00  0.00    -0.126 OA 
HETATM   26  O   UNL     1     -11.870  10.953  66.373  1.00  0.00     0.216 OA 
HETATM   27  C   UNL     1      -9.587  11.364  66.989  1.00  0.00    -0.176 C  
BRANCH  17  28
HETATM   28  O   UNL     1     -12.371  10.870  69.260  1.00  0.00    -0.395 OA 
BRANCH  28  29
HETATM   29  C   UNL     1     -12.637  11.689  70.358  1.00  0.00    -0.132 C  
HETATM   30  O   UNL     1     -12.559  12.105  72.767  1.00  0.00     0.921 OA 
HETATM   31  C   UNL     1     -12.570  11.271  71.646  1.00  0.00    -0.251 C  
HETATM   32  C   UNL     1     -12.775  13.449  72.594  1.00  0.00     0.144 A  
HETATM   33  O   UNL     1     -12.205  13.642  69.146  1.00  0.00    -0.326 OA 
HETATM   34  H   UNL     1     -13.802  15.213  69.202  1.00  0.00     0.000 HD 
HETATM   35  C   UNL     1     -12.751  14.300  73.698  1.00  0.00     0.288 A  
HETATM   36  C   UNL     1     -12.645  13.156  70.181  1.00  0.00    -0.009 C  
HETATM   37  C   UNL     1     -13.047  15.657  73.522  1.00  0.00    -0.516 A  
HETATM   38  C   UNL     1     -13.018  13.989  71.316  1.00  0.00    -0.418 A  
HETATM   39  O   UNL     1     -13.815  15.785  69.960  1.00  0.00     0.529 OA 
HETATM   40  C   UNL     1     -13.432  16.160  72.284  1.00  0.00     0.053 A  
HETATM   41  O   UNL     1     -12.974  16.554  74.548  1.00  0.00    -0.865 OA 
HETATM   42  H   UNL     1     -13.175  17.475  74.429  1.00  0.00     0.000 HD 
HETATM   43  C   UNL     1     -13.412  15.326  71.176  1.00  0.00    -0.489 A  
BRANCH  31  44
HETATM   44  C   UNL     1     -12.387   9.840  71.929  1.00  0.00    -0.417 A  
HETATM   45  O   UNL     1     -11.701   5.748  72.027  1.00  0.00    -0.234 OA 
HETATM   46  H   UNL     1     -14.067   5.726  71.849  1.00  0.00     0.000 HD 
HETATM   47  C   UNL     1     -11.080   9.338  72.083  1.00  0.00     0.006 A  
HETATM   48  H   UNL     1     -10.815   5.416  72.102  1.00  0.00     0.000 HD 
HETATM   49  O   UNL     1     -14.235   6.660  71.822  1.00  0.00    -0.193 OA 
HETATM   50  C   UNL     1     -11.929   7.096  72.045  1.00  0.00    -0.295 A  
HETATM   51  C   UNL     1     -13.229   7.583  71.936  1.00  0.00    -0.245 A  
HETATM   52  C   UNL     1     -13.475   8.953  71.897  1.00  0.00    -0.464 A  
HETATM   53  C   UNL     1     -10.849   7.961  72.138  1.00  0.00    -0.327 A  
ENDBRANCH  31  44
ENDBRANCH  28  29
ENDBRANCH  17  28
ENDBRANCH  15  16
ENDBRANCH  14  15
ENDBRANCH   4  14
TORSDOF 6
ENDMDL
MODEL      194
REMARK 921   NORMALIZED FREE ENERGY PREDICTED BY IDOCK:    5.85 KCAL/MOL
REMARK 922        TOTAL FREE ENERGY PREDICTED BY IDOCK:    6.43 KCAL/MOL
REMARK 923 INTER-LIGAND FREE ENERGY PREDICTED BY IDOCK:   -3.22 KCAL/MOL
REMARK 924 INTRA-LIGAND FREE ENERGY PREDICTED BY IDOCK:    9.64 KCAL/MOL
REMARK 927      BINDING AFFINITY PREDICTED BY RF-SCORE:    0.00 PKD
ROOT
HETATM    1  C   UNL     1     -10.849   6.548  70.152  1.00  0.00    -0.336 C  
HETATM    2  C   UNL     1      -9.892   5.999  69.089  1.00  0.00    -0.148 C  
HETATM    3  O   UNL     1     -10.073   6.869  67.972  1.00  0.00    -0.152 OA 
HETATM    4  C   UNL     1      -9.691   6.458  66.667  1.00  0.00    -0.153 C  
HETATM    5  H   UNL     1      -9.336   2.165  67.965  1.00  0.00     0.000 HD 
HETATM    6  C   UNL     1      -9.958   4.974  66.374  1.00  0.00    -0.226 C  
HETATM    7  C   UNL     1      -9.447   4.099  67.529  1.00  0.00    -0.184 C  
HETATM    8  O   UNL     1      -9.774   3.724  69.952  1.00  0.00    -0.196 OA 
HETATM    9  O   UNL     1     -11.369   4.746  66.190  1.00  0.00    -0.409 OA 
HETATM   10  H   UNL     1     -11.534   3.828  66.010  1.00  0.00     0.000 HD 
HETATM   11  H   UNL     1      -9.949   2.805  69.786  1.00  0.00     0.000 HD 
HETATM   12  O   UNL     1      -9.651   2.706  67.251  1.00  0.00    -0.087 OA 
HETATM   13  C   UNL     1     -10.175   4.509  68.818  1.00  0.00     0.159 C  
ENDROOT
BRANCH   4  14
HETATM   14  O   UNL     1      -8.350   6.779  66.293  1.00  0.00    -0.114 OA 
BRANCH  14  15
HETATM   15  C   UNL     1      -8.110   8.194  66.198  1.00  0.00    -0.109 C  
BRANCH  15  16
HETATM   16  C   UNL     1      -6.926   8.553  67.104  1.00  0.00    -0.075 C  
HETATM   17  C   UNL     1      -7.850  10.011  68.869  1.00  0.00    -0.095 C  
HETATM   18  O   UNL     1      -7.068   9.883  67.662  1.00  0.00    -0.085 OA 
HETATM   19  H   UNL     1      -8.623   6.156  69.062  1.00  0.00     0.000 HD 
HETATM   20  C   UNL     1      -7.200   9.069  69.908  1.00  0.00    -0.058 C  
HETATM   21  H   UNL     1      -4.916   6.701  68.858  1.00  0.00     0.000 HD 
HETATM   22  O   UNL     1      -5.810   9.423  70.120  1.00  0.00    -0.030 OA 
HETATM   23  C   UNL     1      -7.265   7.603  69.448  1.00  0.00    -0.081 C  
HETATM   24  H   UNL     1      -5.411   8.844  70.758  1.00  0.00     0.000 HD 
HETATM   25  O   UNL     1      -5.137   7.393  68.247  1.00  0.00    -0.022 OA 
HETATM   26  O   UNL     1      -8.583   7.062  69.345  1.00  0.00    -0.132 OA 
HETATM   27  C   UNL     1      -6.568   7.430  68.096  1.00  0.00    -0.050 C  
BRANCH  17  28
HETATM   28  O   UNL     1      -9.249   9.819  68.605  1.00  0.00    -0.133 OA 
BRANCH  28  29
HETATM   29  C   UNL     1     -10.026  10.960  68.408  1.00  0.00    -0.178 C  
HETATM   30  O   UNL     1     -11.798  12.478  69.144  1.00  0.00    -0.298 OA 
HETATM   31  C   UNL     1     -11.149  11.241  69.114  1.00  0.00    -0.253 C  
HETATM   32  C   UNL     1     -11.374  13.467  68.294  1.00  0.00    -0.294 A  
HETATM   33  O   UNL     1      -8.253  12.136  67.436  1.00  0.00    -0.157 OA 
HETATM   34  H   UNL     1      -8.661  13.065  65.438  1.00  0.00     0.000 HD 
HETATM   35  C   UNL     1     -11.996  14.715  68.320  1.00  0.00    -0.282 A  
HETATM   36  C   UNL     1      -9.455  12.106  67.669  1.00  0.00    -0.187 C  
HETATM   37  C   UNL     1     -11.608  15.693  67.397  1.00  0.00     0.013 A  
HETATM   38  C   UNL     1     -10.314  13.249  67.391  1.00  0.00    -0.243 A  
HETATM   39  O   UNL     1      -9.108  13.903  65.439  1.00  0.00     0.516 OA 
HETATM   40  C   UNL     1     -10.664  15.425  66.411  1.00  0.00    -0.311 A  
HETATM   41  O   UNL     1     -12.130  16.955  67.415  1.00  0.00     1.266 OA 
HETATM   42  H   UNL     1     -11.866  17.619  66.789  1.00  0.00     0.000 HD 
HETATM   43  C   UNL     1     -10.011  14.202  66.411  1.00  0.00    -0.293 A  
BRANCH  31  44
HETATM   44  C   UNL     1     -11.704  10.222  70.017  1.00  0.00    -0.330 A  
HETATM   45  O   UNL     1     -13.884   7.446  72.200  1.00  0.00    -0.526 OA 
HETATM   46  H   UNL     1     -14.021   9.285  73.692  1.00  0.00     0.000 HD 
HETATM   47  C   UNL     1     -11.866   8.905  69.541  1.00  0.00     0.841 A  
HETATM   48  H   UNL     1     -14.014   6.569  71.859  1.00  0.00     0.000 HD 
HETATM   49  O   UNL     1     -13.527   9.929  73.199  1.00  0.00     0.602 OA 
HETATM   50  C   UNL     1     -13.124   8.343  71.502  1.00  0.00    -0.296 A  
HETATM   51  C   UNL     1     -12.934   9.630  72.002  1.00  0.00    -0.428 A  
HETATM   52  C   UNL     1     -12.209  10.573  71.279  1.00  0.00    -0.472 A  
HETATM   53  C   UNL     1     -12.581   7.964  70.284  1.00  0.00     0.807 A  
ENDBRANCH  31  44
ENDBRANCH  28  29
ENDBRANCH  17  28
ENDBRANCH  15  16
ENDBRANCH  14  15
ENDBRANCH   4  14
TORSDOF 6
ENDMDL
MODEL      195
REMARK 921   NORMALIZED FREE ENERGY PREDICTED BY IDOCK:    5.95 KCAL/MOL
REMARK 922        TOTAL FREE ENERGY PREDICTED BY IDOCK:    6.56 KCAL/MOL
REMARK 923 INTER-LIGAND FREE ENERGY PREDICTED BY IDOCK:    6.95 KCAL/MOL
REMARK 924 INTRA-LIGAND FREE ENERGY PREDICTED BY IDOCK:   -0.39 KCAL/MOL
REMARK 927      BINDING AFFINITY PREDICTED BY RF-SCORE:    0.00 PKD
ROOT
HETATM    1  C   UNL     1     -12.342  14.152  65.924  1.00  0.00    -0.486 C  
HETATM    2  C   UNL     1     -11.024  14.506  66.620  1.00  0.00    -0.321 C  
HETATM    3  O   UNL     1     -11.382  14.650  67.995  1.00  0.00    -0.283 OA 
HETATM    4  C   UNL     1     -10.547  15.376  68.886  1.00  0.00    -0.244 C  
HETATM    5  H   UNL     1      -8.236  17.190  65.478  1.00  0.00     0.000 HD 
HETATM    6  C   UNL     1      -9.890  16.616  68.261  1.00  0.00    -0.253 C  
HETATM    7  C   UNL     1      -9.273  16.267  66.898  1.00  0.00    -0.218 C  
HETATM    8  O   UNL     1      -9.898  15.416  64.661  1.00  0.00    -0.236 OA 
HETATM    9  O   UNL     1     -10.864  17.664  68.089  1.00  0.00    -0.349 OA 
HETATM   10  H   UNL     1     -10.458  18.430  67.702  1.00  0.00     0.000 HD 
HETATM   11  H   UNL     1      -9.502  16.182  64.261  1.00  0.00     0.000 HD 
HETATM   12  O   UNL     1      -8.618  17.405  66.320  1.00  0.00    -0.350 OA 
HETATM   13  C   UNL     1     -10.383  15.748  65.971  1.00  0.00    -0.340 C  
ENDROOT
BRANCH   4  14
HETATM   14  O   UNL     1      -9.550  14.602  69.557  1.00  0.00    -0.016 OA 
BRANCH  14  15
HETATM   15  C   UNL     1      -9.255  13.359  68.894  1.00  0.00     0.244 C  
BRANCH  15  16
HETATM   16  C   UNL     1      -7.762  13.331  68.547  1.00  0.00    -0.120 C  
HETATM   17  C   UNL     1      -7.044  10.991  68.865  1.00  0.00    -0.098 C  
HETATM   18  O   UNL     1      -7.049  12.352  69.344  1.00  0.00     0.003 OA 
HETATM   19  H   UNL     1      -9.192  11.851  65.679  1.00  0.00     0.000 HD 
HETATM   20  C   UNL     1      -6.457  11.037  67.435  1.00  0.00    -0.067 C  
HETATM   21  H   UNL     1      -6.171  14.072  65.814  1.00  0.00     0.000 HD 
HETATM   22  O   UNL     1      -5.127  11.615  67.448  1.00  0.00    -0.050 OA 
HETATM   23  C   UNL     1      -7.342  11.872  66.496  1.00  0.00     0.175 C  
HETATM   24  H   UNL     1      -4.766  11.643  66.570  1.00  0.00     0.000 HD 
HETATM   25  O   UNL     1      -6.333  14.092  66.750  1.00  0.00     0.637 OA 
HETATM   26  O   UNL     1      -8.645  11.335  66.260  1.00  0.00    -0.175 OA 
HETATM   27  C   UNL     1      -7.500  13.298  67.029  1.00  0.00     0.220 C  
BRANCH  17  28
HETATM   28  O   UNL     1      -8.336  10.382  69.016  1.00  0.00    -0.130 OA 
BRANCH  28  29
HETATM   29  C   UNL     1      -8.379   8.993  69.141  1.00  0.00    -0.123 C  
HETATM   30  O   UNL     1      -9.049   6.802  68.285  1.00  0.00    -0.126 OA 
HETATM   31  C   UNL     1      -9.169   8.190  68.386  1.00  0.00    -0.135 C  
HETATM   32  C   UNL     1      -8.166   6.153  69.111  1.00  0.00    -0.113 A  
HETATM   33  O   UNL     1      -6.260   8.906  70.128  1.00  0.00    -0.035 OA 
HETATM   34  H   UNL     1      -6.120   7.802  72.072  1.00  0.00     0.000 HD 
HETATM   35  C   UNL     1      -8.020   4.770  69.015  1.00  0.00    -0.075 A  
HETATM   36  C   UNL     1      -7.287   8.298  69.854  1.00  0.00    -0.064 C  
HETATM   37  C   UNL     1      -7.174   4.107  69.912  1.00  0.00    -0.046 A  
HETATM   38  C   UNL     1      -7.399   6.859  70.057  1.00  0.00    -0.082 A  
HETATM   39  O   UNL     1      -6.046   6.856  72.024  1.00  0.00    -0.038 OA 
HETATM   40  C   UNL     1      -6.531   4.789  70.939  1.00  0.00    -0.030 A  
HETATM   41  O   UNL     1      -6.934   2.765  69.827  1.00  0.00    -0.034 OA 
HETATM   42  H   UNL     1      -6.360   2.316  70.436  1.00  0.00     0.000 HD 
HETATM   43  C   UNL     1      -6.639   6.169  71.010  1.00  0.00    -0.050 A  
BRANCH  31  44
HETATM   44  C   UNL     1     -10.177   8.797  67.505  1.00  0.00    -0.309 A  
HETATM   45  O   UNL     1     -12.521  11.012  64.893  1.00  0.00     1.254 OA 
HETATM   46  H   UNL     1     -13.377  11.832  66.948  1.00  0.00     0.000 HD 
HETATM   47  C   UNL     1     -10.063   8.615  66.112  1.00  0.00    -0.106 A  
HETATM   48  H   UNL     1     -12.418  10.906  63.955  1.00  0.00     0.000 HD 
HETATM   49  O   UNL     1     -12.843  11.332  67.555  1.00  0.00     2.105 OA 
HETATM   50  C   UNL     1     -11.783  10.245  65.751  1.00  0.00     2.772 A  
HETATM   51  C   UNL     1     -11.934  10.401  67.127  1.00  0.00     2.233 A  
HETATM   52  C   UNL     1     -11.151   9.668  68.016  1.00  0.00    -0.108 A  
HETATM   53  C   UNL     1     -10.866   9.344  65.233  1.00  0.00     2.515 A  
ENDBRANCH  31  44
ENDBRANCH  28  29
ENDBRANCH  17  28
ENDBRANCH  15  16
ENDBRANCH  14  15
ENDBRANCH   4  14
TORSDOF 6
ENDMDL
MODEL      196
REMARK 921   NORMALIZED FREE ENERGY PREDICTED BY IDOCK:    6.41 KCAL/MOL
REMARK 922        TOTAL FREE ENERGY PREDICTED BY IDOCK:    7.18 KCAL/MOL
REMARK 923 INTER-LIGAND FREE ENERGY PREDICTED BY IDOCK:    4.14 KCAL/MOL
REMARK 924 INTRA-LIGAND FREE ENERGY PREDICTED BY IDOCK:    3.03 KCAL/MOL
REMARK 927      BINDING AFFINITY PREDICTED BY RF-SCORE:    0.00 PKD
ROOT
HETATM    1  C   UNL     1     -12.344  15.014  69.708  1.00  0.00    -0.278 C  
HETATM    2  C   UNL     1     -11.681  13.929  68.854  1.00  0.00    -0.337 C  
HETATM    3  O   UNL     1     -12.760  13.359  68.112  1.00  0.00     0.453 OA 
HETATM    4  C   UNL     1     -12.634  12.068  67.533  1.00  0.00     1.846 C  
HETATM    5  H   UNL     1      -8.973  11.161  69.986  1.00  0.00     0.000 HD 
HETATM    6  C   UNL     1     -11.848  11.068  68.395  1.00  0.00    -0.184 C  
HETATM    7  C   UNL     1     -10.545  11.704  68.901  1.00  0.00    -0.193 C  
HETATM    8  O   UNL     1      -9.731  13.594  70.275  1.00  0.00     1.603 OA 
HETATM    9  O   UNL     1     -12.642  10.646  69.520  1.00  0.00    -0.619 OA 
HETATM   10  H   UNL     1     -12.156  10.028  70.053  1.00  0.00     0.000 HD 
HETATM   11  H   UNL     1      -9.246  12.986  70.821  1.00  0.00     0.000 HD 
HETATM   12  O   UNL     1      -9.778  10.768  69.673  1.00  0.00    -0.080 OA 
HETATM   13  C   UNL     1     -10.894  12.944  69.739  1.00  0.00     0.487 C  
ENDROOT
BRANCH   4  14
HETATM   14  O   UNL     1     -12.124  12.044  66.199  1.00  0.00    -0.582 OA 
BRANCH  14  15
HETATM   15  C   UNL     1     -11.091  13.017  65.967  1.00  0.00    -0.278 C  
BRANCH  15  16
HETATM   16  C   UNL     1     -11.724  14.414  65.965  1.00  0.00    -0.375 C  
HETATM   17  C   UNL     1      -9.843  16.003  66.131  1.00  0.00    -0.325 C  
HETATM   18  O   UNL     1     -10.959  15.346  66.768  1.00  0.00    -0.314 OA 
HETATM   19  H   UNL     1     -10.445  14.202  62.682  1.00  0.00     0.000 HD 
HETATM   20  C   UNL     1     -10.417  16.723  64.888  1.00  0.00     0.274 C  
HETATM   21  H   UNL     1     -13.589  15.930  63.780  1.00  0.00     0.000 HD 
HETATM   22  O   UNL     1     -11.453  17.661  65.275  1.00  0.00     0.351 OA 
HETATM   23  C   UNL     1     -11.016  15.719  63.890  1.00  0.00     1.264 C  
HETATM   24  H   UNL     1     -11.805  18.103  64.512  1.00  0.00     0.000 HD 
HETATM   25  O   UNL     1     -13.346  15.636  64.650  1.00  0.00     0.784 OA 
HETATM   26  O   UNL     1     -10.074  14.822  63.299  1.00  0.00     4.626 OA 
HETATM   27  C   UNL     1     -12.119  14.890  64.554  1.00  0.00    -0.407 C  
BRANCH  17  28
HETATM   28  O   UNL     1      -8.760  15.087  65.906  1.00  0.00     0.079 OA 
BRANCH  28  29
HETATM   29  C   UNL     1      -7.944  14.780  66.995  1.00  0.00    -0.104 C  
HETATM   30  O   UNL     1      -6.986  15.372  69.167  1.00  0.00    -0.130 OA 
HETATM   31  C   UNL     1      -7.563  15.682  67.933  1.00  0.00    -0.131 C  
HETATM   32  C   UNL     1      -6.631  14.071  69.422  1.00  0.00    -0.118 A  
HETATM   33  O   UNL     1      -8.483  12.506  66.898  1.00  0.00    -0.186 OA 
HETATM   34  H   UNL     1      -6.754  11.083  66.828  1.00  0.00     0.000 HD 
HETATM   35  C   UNL     1      -6.069  13.737  70.654  1.00  0.00    -0.107 A  
HETATM   36  C   UNL     1      -7.758  13.366  67.383  1.00  0.00    -0.137 C  
HETATM   37  C   UNL     1      -5.641  12.424  70.878  1.00  0.00    -0.109 A  
HETATM   38  C   UNL     1      -6.828  13.060  68.462  1.00  0.00    -0.095 A  
HETATM   39  O   UNL     1      -6.344  10.866  67.657  1.00  0.00    -0.054 OA 
HETATM   40  C   UNL     1      -5.701  11.462  69.875  1.00  0.00    -0.100 A  
HETATM   41  O   UNL     1      -5.146  12.017  72.083  1.00  0.00    -0.347 OA 
HETATM   42  H   UNL     1      -4.856  11.126  72.235  1.00  0.00     0.000 HD 
HETATM   43  C   UNL     1      -6.301  11.778  68.665  1.00  0.00    -0.057 A  
BRANCH  31  44
HETATM   44  C   UNL     1      -7.859  17.107  67.722  1.00  0.00    -0.189 A  
HETATM   45  O   UNL     1      -7.982  21.221  67.194  1.00  0.00    -0.693 OA 
HETATM   46  H   UNL     1      -8.575  21.122  69.489  1.00  0.00     0.000 HD 
HETATM   47  C   UNL     1      -7.616  17.673  66.455  1.00  0.00    -0.322 A  
HETATM   48  H   UNL     1      -7.789  21.597  66.344  1.00  0.00     0.000 HD 
HETATM   49  O   UNL     1      -8.547  20.182  69.621  1.00  0.00     0.416 OA 
HETATM   50  C   UNL     1      -7.990  19.863  67.353  1.00  0.00    -0.289 A  
HETATM   51  C   UNL     1      -8.275  19.311  68.600  1.00  0.00    -0.373 A  
HETATM   52  C   UNL     1      -8.233  17.933  68.794  1.00  0.00    -0.231 A  
HETATM   53  C   UNL     1      -7.678  19.055  66.270  1.00  0.00    -0.295 A  
ENDBRANCH  31  44
ENDBRANCH  28  29
ENDBRANCH  17  28
ENDBRANCH  15  16
ENDBRANCH  14  15
ENDBRANCH   4  14
TORSDOF 6
ENDMDL
MODEL      197
REMARK 921   NORMALIZED FREE ENERGY PREDICTED BY IDOCK:    6.99 KCAL/MOL
REMARK 922        TOTAL FREE ENERGY PREDICTED BY IDOCK:    7.96 KCAL/MOL
REMARK 923 INTER-LIGAND FREE ENERGY PREDICTED BY IDOCK:   -0.47 KCAL/MOL
REMARK 924 INTRA-LIGAND FREE ENERGY PREDICTED BY IDOCK:    8.43 KCAL/MOL
REMARK 927      BINDING AFFINITY PREDICTED BY RF-SCORE:    0.00 PKD
ROOT
HETATM    1  C   UNL     1      -8.873  13.562  67.811  1.00  0.00    -0.198 C  
HETATM    2  C   UNL     1      -9.708  13.040  68.984  1.00  0.00     0.342 C  
HETATM    3  O   UNL     1      -9.554  11.621  68.919  1.00  0.00    -0.123 OA 
HETATM    4  C   UNL     1     -10.490  10.764  69.557  1.00  0.00    -0.170 C  
HETATM    5  H   UNL     1     -13.438  14.123  70.077  1.00  0.00     0.000 HD 
HETATM    6  C   UNL     1     -11.943  11.256  69.483  1.00  0.00    -0.351 C  
HETATM    7  C   UNL     1     -12.028  12.741  69.864  1.00  0.00    -0.298 C  
HETATM    8  O   UNL     1     -11.195  14.961  69.160  1.00  0.00    -0.251 OA 
HETATM    9  O   UNL     1     -12.465  11.074  68.152  1.00  0.00    -0.419 OA 
HETATM   10  H   UNL     1     -13.363  11.378  68.106  1.00  0.00     0.000 HD 
HETATM   11  H   UNL     1     -12.089  15.277  69.102  1.00  0.00     0.000 HD 
HETATM   12  O   UNL     1     -13.385  13.204  69.841  1.00  0.00     1.003 OA 
HETATM   13  C   UNL     1     -11.159  13.551  68.890  1.00  0.00    -0.267 C  
ENDROOT
BRANCH   4  14
HETATM   14  O   UNL     1     -10.178  10.416  70.907  1.00  0.00     0.424 OA 
BRANCH  14  15
HETATM   15  C   UNL     1      -9.668   9.078  71.045  1.00  0.00    -0.278 C  
BRANCH  15  16
HETATM   16  C   UNL     1      -8.151   9.150  71.259  1.00  0.00    -0.015 C  
HETATM   17  C   UNL     1      -7.491   6.937  72.131  1.00  0.00    -0.091 C  
HETATM   18  O   UNL     1      -7.734   8.337  72.384  1.00  0.00    -0.118 OA 
HETATM   19  H   UNL     1      -8.366   7.232  68.303  1.00  0.00     0.000 HD 
HETATM   20  C   UNL     1      -6.425   6.878  71.012  1.00  0.00    -0.044 C  
HETATM   21  H   UNL     1      -5.709   9.727  69.197  1.00  0.00     0.000 HD 
HETATM   22  O   UNL     1      -5.220   7.575  71.417  1.00  0.00    -0.027 OA 
HETATM   23  C   UNL     1      -6.944   7.517  69.713  1.00  0.00    -0.055 C  
HETATM   24  H   UNL     1      -4.566   7.539  70.730  1.00  0.00     0.000 HD 
HETATM   25  O   UNL     1      -6.202   9.836  70.002  1.00  0.00    -0.047 OA 
HETATM   26  O   UNL     1      -8.045   6.838  69.106  1.00  0.00    -0.117 OA 
HETATM   27  C   UNL     1      -7.352   8.973  69.954  1.00  0.00    -0.060 C  
BRANCH  17  28
HETATM   28  O   UNL     1      -8.719   6.231  71.894  1.00  0.00    -0.135 OA 
BRANCH  28  29
HETATM   29  C   UNL     1      -8.741   5.320  70.838  1.00  0.00    -0.132 C  
HETATM   30  O   UNL     1      -9.649   4.574  68.692  1.00  0.00    -0.148 OA 
HETATM   31  C   UNL     1      -9.720   5.271  69.901  1.00  0.00    -0.193 C  
HETATM   32  C   UNL     1      -8.577   3.748  68.468  1.00  0.00    -0.095 A  
HETATM   33  O   UNL     1      -6.431   4.969  70.948  1.00  0.00    -0.025 OA 
HETATM   34  H   UNL     1      -5.762   2.836  71.098  1.00  0.00     0.000 HD 
HETATM   35  C   UNL     1      -8.479   3.056  67.261  1.00  0.00    -0.103 A  
HETATM   36  C   UNL     1      -7.500   4.602  70.477  1.00  0.00    -0.053 C  
HETATM   37  C   UNL     1      -7.422   2.158  67.071  1.00  0.00    -0.061 A  
HETATM   38  C   UNL     1      -7.566   3.586  69.435  1.00  0.00    -0.051 A  
HETATM   39  O   UNL     1      -5.715   2.343  70.287  1.00  0.00    -0.016 OA 
HETATM   40  C   UNL     1      -6.508   1.889  68.085  1.00  0.00    -0.029 A  
HETATM   41  O   UNL     1      -7.231   1.502  65.889  1.00  0.00    -0.052 OA 
HETATM   42  H   UNL     1      -6.514   0.892  65.760  1.00  0.00     0.000 HD 
HETATM   43  C   UNL     1      -6.577   2.609  69.268  1.00  0.00    -0.033 A  
BRANCH  31  44
HETATM   44  C   UNL     1     -10.929   6.088  70.082  1.00  0.00    -0.429 A  
HETATM   45  O   UNL     1     -13.882   8.918  70.786  1.00  0.00    -0.475 OA 
HETATM   46  H   UNL     1     -14.000   7.737  72.840  1.00  0.00     0.000 HD 
HETATM   47  C   UNL     1     -11.273   7.025  69.087  1.00  0.00    -0.079 A  
HETATM   48  H   UNL     1     -14.089   9.564  70.122  1.00  0.00     0.000 HD 
HETATM   49  O   UNL     1     -13.323   7.087  72.691  1.00  0.00     0.491 OA 
HETATM   50  C   UNL     1     -12.944   7.956  70.532  1.00  0.00     0.675 A  
HETATM   51  C   UNL     1     -12.641   7.007  71.506  1.00  0.00    -0.385 A  
HETATM   52  C   UNL     1     -11.649   6.055  71.286  1.00  0.00    -0.186 A  
HETATM   53  C   UNL     1     -12.282   7.964  69.314  1.00  0.00     2.209 A  
ENDBRANCH  31  44
ENDBRANCH  28  29
ENDBRANCH  17  28
ENDBRANCH  15  16
ENDBRANCH  14  15
ENDBRANCH   4  14
TORSDOF 6
ENDMDL
MODEL      198
REMARK 921   NORMALIZED FREE ENERGY PREDICTED BY IDOCK:    7.49 KCAL/MOL
REMARK 922        TOTAL FREE ENERGY PREDICTED BY IDOCK:    8.64 KCAL/MOL
REMARK 923 INTER-LIGAND FREE ENERGY PREDICTED BY IDOCK:   -0.12 KCAL/MOL
REMARK 924 INTRA-LIGAND FREE ENERGY PREDICTED BY IDOCK:    8.76 KCAL/MOL
REMARK 927      BINDING AFFINITY PREDICTED BY RF-SCORE:    0.00 PKD
ROOT
HETATM    1  C   UNL     1      -7.860  13.566  69.612  1.00  0.00     0.930 C  
HETATM    2  C   UNL     1      -7.697  12.126  69.116  1.00  0.00     0.234 C  
HETATM    3  O   UNL     1      -8.894  11.472  69.540  1.00  0.00     0.487 OA 
HETATM    4  C   UNL     1      -8.943  10.057  69.646  1.00  0.00    -0.202 C  
HETATM    5  H   UNL     1      -4.462   9.733  69.406  1.00  0.00     0.000 HD 
HETATM    6  C   UNL     1      -7.645   9.420  70.166  1.00  0.00    -0.130 C  
HETATM    7  C   UNL     1      -6.431   9.994  69.421  1.00  0.00    -0.048 C  
HETATM    8  O   UNL     1      -5.264  12.134  69.000  1.00  0.00    -0.055 OA 
HETATM    9  O   UNL     1      -7.499   9.666  71.578  1.00  0.00    -0.240 OA 
HETATM   10  H   UNL     1      -6.697   9.273  71.900  1.00  0.00     0.000 HD 
HETATM   11  H   UNL     1      -4.455  11.756  69.326  1.00  0.00     0.000 HD 
HETATM   12  O   UNL     1      -5.213   9.378  69.866  1.00  0.00    -0.032 OA 
HETATM   13  C   UNL     1      -6.386  11.513  69.646  1.00  0.00    -0.133 C  
ENDROOT
BRANCH   4  14
HETATM   14  O   UNL     1      -9.366   9.370  68.466  1.00  0.00    -0.137 OA 
BRANCH  14  15
HETATM   15  C   UNL     1     -10.465   8.471  68.696  1.00  0.00    -0.169 C  
BRANCH  15  16
HETATM   16  C   UNL     1      -9.904   7.106  69.112  1.00  0.00    -0.160 C  
HETATM   17  C   UNL     1      -9.917   5.724  67.067  1.00  0.00    -0.165 C  
HETATM   18  O   UNL     1     -10.504   6.029  68.349  1.00  0.00    -0.188 OA 
HETATM   19  H   UNL     1      -7.159   8.515  67.397  1.00  0.00     0.000 HD 
HETATM   20  C   UNL     1      -8.426   5.413  67.337  1.00  0.00    -0.106 C  
HETATM   21  H   UNL     1      -7.042   6.251  70.387  1.00  0.00     0.000 HD 
HETATM   22  O   UNL     1      -8.295   4.313  68.272  1.00  0.00    -0.091 OA 
HETATM   23  C   UNL     1      -7.698   6.636  67.918  1.00  0.00    -0.108 C  
HETATM   24  H   UNL     1      -7.379   4.123  68.438  1.00  0.00     0.000 HD 
HETATM   25  O   UNL     1      -7.989   6.257  70.323  1.00  0.00    -0.107 OA 
HETATM   26  O   UNL     1      -7.609   7.759  67.038  1.00  0.00    -0.096 OA 
HETATM   27  C   UNL     1      -8.367   7.096  69.216  1.00  0.00    -0.133 C  
BRANCH  17  28
HETATM   28  O   UNL     1     -10.201   6.753  66.107  1.00  0.00     0.104 OA 
BRANCH  28  29
HETATM   29  C   UNL     1      -9.113   7.380  65.499  1.00  0.00     0.211 C  
HETATM   30  O   UNL     1      -7.411   7.455  63.744  1.00  0.00    -0.076 OA 
HETATM   31  C   UNL     1      -8.325   6.792  64.566  1.00  0.00     0.080 C  
HETATM   32  C   UNL     1      -7.162   8.786  63.971  1.00  0.00    -0.095 A  
HETATM   33  O   UNL     1      -9.943   9.517  65.967  1.00  0.00    -0.278 OA 
HETATM   34  H   UNL     1      -8.538  10.915  67.012  1.00  0.00     0.000 HD 
HETATM   35  C   UNL     1      -6.266   9.471  63.152  1.00  0.00    -0.102 A  
HETATM   36  C   UNL     1      -8.992   8.851  65.576  1.00  0.00    -0.197 C  
HETATM   37  C   UNL     1      -5.962  10.807  63.437  1.00  0.00     0.082 A  
HETATM   38  C   UNL     1      -7.800   9.478  65.019  1.00  0.00    -0.117 A  
HETATM   39  O   UNL     1      -7.904  11.370  66.470  1.00  0.00    -0.153 OA 
HETATM   40  C   UNL     1      -6.480  11.444  64.559  1.00  0.00     1.842 A  
HETATM   41  O   UNL     1      -5.146  11.552  62.635  1.00  0.00    -0.354 OA 
HETATM   42  H   UNL     1      -4.940  12.459  62.828  1.00  0.00     0.000 HD 
HETATM   43  C   UNL     1      -7.407  10.781  65.350  1.00  0.00     0.063 A  
BRANCH  31  44
HETATM   44  C   UNL     1      -8.488   5.357  64.289  1.00  0.00    -0.092 A  
HETATM   45  O   UNL     1      -8.806   1.487  62.824  1.00  0.00    -0.073 OA 
HETATM   46  H   UNL     1     -11.109   2.050  62.893  1.00  0.00     0.000 HD 
HETATM   47  C   UNL     1      -7.338   4.561  64.116  1.00  0.00    -0.059 A  
HETATM   48  H   UNL     1      -8.024   0.967  62.682  1.00  0.00     0.000 HD 
HETATM   49  O   UNL     1     -11.048   2.938  63.224  1.00  0.00    -0.230 OA 
HETATM   50  C   UNL     1      -8.702   2.744  63.353  1.00  0.00    -0.085 A  
HETATM   51  C   UNL     1      -9.848   3.507  63.562  1.00  0.00    -0.154 A  
HETATM   52  C   UNL     1      -9.757   4.808  64.049  1.00  0.00     0.276 A  
HETATM   53  C   UNL     1      -7.445   3.252  63.643  1.00  0.00    -0.062 A  
ENDBRANCH  31  44
ENDBRANCH  28  29
ENDBRANCH  17  28
ENDBRANCH  15  16
ENDBRANCH  14  15
ENDBRANCH   4  14
TORSDOF 6
ENDMDL
MODEL      199
REMARK 921   NORMALIZED FREE ENERGY PREDICTED BY IDOCK:    8.12 KCAL/MOL
REMARK 922        TOTAL FREE ENERGY PREDICTED BY IDOCK:    9.48 KCAL/MOL
REMARK 923 INTER-LIGAND FREE ENERGY PREDICTED BY IDOCK:   -0.68 KCAL/MOL
REMARK 924 INTRA-LIGAND FREE ENERGY PREDICTED BY IDOCK:   10.16 KCAL/MOL
REMARK 927      BINDING AFFINITY PREDICTED BY RF-SCORE:    0.00 PKD
ROOT
HETATM    1  C   UNL     1      -6.849   3.990  73.770  1.00  0.00    -0.058 C  
HETATM    2  C   UNL     1      -7.208   5.194  72.894  1.00  0.00    -0.089 C  
HETATM    3  O   UNL     1      -5.966   5.873  72.705  1.00  0.00    -0.035 OA 
HETATM    4  C   UNL     1      -5.942   7.238  72.314  1.00  0.00    -0.040 C  
HETATM    5  H   UNL     1     -10.299   7.753  73.308  1.00  0.00     0.000 HD 
HETATM    6  C   UNL     1      -7.049   8.092  72.949  1.00  0.00    -0.106 C  
HETATM    7  C   UNL     1      -8.407   7.385  72.830  1.00  0.00    -0.113 C  
HETATM    8  O   UNL     1      -9.563   5.305  73.507  1.00  0.00    -0.133 OA 
HETATM    9  O   UNL     1      -6.758   8.334  74.340  1.00  0.00    -0.125 OA 
HETATM   10  H   UNL     1      -7.443   8.862  74.733  1.00  0.00     0.000 HD 
HETATM   11  H   UNL     1     -10.252   5.821  73.911  1.00  0.00     0.000 HD 
HETATM   12  O   UNL     1      -9.460   8.190  73.381  1.00  0.00    -0.262 OA 
HETATM   13  C   UNL     1      -8.324   6.030  73.549  1.00  0.00    -0.116 C  
ENDROOT
BRANCH   4  14
HETATM   14  O   UNL     1      -5.918   7.470  70.904  1.00  0.00    -0.034 OA 
BRANCH  14  15
HETATM   15  C   UNL     1      -5.311   8.724  70.545  1.00  0.00    -0.020 C  
BRANCH  15  16
HETATM   16  C   UNL     1      -5.173   8.783  69.019  1.00  0.00    -0.036 C  
HETATM   17  C   UNL     1      -6.765   7.116  68.137  1.00  0.00    -0.061 C  
HETATM   18  O   UNL     1      -5.398   7.486  68.414  1.00  0.00    -0.024 OA 
HETATM   19  H   UNL     1      -8.214  10.502  69.531  1.00  0.00     0.000 HD 
HETATM   20  C   UNL     1      -7.339   8.230  67.229  1.00  0.00    -0.089 C  
HETATM   21  H   UNL     1      -5.625  11.210  66.909  1.00  0.00     0.000 HD 
HETATM   22  O   UNL     1      -6.552   8.356  66.018  1.00  0.00    -0.052 OA 
HETATM   23  C   UNL     1      -7.346   9.588  67.950  1.00  0.00    -0.083 C  
HETATM   24  H   UNL     1      -6.905   9.040  65.460  1.00  0.00     0.000 HD 
HETATM   25  O   UNL     1      -5.158  10.479  67.294  1.00  0.00    -0.039 OA 
HETATM   26  O   UNL     1      -8.209   9.662  69.086  1.00  0.00    -0.107 OA 
HETATM   27  C   UNL     1      -5.932   9.970  68.395  1.00  0.00    -0.042 C  
BRANCH  17  28
HETATM   28  O   UNL     1      -7.483   6.834  69.348  1.00  0.00    -0.089 OA 
BRANCH  28  29
HETATM   29  C   UNL     1      -8.805   7.274  69.427  1.00  0.00    -0.137 C  
HETATM   30  O   UNL     1     -11.206   6.811  69.363  1.00  0.00    -0.268 OA 
HETATM   31  C   UNL     1      -9.873   6.527  69.053  1.00  0.00    -0.143 C  
HETATM   32  C   UNL     1     -11.504   8.006  69.968  1.00  0.00     0.070 A  
HETATM   33  O   UNL     1      -8.292   8.870  71.058  1.00  0.00    -0.160 OA 
HETATM   34  H   UNL     1      -8.960  10.966  70.633  1.00  0.00     0.000 HD 
HETATM   35  C   UNL     1     -12.825   8.301  70.300  1.00  0.00     1.181 A  
HETATM   36  C   UNL     1      -9.129   8.442  70.272  1.00  0.00    -0.148 C  
HETATM   37  C   UNL     1     -13.131   9.553  70.848  1.00  0.00    -0.109 A  
HETATM   38  C   UNL     1     -10.496   8.944  70.265  1.00  0.00    -0.239 A  
HETATM   39  O   UNL     1      -9.866  11.176  70.830  1.00  0.00     2.327 OA 
HETATM   40  C   UNL     1     -12.155  10.532  71.004  1.00  0.00    -0.492 A  
HETATM   41  O   UNL     1     -14.392   9.878  71.257  1.00  0.00     0.313 OA 
HETATM   42  H   UNL     1     -14.599  10.727  71.629  1.00  0.00     0.000 HD 
HETATM   43  C   UNL     1     -10.834  10.226  70.717  1.00  0.00    -0.045 A  
BRANCH  31  44
HETATM   44  C   UNL     1      -9.651   5.252  68.356  1.00  0.00    -0.176 A  
HETATM   45  O   UNL     1      -9.731   1.550  66.483  1.00  0.00    -0.284 OA 
HETATM   46  H   UNL     1      -8.956   0.870  68.619  1.00  0.00     0.000 HD 
HETATM   47  C   UNL     1     -10.015   5.145  66.999  1.00  0.00    -0.222 A  
HETATM   48  H   UNL     1     -10.006   1.482  65.576  1.00  0.00     0.000 HD 
HETATM   49  O   UNL     1      -8.937   1.712  69.058  1.00  0.00    -0.072 OA 
HETATM   50  C   UNL     1      -9.658   2.776  67.082  1.00  0.00     0.117 A  
HETATM   51  C   UNL     1      -9.255   2.877  68.412  1.00  0.00    -0.189 A  
HETATM   52  C   UNL     1      -9.227   4.111  69.055  1.00  0.00    -0.213 A  
HETATM   53  C   UNL     1     -10.022   3.903  66.361  1.00  0.00    -0.041 A  
ENDBRANCH  31  44
ENDBRANCH  28  29
ENDBRANCH  17  28
ENDBRANCH  15  16
ENDBRANCH  14  15
ENDBRANCH   4  14
TORSDOF 6
ENDMDL
MODEL      200
REMARK 921   NORMALIZED FREE ENERGY PREDICTED BY IDOCK:    8.33 KCAL/MOL
REMARK 922        TOTAL FREE ENERGY PREDICTED BY IDOCK:    9.77 KCAL/MOL
REMARK 923 INTER-LIGAND FREE ENERGY PREDICTED BY IDOCK:   -2.57 KCAL/MOL
REMARK 924 INTRA-LIGAND FREE ENERGY PREDICTED BY IDOCK:   12.34 KCAL/MOL
REMARK 927      BINDING AFFINITY PREDICTED BY RF-SCORE:    0.00 PKD
ROOT
HETATM    1  C   UNL     1     -11.876   9.821  67.771  1.00  0.00     1.913 C  
HETATM    2  C   UNL     1     -10.934   8.675  68.156  1.00  0.00     0.173 C  
HETATM    3  O   UNL     1     -10.306   8.311  66.927  1.00  0.00    -0.298 OA 
HETATM    4  C   UNL     1      -9.694   7.037  66.779  1.00  0.00    -0.184 C  
HETATM    5  H   UNL     1     -11.714   5.473  70.482  1.00  0.00     0.000 HD 
HETATM    6  C   UNL     1     -10.446   5.895  67.479  1.00  0.00    -0.243 C  
HETATM    7  C   UNL     1     -10.818   6.297  68.914  1.00  0.00    -0.333 C  
HETATM    8  O   UNL     1     -12.127   7.983  70.164  1.00  0.00    -0.334 OA 
HETATM    9  O   UNL     1     -11.644   5.565  66.750  1.00  0.00     0.212 OA 
HETATM   10  H   UNL     1     -12.109   4.859  67.182  1.00  0.00     0.000 HD 
HETATM   11  H   UNL     1     -12.606   7.287  70.599  1.00  0.00     0.000 HD 
HETATM   12  O   UNL     1     -11.484   5.224  69.595  1.00  0.00     0.889 OA 
HETATM   13  C   UNL     1     -11.711   7.546  68.861  1.00  0.00     1.157 C  
ENDROOT
BRANCH   4  14
HETATM   14  O   UNL     1      -8.311   6.979  67.134  1.00  0.00    -0.119 OA 
BRANCH  14  15
HETATM   15  C   UNL     1      -7.615   8.218  66.912  1.00  0.00    -0.092 C  
BRANCH  15  16
HETATM   16  C   UNL     1      -7.497   8.451  65.401  1.00  0.00    -0.085 C  
HETATM   17  C   UNL     1      -9.457   9.817  64.779  1.00  0.00    -0.251 C  
HETATM   18  O   UNL     1      -8.801   8.532  64.773  1.00  0.00    -0.090 OA 
HETATM   19  H   UNL     1      -6.500  11.583  66.688  1.00  0.00     0.000 HD 
HETATM   20  C   UNL     1      -8.480  10.805  64.099  1.00  0.00     0.017 C  
HETATM   21  H   UNL     1      -5.190   9.876  63.615  1.00  0.00     0.000 HD 
HETATM   22  O   UNL     1      -8.160  10.363  62.756  1.00  0.00    -0.147 OA 
HETATM   23  C   UNL     1      -7.170  10.931  64.895  1.00  0.00     0.393 C  
HETATM   24  H   UNL     1      -7.560  10.970  62.338  1.00  0.00     0.000 HD 
HETATM   25  O   UNL     1      -5.807   9.190  63.836  1.00  0.00    -0.070 OA 
HETATM   26  O   UNL     1      -7.310  11.505  66.196  1.00  0.00     0.042 OA 
HETATM   27  C   UNL     1      -6.495   9.565  65.043  1.00  0.00    -0.084 C  
BRANCH  17  28
HETATM   28  O   UNL     1      -9.913  10.161  66.096  1.00  0.00    -0.220 OA 
BRANCH  28  29
HETATM   29  C   UNL     1      -9.994  11.518  66.413  1.00  0.00    -0.209 C  
HETATM   30  O   UNL     1      -9.150  13.473  67.615  1.00  0.00    -0.186 OA 
HETATM   31  C   UNL     1      -9.313  12.098  67.431  1.00  0.00    -0.181 C  
HETATM   32  C   UNL     1      -9.838  14.336  66.799  1.00  0.00    -0.270 A  
HETATM   33  O   UNL     1     -10.711  12.090  64.261  1.00  0.00    -0.288 OA 
HETATM   34  H   UNL     1     -12.584  13.313  64.136  1.00  0.00     0.000 HD 
HETATM   35  C   UNL     1      -9.676  15.712  66.955  1.00  0.00    -0.240 A  
HETATM   36  C   UNL     1     -10.543  12.461  65.416  1.00  0.00    -0.284 C  
HETATM   37  C   UNL     1     -10.439  16.584  66.170  1.00  0.00    -0.294 A  
HETATM   38  C   UNL     1     -10.708  13.857  65.800  1.00  0.00    -0.289 A  
HETATM   39  O   UNL     1     -12.493  14.250  64.266  1.00  0.00    -0.657 OA 
HETATM   40  C   UNL     1     -11.404  16.109  65.288  1.00  0.00     0.060 A  
HETATM   41  O   UNL     1     -10.278  17.939  66.225  1.00  0.00    -0.349 OA 
HETATM   42  H   UNL     1     -10.796  18.531  65.692  1.00  0.00     0.000 HD 
HETATM   43  C   UNL     1     -11.536  14.741  65.098  1.00  0.00    -0.371 A  
BRANCH  31  44
HETATM   44  C   UNL     1      -8.583  11.249  68.384  1.00  0.00    -0.155 A  
HETATM   45  O   UNL     1      -6.822   9.271  71.579  1.00  0.00    -0.260 OA 
HETATM   46  H   UNL     1      -5.005  10.663  70.955  1.00  0.00     0.000 HD 
HETATM   47  C   UNL     1      -9.286  10.244  69.078  1.00  0.00    -0.188 A  
HETATM   48  H   UNL     1      -7.312   8.616  72.061  1.00  0.00     0.000 HD 
HETATM   49  O   UNL     1      -5.400  11.124  70.224  1.00  0.00    -0.072 OA 
HETATM   50  C   UNL     1      -7.387   9.886  70.496  1.00  0.00    -0.068 A  
HETATM   51  C   UNL     1      -6.668  10.847  69.789  1.00  0.00    -0.144 A  
HETATM   52  C   UNL     1      -7.247  11.522  68.718  1.00  0.00    -0.112 A  
HETATM   53  C   UNL     1      -8.687   9.563  70.140  1.00  0.00    -0.258 A  
ENDBRANCH  31  44
ENDBRANCH  28  29
ENDBRANCH  17  28
ENDBRANCH  15  16
ENDBRANCH  14  15
ENDBRANCH   4  14
TORSDOF 6
ENDMDL
MODEL      201
REMARK 921   NORMALIZED FREE ENERGY PREDICTED BY IDOCK:    8.75 KCAL/MOL
REMARK 922        TOTAL FREE ENERGY PREDICTED BY IDOCK:   10.34 KCAL/MOL
REMARK 923 INTER-LIGAND FREE ENERGY PREDICTED BY IDOCK:    4.71 KCAL/MOL
REMARK 924 INTRA-LIGAND FREE ENERGY PREDICTED BY IDOCK:    5.63 KCAL/MOL
REMARK 927      BINDING AFFINITY PREDICTED BY RF-SCORE:    0.00 PKD
ROOT
HETATM    1  C   UNL     1     -10.559  15.537  70.653  1.00  0.00    -0.170 C  
HETATM    2  C   UNL     1      -9.945  14.695  69.530  1.00  0.00     0.058 C  
HETATM    3  O   UNL     1     -10.113  13.347  69.970  1.00  0.00     1.320 OA 
HETATM    4  C   UNL     1      -9.316  12.306  69.425  1.00  0.00     1.124 C  
HETATM    5  H   UNL     1      -6.436  15.253  67.619  1.00  0.00     0.000 HD 
HETATM    6  C   UNL     1      -7.862  12.712  69.141  1.00  0.00     0.386 C  
HETATM    7  C   UNL     1      -7.816  14.052  68.392  1.00  0.00    -0.144 C  
HETATM    8  O   UNL     1      -8.474  16.423  68.645  1.00  0.00    -0.206 OA 
HETATM    9  O   UNL     1      -7.126  12.827  70.374  1.00  0.00     0.297 OA 
HETATM   10  H   UNL     1      -6.227  13.079  70.198  1.00  0.00     0.000 HD 
HETATM   11  H   UNL     1      -7.577  16.689  68.478  1.00  0.00     0.000 HD 
HETATM   12  O   UNL     1      -6.465  14.424  68.082  1.00  0.00    -0.108 OA 
HETATM   13  C   UNL     1      -8.490  15.125  69.260  1.00  0.00    -0.209 C  
ENDROOT
BRANCH   4  14
HETATM   14  O   UNL     1      -9.860  11.660  68.272  1.00  0.00    -0.187 OA 
BRANCH  14  15
HETATM   15  C   UNL     1     -10.588  10.459  68.584  1.00  0.00    -0.209 C  
BRANCH  15  16
HETATM   16  C   UNL     1     -10.108   9.933  69.943  1.00  0.00    -0.257 C  
HETATM   17  C   UNL     1     -10.160   7.472  69.764  1.00  0.00    -0.194 C  
HETATM   18  O   UNL     1     -10.752   8.681  70.285  1.00  0.00    -0.219 OA 
HETATM   19  H   UNL     1      -7.264   9.400  67.921  1.00  0.00     0.000 HD 
HETATM   20  C   UNL     1      -8.693   7.463  70.252  1.00  0.00    -0.146 C  
HETATM   21  H   UNL     1      -7.317  10.351  71.550  1.00  0.00     0.000 HD 
HETATM   22  O   UNL     1      -8.636   7.517  71.700  1.00  0.00    -0.114 OA 
HETATM   23  C   UNL     1      -7.911   8.661  69.689  1.00  0.00    -0.094 C  
HETATM   24  H   UNL     1      -7.735   7.511  72.000  1.00  0.00     0.000 HD 
HETATM   25  O   UNL     1      -8.262  10.324  71.456  1.00  0.00     1.811 OA 
HETATM   26  O   UNL     1      -7.747   8.659  68.269  1.00  0.00    -0.098 OA 
HETATM   27  C   UNL     1      -8.576   9.979  70.095  1.00  0.00    -0.007 C  
BRANCH  17  28
HETATM   28  O   UNL     1     -10.373   7.358  68.348  1.00  0.00    -0.186 OA 
BRANCH  28  29
HETATM   29  C   UNL     1      -9.320   6.859  67.581  1.00  0.00    -0.121 C  
HETATM   30  O   UNL     1      -7.912   4.993  66.862  1.00  0.00    -0.102 OA 
HETATM   31  C   UNL     1      -8.766   5.635  67.762  1.00  0.00    -0.107 C  
HETATM   32  C   UNL     1      -7.465   5.686  65.765  1.00  0.00    -0.078 A  
HETATM   33  O   UNL     1      -9.791   8.300  65.799  1.00  0.00     0.034 OA 
HETATM   34  H   UNL     1      -8.078   9.530  65.044  1.00  0.00     0.000 HD 
HETATM   35  C   UNL     1      -6.626   5.057  64.846  1.00  0.00    -0.040 A  
HETATM   36  C   UNL     1      -9.004   7.498  66.286  1.00  0.00    -0.167 C  
HETATM   37  C   UNL     1      -6.114   5.794  63.771  1.00  0.00    -0.025 A  
HETATM   38  C   UNL     1      -7.842   7.025  65.545  1.00  0.00    -0.115 A  
HETATM   39  O   UNL     1      -7.482   9.107  64.437  1.00  0.00    -0.097 OA 
HETATM   40  C   UNL     1      -6.370   7.155  63.639  1.00  0.00    -0.044 A  
HETATM   41  O   UNL     1      -5.343   5.221  62.801  1.00  0.00    -0.013 OA 
HETATM   42  H   UNL     1      -4.996   5.721  62.071  1.00  0.00     0.000 HD 
HETATM   43  C   UNL     1      -7.240   7.771  64.525  1.00  0.00    -0.073 A  
BRANCH  31  44
HETATM   44  C   UNL     1      -9.150   4.839  68.937  1.00  0.00    -0.156 A  
HETATM   45  O   UNL     1     -10.634   3.166  72.432  1.00  0.00    -0.072 OA 
HETATM   46  H   UNL     1      -8.531   3.910  73.240  1.00  0.00     0.000 HD 
HETATM   47  C   UNL     1     -10.405   4.200  68.947  1.00  0.00     0.648 A  
HETATM   48  H   UNL     1     -11.494   2.762  72.439  1.00  0.00     0.000 HD 
HETATM   49  O   UNL     1      -8.183   4.299  72.446  1.00  0.00    -0.096 OA 
HETATM   50  C   UNL     1     -10.127   3.672  71.268  1.00  0.00     0.043 A  
HETATM   51  C   UNL     1      -8.866   4.264  71.259  1.00  0.00    -0.111 A  
HETATM   52  C   UNL     1      -8.356   4.834  70.095  1.00  0.00    -0.079 A  
HETATM   53  C   UNL     1     -10.897   3.617  70.116  1.00  0.00     3.036 A  
ENDBRANCH  31  44
ENDBRANCH  28  29
ENDBRANCH  17  28
ENDBRANCH  15  16
ENDBRANCH  14  15
ENDBRANCH   4  14
TORSDOF 6
ENDMDL
MODEL      202
REMARK 921   NORMALIZED FREE ENERGY PREDICTED BY IDOCK:    9.30 KCAL/MOL
REMARK 922        TOTAL FREE ENERGY PREDICTED BY IDOCK:   11.08 KCAL/MOL
REMARK 923 INTER-LIGAND FREE ENERGY PREDICTED BY IDOCK:    0.27 KCAL/MOL
REMARK 924 INTRA-LIGAND FREE ENERGY PREDICTED BY IDOCK:   10.81 KCAL/MOL
REMARK 927      BINDING AFFINITY PREDICTED BY RF-SCORE:    0.00 PKD
ROOT
HETATM    1  C   UNL     1      -6.205  16.321  69.126  1.00  0.00    -0.160 C  
HETATM    2  C   UNL     1      -6.910  15.022  68.724  1.00  0.00    -0.105 C  
HETATM    3  O   UNL     1      -7.821  14.773  69.795  1.00  0.00    -0.065 OA 
HETATM    4  C   UNL     1      -8.347  13.470  70.006  1.00  0.00     2.464 C  
HETATM    5  H   UNL     1      -5.268  11.626  67.292  1.00  0.00     0.000 HD 
HETATM    6  C   UNL     1      -7.343  12.338  69.741  1.00  0.00     0.802 C  
HETATM    7  C   UNL     1      -6.624  12.561  68.402  1.00  0.00    -0.070 C  
HETATM    8  O   UNL     1      -5.160  14.188  67.249  1.00  0.00    -0.283 OA 
HETATM    9  O   UNL     1      -6.370  12.275  70.801  1.00  0.00    -0.507 OA 
HETATM   10  H   UNL     1      -5.749  11.575  70.637  1.00  0.00     0.000 HD 
HETATM   11  H   UNL     1      -4.526  13.499  67.085  1.00  0.00     0.000 HD 
HETATM   12  O   UNL     1      -5.713  11.489  68.120  1.00  0.00    -0.046 OA 
HETATM   13  C   UNL     1      -5.882  13.905  68.458  1.00  0.00    -0.092 C  
ENDROOT
BRANCH   4  14
HETATM   14  O   UNL     1      -9.570  13.186  69.323  1.00  0.00     0.431 OA 
BRANCH  14  15
HETATM   15  C   UNL     1      -9.477  12.055  68.440  1.00  0.00    -0.181 C  
BRANCH  15  16
HETATM   16  C   UNL     1      -9.393  12.565  66.996  1.00  0.00    -0.210 C  
HETATM   17  C   UNL     1     -10.922  11.134  65.689  1.00  0.00    -0.079 C  
HETATM   18  O   UNL     1      -9.568  11.489  66.041  1.00  0.00    -0.215 OA 
HETATM   19  H   UNL     1     -12.503  13.871  68.036  1.00  0.00     0.000 HD 
HETATM   20  C   UNL     1     -11.583  12.426  65.156  1.00  0.00    -0.362 C  
HETATM   21  H   UNL     1     -10.044  15.469  65.696  1.00  0.00     0.000 HD 
HETATM   22  O   UNL     1     -10.845  12.948  64.023  1.00  0.00    -0.387 OA 
HETATM   23  C   UNL     1     -11.639  13.513  66.243  1.00  0.00    -0.345 C  
HETATM   24  H   UNL     1     -11.252  13.742  63.696  1.00  0.00     0.000 HD 
HETATM   25  O   UNL     1      -9.525  14.687  65.842  1.00  0.00    -0.283 OA 
HETATM   26  O   UNL     1     -12.468  13.200  67.365  1.00  0.00    -0.150 OA 
HETATM   27  C   UNL     1     -10.234  13.834  66.758  1.00  0.00    -0.268 C  
BRANCH  17  28
HETATM   28  O   UNL     1     -11.583  10.468  66.775  1.00  0.00    -0.003 OA 
BRANCH  28  29
HETATM   29  C   UNL     1     -10.852   9.511  67.481  1.00  0.00    -0.170 C  
HETATM   30  O   UNL     1      -8.731   8.399  67.978  1.00  0.00    -0.137 OA 
HETATM   31  C   UNL     1      -9.590   9.136  67.159  1.00  0.00    -0.164 C  
HETATM   32  C   UNL     1      -9.221   7.876  69.148  1.00  0.00    -0.144 A  
HETATM   33  O   UNL     1     -12.132   9.801  69.417  1.00  0.00     0.292 OA 
HETATM   34  H   UNL     1     -13.005   7.941  70.311  1.00  0.00     0.000 HD 
HETATM   35  C   UNL     1      -8.376   7.153  69.989  1.00  0.00    -0.138 A  
HETATM   36  C   UNL     1     -11.286   9.128  68.841  1.00  0.00     0.248 C  
HETATM   37  C   UNL     1      -8.902   6.559  71.142  1.00  0.00    -0.138 A  
HETATM   38  C   UNL     1     -10.567   8.060  69.522  1.00  0.00    -0.216 A  
HETATM   39  O   UNL     1     -12.434   7.423  70.865  1.00  0.00    -0.270 OA 
HETATM   40  C   UNL     1     -10.262   6.618  71.432  1.00  0.00    -0.220 A  
HETATM   41  O   UNL     1      -8.116   5.896  72.040  1.00  0.00    -0.107 OA 
HETATM   42  H   UNL     1      -8.473   5.493  72.823  1.00  0.00     0.000 HD 
HETATM   43  C   UNL     1     -11.096   7.375  70.623  1.00  0.00    -0.266 A  
BRANCH  31  44
HETATM   44  C   UNL     1      -8.998   9.610  65.899  1.00  0.00    -0.203 A  
HETATM   45  O   UNL     1      -6.863  10.403  62.430  1.00  0.00    -0.128 OA 
HETATM   46  H   UNL     1      -5.849  11.997  63.864  1.00  0.00     0.000 HD 
HETATM   47  C   UNL     1      -9.289   8.918  64.707  1.00  0.00     0.253 A  
HETATM   48  H   UNL     1      -7.045   9.912  61.637  1.00  0.00     0.000 HD 
HETATM   49  O   UNL     1      -6.329  11.821  64.664  1.00  0.00     1.935 OA 
HETATM   50  C   UNL     1      -7.602  10.174  63.557  1.00  0.00    -0.138 A  
HETATM   51  C   UNL     1      -7.336  10.894  64.720  1.00  0.00     0.429 A  
HETATM   52  C   UNL     1      -8.040  10.637  65.893  1.00  0.00    -0.159 A  
HETATM   53  C   UNL     1      -8.587   9.199  63.533  1.00  0.00    -0.177 A  
ENDBRANCH  31  44
ENDBRANCH  28  29
ENDBRANCH  17  28
ENDBRANCH  15  16
ENDBRANCH  14  15
ENDBRANCH   4  14
TORSDOF 6
ENDMDL
MODEL      203
REMARK 921   NORMALIZED FREE ENERGY PREDICTED BY IDOCK:    9.31 KCAL/MOL
REMARK 922        TOTAL FREE ENERGY PREDICTED BY IDOCK:   11.09 KCAL/MOL
REMARK 923 INTER-LIGAND FREE ENERGY PREDICTED BY IDOCK:    9.99 KCAL/MOL
REMARK 924 INTRA-LIGAND FREE ENERGY PREDICTED BY IDOCK:    1.10 KCAL/MOL
REMARK 927      BINDING AFFINITY PREDICTED BY RF-SCORE:    0.00 PKD
ROOT
HETATM    1  C   UNL     1     -12.358  17.054  66.169  1.00  0.00     4.396 C  
HETATM    2  C   UNL     1     -11.258  15.992  66.252  1.00  0.00     0.159 C  
HETATM    3  O   UNL     1     -10.761  15.897  64.917  1.00  0.00    -0.522 OA 
HETATM    4  C   UNL     1     -10.041  14.747  64.495  1.00  0.00     0.538 C  
HETATM    5  H   UNL     1     -11.378  12.406  68.097  1.00  0.00     0.000 HD 
HETATM    6  C   UNL     1     -10.568  13.428  65.079  1.00  0.00    -0.358 C  
HETATM    7  C   UNL     1     -10.789  13.561  66.593  1.00  0.00    -0.283 C  
HETATM    8  O   UNL     1     -12.095  14.863  68.242  1.00  0.00    -0.542 OA 
HETATM    9  O   UNL     1     -11.810  13.062  64.446  1.00  0.00    -0.347 OA 
HETATM   10  H   UNL     1     -12.136  12.246  64.807  1.00  0.00     0.000 HD 
HETATM   11  H   UNL     1     -12.435  14.055  68.609  1.00  0.00     0.000 HD 
HETATM   12  O   UNL     1     -11.241  12.323  67.161  1.00  0.00    -0.271 OA 
HETATM   13  C   UNL     1     -11.810  14.681  66.846  1.00  0.00    -0.326 C  
ENDROOT
BRANCH   4  14
HETATM   14  O   UNL     1      -8.625  14.812  64.677  1.00  0.00     3.926 OA 
BRANCH  14  15
HETATM   15  C   UNL     1      -8.179  14.178  65.889  1.00  0.00     2.164 C  
BRANCH  15  16
HETATM   16  C   UNL     1      -8.558  15.071  67.077  1.00  0.00    -0.239 C  
HETATM   17  C   UNL     1      -7.607  13.971  69.072  1.00  0.00    -0.027 C  
HETATM   18  O   UNL     1      -8.771  14.292  68.281  1.00  0.00    -0.166 OA 
HETATM   19  H   UNL     1      -5.145  15.861  66.649  1.00  0.00     0.000 HD 
HETATM   20  C   UNL     1      -6.940  15.321  69.426  1.00  0.00    -0.180 C  
HETATM   21  H   UNL     1      -7.887  18.179  67.737  1.00  0.00     0.000 HD 
HETATM   22  O   UNL     1      -7.866  16.176  70.142  1.00  0.00     0.633 OA 
HETATM   23  C   UNL     1      -6.472  16.060  68.162  1.00  0.00    -0.124 C  
HETATM   24  H   UNL     1      -7.456  17.005  70.360  1.00  0.00     0.000 HD 
HETATM   25  O   UNL     1      -8.449  17.418  67.653  1.00  0.00    -0.208 OA 
HETATM   26  O   UNL     1      -5.434  15.404  67.430  1.00  0.00    -0.331 OA 
HETATM   27  C   UNL     1      -7.648  16.306  67.214  1.00  0.00    -0.171 C  
BRANCH  17  28
HETATM   28  O   UNL     1      -6.784  12.995  68.415  1.00  0.00    -0.078 OA 
BRANCH  28  29
HETATM   29  C   UNL     1      -6.742  11.715  68.969  1.00  0.00    -0.100 C  
HETATM   30  O   UNL     1      -6.503   9.295  68.711  1.00  0.00    -0.048 OA 
HETATM   31  C   UNL     1      -6.811  10.573  68.241  1.00  0.00    -0.068 C  
HETATM   32  C   UNL     1      -6.246   9.126  70.049  1.00  0.00    -0.038 A  
HETATM   33  O   UNL     1      -5.677  12.471  70.910  1.00  0.00    -0.277 OA 
HETATM   34  H   UNL     1      -6.637  11.896  72.851  1.00  0.00     0.000 HD 
HETATM   35  C   UNL     1      -5.920   7.861  70.536  1.00  0.00    -0.029 A  
HETATM   36  C   UNL     1      -6.247  11.542  70.350  1.00  0.00    -0.018 C  
HETATM   37  C   UNL     1      -5.734   7.685  71.912  1.00  0.00    -0.036 A  
HETATM   38  C   UNL     1      -6.302  10.212  70.944  1.00  0.00     0.002 A  
HETATM   39  O   UNL     1      -6.446  11.027  73.183  1.00  0.00     2.734 OA 
HETATM   40  C   UNL     1      -5.935   8.728  72.810  1.00  0.00    -0.068 A  
HETATM   41  O   UNL     1      -5.348   6.488  72.444  1.00  0.00    -0.034 OA 
HETATM   42  H   UNL     1      -5.222   6.368  73.378  1.00  0.00     0.000 HD 
HETATM   43  C   UNL     1      -6.214   9.997  72.325  1.00  0.00     0.878 A  
BRANCH  31  44
HETATM   44  C   UNL     1      -7.127  10.653  66.807  1.00  0.00    -0.118 A  
HETATM   45  O   UNL     1      -7.954  10.159  62.770  1.00  0.00    -0.134 OA 
HETATM   46  H   UNL     1      -5.663  10.754  62.612  1.00  0.00     0.000 HD 
HETATM   47  C   UNL     1      -8.430  10.330  66.378  1.00  0.00    -0.132 A  
HETATM   48  H   UNL     1      -8.827   9.913  62.491  1.00  0.00     0.000 HD 
HETATM   49  O   UNL     1      -5.462  10.866  63.533  1.00  0.00    -0.122 OA 
HETATM   50  C   UNL     1      -7.697  10.369  64.097  1.00  0.00    -0.035 A  
HETATM   51  C   UNL     1      -6.415  10.731  64.507  1.00  0.00     0.280 A  
HETATM   52  C   UNL     1      -6.122  10.895  65.858  1.00  0.00    -0.103 A  
HETATM   53  C   UNL     1      -8.715  10.185  65.019  1.00  0.00    -0.190 A  
ENDBRANCH  31  44
ENDBRANCH  28  29
ENDBRANCH  17  28
ENDBRANCH  15  16
ENDBRANCH  14  15
ENDBRANCH   4  14
TORSDOF 6
ENDMDL
MODEL      204
REMARK 921   NORMALIZED FREE ENERGY PREDICTED BY IDOCK:    9.91 KCAL/MOL
REMARK 922        TOTAL FREE ENERGY PREDICTED BY IDOCK:   11.91 KCAL/MOL
REMARK 923 INTER-LIGAND FREE ENERGY PREDICTED BY IDOCK:    9.95 KCAL/MOL
REMARK 924 INTRA-LIGAND FREE ENERGY PREDICTED BY IDOCK:    1.97 KCAL/MOL
REMARK 927      BINDING AFFINITY PREDICTED BY RF-SCORE:    0.00 PKD
ROOT
HETATM    1  C   UNL     1     -10.912   6.644  70.256  1.00  0.00    -0.355 C  
HETATM    2  C   UNL     1     -10.512   7.936  69.536  1.00  0.00    -0.226 C  
HETATM    3  O   UNL     1     -10.586   8.939  70.549  1.00  0.00    -0.201 OA 
HETATM    4  C   UNL     1     -10.700  10.311  70.199  1.00  0.00    -0.278 C  
HETATM    5  H   UNL     1     -11.768   9.291  65.950  1.00  0.00     0.000 HD 
HETATM    6  C   UNL     1     -11.584  10.573  68.971  1.00  0.00    -0.207 C  
HETATM    7  C   UNL     1     -11.210   9.620  67.827  1.00  0.00     0.137 C  
HETATM    8  O   UNL     1     -11.101   7.208  67.287  1.00  0.00    -0.547 OA 
HETATM    9  O   UNL     1     -12.974  10.394  69.308  1.00  0.00    -0.379 OA 
HETATM   10  H   UNL     1     -13.520  10.555  68.548  1.00  0.00     0.000 HD 
HETATM   11  H   UNL     1     -11.654   7.354  66.528  1.00  0.00     0.000 HD 
HETATM   12  O   UNL     1     -11.999   9.881  66.657  1.00  0.00     2.061 OA 
HETATM   13  C   UNL     1     -11.408   8.173  68.305  1.00  0.00     0.900 C  
ENDROOT
BRANCH   4  14
HETATM   14  O   UNL     1      -9.462  11.008  70.048  1.00  0.00     0.682 OA 
BRANCH  14  15
HETATM   15  C   UNL     1      -8.318  10.137  70.034  1.00  0.00    -0.018 C  
BRANCH  15  16
HETATM   16  C   UNL     1      -7.126  10.901  69.443  1.00  0.00    -0.131 C  
HETATM   17  C   UNL     1      -8.096  12.554  67.887  1.00  0.00    -0.163 C  
HETATM   18  O   UNL     1      -7.384  11.313  68.077  1.00  0.00    -0.086 OA 
HETATM   19  H   UNL     1      -8.405  13.245  71.751  1.00  0.00     0.000 HD 
HETATM   20  C   UNL     1      -7.275  13.640  68.622  1.00  0.00    -0.110 C  
HETATM   21  H   UNL     1      -4.807  12.692  70.842  1.00  0.00     0.000 HD 
HETATM   22  O   UNL     1      -5.925  13.701  68.098  1.00  0.00    -0.093 OA 
HETATM   23  C   UNL     1      -7.200  13.357  70.131  1.00  0.00     1.089 C  
HETATM   24  H   UNL     1      -5.421  14.368  68.549  1.00  0.00     0.000 HD 
HETATM   25  O   UNL     1      -5.146  12.025  70.257  1.00  0.00    -0.078 OA 
HETATM   26  O   UNL     1      -8.452  13.420  70.818  1.00  0.00     4.744 OA 
HETATM   27  C   UNL     1      -6.578  11.983  70.392  1.00  0.00     0.649 C  
BRANCH  17  28
HETATM   28  O   UNL     1      -9.477  12.424  68.259  1.00  0.00    -0.209 OA 
BRANCH  28  29
HETATM   29  C   UNL     1     -10.426  12.977  67.399  1.00  0.00    -0.234 C  
HETATM   30  O   UNL     1     -12.102  14.688  66.902  1.00  0.00    -0.361 OA 
HETATM   31  C   UNL     1     -11.327  13.919  67.774  1.00  0.00    -0.308 C  
HETATM   32  C   UNL     1     -12.079  14.395  65.562  1.00  0.00    -0.356 A  
HETATM   33  O   UNL     1      -9.183  12.430  65.495  1.00  0.00     0.017 OA 
HETATM   34  H   UNL     1     -10.269  11.290  63.900  1.00  0.00     0.000 HD 
HETATM   35  C   UNL     1     -12.831  15.162  64.674  1.00  0.00     0.490 A  
HETATM   36  C   UNL     1     -10.252  12.830  65.939  1.00  0.00    -0.287 C  
HETATM   37  C   UNL     1     -12.861  14.809  63.320  1.00  0.00     2.029 A  
HETATM   38  C   UNL     1     -11.302  13.331  65.062  1.00  0.00    -0.326 A  
HETATM   39  O   UNL     1     -10.807  11.796  63.303  1.00  0.00    -0.374 OA 
HETATM   40  C   UNL     1     -12.212  13.670  62.854  1.00  0.00     0.704 A  
HETATM   41  O   UNL     1     -13.522  15.557  62.389  1.00  0.00     4.300 OA 
HETATM   42  H   UNL     1     -13.542  15.317  61.470  1.00  0.00     0.000 HD 
HETATM   43  C   UNL     1     -11.426  12.932  63.726  1.00  0.00    -0.459 A  
BRANCH  31  44
HETATM   44  C   UNL     1     -11.456  14.265  69.197  1.00  0.00    -0.330 A  
HETATM   45  O   UNL     1     -12.511  15.371  73.055  1.00  0.00    -0.354 OA 
HETATM   46  H   UNL     1     -11.564  17.420  72.325  1.00  0.00     0.000 HD 
HETATM   47  C   UNL     1     -12.034  13.328  70.076  1.00  0.00    -0.399 A  
HETATM   48  H   UNL     1     -12.927  14.743  73.632  1.00  0.00     0.000 HD 
HETATM   49  O   UNL     1     -11.322  17.179  71.439  1.00  0.00     0.362 OA 
HETATM   50  C   UNL     1     -12.119  14.990  71.802  1.00  0.00    -0.361 A  
HETATM   51  C   UNL     1     -11.509  15.911  70.954  1.00  0.00    -0.409 A  
HETATM   52  C   UNL     1     -11.153  15.556  69.655  1.00  0.00    -0.280 A  
HETATM   53  C   UNL     1     -12.370  13.693  71.382  1.00  0.00    -0.301 A  
ENDBRANCH  31  44
ENDBRANCH  28  29
ENDBRANCH  17  28
ENDBRANCH  15  16
ENDBRANCH  14  15
ENDBRANCH   4  14
TORSDOF 6
ENDMDL
MODEL      205
REMARK 921   NORMALIZED FREE ENERGY PREDICTED BY IDOCK:   10.61 KCAL/MOL
REMARK 922        TOTAL FREE ENERGY PREDICTED BY IDOCK:   12.86 KCAL/MOL
REMARK 923 INTER-LIGAND FREE ENERGY PREDICTED BY IDOCK:   11.93 KCAL/MOL
REMARK 924 INTRA-LIGAND FREE ENERGY PREDICTED BY IDOCK:    0.93 KCAL/MOL
REMARK 927      BINDING AFFINITY PREDICTED BY RF-SCORE:    0.00 PKD
ROOT
HETATM    1  C   UNL     1     -10.802  15.001  72.205  1.00  0.00     0.812 C  
HETATM    2  C   UNL     1     -11.454  14.688  70.855  1.00  0.00    -0.165 C  
HETATM    3  O   UNL     1     -10.594  13.710  70.269  1.00  0.00     0.815 OA 
HETATM    4  C   UNL     1     -10.615  13.478  68.868  1.00  0.00    -0.165 C  
HETATM    5  H   UNL     1     -12.914  17.273  68.123  1.00  0.00     0.000 HD 
HETATM    6  C   UNL     1     -10.813  14.746  68.025  1.00  0.00    -0.260 C  
HETATM    7  C   UNL     1     -11.972  15.586  68.582  1.00  0.00    -0.210 C  
HETATM    8  O   UNL     1     -12.672  16.785  70.629  1.00  0.00     1.115 OA 
HETATM    9  O   UNL     1      -9.608  15.537  68.023  1.00  0.00    -0.201 OA 
HETATM   10  H   UNL     1      -9.731  16.322  67.501  1.00  0.00     0.000 HD 
HETATM   11  H   UNL     1     -12.792  17.580  70.121  1.00  0.00     0.000 HD 
HETATM   12  O   UNL     1     -12.197  16.754  67.779  1.00  0.00     1.078 OA 
HETATM   13  C   UNL     1     -11.647  15.976  70.032  1.00  0.00    -0.312 C  
ENDROOT
BRANCH   4  14
HETATM   14  O   UNL     1     -11.530  12.472  68.429  1.00  0.00    -0.264 OA 
BRANCH  14  15
HETATM   15  C   UNL     1     -10.880  11.265  67.992  1.00  0.00    -0.218 C  
BRANCH  15  16
HETATM   16  C   UNL     1      -9.402  11.330  68.395  1.00  0.00    -0.181 C  
HETATM   17  C   UNL     1      -8.568   9.011  68.261  1.00  0.00    -0.130 C  
HETATM   18  O   UNL     1      -8.984  10.124  69.080  1.00  0.00    -0.154 OA 
HETATM   19  H   UNL     1      -9.174  10.957  64.892  1.00  0.00     0.000 HD 
HETATM   20  C   UNL     1      -7.420   9.537  67.368  1.00  0.00    -0.091 C  
HETATM   21  H   UNL     1      -6.889  12.939  67.112  1.00  0.00     0.000 HD 
HETATM   22  O   UNL     1      -6.335  10.050  68.181  1.00  0.00    -0.053 OA 
HETATM   23  C   UNL     1      -7.906  10.662  66.439  1.00  0.00    -0.144 C  
HETATM   24  H   UNL     1      -5.629  10.373  67.633  1.00  0.00     0.000 HD 
HETATM   25  O   UNL     1      -7.451  12.638  67.816  1.00  0.00    -0.106 OA 
HETATM   26  O   UNL     1      -8.874  10.263  65.466  1.00  0.00    -0.157 OA 
HETATM   27  C   UNL     1      -8.491  11.819  67.252  1.00  0.00    -0.160 C  
BRANCH  17  28
HETATM   28  O   UNL     1      -9.688   8.412  67.590  1.00  0.00    -0.148 OA 
BRANCH  28  29
HETATM   29  C   UNL     1      -9.490   7.160  67.007  1.00  0.00    -0.155 C  
HETATM   30  O   UNL     1      -8.674   4.859  67.141  1.00  0.00    -0.105 OA 
HETATM   31  C   UNL     1      -8.690   6.200  67.532  1.00  0.00    -0.104 C  
HETATM   32  C   UNL     1      -9.410   4.479  66.047  1.00  0.00    -0.157 A  
HETATM   33  O   UNL     1     -11.496   7.280  65.809  1.00  0.00     3.664 OA 
HETATM   34  H   UNL     1     -11.351   6.915  63.603  1.00  0.00     0.000 HD 
HETATM   35  C   UNL     1      -9.420   3.143  65.651  1.00  0.00    -0.064 A  
HETATM   36  C   UNL     1     -10.439   6.684  65.978  1.00  0.00     0.810 C  
HETATM   37  C   UNL     1     -10.112   2.778  64.490  1.00  0.00     0.082 A  
HETATM   38  C   UNL     1     -10.162   5.418  65.313  1.00  0.00     0.529 A  
HETATM   39  O   UNL     1     -11.331   6.009  63.319  1.00  0.00     6.382 OA 
HETATM   40  C   UNL     1     -10.731   3.730  63.686  1.00  0.00    -0.231 A  
HETATM   41  O   UNL     1     -10.218   1.478  64.086  1.00  0.00    -0.305 OA 
HETATM   42  H   UNL     1     -10.687   1.231  63.298  1.00  0.00     0.000 HD 
HETATM   43  C   UNL     1     -10.761   5.053  64.101  1.00  0.00     1.437 A  
BRANCH  31  44
HETATM   44  C   UNL     1      -7.830   6.528  68.678  1.00  0.00    -0.110 A  
HETATM   45  O   UNL     1      -5.264   6.746  71.932  1.00  0.00    -0.027 OA 
HETATM   46  H   UNL     1      -7.335   6.758  73.089  1.00  0.00     0.000 HD 
HETATM   47  C   UNL     1      -6.436   6.599  68.486  1.00  0.00    -0.049 A  
HETATM   48  H   UNL     1      -4.324   6.765  71.796  1.00  0.00     0.000 HD 
HETATM   49  O   UNL     1      -7.931   6.704  72.352  1.00  0.00    -0.099 OA 
HETATM   50  C   UNL     1      -6.108   6.725  70.857  1.00  0.00    -0.032 A  
HETATM   51  C   UNL     1      -7.486   6.698  71.056  1.00  0.00    -0.084 A  
HETATM   52  C   UNL     1      -8.360   6.620  69.975  1.00  0.00    -0.135 A  
HETATM   53  C   UNL     1      -5.572   6.694  69.579  1.00  0.00    -0.014 A  
ENDBRANCH  31  44
ENDBRANCH  28  29
ENDBRANCH  17  28
ENDBRANCH  15  16
ENDBRANCH  14  15
ENDBRANCH   4  14
TORSDOF 6
ENDMDL
MODEL      206
REMARK 921   NORMALIZED FREE ENERGY PREDICTED BY IDOCK:   10.69 KCAL/MOL
REMARK 922        TOTAL FREE ENERGY PREDICTED BY IDOCK:   12.97 KCAL/MOL
REMARK 923 INTER-LIGAND FREE ENERGY PREDICTED BY IDOCK:    5.91 KCAL/MOL
REMARK 924 INTRA-LIGAND FREE ENERGY PREDICTED BY IDOCK:    7.06 KCAL/MOL
REMARK 927      BINDING AFFINITY PREDICTED BY RF-SCORE:    0.00 PKD
ROOT
HETATM    1  C   UNL     1     -10.642  15.574  65.250  1.00  0.00    -0.446 C  
HETATM    2  C   UNL     1     -10.986  14.081  65.274  1.00  0.00    -0.334 C  
HETATM    3  O   UNL     1      -9.726  13.428  65.118  1.00  0.00    -0.101 OA 
HETATM    4  C   UNL     1      -9.662  12.081  64.673  1.00  0.00    -0.083 C  
HETATM    5  H   UNL     1     -13.952  12.167  63.321  1.00  0.00     0.000 HD 
HETATM    6  C   UNL     1     -10.708  11.722  63.607  1.00  0.00    -0.440 C  
HETATM    7  C   UNL     1     -12.097  12.223  64.028  1.00  0.00    -0.471 C  
HETATM    8  O   UNL     1     -13.309  14.309  64.575  1.00  0.00     0.106 OA 
HETATM    9  O   UNL     1     -10.352  12.309  62.340  1.00  0.00     0.271 OA 
HETATM   10  H   UNL     1     -10.998  12.088  61.681  1.00  0.00     0.000 HD 
HETATM   11  H   UNL     1     -13.959  14.104  63.914  1.00  0.00     0.000 HD 
HETATM   12  O   UNL     1     -13.093  11.857  63.061  1.00  0.00    -0.500 OA 
HETATM   13  C   UNL     1     -12.040  13.748  64.201  1.00  0.00    -0.433 C  
ENDROOT
BRANCH   4  14
HETATM   14  O   UNL     1      -9.684  11.094  65.707  1.00  0.00    -0.206 OA 
BRANCH  14  15
HETATM   15  C   UNL     1      -8.372  10.725  66.168  1.00  0.00    -0.166 C  
BRANCH  15  16
HETATM   16  C   UNL     1      -7.943   9.441  65.447  1.00  0.00    -0.105 C  
HETATM   17  C   UNL     1      -6.803   8.066  67.152  1.00  0.00    -0.073 C  
HETATM   18  O   UNL     1      -6.705   8.917  65.990  1.00  0.00    -0.067 OA 
HETATM   19  H   UNL     1     -10.729   8.323  67.303  1.00  0.00     0.000 HD 
HETATM   20  C   UNL     1      -7.744   6.903  66.759  1.00  0.00    -0.102 C  
HETATM   21  H   UNL     1      -9.661   7.162  63.899  1.00  0.00     0.000 HD 
HETATM   22  O   UNL     1      -7.223   6.193  65.607  1.00  0.00    -0.071 OA 
HETATM   23  C   UNL     1      -9.153   7.416  66.419  1.00  0.00    -0.160 C  
HETATM   24  H   UNL     1      -7.801   5.478  65.366  1.00  0.00     0.000 HD 
HETATM   25  O   UNL     1      -8.950   7.782  64.004  1.00  0.00     0.634 OA 
HETATM   26  O   UNL     1      -9.858   8.007  67.513  1.00  0.00    -0.151 OA 
HETATM   27  C   UNL     1      -9.096   8.434  65.278  1.00  0.00     0.076 C  
BRANCH  17  28
HETATM   28  O   UNL     1      -7.160   8.822  68.320  1.00  0.00    -0.075 OA 
BRANCH  28  29
HETATM   29  C   UNL     1      -8.006   8.209  69.245  1.00  0.00    -0.115 C  
HETATM   30  O   UNL     1     -10.017   8.248  70.637  1.00  0.00    -0.181 OA 
HETATM   31  C   UNL     1      -8.986   8.860  69.919  1.00  0.00    -0.156 C  
HETATM   32  C   UNL     1      -9.983   6.887  70.812  1.00  0.00    -0.190 A  
HETATM   33  O   UNL     1      -7.645   6.085  68.334  1.00  0.00    -0.088 OA 
HETATM   34  H   UNL     1      -7.010   4.489  69.772  1.00  0.00     0.000 HD 
HETATM   35  C   UNL     1     -11.011   6.255  71.511  1.00  0.00    -0.322 A  
HETATM   36  C   UNL     1      -8.114   6.736  69.260  1.00  0.00    -0.120 C  
HETATM   37  C   UNL     1     -10.930   4.878  71.750  1.00  0.00     0.138 A  
HETATM   38  C   UNL     1      -8.927   6.111  70.296  1.00  0.00    -0.154 A  
HETATM   39  O   UNL     1      -7.697   4.066  70.274  1.00  0.00    -0.048 OA 
HETATM   40  C   UNL     1      -9.815   4.141  71.367  1.00  0.00    -0.254 A  
HETATM   41  O   UNL     1     -11.934   4.189  72.367  1.00  0.00     0.957 OA 
HETATM   42  H   UNL     1     -11.879   3.255  72.530  1.00  0.00     0.000 HD 
HETATM   43  C   UNL     1      -8.813   4.757  70.633  1.00  0.00    -0.112 A  
BRANCH  31  44
HETATM   44  C   UNL     1      -9.072  10.324  69.828  1.00  0.00    -0.089 A  
HETATM   45  O   UNL     1      -9.017  14.455  70.230  1.00  0.00     0.570 OA 
HETATM   46  H   UNL     1     -11.277  14.052  70.825  1.00  0.00     0.000 HD 
HETATM   47  C   UNL     1      -7.908  11.057  69.523  1.00  0.00     0.083 A  
HETATM   48  H   UNL     1      -8.220  14.939  70.050  1.00  0.00     0.000 HD 
HETATM   49  O   UNL     1     -11.300  13.107  70.740  1.00  0.00     0.563 OA 
HETATM   50  C   UNL     1      -9.046  13.100  70.049  1.00  0.00     3.342 A  
HETATM   51  C   UNL     1     -10.215  12.389  70.312  1.00  0.00     3.041 A  
HETATM   52  C   UNL     1     -10.248  11.002  70.186  1.00  0.00     0.748 A  
HETATM   53  C   UNL     1      -7.894  12.449  69.636  1.00  0.00     1.193 A  
ENDBRANCH  31  44
ENDBRANCH  28  29
ENDBRANCH  17  28
ENDBRANCH  15  16
ENDBRANCH  14  15
ENDBRANCH   4  14
TORSDOF 6
ENDMDL
MODEL      207
REMARK 921   NORMALIZED FREE ENERGY PREDICTED BY IDOCK:   10.73 KCAL/MOL
REMARK 922        TOTAL FREE ENERGY PREDICTED BY IDOCK:   13.02 KCAL/MOL
REMARK 923 INTER-LIGAND FREE ENERGY PREDICTED BY IDOCK:    6.56 KCAL/MOL
REMARK 924 INTRA-LIGAND FREE ENERGY PREDICTED BY IDOCK:    6.45 KCAL/MOL
REMARK 927      BINDING AFFINITY PREDICTED BY RF-SCORE:    0.00 PKD
ROOT
HETATM    1  C   UNL     1     -10.816  15.075  72.354  1.00  0.00     0.927 C  
HETATM    2  C   UNL     1     -11.289  14.689  70.949  1.00  0.00    -0.095 C  
HETATM    3  O   UNL     1     -10.468  13.574  70.597  1.00  0.00     2.008 OA 
HETATM    4  C   UNL     1     -10.305  13.200  69.237  1.00  0.00     0.303 C  
HETATM    5  H   UNL     1     -12.012  17.108  67.802  1.00  0.00     0.000 HD 
HETATM    6  C   UNL     1     -10.226  14.387  68.265  1.00  0.00    -0.241 C  
HETATM    7  C   UNL     1     -11.351  15.392  68.552  1.00  0.00    -0.335 C  
HETATM    8  O   UNL     1     -12.210  16.863  70.347  1.00  0.00     0.651 OA 
HETATM    9  O   UNL     1      -8.952  15.050  68.388  1.00  0.00    -0.168 OA 
HETATM   10  H   UNL     1      -8.903  15.784  67.787  1.00  0.00     0.000 HD 
HETATM   11  H   UNL     1     -12.159  17.607  69.759  1.00  0.00     0.000 HD 
HETATM   12  O   UNL     1     -11.317  16.486  67.625  1.00  0.00    -0.119 OA 
HETATM   13  C   UNL     1     -11.206  15.897  69.996  1.00  0.00    -0.353 C  
ENDROOT
BRANCH   4  14
HETATM   14  O   UNL     1     -11.252  12.250  68.745  1.00  0.00    -0.230 OA 
BRANCH  14  15
HETATM   15  C   UNL     1     -10.811  10.888  68.878  1.00  0.00    -0.219 C  
BRANCH  15  16
HETATM   16  C   UNL     1      -9.947  10.772  70.140  1.00  0.00     0.658 C  
HETATM   17  C   UNL     1      -9.413   8.373  70.368  1.00  0.00    -0.168 C  
HETATM   18  O   UNL     1     -10.171   9.514  70.823  1.00  0.00    -0.275 OA 
HETATM   19  H   UNL     1      -7.534  10.430  67.586  1.00  0.00     0.000 HD 
HETATM   20  C   UNL     1      -7.923   8.774  70.472  1.00  0.00    -0.113 C  
HETATM   21  H   UNL     1      -7.085  12.093  70.919  1.00  0.00     0.000 HD 
HETATM   22  O   UNL     1      -7.587   9.143  71.834  1.00  0.00    -0.340 OA 
HETATM   23  C   UNL     1      -7.600   9.962  69.552  1.00  0.00    -0.125 C  
HETATM   24  H   UNL     1      -6.672   9.389  71.898  1.00  0.00     0.000 HD 
HETATM   25  O   UNL     1      -7.990  11.850  71.067  1.00  0.00     5.223 OA 
HETATM   26  O   UNL     1      -7.735   9.696  68.154  1.00  0.00    -0.085 OA 
HETATM   27  C   UNL     1      -8.478  11.168  69.898  1.00  0.00     1.173 C  
BRANCH  17  28
HETATM   28  O   UNL     1      -9.874   7.921  69.086  1.00  0.00    -0.168 OA 
BRANCH  28  29
HETATM   29  C   UNL     1      -8.919   7.757  68.082  1.00  0.00    -0.127 C  
HETATM   30  O   UNL     1      -7.387   6.329  66.818  1.00  0.00    -0.076 OA 
HETATM   31  C   UNL     1      -8.149   6.650  67.945  1.00  0.00    -0.113 C  
HETATM   32  C   UNL     1      -7.274   7.254  65.812  1.00  0.00    -0.070 A  
HETATM   33  O   UNL     1      -9.945   9.337  66.695  1.00  0.00    -0.221 OA 
HETATM   34  H   UNL     1      -8.627  10.974  65.919  1.00  0.00     0.000 HD 
HETATM   35  C   UNL     1      -6.533   6.947  64.672  1.00  0.00    -0.042 A  
HETATM   36  C   UNL     1      -8.960   8.636  66.895  1.00  0.00    -0.138 C  
HETATM   37  C   UNL     1      -6.360   7.924  63.684  1.00  0.00    -0.063 A  
HETATM   38  C   UNL     1      -7.898   8.514  65.905  1.00  0.00    -0.099 A  
HETATM   39  O   UNL     1      -8.096  10.771  65.157  1.00  0.00    -0.113 OA 
HETATM   40  C   UNL     1      -6.853   9.215  63.847  1.00  0.00    -0.089 A  
HETATM   41  O   UNL     1      -5.703   7.666  62.515  1.00  0.00    -0.053 OA 
HETATM   42  H   UNL     1      -5.586   8.329  61.845  1.00  0.00     0.000 HD 
HETATM   43  C   UNL     1      -7.629   9.509  64.958  1.00  0.00    -0.113 A  
BRANCH  31  44
HETATM   44  C   UNL     1      -8.170   5.624  68.998  1.00  0.00    -0.100 A  
HETATM   45  O   UNL     1      -7.875   2.322  71.494  1.00  0.00    -0.040 OA 
HETATM   46  H   UNL     1     -10.087   1.995  70.704  1.00  0.00     0.000 HD 
HETATM   47  C   UNL     1      -7.005   5.405  69.759  1.00  0.00    -0.061 A  
HETATM   48  H   UNL     1      -7.075   2.165  71.982  1.00  0.00     0.000 HD 
HETATM   49  O   UNL     1     -10.164   2.746  70.127  1.00  0.00     0.561 OA 
HETATM   50  C   UNL     1      -7.988   3.437  70.711  1.00  0.00    -0.050 A  
HETATM   51  C   UNL     1      -9.160   3.668  69.996  1.00  0.00    -0.127 A  
HETATM   52  C   UNL     1      -9.273   4.769  69.151  1.00  0.00    -0.175 A  
HETATM   53  C   UNL     1      -6.912   4.306  70.616  1.00  0.00    -0.037 A  
ENDBRANCH  31  44
ENDBRANCH  28  29
ENDBRANCH  17  28
ENDBRANCH  15  16
ENDBRANCH  14  15
ENDBRANCH   4  14
TORSDOF 6
ENDMDL
MODEL      208
REMARK 921   NORMALIZED FREE ENERGY PREDICTED BY IDOCK:   10.81 KCAL/MOL
REMARK 922        TOTAL FREE ENERGY PREDICTED BY IDOCK:   13.12 KCAL/MOL
REMARK 923 INTER-LIGAND FREE ENERGY PREDICTED BY IDOCK:    8.81 KCAL/MOL
REMARK 924 INTRA-LIGAND FREE ENERGY PREDICTED BY IDOCK:    4.31 KCAL/MOL
REMARK 927      BINDING AFFINITY PREDICTED BY RF-SCORE:    0.00 PKD
ROOT
HETATM    1  C   UNL     1     -13.700  15.922  64.376  1.00  0.00     3.621 C  
HETATM    2  C   UNL     1     -12.503  15.268  65.074  1.00  0.00     0.294 C  
HETATM    3  O   UNL     1     -12.642  15.654  66.441  1.00  0.00     1.326 OA 
HETATM    4  C   UNL     1     -11.527  15.607  67.320  1.00  0.00    -0.037 C  
HETATM    5  H   UNL     1      -8.648  15.202  63.887  1.00  0.00     0.000 HD 
HETATM    6  C   UNL     1     -10.197  16.017  66.669  1.00  0.00    -0.291 C  
HETATM    7  C   UNL     1     -10.017  15.303  65.321  1.00  0.00    -0.287 C  
HETATM    8  O   UNL     1     -11.086  15.082  63.101  1.00  0.00     1.623 OA 
HETATM    9  O   UNL     1     -10.160  17.443  66.464  1.00  0.00    -0.295 OA 
HETATM   10  H   UNL     1      -9.338  17.696  66.061  1.00  0.00     0.000 HD 
HETATM   11  H   UNL     1     -10.272  15.341  62.685  1.00  0.00     0.000 HD 
HETATM   12  O   UNL     1      -8.759  15.643  64.720  1.00  0.00     2.345 OA 
HETATM   13  C   UNL     1     -11.184  15.689  64.399  1.00  0.00    -0.236 C  
ENDROOT
BRANCH   4  14
HETATM   14  O   UNL     1     -11.350  14.373  68.018  1.00  0.00    -0.268 OA 
BRANCH  14  15
HETATM   15  C   UNL     1     -12.587  13.688  68.283  1.00  0.00     0.656 C  
BRANCH  15  16
HETATM   16  C   UNL     1     -12.798  13.626  69.801  1.00  0.00     0.403 C  
HETATM   17  C   UNL     1     -10.543  13.747  70.797  1.00  0.00     2.415 C  
HETATM   18  O   UNL     1     -11.700  12.951  70.463  1.00  0.00    -0.165 OA 
HETATM   19  H   UNL     1     -12.092  17.050  69.317  1.00  0.00     0.000 HD 
HETATM   20  C   UNL     1     -11.057  14.909  71.678  1.00  0.00     0.158 C  
HETATM   21  H   UNL     1     -14.445  15.556  71.828  1.00  0.00     0.000 HD 
HETATM   22  O   UNL     1     -11.725  14.398  72.858  1.00  0.00     0.186 OA 
HETATM   23  C   UNL     1     -12.044  15.799  70.905  1.00  0.00    -0.416 C  
HETATM   24  H   UNL     1     -12.041  15.113  73.399  1.00  0.00     0.000 HD 
HETATM   25  O   UNL     1     -14.177  14.723  71.458  1.00  0.00    -0.435 OA 
HETATM   26  O   UNL     1     -11.482  16.500  69.794  1.00  0.00    -0.176 OA 
HETATM   27  C   UNL     1     -13.233  14.976  70.402  1.00  0.00    -0.110 C  
BRANCH  17  28
HETATM   28  O   UNL     1      -9.801  14.104  69.620  1.00  0.00     0.316 OA 
BRANCH  28  29
HETATM   29  C   UNL     1      -9.129  13.081  68.951  1.00  0.00     0.322 C  
HETATM   30  O   UNL     1      -7.062  12.121  68.063  1.00  0.00    -0.081 OA 
HETATM   31  C   UNL     1      -7.859  13.187  68.488  1.00  0.00    -0.105 C  
HETATM   32  C   UNL     1      -7.625  10.874  67.959  1.00  0.00    -0.092 A  
HETATM   33  O   UNL     1     -10.506  11.428  69.869  1.00  0.00     0.190 OA 
HETATM   34  H   UNL     1     -11.465  10.020  68.412  1.00  0.00     0.000 HD 
HETATM   35  C   UNL     1      -6.843   9.794  67.554  1.00  0.00    -0.082 A  
HETATM   36  C   UNL     1      -9.644  11.699  69.042  1.00  0.00     0.115 C  
HETATM   37  C   UNL     1      -7.443   8.542  67.377  1.00  0.00    -0.093 A  
HETATM   38  C   UNL     1      -8.985  10.661  68.259  1.00  0.00    -0.143 A  
HETATM   39  O   UNL     1     -10.935   9.294  68.106  1.00  0.00    -0.138 OA 
HETATM   40  C   UNL     1      -8.814   8.368  67.531  1.00  0.00    -0.139 A  
HETATM   41  O   UNL     1      -6.721   7.431  67.048  1.00  0.00    -0.064 OA 
HETATM   42  H   UNL     1      -7.128   6.581  66.929  1.00  0.00     0.000 HD 
HETATM   43  C   UNL     1      -9.587   9.429  67.978  1.00  0.00    -0.138 A  
BRANCH  31  44
HETATM   44  C   UNL     1      -7.191  14.496  68.516  1.00  0.00    -0.120 A  
HETATM   45  O   UNL     1      -5.954  18.449  68.773  1.00  0.00    -0.193 OA 
HETATM   46  H   UNL     1      -6.236  18.299  66.422  1.00  0.00     0.000 HD 
HETATM   47  C   UNL     1      -6.842  15.056  69.760  1.00  0.00    -0.181 A  
HETATM   48  H   UNL     1      -5.748  18.829  69.619  1.00  0.00     0.000 HD 
HETATM   49  O   UNL     1      -6.523  17.396  66.352  1.00  0.00    -0.210 OA 
HETATM   50  C   UNL     1      -6.313  17.133  68.686  1.00  0.00    -0.163 A  
HETATM   51  C   UNL     1      -6.614  16.575  67.445  1.00  0.00    -0.164 A  
HETATM   52  C   UNL     1      -7.035  15.252  67.343  1.00  0.00    -0.212 A  
HETATM   53  C   UNL     1      -6.405  16.380  69.846  1.00  0.00    -0.125 A  
ENDBRANCH  31  44
ENDBRANCH  28  29
ENDBRANCH  17  28
ENDBRANCH  15  16
ENDBRANCH  14  15
ENDBRANCH   4  14
TORSDOF 6
ENDMDL
MODEL      209
REMARK 921   NORMALIZED FREE ENERGY PREDICTED BY IDOCK:   11.06 KCAL/MOL
REMARK 922        TOTAL FREE ENERGY PREDICTED BY IDOCK:   13.46 KCAL/MOL
REMARK 923 INTER-LIGAND FREE ENERGY PREDICTED BY IDOCK:   10.07 KCAL/MOL
REMARK 924 INTRA-LIGAND FREE ENERGY PREDICTED BY IDOCK:    3.39 KCAL/MOL
REMARK 927      BINDING AFFINITY PREDICTED BY RF-SCORE:    0.00 PKD
ROOT
HETATM    1  C   UNL     1      -6.973  13.573  65.845  1.00  0.00     5.526 C  
HETATM    2  C   UNL     1      -7.552  12.166  66.024  1.00  0.00     1.067 C  
HETATM    3  O   UNL     1      -8.088  11.841  64.741  1.00  0.00     1.099 OA 
HETATM    4  C   UNL     1      -9.066  10.821  64.605  1.00  0.00    -0.201 C  
HETATM    5  H   UNL     1      -9.846  10.772  69.036  1.00  0.00     0.000 HD 
HETATM    6  C   UNL     1     -10.081  10.767  65.757  1.00  0.00    -0.261 C  
HETATM    7  C   UNL     1      -9.360  10.827  67.111  1.00  0.00    -0.155 C  
HETATM    8  O   UNL     1      -7.868  12.289  68.437  1.00  0.00    -0.143 OA 
HETATM    9  O   UNL     1     -11.006  11.868  65.659  1.00  0.00    -0.288 OA 
HETATM   10  H   UNL     1     -11.633  11.835  66.372  1.00  0.00     0.000 HD 
HETATM   11  H   UNL     1      -8.490  12.271  69.155  1.00  0.00     0.000 HD 
HETATM   12  O   UNL     1     -10.292  10.735  68.198  1.00  0.00    -0.160 OA 
HETATM   13  C   UNL     1      -8.561  12.137  67.188  1.00  0.00    -0.185 C  
ENDROOT
BRANCH   4  14
HETATM   14  O   UNL     1      -8.552   9.509  64.368  1.00  0.00    -0.170 OA 
BRANCH  14  15
HETATM   15  C   UNL     1      -8.687   8.632  65.501  1.00  0.00    -0.186 C  
BRANCH  15  16
HETATM   16  C   UNL     1      -7.322   8.503  66.188  1.00  0.00    -0.081 C  
HETATM   17  C   UNL     1      -7.789   7.616  68.444  1.00  0.00    -0.121 C  
HETATM   18  O   UNL     1      -7.421   8.739  67.614  1.00  0.00    -0.091 OA 
HETATM   19  H   UNL     1      -8.045   5.141  65.392  1.00  0.00     0.000 HD 
HETATM   20  C   UNL     1      -6.746   6.510  68.161  1.00  0.00    -0.068 C  
HETATM   21  H   UNL     1      -4.675   6.790  65.413  1.00  0.00     0.000 HD 
HETATM   22  O   UNL     1      -5.407   6.984  68.450  1.00  0.00    -0.015 OA 
HETATM   23  C   UNL     1      -6.796   6.058  66.692  1.00  0.00    -0.062 C  
HETATM   24  H   UNL     1      -4.766   6.304  68.277  1.00  0.00     0.000 HD 
HETATM   25  O   UNL     1      -5.151   7.567  65.680  1.00  0.00    -0.024 OA 
HETATM   26  O   UNL     1      -8.014   5.420  66.300  1.00  0.00    -0.103 OA 
HETATM   27  C   UNL     1      -6.550   7.242  65.754  1.00  0.00    -0.048 C  
BRANCH  17  28
HETATM   28  O   UNL     1      -9.170   7.266  68.262  1.00  0.00    -0.134 OA 
BRANCH  28  29
HETATM   29  C   UNL     1      -9.747   6.422  69.211  1.00  0.00    -0.136 C  
HETATM   30  O   UNL     1     -10.592   4.221  69.863  1.00  0.00     0.490 OA 
HETATM   31  C   UNL     1     -10.259   5.200  68.924  1.00  0.00    -0.150 C  
HETATM   32  C   UNL     1     -10.544   4.541  71.197  1.00  0.00     0.219 A  
HETATM   33  O   UNL     1      -8.613   7.453  70.979  1.00  0.00    -0.131 OA 
HETATM   34  H   UNL     1      -9.879   8.146  72.693  1.00  0.00     0.000 HD 
HETATM   35  C   UNL     1     -10.856   3.574  72.151  1.00  0.00     0.428 A  
HETATM   36  C   UNL     1      -9.492   6.666  70.646  1.00  0.00    -0.169 C  
HETATM   37  C   UNL     1     -10.877   3.930  73.505  1.00  0.00    -0.241 A  
HETATM   38  C   UNL     1     -10.179   5.833  71.624  1.00  0.00    -0.253 A  
HETATM   39  O   UNL     1     -10.122   7.492  73.338  1.00  0.00    -0.296 OA 
HETATM   40  C   UNL     1     -10.662   5.242  73.912  1.00  0.00    -0.320 A  
HETATM   41  O   UNL     1     -11.108   3.015  74.492  1.00  0.00     0.085 OA 
HETATM   42  H   UNL     1     -11.123   3.256  75.410  1.00  0.00     0.000 HD 
HETATM   43  C   UNL     1     -10.306   6.196  72.970  1.00  0.00    -0.206 A  
BRANCH  31  44
HETATM   44  C   UNL     1     -10.393   4.789  67.518  1.00  0.00    -0.051 A  
HETATM   45  O   UNL     1     -10.226   4.089  63.431  1.00  0.00    -0.257 OA 
HETATM   46  H   UNL     1     -12.024   5.637  63.471  1.00  0.00     0.000 HD 
HETATM   47  C   UNL     1      -9.473   3.863  66.989  1.00  0.00    -0.226 A  
HETATM   48  H   UNL     1      -9.585   3.485  63.078  1.00  0.00     0.000 HD 
HETATM   49  O   UNL     1     -12.069   5.807  64.405  1.00  0.00     4.783 OA 
HETATM   50  C   UNL     1     -10.312   4.280  64.782  1.00  0.00    -0.143 A  
HETATM   51  C   UNL     1     -11.254   5.166  65.300  1.00  0.00     0.866 A  
HETATM   52  C   UNL     1     -11.319   5.415  66.669  1.00  0.00     0.737 A  
HETATM   53  C   UNL     1      -9.430   3.610  65.616  1.00  0.00    -0.156 A  
ENDBRANCH  31  44
ENDBRANCH  28  29
ENDBRANCH  17  28
ENDBRANCH  15  16
ENDBRANCH  14  15
ENDBRANCH   4  14
TORSDOF 6
ENDMDL
MODEL      210
REMARK 921   NORMALIZED FREE ENERGY PREDICTED BY IDOCK:   12.10 KCAL/MOL
REMARK 922        TOTAL FREE ENERGY PREDICTED BY IDOCK:   14.87 KCAL/MOL
REMARK 923 INTER-LIGAND FREE ENERGY PREDICTED BY IDOCK:    2.68 KCAL/MOL
REMARK 924 INTRA-LIGAND FREE ENERGY PREDICTED BY IDOCK:   12.19 KCAL/MOL
REMARK 927      BINDING AFFINITY PREDICTED BY RF-SCORE:    0.00 PKD
ROOT
HETATM    1  C   UNL     1     -12.806  15.713  63.945  1.00  0.00     1.171 C  
HETATM    2  C   UNL     1     -11.890  14.939  64.898  1.00  0.00    -0.337 C  
HETATM    3  O   UNL     1     -12.784  14.128  65.661  1.00  0.00    -0.514 OA 
HETATM    4  C   UNL     1     -12.381  13.590  66.912  1.00  0.00    -0.238 C  
HETATM    5  H   UNL     1      -8.832  16.346  67.121  1.00  0.00     0.000 HD 
HETATM    6  C   UNL     1     -11.502  14.534  67.746  1.00  0.00    -0.340 C  
HETATM    7  C   UNL     1     -10.381  15.128  66.880  1.00  0.00    -0.272 C  
HETATM    8  O   UNL     1     -10.036  16.518  64.864  1.00  0.00    -0.145 OA 
HETATM    9  O   UNL     1     -12.297  15.602  68.296  1.00  0.00    -0.361 OA 
HETATM   10  H   UNL     1     -11.753  16.186  68.812  1.00  0.00     0.000 HD 
HETATM   11  H   UNL     1      -9.496  17.115  65.369  1.00  0.00     0.000 HD 
HETATM   12  O   UNL     1      -9.525  15.979  67.656  1.00  0.00    -0.214 OA 
HETATM   13  C   UNL     1     -11.015  15.907  65.718  1.00  0.00    -0.177 C  
ENDROOT
BRANCH   4  14
HETATM   14  O   UNL     1     -11.768  12.301  66.855  1.00  0.00    -0.441 OA 
BRANCH  14  15
HETATM   15  C   UNL     1     -10.644  12.246  65.959  1.00  0.00    -0.254 C  
BRANCH  15  16
HETATM   16  C   UNL     1      -9.431  12.878  66.654  1.00  0.00    -0.255 C  
HETATM   17  C   UNL     1      -8.989  11.476  68.636  1.00  0.00    -0.112 C  
HETATM   18  O   UNL     1      -9.497  12.712  68.092  1.00  0.00    -0.210 OA 
HETATM   19  H   UNL     1      -7.979  10.059  65.104  1.00  0.00     0.000 HD 
HETATM   20  C   UNL     1      -7.523  11.362  68.157  1.00  0.00    -0.100 C  
HETATM   21  H   UNL     1      -6.400  13.423  65.624  1.00  0.00     0.000 HD 
HETATM   22  O   UNL     1      -6.752  12.509  68.597  1.00  0.00    -0.075 OA 
HETATM   23  C   UNL     1      -7.442  11.281  66.623  1.00  0.00    -0.133 C  
HETATM   24  H   UNL     1      -5.851  12.439  68.302  1.00  0.00     0.000 HD 
HETATM   25  O   UNL     1      -7.224  13.651  66.038  1.00  0.00     2.564 OA 
HETATM   26  O   UNL     1      -8.029  10.110  66.051  1.00  0.00    -0.114 OA 
HETATM   27  C   UNL     1      -8.095  12.508  65.982  1.00  0.00     1.068 C  
BRANCH  17  28
HETATM   28  O   UNL     1      -9.858  10.375  68.327  1.00  0.00    -0.149 OA 
BRANCH  28  29
HETATM   29  C   UNL     1      -9.336   9.089  68.460  1.00  0.00    -0.139 C  
HETATM   30  O   UNL     1      -9.522   6.794  69.286  1.00  0.00    -0.143 OA 
HETATM   31  C   UNL     1      -9.829   8.157  69.312  1.00  0.00    -0.182 C  
HETATM   32  C   UNL     1      -8.539   6.354  68.436  1.00  0.00    -0.115 A  
HETATM   33  O   UNL     1      -8.356   9.148  66.336  1.00  0.00    -0.119 OA 
HETATM   34  H   UNL     1      -6.175   8.648  66.240  1.00  0.00     0.000 HD 
HETATM   35  C   UNL     1      -8.229   4.996  68.382  1.00  0.00    -0.085 A  
HETATM   36  C   UNL     1      -8.447   8.557  67.405  1.00  0.00    -0.127 C  
HETATM   37  C   UNL     1      -7.175   4.565  67.568  1.00  0.00    -0.069 A  
HETATM   38  C   UNL     1      -7.835   7.251  67.608  1.00  0.00    -0.113 A  
HETATM   39  O   UNL     1      -5.946   7.726  66.229  1.00  0.00    -0.036 OA 
HETATM   40  C   UNL     1      -6.386   5.471  66.866  1.00  0.00    -0.039 A  
HETATM   41  O   UNL     1      -6.865   3.244  67.420  1.00  0.00    -0.044 OA 
HETATM   42  H   UNL     1      -6.150   2.952  66.867  1.00  0.00     0.000 HD 
HETATM   43  C   UNL     1      -6.720   6.817  66.881  1.00  0.00    -0.056 A  
BRANCH  31  44
HETATM   44  C   UNL     1     -10.853   8.549  70.291  1.00  0.00    -0.249 A  
HETATM   45  O   UNL     1     -14.005  10.066  72.523  1.00  0.00    -0.529 OA 
HETATM   46  H   UNL     1     -12.279  11.501  73.293  1.00  0.00     0.000 HD 
HETATM   47  C   UNL     1     -12.132   7.965  70.210  1.00  0.00     0.350 A  
HETATM   48  H   UNL     1     -14.872   9.686  72.442  1.00  0.00     0.000 HD 
HETATM   49  O   UNL     1     -11.552  11.163  72.784  1.00  0.00     4.448 OA 
HETATM   50  C   UNL     1     -12.958   9.533  71.825  1.00  0.00    -0.412 A  
HETATM   51  C   UNL     1     -11.687  10.090  71.945  1.00  0.00     0.209 A  
HETATM   52  C   UNL     1     -10.620   9.595  71.199  1.00  0.00    -0.327 A  
HETATM   53  C   UNL     1     -13.189   8.461  70.977  1.00  0.00     0.093 A  
ENDBRANCH  31  44
ENDBRANCH  28  29
ENDBRANCH  17  28
ENDBRANCH  15  16
ENDBRANCH  14  15
ENDBRANCH   4  14
TORSDOF 6
ENDMDL
MODEL      211
REMARK 921   NORMALIZED FREE ENERGY PREDICTED BY IDOCK:   12.66 KCAL/MOL
REMARK 922        TOTAL FREE ENERGY PREDICTED BY IDOCK:   15.62 KCAL/MOL
REMARK 923 INTER-LIGAND FREE ENERGY PREDICTED BY IDOCK:    2.76 KCAL/MOL
REMARK 924 INTRA-LIGAND FREE ENERGY PREDICTED BY IDOCK:   12.86 KCAL/MOL
REMARK 927      BINDING AFFINITY PREDICTED BY RF-SCORE:    0.00 PKD
ROOT
HETATM    1  C   UNL     1     -12.337  13.521  67.612  1.00  0.00    -0.044 C  
HETATM    2  C   UNL     1     -11.095  12.626  67.562  1.00  0.00    -0.272 C  
HETATM    3  O   UNL     1     -10.887  12.238  68.920  1.00  0.00    -0.223 OA 
HETATM    4  C   UNL     1      -9.619  11.765  69.349  1.00  0.00     0.709 C  
HETATM    5  H   UNL     1      -7.624  13.274  65.610  1.00  0.00     0.000 HD 
HETATM    6  C   UNL     1      -8.428  12.483  68.698  1.00  0.00     0.031 C  
HETATM    7  C   UNL     1      -8.626  12.582  67.178  1.00  0.00    -0.200 C  
HETATM    8  O   UNL     1     -10.173  13.528  65.495  1.00  0.00    -0.291 OA 
HETATM    9  O   UNL     1      -8.281  13.807  69.247  1.00  0.00    -0.324 OA 
HETATM   10  H   UNL     1      -7.545  14.251  68.844  1.00  0.00     0.000 HD 
HETATM   11  H   UNL     1      -9.447  13.984  65.086  1.00  0.00     0.000 HD 
HETATM   12  O   UNL     1      -7.501  13.213  66.550  1.00  0.00     0.630 OA 
HETATM   13  C   UNL     1      -9.917  13.367  66.899  1.00  0.00    -0.252 C  
ENDROOT
BRANCH   4  14
HETATM   14  O   UNL     1      -9.429  10.352  69.251  1.00  0.00    -0.201 OA 
BRANCH  14  15
HETATM   15  C   UNL     1      -8.832   9.776  70.426  1.00  0.00    -0.072 C  
BRANCH  15  16
HETATM   16  C   UNL     1      -7.413   9.309  70.077  1.00  0.00    -0.094 C  
HETATM   17  C   UNL     1      -7.358   6.895  70.591  1.00  0.00    -0.074 C  
HETATM   18  O   UNL     1      -6.976   8.239  70.952  1.00  0.00    -0.041 OA 
HETATM   19  H   UNL     1      -9.273   8.053  67.352  1.00  0.00     0.000 HD 
HETATM   20  C   UNL     1      -6.819   6.661  69.160  1.00  0.00    -0.069 C  
HETATM   21  H   UNL     1      -5.756   9.358  67.285  1.00  0.00     0.000 HD 
HETATM   22  O   UNL     1      -5.382   6.849  69.118  1.00  0.00    -0.013 OA 
HETATM   23  C   UNL     1      -7.467   7.629  68.156  1.00  0.00    -0.108 C  
HETATM   24  H   UNL     1      -5.052   6.705  68.239  1.00  0.00     0.000 HD 
HETATM   25  O   UNL     1      -5.880   9.497  68.216  1.00  0.00    -0.041 OA 
HETATM   26  O   UNL     1      -8.873   7.455  67.973  1.00  0.00    -0.127 OA 
HETATM   27  C   UNL     1      -7.212   9.082  68.566  1.00  0.00    -0.073 C  
BRANCH  17  28
HETATM   28  O   UNL     1      -8.763   6.681  70.798  1.00  0.00    -0.141 OA 
BRANCH  28  29
HETATM   29  C   UNL     1      -9.492   6.144  69.737  1.00  0.00    -0.150 C  
HETATM   30  O   UNL     1     -11.362   6.270  68.165  1.00  0.00    -0.278 OA 
HETATM   31  C   UNL     1     -10.721   6.582  69.366  1.00  0.00    -0.277 C  
HETATM   32  C   UNL     1     -10.794   5.335  67.336  1.00  0.00     0.167 A  
HETATM   33  O   UNL     1      -7.574   5.290  68.706  1.00  0.00    -0.079 OA 
HETATM   34  H   UNL     1      -7.625   3.115  68.173  1.00  0.00     0.000 HD 
HETATM   35  C   UNL     1     -11.409   5.022  66.125  1.00  0.00     0.799 A  
HETATM   36  C   UNL     1      -8.798   5.315  68.729  1.00  0.00    -0.096 C  
HETATM   37  C   UNL     1     -10.864   4.014  65.321  1.00  0.00     0.211 A  
HETATM   38  C   UNL     1      -9.594   4.685  67.684  1.00  0.00    -0.200 A  
HETATM   39  O   UNL     1      -8.064   2.882  67.363  1.00  0.00    -0.075 OA 
HETATM   40  C   UNL     1      -9.763   3.272  65.736  1.00  0.00     0.049 A  
HETATM   41  O   UNL     1     -11.379   3.706  64.094  1.00  0.00    -0.524 OA 
HETATM   42  H   UNL     1     -11.009   3.022  63.549  1.00  0.00     0.000 HD 
HETATM   43  C   UNL     1      -9.122   3.612  66.918  1.00  0.00    -0.166 A  
BRANCH  31  44
HETATM   44  C   UNL     1     -11.426   7.550  70.219  1.00  0.00    -0.173 A  
HETATM   45  O   UNL     1     -13.067  10.781  72.240  1.00  0.00    -0.547 OA 
HETATM   46  H   UNL     1     -11.350  10.215  73.776  1.00  0.00     0.000 HD 
HETATM   47  C   UNL     1     -12.553   8.219  69.702  1.00  0.00     2.452 A  
HETATM   48  H   UNL     1     -13.809  11.246  71.871  1.00  0.00     0.000 HD 
HETATM   49  O   UNL     1     -10.965   9.476  73.320  1.00  0.00     3.260 OA 
HETATM   50  C   UNL     1     -12.560   9.687  71.597  1.00  0.00    -0.402 A  
HETATM   51  C   UNL     1     -11.473   9.005  72.138  1.00  0.00    -0.258 A  
HETATM   52  C   UNL     1     -10.908   7.922  71.469  1.00  0.00    -0.268 A  
HETATM   53  C   UNL     1     -13.120   9.293  70.391  1.00  0.00     0.607 A  
ENDBRANCH  31  44
ENDBRANCH  28  29
ENDBRANCH  17  28
ENDBRANCH  15  16
ENDBRANCH  14  15
ENDBRANCH   4  14
TORSDOF 6
ENDMDL
MODEL      212
REMARK 921   NORMALIZED FREE ENERGY PREDICTED BY IDOCK:   13.21 KCAL/MOL
REMARK 922        TOTAL FREE ENERGY PREDICTED BY IDOCK:   16.36 KCAL/MOL
REMARK 923 INTER-LIGAND FREE ENERGY PREDICTED BY IDOCK:   -2.27 KCAL/MOL
REMARK 924 INTRA-LIGAND FREE ENERGY PREDICTED BY IDOCK:   18.63 KCAL/MOL
REMARK 927      BINDING AFFINITY PREDICTED BY RF-SCORE:    0.00 PKD
ROOT
HETATM    1  C   UNL     1     -11.245   4.764  70.722  1.00  0.00     1.395 C  
HETATM    2  C   UNL     1     -11.285   6.295  70.681  1.00  0.00    -0.337 C  
HETATM    3  O   UNL     1     -10.055   6.694  71.285  1.00  0.00    -0.188 OA 
HETATM    4  C   UNL     1      -9.901   8.005  71.811  1.00  0.00    -0.183 C  
HETATM    5  H   UNL     1     -14.336   8.745  71.664  1.00  0.00     0.000 HD 
HETATM    6  C   UNL     1     -11.161   8.559  72.493  1.00  0.00    -0.258 C  
HETATM    7  C   UNL     1     -12.394   8.334  71.607  1.00  0.00    -0.315 C  
HETATM    8  O   UNL     1     -13.708   6.518  70.558  1.00  0.00     0.815 OA 
HETATM    9  O   UNL     1     -11.363   7.915  73.766  1.00  0.00    -0.188 OA 
HETATM   10  H   UNL     1     -12.143   8.257  74.188  1.00  0.00     0.000 HD 
HETATM   11  H   UNL     1     -14.494   6.845  70.980  1.00  0.00     0.000 HD 
HETATM   12  O   UNL     1     -13.573   8.884  72.212  1.00  0.00    -0.411 OA 
HETATM   13  C   UNL     1     -12.560   6.826  71.365  1.00  0.00    -0.297 C  
ENDROOT
BRANCH   4  14
HETATM   14  O   UNL     1      -9.395   8.976  70.893  1.00  0.00    -0.219 OA 
BRANCH  14  15
HETATM   15  C   UNL     1      -8.602   8.402  69.839  1.00  0.00    -0.131 C  
BRANCH  15  16
HETATM   16  C   UNL     1      -9.524   8.055  68.664  1.00  0.00    -0.147 C  
HETATM   17  C   UNL     1      -8.028   7.505  66.779  1.00  0.00    -0.115 C  
HETATM   18  O   UNL     1      -8.937   8.441  67.396  1.00  0.00    -0.132 OA 
HETATM   19  H   UNL     1      -8.410   4.860  69.670  1.00  0.00     0.000 HD 
HETATM   20  C   UNL     1      -8.812   6.182  66.618  1.00  0.00    -0.127 C  
HETATM   21  H   UNL     1     -11.791   5.756  68.311  1.00  0.00     0.000 HD 
HETATM   22  O   UNL     1     -10.005   6.390  65.820  1.00  0.00    -0.296 OA 
HETATM   23  C   UNL     1      -9.232   5.613  67.983  1.00  0.00    -0.107 C  
HETATM   24  H   UNL     1     -10.487   5.577  65.721  1.00  0.00     0.000 HD 
HETATM   25  O   UNL     1     -11.442   6.638  68.260  1.00  0.00    -0.103 OA 
HETATM   26  O   UNL     1      -8.151   5.212  68.826  1.00  0.00    -0.085 OA 
HETATM   27  C   UNL     1     -10.089   6.624  68.749  1.00  0.00    -0.158 C  
BRANCH  17  28
HETATM   28  O   UNL     1      -6.785   7.438  67.495  1.00  0.00    -0.064 OA 
BRANCH  28  29
HETATM   29  C   UNL     1      -6.651   6.433  68.454  1.00  0.00    -0.058 C  
HETATM   30  O   UNL     1      -5.907   4.193  69.095  1.00  0.00    -0.020 OA 
HETATM   31  C   UNL     1      -6.314   5.152  68.164  1.00  0.00    -0.036 C  
HETATM   32  C   UNL     1      -5.980   4.496  70.431  1.00  0.00    -0.014 A  
HETATM   33  O   UNL     1      -6.286   7.973  70.177  1.00  0.00    -0.032 OA 
HETATM   34  H   UNL     1      -7.593   7.761  71.984  1.00  0.00     0.000 HD 
HETATM   35  C   UNL     1      -5.562   3.559  71.375  1.00  0.00    -0.008 A  
HETATM   36  C   UNL     1      -6.508   6.806  69.877  1.00  0.00    -0.043 C  
HETATM   37  C   UNL     1      -5.710   3.846  72.737  1.00  0.00    -0.004 A  
HETATM   38  C   UNL     1      -6.467   5.742  70.871  1.00  0.00    -0.040 A  
HETATM   39  O   UNL     1      -7.336   7.108  72.625  1.00  0.00    -0.075 OA 
HETATM   40  C   UNL     1      -6.327   5.016  73.167  1.00  0.00    -0.051 A  
HETATM   41  O   UNL     1      -5.260   3.001  73.710  1.00  0.00     0.000 OA 
HETATM   42  H   UNL     1      -5.360   3.197  74.634  1.00  0.00     0.000 HD 
HETATM   43  C   UNL     1      -6.702   5.970  72.232  1.00  0.00    -0.072 A  
BRANCH  31  44
HETATM   44  C   UNL     1      -6.257   4.725  66.759  1.00  0.00    -0.032 A  
HETATM   45  O   UNL     1      -5.429   3.292  62.953  1.00  0.00    -0.008 OA 
HETATM   46  H   UNL     1      -4.975   5.592  62.592  1.00  0.00     0.000 HD 
HETATM   47  C   UNL     1      -6.436   3.361  66.454  1.00  0.00    -0.036 A  
HETATM   48  H   UNL     1      -5.524   2.366  62.763  1.00  0.00     0.000 HD 
HETATM   49  O   UNL     1      -5.158   5.930  63.461  1.00  0.00    -0.015 OA 
HETATM   50  C   UNL     1      -5.750   3.769  64.193  1.00  0.00    -0.014 A  
HETATM   51  C   UNL     1      -5.612   5.126  64.473  1.00  0.00    -0.017 A  
HETATM   52  C   UNL     1      -5.881   5.621  65.746  1.00  0.00    -0.024 A  
HETATM   53  C   UNL     1      -6.178   2.881  65.168  1.00  0.00    -0.020 A  
ENDBRANCH  31  44
ENDBRANCH  28  29
ENDBRANCH  17  28
ENDBRANCH  15  16
ENDBRANCH  14  15
ENDBRANCH   4  14
TORSDOF 6
ENDMDL
MODEL      213
REMARK 921   NORMALIZED FREE ENERGY PREDICTED BY IDOCK:   13.63 KCAL/MOL
REMARK 922        TOTAL FREE ENERGY PREDICTED BY IDOCK:   16.94 KCAL/MOL
REMARK 923 INTER-LIGAND FREE ENERGY PREDICTED BY IDOCK:    6.52 KCAL/MOL
REMARK 924 INTRA-LIGAND FREE ENERGY PREDICTED BY IDOCK:   10.42 KCAL/MOL
REMARK 927      BINDING AFFINITY PREDICTED BY RF-SCORE:    0.00 PKD
ROOT
HETATM    1  C   UNL     1     -12.003  14.267  63.706  1.00  0.00    -0.077 C  
HETATM    2  C   UNL     1     -11.631  13.105  64.631  1.00  0.00    -0.345 C  
HETATM    3  O   UNL     1     -10.212  12.999  64.507  1.00  0.00    -0.354 OA 
HETATM    4  C   UNL     1      -9.544  11.798  64.868  1.00  0.00    -0.112 C  
HETATM    5  H   UNL     1     -13.410   9.499  64.955  1.00  0.00     0.000 HD 
HETATM    6  C   UNL     1     -10.317  10.519  64.512  1.00  0.00    -0.205 C  
HETATM    7  C   UNL     1     -11.780  10.633  64.964  1.00  0.00     1.969 C  
HETATM    8  O   UNL     1     -13.806  12.008  64.606  1.00  0.00     0.197 OA 
HETATM    9  O   UNL     1     -10.273  10.288  63.090  1.00  0.00    -0.449 OA 
HETATM   10  H   UNL     1     -10.751   9.498  62.870  1.00  0.00     0.000 HD 
HETATM   11  H   UNL     1     -14.295  11.226  64.377  1.00  0.00     0.000 HD 
HETATM   12  O   UNL     1     -12.506   9.428  64.676  1.00  0.00    11.134 OA 
HETATM   13  C   UNL     1     -12.423  11.837  64.258  1.00  0.00    -0.055 C  
ENDROOT
BRANCH   4  14
HETATM   14  O   UNL     1      -9.111  11.725  66.227  1.00  0.00    -0.214 OA 
BRANCH  14  15
HETATM   15  C   UNL     1      -7.723  11.372  66.362  1.00  0.00    -0.051 C  
BRANCH  15  16
HETATM   16  C   UNL     1      -7.509   9.979  65.757  1.00  0.00    -0.121 C  
HETATM   17  C   UNL     1      -6.772   8.543  67.625  1.00  0.00    -0.066 C  
HETATM   18  O   UNL     1      -6.436   9.269  66.424  1.00  0.00    -0.065 OA 
HETATM   19  H   UNL     1     -10.573   9.559  67.460  1.00  0.00     0.000 HD 
HETATM   20  C   UNL     1      -7.896   7.556  67.234  1.00  0.00    -0.118 C  
HETATM   21  H   UNL     1      -9.541   7.961  64.225  1.00  0.00     0.000 HD 
HETATM   22  O   UNL     1      -7.454   6.674  66.171  1.00  0.00    -0.078 OA 
HETATM   23  C   UNL     1      -9.153   8.302  66.757  1.00  0.00    -0.156 C  
HETATM   24  H   UNL     1      -8.145   6.068  65.930  1.00  0.00     0.000 HD 
HETATM   25  O   UNL     1      -8.730   8.440  64.345  1.00  0.00    -0.033 OA 
HETATM   26  O   UNL     1      -9.796   9.098  67.755  1.00  0.00    -0.159 OA 
HETATM   27  C   UNL     1      -8.826   9.202  65.562  1.00  0.00    -0.191 C  
BRANCH  17  28
HETATM   28  O   UNL     1      -7.047   9.439  68.714  1.00  0.00    -0.067 OA 
BRANCH  28  29
HETATM   29  C   UNL     1      -8.269   9.294  69.370  1.00  0.00    -0.114 C  
HETATM   30  O   UNL     1      -9.633   8.262  71.118  1.00  0.00    -0.152 OA 
HETATM   31  C   UNL     1      -8.544   8.295  70.245  1.00  0.00    -0.127 C  
HETATM   32  C   UNL     1     -10.598   9.231  71.009  1.00  0.00    -0.316 A  
HETATM   33  O   UNL     1      -8.810  11.553  69.095  1.00  0.00     0.071 OA 
HETATM   34  H   UNL     1     -10.805  11.986  68.173  1.00  0.00     0.000 HD 
HETATM   35  C   UNL     1     -11.685   9.226  71.883  1.00  0.00    -0.420 A  
HETATM   36  C   UNL     1      -9.201  10.439  69.424  1.00  0.00    -0.159 C  
HETATM   37  C   UNL     1     -12.702  10.173  71.715  1.00  0.00    -0.434 A  
HETATM   38  C   UNL     1     -10.511  10.239  70.029  1.00  0.00    -0.293 A  
HETATM   39  O   UNL     1     -11.559  11.960  68.751  1.00  0.00    -0.258 OA 
HETATM   40  C   UNL     1     -12.686  11.074  70.656  1.00  0.00    -0.375 A  
HETATM   41  O   UNL     1     -13.757  10.264  72.577  1.00  0.00    -0.577 OA 
HETATM   42  H   UNL     1     -14.448  10.907  72.464  1.00  0.00     0.000 HD 
HETATM   43  C   UNL     1     -11.585  11.111  69.813  1.00  0.00    -0.334 A  
BRANCH  31  44
HETATM   44  C   UNL     1      -7.588   7.188  70.394  1.00  0.00    -0.089 A  
HETATM   45  O   UNL     1      -5.467   3.675  71.013  1.00  0.00    -0.007 OA 
HETATM   46  H   UNL     1      -5.015   4.752  73.078  1.00  0.00     0.000 HD 
HETATM   47  C   UNL     1      -7.515   6.209  69.384  1.00  0.00    -0.093 A  
HETATM   48  H   UNL     1      -5.447   3.007  70.338  1.00  0.00     0.000 HD 
HETATM   49  O   UNL     1      -5.500   5.558  72.948  1.00  0.00    -0.021 OA 
HETATM   50  C   UNL     1      -6.125   4.852  70.787  1.00  0.00    -0.018 A  
HETATM   51  C   UNL     1      -6.155   5.832  71.777  1.00  0.00    -0.039 A  
HETATM   52  C   UNL     1      -6.866   7.013  71.586  1.00  0.00    -0.060 A  
HETATM   53  C   UNL     1      -6.784   5.036  69.582  1.00  0.00    -0.051 A  
ENDBRANCH  31  44
ENDBRANCH  28  29
ENDBRANCH  17  28
ENDBRANCH  15  16
ENDBRANCH  14  15
ENDBRANCH   4  14
TORSDOF 6
ENDMDL
MODEL      214
REMARK 921   NORMALIZED FREE ENERGY PREDICTED BY IDOCK:   13.71 KCAL/MOL
REMARK 922        TOTAL FREE ENERGY PREDICTED BY IDOCK:   17.05 KCAL/MOL
REMARK 923 INTER-LIGAND FREE ENERGY PREDICTED BY IDOCK:    2.83 KCAL/MOL
REMARK 924 INTRA-LIGAND FREE ENERGY PREDICTED BY IDOCK:   14.22 KCAL/MOL
REMARK 927      BINDING AFFINITY PREDICTED BY RF-SCORE:    0.00 PKD
ROOT
HETATM    1  C   UNL     1     -11.398   7.964  65.652  1.00  0.00     6.152 C  
HETATM    2  C   UNL     1     -10.690   8.910  66.626  1.00  0.00     0.053 C  
HETATM    3  O   UNL     1     -10.557   8.144  67.824  1.00  0.00    -0.222 OA 
HETATM    4  C   UNL     1     -10.341   8.788  69.071  1.00  0.00    -0.213 C  
HETATM    5  H   UNL     1     -11.499  12.791  67.375  1.00  0.00     0.000 HD 
HETATM    6  C   UNL     1     -11.106  10.110  69.236  1.00  0.00    -0.225 C  
HETATM    7  C   UNL     1     -10.932  10.990  67.990  1.00  0.00    -0.258 C  
HETATM    8  O   UNL     1     -11.370  10.990  65.555  1.00  0.00     0.066 OA 
HETATM    9  O   UNL     1     -12.508   9.852  69.447  1.00  0.00    -0.162 OA 
HETATM   10  H   UNL     1     -12.982  10.670  69.549  1.00  0.00     0.000 HD 
HETATM   11  H   UNL     1     -11.853  11.803  65.643  1.00  0.00     0.000 HD 
HETATM   12  O   UNL     1     -11.607  12.247  68.146  1.00  0.00    -0.297 OA 
HETATM   13  C   UNL     1     -11.473  10.230  66.769  1.00  0.00     0.872 C  
ENDROOT
BRANCH   4  14
HETATM   14  O   UNL     1      -8.971   8.988  69.426  1.00  0.00    -0.139 OA 
BRANCH  14  15
HETATM   15  C   UNL     1      -8.192   7.780  69.386  1.00  0.00    -0.131 C  
BRANCH  15  16
HETATM   16  C   UNL     1      -9.106   6.595  69.721  1.00  0.00    -0.143 C  
HETATM   17  C   UNL     1      -7.720   4.575  69.423  1.00  0.00    -0.055 C  
HETATM   18  O   UNL     1      -8.774   5.428  68.929  1.00  0.00    -0.098 OA 
HETATM   19  H   UNL     1      -7.098   6.791  72.617  1.00  0.00     0.000 HD 
HETATM   20  C   UNL     1      -8.142   4.145  70.847  1.00  0.00    -0.070 C  
HETATM   21  H   UNL     1     -10.716   5.815  72.431  1.00  0.00     0.000 HD 
HETATM   22  O   UNL     1      -9.423   3.466  70.816  1.00  0.00    -0.147 OA 
HETATM   23  C   UNL     1      -8.256   5.358  71.784  1.00  0.00    -0.119 C  
HETATM   24  H   UNL     1      -9.682   3.202  71.691  1.00  0.00     0.000 HD 
HETATM   25  O   UNL     1     -10.617   5.953  71.497  1.00  0.00    -0.228 OA 
HETATM   26  O   UNL     1      -7.027   6.042  72.037  1.00  0.00    -0.074 OA 
HETATM   27  C   UNL     1      -9.265   6.371  71.237  1.00  0.00    -0.156 C  
BRANCH  17  28
HETATM   28  O   UNL     1      -6.436   5.205  69.290  1.00  0.00    -0.033 OA 
BRANCH  28  29
HETATM   29  C   UNL     1      -6.382   6.405  68.581  1.00  0.00    -0.038 C  
HETATM   30  O   UNL     1      -6.863   7.707  66.567  1.00  0.00    -0.060 OA 
HETATM   31  C   UNL     1      -6.640   6.511  67.254  1.00  0.00    -0.054 C  
HETATM   32  C   UNL     1      -6.673   8.895  67.227  1.00  0.00    -0.066 A  
HETATM   33  O   UNL     1      -6.687   7.688  70.513  1.00  0.00    -0.042 OA 
HETATM   34  H   UNL     1      -5.181   9.308  70.871  1.00  0.00     0.000 HD 
HETATM   35  C   UNL     1      -6.907  10.099  66.565  1.00  0.00    -0.090 A  
HETATM   36  C   UNL     1      -6.402   7.684  69.322  1.00  0.00    -0.035 C  
HETATM   37  C   UNL     1      -6.638  11.305  67.222  1.00  0.00    -0.093 A  
HETATM   38  C   UNL     1      -6.247   8.922  68.570  1.00  0.00    -0.053 A  
HETATM   39  O   UNL     1      -5.312  10.126  70.407  1.00  0.00    -0.041 OA 
HETATM   40  C   UNL     1      -6.078  11.328  68.495  1.00  0.00    -0.042 A  
HETATM   41  O   UNL     1      -6.909  12.517  66.654  1.00  0.00    -0.377 OA 
HETATM   42  H   UNL     1      -6.727  13.336  67.100  1.00  0.00     0.000 HD 
HETATM   43  C   UNL     1      -5.887  10.133  69.174  1.00  0.00    -0.037 A  
BRANCH  31  44
HETATM   44  C   UNL     1      -6.811   5.289  66.455  1.00  0.00    -0.063 A  
HETATM   45  O   UNL     1      -6.992   2.221  63.667  1.00  0.00    -0.034 OA 
HETATM   46  H   UNL     1      -9.218   3.022  63.485  1.00  0.00     0.000 HD 
HETATM   47  C   UNL     1      -5.696   4.457  66.235  1.00  0.00    -0.022 A  
HETATM   48  H   UNL     1      -6.228   1.682  63.503  1.00  0.00     0.000 HD 
HETATM   49  O   UNL     1      -9.186   3.729  64.118  1.00  0.00    -0.127 OA 
HETATM   50  C   UNL     1      -6.945   3.198  64.622  1.00  0.00    -0.053 A  
HETATM   51  C   UNL     1      -8.067   3.988  64.863  1.00  0.00    -0.093 A  
HETATM   52  C   UNL     1      -8.020   5.025  65.792  1.00  0.00    -0.107 A  
HETATM   53  C   UNL     1      -5.762   3.410  65.313  1.00  0.00    -0.018 A  
ENDBRANCH  31  44
ENDBRANCH  28  29
ENDBRANCH  17  28
ENDBRANCH  15  16
ENDBRANCH  14  15
ENDBRANCH   4  14
TORSDOF 6
ENDMDL
MODEL      215
REMARK 921   NORMALIZED FREE ENERGY PREDICTED BY IDOCK:   14.16 KCAL/MOL
REMARK 922        TOTAL FREE ENERGY PREDICTED BY IDOCK:   17.64 KCAL/MOL
REMARK 923 INTER-LIGAND FREE ENERGY PREDICTED BY IDOCK:    9.71 KCAL/MOL
REMARK 924 INTRA-LIGAND FREE ENERGY PREDICTED BY IDOCK:    7.93 KCAL/MOL
REMARK 927      BINDING AFFINITY PREDICTED BY RF-SCORE:    0.00 PKD
ROOT
HETATM    1  C   UNL     1     -13.311   9.408  70.531  1.00  0.00     0.376 C  
HETATM    2  C   UNL     1     -11.965   9.549  69.812  1.00  0.00     0.377 C  
HETATM    3  O   UNL     1     -11.503  10.848  70.187  1.00  0.00    -0.292 OA 
HETATM    4  C   UNL     1     -10.517  11.514  69.412  1.00  0.00     0.049 C  
HETATM    5  H   UNL     1     -11.069   8.655  65.982  1.00  0.00     0.000 HD 
HETATM    6  C   UNL     1     -10.656  11.294  67.898  1.00  0.00    -0.194 C  
HETATM    7  C   UNL     1     -10.856   9.803  67.588  1.00  0.00    -0.239 C  
HETATM    8  O   UNL     1     -12.409   7.933  68.045  1.00  0.00     3.214 OA 
HETATM    9  O   UNL     1     -11.774  12.043  67.384  1.00  0.00    -0.470 OA 
HETATM   10  H   UNL     1     -11.860  11.907  66.448  1.00  0.00     0.000 HD 
HETATM   11  H   UNL     1     -12.510   7.790  67.111  1.00  0.00     0.000 HD 
HETATM   12  O   UNL     1     -10.945   9.577  66.174  1.00  0.00     0.332 OA 
HETATM   13  C   UNL     1     -12.129   9.319  68.298  1.00  0.00     3.143 C  
ENDROOT
BRANCH   4  14
HETATM   14  O   UNL     1      -9.164  11.270  69.802  1.00  0.00     0.645 OA 
BRANCH  14  15
HETATM   15  C   UNL     1      -8.743   9.914  69.573  1.00  0.00    -0.190 C  
BRANCH  15  16
HETATM   16  C   UNL     1      -7.541   9.927  68.621  1.00  0.00    -0.080 C  
HETATM   17  C   UNL     1      -7.462  12.205  67.674  1.00  0.00    -0.129 C  
HETATM   18  O   UNL     1      -7.767  10.807  67.492  1.00  0.00    -0.102 OA 
HETATM   19  H   UNL     1      -6.278  11.706  71.396  1.00  0.00     0.000 HD 
HETATM   20  C   UNL     1      -5.979  12.272  68.107  1.00  0.00    -0.058 C  
HETATM   21  H   UNL     1      -4.380   9.390  69.136  1.00  0.00     0.000 HD 
HETATM   22  O   UNL     1      -5.128  11.654  67.109  1.00  0.00    -0.066 OA 
HETATM   23  C   UNL     1      -5.757  11.553  69.448  1.00  0.00    -0.060 C  
HETATM   24  H   UNL     1      -4.217  11.695  67.374  1.00  0.00     0.000 HD 
HETATM   25  O   UNL     1      -5.208   9.289  68.683  1.00  0.00    -0.034 OA 
HETATM   26  O   UNL     1      -6.415  12.150  70.567  1.00  0.00    -0.071 OA 
HETATM   27  C   UNL     1      -6.197  10.090  69.356  1.00  0.00    -0.045 C  
BRANCH  17  28
HETATM   28  O   UNL     1      -8.418  12.838  68.539  1.00  0.00    -0.136 OA 
BRANCH  28  29
HETATM   29  C   UNL     1      -8.879  14.101  68.170  1.00  0.00    -0.183 C  
HETATM   30  O   UNL     1      -8.614  16.532  68.129  1.00  0.00    -0.184 OA 
HETATM   31  C   UNL     1      -8.379  15.262  68.661  1.00  0.00    -0.162 C  
HETATM   32  C   UNL     1      -9.532  16.667  67.118  1.00  0.00    -0.230 A  
HETATM   33  O   UNL     1      -9.761  13.311  66.152  1.00  0.00    -0.281 OA 
HETATM   34  H   UNL     1     -11.907  13.811  65.749  1.00  0.00     0.000 HD 
HETATM   35  C   UNL     1      -9.768  17.924  66.563  1.00  0.00    -0.331 A  
HETATM   36  C   UNL     1      -9.690  14.244  66.942  1.00  0.00    -0.264 C  
HETATM   37  C   UNL     1     -10.760  18.064  65.585  1.00  0.00    -0.043 A  
HETATM   38  C   UNL     1     -10.242  15.555  66.625  1.00  0.00    -0.280 A  
HETATM   39  O   UNL     1     -12.087  14.674  65.394  1.00  0.00    -0.333 OA 
HETATM   40  C   UNL     1     -11.561  16.992  65.206  1.00  0.00     1.169 A  
HETATM   41  O   UNL     1     -10.993  19.252  64.954  1.00  0.00    -0.286 OA 
HETATM   42  H   UNL     1     -11.667  19.348  64.291  1.00  0.00     0.000 HD 
HETATM   43  C   UNL     1     -11.298  15.733  65.724  1.00  0.00     0.090 A  
BRANCH  31  44
HETATM   44  C   UNL     1      -7.423  15.218  69.777  1.00  0.00    -0.122 A  
HETATM   45  O   UNL     1      -5.290  15.282  73.336  1.00  0.00     0.251 OA 
HETATM   46  H   UNL     1      -4.689  17.420  72.502  1.00  0.00     0.000 HD 
HETATM   47  C   UNL     1      -7.427  14.099  70.633  1.00  0.00     1.604 A  
HETATM   48  H   UNL     1      -5.321  14.536  73.922  1.00  0.00     0.000 HD 
HETATM   49  O   UNL     1      -5.176  17.417  71.687  1.00  0.00    -0.376 OA 
HETATM   50  C   UNL     1      -5.953  15.238  72.141  1.00  0.00     0.984 A  
HETATM   51  C   UNL     1      -5.908  16.333  71.281  1.00  0.00     0.722 A  
HETATM   52  C   UNL     1      -6.623  16.328  70.086  1.00  0.00     0.240 A  
HETATM   53  C   UNL     1      -6.693  14.110  71.821  1.00  0.00     1.756 A  
ENDBRANCH  31  44
ENDBRANCH  28  29
ENDBRANCH  17  28
ENDBRANCH  15  16
ENDBRANCH  14  15
ENDBRANCH   4  14
TORSDOF 6
ENDMDL
MODEL      216
REMARK 921   NORMALIZED FREE ENERGY PREDICTED BY IDOCK:   14.47 KCAL/MOL
REMARK 922        TOTAL FREE ENERGY PREDICTED BY IDOCK:   18.06 KCAL/MOL
REMARK 923 INTER-LIGAND FREE ENERGY PREDICTED BY IDOCK:    2.88 KCAL/MOL
REMARK 924 INTRA-LIGAND FREE ENERGY PREDICTED BY IDOCK:   15.19 KCAL/MOL
REMARK 927      BINDING AFFINITY PREDICTED BY RF-SCORE:    0.00 PKD
ROOT
HETATM    1  C   UNL     1      -8.388  12.672  65.130  1.00  0.00     2.561 C  
HETATM    2  C   UNL     1      -9.856  12.994  65.427  1.00  0.00    -0.112 C  
HETATM    3  O   UNL     1     -10.410  11.747  65.849  1.00  0.00    -0.226 OA 
HETATM    4  C   UNL     1     -11.813  11.531  65.809  1.00  0.00     0.454 C  
HETATM    5  H   UNL     1     -12.445  15.139  63.198  1.00  0.00     0.000 HD 
HETATM    6  C   UNL     1     -12.512  12.165  64.597  1.00  0.00    -0.236 C  
HETATM    7  C   UNL     1     -12.053  13.619  64.414  1.00  0.00    -0.427 C  
HETATM    8  O   UNL     1     -10.016  14.959  63.996  1.00  0.00     0.438 OA 
HETATM    9  O   UNL     1     -12.215  11.417  63.402  1.00  0.00    -0.709 OA 
HETATM   10  H   UNL     1     -12.647  11.810  62.652  1.00  0.00     0.000 HD 
HETATM   11  H   UNL     1     -10.432  15.355  63.239  1.00  0.00     0.000 HD 
HETATM   12  O   UNL     1     -12.729  14.240  63.311  1.00  0.00    -0.665 OA 
HETATM   13  C   UNL     1     -10.532  13.634  64.199  1.00  0.00     0.043 C  
ENDROOT
BRANCH   4  14
HETATM   14  O   UNL     1     -12.520  11.884  67.000  1.00  0.00     0.091 OA 
BRANCH  14  15
HETATM   15  C   UNL     1     -11.748  12.701  67.897  1.00  0.00    -0.358 C  
BRANCH  15  16
HETATM   16  C   UNL     1     -12.062  14.175  67.612  1.00  0.00    -0.302 C  
HETATM   17  C   UNL     1     -10.849  15.463  69.332  1.00  0.00    -0.263 C  
HETATM   18  O   UNL     1     -12.104  14.955  68.832  1.00  0.00    -0.273 OA 
HETATM   19  H   UNL     1      -8.764  13.893  66.384  1.00  0.00     0.000 HD 
HETATM   20  C   UNL     1     -10.235  16.304  68.188  1.00  0.00    -0.258 C  
HETATM   21  H   UNL     1     -11.524  16.024  64.997  1.00  0.00     0.000 HD 
HETATM   22  O   UNL     1     -11.137  17.369  67.797  1.00  0.00    -0.240 OA 
HETATM   23  C   UNL     1      -9.943  15.435  66.954  1.00  0.00    -0.243 C  
HETATM   24  H   UNL     1     -10.760  17.885  67.094  1.00  0.00     0.000 HD 
HETATM   25  O   UNL     1     -12.042  15.667  65.708  1.00  0.00     0.531 OA 
HETATM   26  O   UNL     1      -8.945  14.430  67.147  1.00  0.00    -0.209 OA 
HETATM   27  C   UNL     1     -11.221  14.754  66.458  1.00  0.00    -0.342 C  
BRANCH  17  28
HETATM   28  O   UNL     1     -10.037  14.407  69.868  1.00  0.00     0.239 OA 
BRANCH  28  29
HETATM   29  C   UNL     1     -10.683  13.227  70.237  1.00  0.00     1.503 C  
HETATM   30  O   UNL     1     -10.671  10.797  70.522  1.00  0.00     0.033 OA 
HETATM   31  C   UNL     1     -10.214  11.987  69.949  1.00  0.00     1.461 C  
HETATM   32  C   UNL     1     -11.775  10.836  71.335  1.00  0.00     0.221 A  
HETATM   33  O   UNL     1     -11.853  14.278  71.968  1.00  0.00    -0.068 OA 
HETATM   34  H   UNL     1     -14.076  13.994  71.972  1.00  0.00     0.000 HD 
HETATM   35  C   UNL     1     -12.236   9.662  71.930  1.00  0.00    -0.413 A  
HETATM   36  C   UNL     1     -11.724  13.269  71.284  1.00  0.00     1.019 C  
HETATM   37  C   UNL     1     -13.406   9.698  72.697  1.00  0.00    -0.080 A  
HETATM   38  C   UNL     1     -12.453  12.044  71.587  1.00  0.00    -0.078 A  
HETATM   39  O   UNL     1     -14.404  13.187  72.350  1.00  0.00    -0.523 OA 
HETATM   40  C   UNL     1     -14.156  10.863  72.822  1.00  0.00     1.528 A  
HETATM   41  O   UNL     1     -13.873   8.600  73.361  1.00  0.00    -0.929 OA 
HETATM   42  H   UNL     1     -14.667   8.624  73.881  1.00  0.00     0.000 HD 
HETATM   43  C   UNL     1     -13.675  12.041  72.270  1.00  0.00     0.067 A  
BRANCH  31  44
HETATM   44  C   UNL     1      -9.062  11.846  69.047  1.00  0.00     0.285 A  
HETATM   45  O   UNL     1      -5.436  11.304  67.102  1.00  0.00    -0.053 OA 
HETATM   46  H   UNL     1      -5.448  13.674  67.215  1.00  0.00     0.000 HD 
HETATM   47  C   UNL     1      -8.623  10.553  68.700  1.00  0.00    -0.139 A  
HETATM   48  H   UNL     1      -5.133  10.428  66.897  1.00  0.00     0.000 HD 
HETATM   49  O   UNL     1      -6.275  13.809  67.663  1.00  0.00    -0.207 OA 
HETATM   50  C   UNL     1      -6.654  11.482  67.698  1.00  0.00    -0.078 A  
HETATM   51  C   UNL     1      -7.099  12.768  67.998  1.00  0.00    -0.111 A  
HETATM   52  C   UNL     1      -8.311  12.965  68.655  1.00  0.00     0.032 A  
HETATM   53  C   UNL     1      -7.413  10.370  68.026  1.00  0.00    -0.090 A  
ENDBRANCH  31  44
ENDBRANCH  28  29
ENDBRANCH  17  28
ENDBRANCH  15  16
ENDBRANCH  14  15
ENDBRANCH   4  14
TORSDOF 6
ENDMDL
MODEL      217
REMARK 921   NORMALIZED FREE ENERGY PREDICTED BY IDOCK:   14.80 KCAL/MOL
REMARK 922        TOTAL FREE ENERGY PREDICTED BY IDOCK:   18.51 KCAL/MOL
REMARK 923 INTER-LIGAND FREE ENERGY PREDICTED BY IDOCK:    7.99 KCAL/MOL
REMARK 924 INTRA-LIGAND FREE ENERGY PREDICTED BY IDOCK:   10.53 KCAL/MOL
REMARK 927      BINDING AFFINITY PREDICTED BY RF-SCORE:    0.00 PKD
ROOT
HETATM    1  C   UNL     1      -8.537  13.048  65.198  1.00  0.00     2.415 C  
HETATM    2  C   UNL     1      -9.920  13.564  65.607  1.00  0.00    -0.236 C  
HETATM    3  O   UNL     1     -10.666  12.379  65.887  1.00  0.00    -0.254 OA 
HETATM    4  C   UNL     1     -12.086  12.404  65.889  1.00  0.00    -0.281 C  
HETATM    5  H   UNL     1     -12.165  16.395  63.813  1.00  0.00     0.000 HD 
HETATM    6  C   UNL     1     -12.699  13.307  64.808  1.00  0.00    -0.274 C  
HETATM    7  C   UNL     1     -12.005  14.677  64.797  1.00  0.00    -0.433 C  
HETATM    8  O   UNL     1      -9.781  15.708  64.459  1.00  0.00     0.085 OA 
HETATM    9  O   UNL     1     -12.566  12.694  63.510  1.00  0.00    -0.696 OA 
HETATM   10  H   UNL     1     -12.944  13.253  62.842  1.00  0.00     0.000 HD 
HETATM   11  H   UNL     1     -10.144  16.268  63.783  1.00  0.00     0.000 HD 
HETATM   12  O   UNL     1     -12.594  15.548  63.820  1.00  0.00    -0.618 OA 
HETATM   13  C   UNL     1     -10.509  14.471  64.510  1.00  0.00    -0.028 C  
ENDROOT
BRANCH   4  14
HETATM   14  O   UNL     1     -12.691  12.700  67.149  1.00  0.00     0.262 OA 
BRANCH  14  15
HETATM   15  C   UNL     1     -11.755  13.186  68.128  1.00  0.00    -0.355 C  
BRANCH  15  16
HETATM   16  C   UNL     1     -12.191  14.589  68.569  1.00  0.00    -0.128 C  
HETATM   17  C   UNL     1     -10.760  15.160  70.497  1.00  0.00    -0.149 C  
HETATM   18  O   UNL     1     -12.056  14.762  70.001  1.00  0.00    -0.293 OA 
HETATM   19  H   UNL     1      -9.156  15.274  66.903  1.00  0.00     0.000 HD 
HETATM   20  C   UNL     1     -10.405  16.478  69.769  1.00  0.00    -0.163 C  
HETATM   21  H   UNL     1     -12.226  17.429  66.994  1.00  0.00     0.000 HD 
HETATM   22  O   UNL     1     -11.417  17.486  70.017  1.00  0.00     0.805 OA 
HETATM   23  C   UNL     1     -10.293  16.263  68.251  1.00  0.00    -0.272 C  
HETATM   24  H   UNL     1     -11.199  18.296  69.570  1.00  0.00     0.000 HD 
HETATM   25  O   UNL     1     -12.589  16.741  67.538  1.00  0.00     2.309 OA 
HETATM   26  O   UNL     1      -9.225  15.406  67.841  1.00  0.00    -0.179 OA 
HETATM   27  C   UNL     1     -11.601  15.705  67.686  1.00  0.00    -0.086 C  
BRANCH  17  28
HETATM   28  O   UNL     1      -9.811  14.087  70.393  1.00  0.00     1.642 OA 
BRANCH  28  29
HETATM   29  C   UNL     1     -10.314  12.786  70.384  1.00  0.00     3.258 C  
HETATM   30  O   UNL     1     -12.156  11.217  70.742  1.00  0.00    -0.356 OA 
HETATM   31  C   UNL     1     -11.490  12.426  70.956  1.00  0.00     1.672 C  
HETATM   32  C   UNL     1     -11.531  10.237  70.013  1.00  0.00    -0.296 A  
HETATM   33  O   UNL     1      -9.046  12.191  68.511  1.00  0.00    -0.172 OA 
HETATM   34  H   UNL     1      -7.793  10.344  68.712  1.00  0.00     0.000 HD 
HETATM   35  C   UNL     1     -12.187   9.030  69.773  1.00  0.00     1.019 A  
HETATM   36  C   UNL     1      -9.765  11.805  69.425  1.00  0.00     0.645 C  
HETATM   37  C   UNL     1     -11.513   8.008  69.093  1.00  0.00     0.714 A  
HETATM   38  C   UNL     1     -10.235  10.428  69.496  1.00  0.00    -0.258 A  
HETATM   39  O   UNL     1      -8.232   9.512  68.577  1.00  0.00    -0.110 OA 
HETATM   40  C   UNL     1     -10.182   8.147  68.714  1.00  0.00    -0.221 A  
HETATM   41  O   UNL     1     -12.120   6.830  68.768  1.00  0.00     0.232 OA 
HETATM   42  H   UNL     1     -11.663   6.137  68.307  1.00  0.00     0.000 HD 
HETATM   43  C   UNL     1      -9.542   9.361  68.910  1.00  0.00    -0.155 A  
BRANCH  31  44
HETATM   44  C   UNL     1     -12.208  13.397  71.795  1.00  0.00     0.249 A  
HETATM   45  O   UNL     1     -14.374  16.477  73.539  1.00  0.00    -0.384 OA 
HETATM   46  H   UNL     1     -12.182  17.291  73.936  1.00  0.00     0.000 HD 
HETATM   47  C   UNL     1     -13.615  13.338  71.852  1.00  0.00    -0.473 A  
HETATM   48  H   UNL     1     -15.323  16.445  73.548  1.00  0.00     0.000 HD 
HETATM   49  O   UNL     1     -11.677  16.593  73.537  1.00  0.00    -0.277 OA 
HETATM   50  C   UNL     1     -13.662  15.437  73.008  1.00  0.00    -0.392 A  
HETATM   51  C   UNL     1     -12.270  15.484  72.995  1.00  0.00    -0.454 A  
HETATM   52  C   UNL     1     -11.529  14.460  72.409  1.00  0.00     0.859 A  
HETATM   53  C   UNL     1     -14.344  14.363  72.457  1.00  0.00    -0.185 A  
ENDBRANCH  31  44
ENDBRANCH  28  29
ENDBRANCH  17  28
ENDBRANCH  15  16
ENDBRANCH  14  15
ENDBRANCH   4  14
TORSDOF 6
ENDMDL
MODEL      218
REMARK 921   NORMALIZED FREE ENERGY PREDICTED BY IDOCK:   16.52 KCAL/MOL
REMARK 922        TOTAL FREE ENERGY PREDICTED BY IDOCK:   20.84 KCAL/MOL
REMARK 923 INTER-LIGAND FREE ENERGY PREDICTED BY IDOCK:    8.26 KCAL/MOL
REMARK 924 INTRA-LIGAND FREE ENERGY PREDICTED BY IDOCK:   12.58 KCAL/MOL
REMARK 927      BINDING AFFINITY PREDICTED BY RF-SCORE:    0.00 PKD
ROOT
HETATM    1  C   UNL     1     -11.620  15.596  67.302  1.00  0.00     0.065 C  
HETATM    2  C   UNL     1     -10.410  14.697  67.574  1.00  0.00    -0.234 C  
HETATM    3  O   UNL     1      -9.716  15.356  68.634  1.00  0.00    -0.197 OA 
HETATM    4  C   UNL     1      -8.346  15.074  68.883  1.00  0.00    -0.183 C  
HETATM    5  H   UNL     1      -7.891  13.020  64.906  1.00  0.00     0.000 HD 
HETATM    6  C   UNL     1      -7.512  14.846  67.614  1.00  0.00    -0.185 C  
HETATM    7  C   UNL     1      -8.232  13.876  66.665  1.00  0.00     0.382 C  
HETATM    8  O   UNL     1     -10.333  13.645  65.379  1.00  0.00    -0.308 OA 
HETATM    9  O   UNL     1      -7.282  16.096  66.935  1.00  0.00    -0.216 OA 
HETATM   10  H   UNL     1      -6.766  15.955  66.150  1.00  0.00     0.000 HD 
HETATM   11  H   UNL     1      -9.830  13.509  64.584  1.00  0.00     0.000 HD 
HETATM   12  O   UNL     1      -7.446  13.619  65.493  1.00  0.00     4.467 OA 
HETATM   13  C   UNL     1      -9.594  14.478  66.286  1.00  0.00    -0.304 C  
ENDROOT
BRANCH   4  14
HETATM   14  O   UNL     1      -8.098  14.014  69.808  1.00  0.00     0.563 OA 
BRANCH  14  15
HETATM   15  C   UNL     1      -9.293  13.325  70.216  1.00  0.00     4.199 C  
BRANCH  15  16
HETATM   16  C   UNL     1     -10.505  14.042  69.607  1.00  0.00     0.277 C  
HETATM   17  C   UNL     1     -11.936  12.262  68.671  1.00  0.00    -0.227 C  
HETATM   18  O   UNL     1     -11.006  13.342  68.441  1.00  0.00    -0.244 OA 
HETATM   19  H   UNL     1     -11.873  12.722  72.581  1.00  0.00     0.000 HD 
HETATM   20  C   UNL     1     -13.113  12.867  69.471  1.00  0.00     1.591 C  
HETATM   21  H   UNL     1     -12.753  15.975  70.931  1.00  0.00     0.000 HD 
HETATM   22  O   UNL     1     -13.719  13.962  68.738  1.00  0.00     3.303 OA 
HETATM   23  C   UNL     1     -12.645  13.396  70.837  1.00  0.00    -0.327 C  
HETATM   24  H   UNL     1     -14.442  14.333  69.230  1.00  0.00     0.000 HD 
HETATM   25  O   UNL     1     -12.108  15.723  70.282  1.00  0.00    -0.368 OA 
HETATM   26  O   UNL     1     -12.162  12.395  71.737  1.00  0.00     0.257 OA 
HETATM   27  C   UNL     1     -11.550  14.452  70.661  1.00  0.00    -0.184 C  
BRANCH  17  28
HETATM   28  O   UNL     1     -11.278  11.123  69.248  1.00  0.00    -0.225 OA 
BRANCH  28  29
HETATM   29  C   UNL     1     -10.601  10.266  68.379  1.00  0.00    -0.216 C  
HETATM   30  O   UNL     1      -9.858   8.020  67.761  1.00  0.00    -0.151 OA 
HETATM   31  C   UNL     1     -10.282   8.983  68.679  1.00  0.00    -0.205 C  
HETATM   32  C   UNL     1      -9.596   8.406  66.471  1.00  0.00    -0.236 A  
HETATM   33  O   UNL     1     -11.235  11.498  66.494  1.00  0.00    -0.310 OA 
HETATM   34  H   UNL     1      -9.578  12.129  65.124  1.00  0.00     0.000 HD 
HETATM   35  C   UNL     1      -9.187   7.457  65.535  1.00  0.00     0.264 A  
HETATM   36  C   UNL     1     -10.526  10.605  66.943  1.00  0.00    -0.249 C  
HETATM   37  C   UNL     1      -8.849   7.872  64.241  1.00  0.00     0.635 A  
HETATM   38  C   UNL     1      -9.734   9.749  66.069  1.00  0.00    -0.319 A  
HETATM   39  O   UNL     1      -9.271  11.484  64.498  1.00  0.00    -0.080 OA 
HETATM   40  C   UNL     1      -8.846   9.218  63.891  1.00  0.00    -0.160 A  
HETATM   41  O   UNL     1      -8.508   6.985  63.261  1.00  0.00    -0.348 OA 
HETATM   42  H   UNL     1      -8.279   7.267  62.383  1.00  0.00     0.000 HD 
HETATM   43  C   UNL     1      -9.295  10.159  64.805  1.00  0.00    -0.268 A  
BRANCH  31  44
HETATM   44  C   UNL     1     -10.485   8.494  70.051  1.00  0.00    -0.226 A  
HETATM   45  O   UNL     1     -10.337   7.085  73.951  1.00  0.00    -0.363 OA 
HETATM   46  H   UNL     1     -10.751   5.036  72.830  1.00  0.00     0.000 HD 
HETATM   47  C   UNL     1     -10.301   9.385  71.126  1.00  0.00    -0.377 A  
HETATM   48  H   UNL     1     -10.184   7.688  74.669  1.00  0.00     0.000 HD 
HETATM   49  O   UNL     1     -10.783   5.347  71.934  1.00  0.00    -0.226 OA 
HETATM   50  C   UNL     1     -10.435   7.558  72.673  1.00  0.00    -0.271 A  
HETATM   51  C   UNL     1     -10.660   6.674  71.620  1.00  0.00    -0.217 A  
HETATM   52  C   UNL     1     -10.708   7.131  70.305  1.00  0.00    -0.258 A  
HETATM   53  C   UNL     1     -10.273   8.916  72.441  1.00  0.00    -0.064 A  
ENDBRANCH  31  44
ENDBRANCH  28  29
ENDBRANCH  17  28
ENDBRANCH  15  16
ENDBRANCH  14  15
ENDBRANCH   4  14
TORSDOF 6
ENDMDL
MODEL      219
REMARK 921   NORMALIZED FREE ENERGY PREDICTED BY IDOCK:   16.74 KCAL/MOL
REMARK 922        TOTAL FREE ENERGY PREDICTED BY IDOCK:   21.13 KCAL/MOL
REMARK 923 INTER-LIGAND FREE ENERGY PREDICTED BY IDOCK:   -1.20 KCAL/MOL
REMARK 924 INTRA-LIGAND FREE ENERGY PREDICTED BY IDOCK:   22.33 KCAL/MOL
REMARK 927      BINDING AFFINITY PREDICTED BY RF-SCORE:    0.00 PKD
ROOT
HETATM    1  C   UNL     1     -11.563   5.070  70.606  1.00  0.00     2.230 C  
HETATM    2  C   UNL     1     -11.782   6.582  70.492  1.00  0.00    -0.375 C  
HETATM    3  O   UNL     1     -10.483   7.140  70.691  1.00  0.00    -0.207 OA 
HETATM    4  C   UNL     1     -10.333   8.499  71.075  1.00  0.00    -0.209 C  
HETATM    5  H   UNL     1     -14.683   8.823  72.176  1.00  0.00     0.000 HD 
HETATM    6  C   UNL     1     -11.403   8.995  72.060  1.00  0.00    -0.324 C  
HETATM    7  C   UNL     1     -12.803   8.584  71.583  1.00  0.00    -0.338 C  
HETATM    8  O   UNL     1     -14.150   6.575  71.063  1.00  0.00     0.381 OA 
HETATM    9  O   UNL     1     -11.166   8.447  73.372  1.00  0.00     0.276 OA 
HETATM   10  H   UNL     1     -11.827   8.752  73.981  1.00  0.00     0.000 HD 
HETATM   11  H   UNL     1     -14.817   6.865  71.675  1.00  0.00     0.000 HD 
HETATM   12  O   UNL     1     -13.817   9.077  72.471  1.00  0.00    -0.473 OA 
HETATM   13  C   UNL     1     -12.863   7.052  71.484  1.00  0.00    -0.372 C  
ENDROOT
BRANCH   4  14
HETATM   14  O   UNL     1     -10.218   9.430  69.997  1.00  0.00    -0.199 OA 
BRANCH  14  15
HETATM   15  C   UNL     1     -10.161   8.799  68.706  1.00  0.00    -0.206 C  
BRANCH  15  16
HETATM   16  C   UNL     1      -9.801   7.320  68.897  1.00  0.00    -0.158 C  
HETATM   17  C   UNL     1      -9.823   6.327  66.638  1.00  0.00    -0.154 C  
HETATM   18  O   UNL     1     -10.466   6.481  67.921  1.00  0.00    -0.173 OA 
HETATM   19  H   UNL     1      -6.785   8.631  67.616  1.00  0.00     0.000 HD 
HETATM   20  C   UNL     1      -8.406   5.781  66.927  1.00  0.00    -0.108 C  
HETATM   21  H   UNL     1      -7.168   5.889  70.148  1.00  0.00     0.000 HD 
HETATM   22  O   UNL     1      -8.479   4.528  67.653  1.00  0.00    -0.103 OA 
HETATM   23  C   UNL     1      -7.583   6.779  67.759  1.00  0.00    -0.107 C  
HETATM   24  H   UNL     1      -7.608   4.193  67.831  1.00  0.00     0.000 HD 
HETATM   25  O   UNL     1      -8.100   6.031  70.036  1.00  0.00    -0.109 OA 
HETATM   26  O   UNL     1      -7.293   8.015  67.102  1.00  0.00    -0.088 OA 
HETATM   27  C   UNL     1      -8.289   7.091  69.081  1.00  0.00    -0.125 C  
BRANCH  17  28
HETATM   28  O   UNL     1      -9.908   7.535  65.866  1.00  0.00     0.165 OA 
BRANCH  28  29
HETATM   29  C   UNL     1      -8.912   8.492  66.064  1.00  0.00    -0.184 C  
HETATM   30  O   UNL     1      -6.789   9.515  65.411  1.00  0.00    -0.080 OA 
HETATM   31  C   UNL     1      -7.699   8.457  65.459  1.00  0.00    -0.097 C  
HETATM   32  C   UNL     1      -7.049  10.645  66.144  1.00  0.00    -0.138 A  
HETATM   33  O   UNL     1     -10.451  10.108  66.766  1.00  0.00    -0.232 OA 
HETATM   34  H   UNL     1     -10.016  11.100  68.727  1.00  0.00     0.000 HD 
HETATM   35  C   UNL     1      -6.161  11.719  66.097  1.00  0.00     0.566 A  
HETATM   36  C   UNL     1      -9.271   9.796  66.659  1.00  0.00    -0.150 C  
HETATM   37  C   UNL     1      -6.396  12.837  66.906  1.00  0.00     0.552 A  
HETATM   38  C   UNL     1      -8.203  10.745  66.946  1.00  0.00    -0.130 A  
HETATM   39  O   UNL     1      -9.392  11.818  68.715  1.00  0.00    -0.130 OA 
HETATM   40  C   UNL     1      -7.456  12.871  67.806  1.00  0.00    -0.136 A  
HETATM   41  O   UNL     1      -5.603  13.948  66.856  1.00  0.00     0.189 OA 
HETATM   42  H   UNL     1      -5.763  14.707  67.405  1.00  0.00     0.000 HD 
HETATM   43  C   UNL     1      -8.366  11.824  67.822  1.00  0.00    -0.146 A  
BRANCH  31  44
HETATM   44  C   UNL     1      -7.314   7.265  64.690  1.00  0.00    -0.079 A  
HETATM   45  O   UNL     1      -6.780   3.580  62.856  1.00  0.00    -0.029 OA 
HETATM   46  H   UNL     1      -5.138   3.391  64.557  1.00  0.00     0.000 HD 
HETATM   47  C   UNL     1      -8.063   6.919  63.548  1.00  0.00     0.004 A  
HETATM   48  H   UNL     1      -7.309   3.343  62.104  1.00  0.00     0.000 HD 
HETATM   49  O   UNL     1      -5.254   4.231  64.986  1.00  0.00    -0.008 OA 
HETATM   50  C   UNL     1      -6.923   4.814  63.427  1.00  0.00    -0.043 A  
HETATM   51  C   UNL     1      -6.147   5.163  64.530  1.00  0.00    -0.022 A  
HETATM   52  C   UNL     1      -6.318   6.394  65.159  1.00  0.00    -0.034 A  
HETATM   53  C   UNL     1      -7.870   5.689  62.916  1.00  0.00    -0.094 A  
ENDBRANCH  31  44
ENDBRANCH  28  29
ENDBRANCH  17  28
ENDBRANCH  15  16
ENDBRANCH  14  15
ENDBRANCH   4  14
TORSDOF 6
ENDMDL
MODEL      220
REMARK 921   NORMALIZED FREE ENERGY PREDICTED BY IDOCK:   17.01 KCAL/MOL
REMARK 922        TOTAL FREE ENERGY PREDICTED BY IDOCK:   21.49 KCAL/MOL
REMARK 923 INTER-LIGAND FREE ENERGY PREDICTED BY IDOCK:   -0.10 KCAL/MOL
REMARK 924 INTRA-LIGAND FREE ENERGY PREDICTED BY IDOCK:   21.59 KCAL/MOL
REMARK 927      BINDING AFFINITY PREDICTED BY RF-SCORE:    0.00 PKD
ROOT
HETATM    1  C   UNL     1     -12.113  12.877  67.682  1.00  0.00    -0.239 C  
HETATM    2  C   UNL     1     -10.848  12.030  67.848  1.00  0.00    -0.215 C  
HETATM    3  O   UNL     1     -10.744  11.828  69.258  1.00  0.00    -0.178 OA 
HETATM    4  C   UNL     1      -9.504  11.461  69.845  1.00  0.00     1.533 C  
HETATM    5  H   UNL     1      -7.245  12.547  66.109  1.00  0.00     0.000 HD 
HETATM    6  C   UNL     1      -8.282  12.132  69.201  1.00  0.00     0.445 C  
HETATM    7  C   UNL     1      -8.356  12.027  67.671  1.00  0.00    -0.160 C  
HETATM    8  O   UNL     1      -9.781  12.690  65.760  1.00  0.00    -0.337 OA 
HETATM    9  O   UNL     1      -8.216  13.521  69.581  1.00  0.00     0.250 OA 
HETATM   10  H   UNL     1      -7.461  13.936  69.183  1.00  0.00     0.000 HD 
HETATM   11  H   UNL     1      -9.035  13.116  65.353  1.00  0.00     0.000 HD 
HETATM   12  O   UNL     1      -7.199  12.612  67.055  1.00  0.00    -0.075 OA 
HETATM   13  C   UNL     1      -9.639  12.721  67.189  1.00  0.00    -0.219 C  
ENDROOT
BRANCH   4  14
HETATM   14  O   UNL     1      -9.270  10.055  69.949  1.00  0.00    -0.215 OA 
BRANCH  14  15
HETATM   15  C   UNL     1      -8.789   9.654  71.244  1.00  0.00     0.718 C  
BRANCH  15  16
HETATM   16  C   UNL     1      -7.344   9.161  71.100  1.00  0.00    -0.067 C  
HETATM   17  C   UNL     1      -7.501   6.922  70.072  1.00  0.00    -0.093 C  
HETATM   18  O   UNL     1      -7.257   7.722  71.249  1.00  0.00    -0.059 OA 
HETATM   19  H   UNL     1      -8.128  10.059  67.778  1.00  0.00     0.000 HD 
HETATM   20  C   UNL     1      -6.492   7.405  69.004  1.00  0.00    -0.040 C  
HETATM   21  H   UNL     1      -4.803  10.377  69.486  1.00  0.00     0.000 HD 
HETATM   22  O   UNL     1      -5.132   7.265  69.486  1.00  0.00    -0.014 OA 
HETATM   23  C   UNL     1      -6.730   8.880  68.640  1.00  0.00    -0.059 C  
HETATM   24  H   UNL     1      -4.512   7.562  68.830  1.00  0.00     0.000 HD 
HETATM   25  O   UNL     1      -5.248  10.004  70.237  1.00  0.00    -0.035 OA 
HETATM   26  O   UNL     1      -7.982   9.148  68.004  1.00  0.00    -0.100 OA 
HETATM   27  C   UNL     1      -6.622   9.767  69.882  1.00  0.00    -0.071 C  
BRANCH  17  28
HETATM   28  O   UNL     1      -8.890   6.943  69.708  1.00  0.00    -0.140 OA 
BRANCH  28  29
HETATM   29  C   UNL     1      -9.208   7.373  68.420  1.00  0.00    -0.138 C  
HETATM   30  O   UNL     1     -10.443   8.859  66.920  1.00  0.00    -0.271 OA 
HETATM   31  C   UNL     1     -10.250   8.192  68.132  1.00  0.00    -0.209 C  
HETATM   32  C   UNL     1      -9.609   8.574  65.868  1.00  0.00    -0.094 A  
HETATM   33  O   UNL     1      -7.037   6.992  67.638  1.00  0.00    -0.080 OA 
HETATM   34  H   UNL     1      -6.858   5.727  65.797  1.00  0.00     0.000 HD 
HETATM   35  C   UNL     1      -9.774   9.241  64.655  1.00  0.00     0.436 A  
HETATM   36  C   UNL     1      -8.198   7.253  67.348  1.00  0.00    -0.116 C  
HETATM   37  C   UNL     1      -8.969   8.890  63.565  1.00  0.00     0.258 A  
HETATM   38  C   UNL     1      -8.582   7.618  65.990  1.00  0.00    -0.165 A  
HETATM   39  O   UNL     1      -6.994   6.162  64.963  1.00  0.00    -0.052 OA 
HETATM   40  C   UNL     1      -8.056   7.844  63.647  1.00  0.00    -0.074 A  
HETATM   41  O   UNL     1      -9.034   9.550  62.373  1.00  0.00    -0.245 OA 
HETATM   42  H   UNL     1      -8.487   9.312  61.633  1.00  0.00     0.000 HD 
HETATM   43  C   UNL     1      -7.857   7.209  64.864  1.00  0.00    -0.126 A  
BRANCH  31  44
HETATM   44  C   UNL     1     -11.222   8.516  69.186  1.00  0.00     0.315 A  
HETATM   45  O   UNL     1     -13.527   9.985  72.308  1.00  0.00    -0.573 OA 
HETATM   46  H   UNL     1     -12.371   8.272  73.473  1.00  0.00     0.000 HD 
HETATM   47  C   UNL     1     -12.146   9.555  68.965  1.00  0.00     1.284 A  
HETATM   48  H   UNL     1     -14.128  10.705  72.158  1.00  0.00     0.000 HD 
HETATM   49  O   UNL     1     -11.836   7.931  72.767  1.00  0.00    -0.340 OA 
HETATM   50  C   UNL     1     -12.806   9.470  71.268  1.00  0.00    -0.333 A  
HETATM   51  C   UNL     1     -11.926   8.413  71.488  1.00  0.00    -0.299 A  
HETATM   52  C   UNL     1     -11.142   7.913  70.452  1.00  0.00    -0.249 A  
HETATM   53  C   UNL     1     -12.939  10.036  70.009  1.00  0.00     0.346 A  
ENDBRANCH  31  44
ENDBRANCH  28  29
ENDBRANCH  17  28
ENDBRANCH  15  16
ENDBRANCH  14  15
ENDBRANCH   4  14
TORSDOF 6
ENDMDL
MODEL      221
REMARK 921   NORMALIZED FREE ENERGY PREDICTED BY IDOCK:   17.88 KCAL/MOL
REMARK 922        TOTAL FREE ENERGY PREDICTED BY IDOCK:   22.68 KCAL/MOL
REMARK 923 INTER-LIGAND FREE ENERGY PREDICTED BY IDOCK:   15.37 KCAL/MOL
REMARK 924 INTRA-LIGAND FREE ENERGY PREDICTED BY IDOCK:    7.30 KCAL/MOL
REMARK 927      BINDING AFFINITY PREDICTED BY RF-SCORE:    0.00 PKD
ROOT
HETATM    1  C   UNL     1     -12.500  11.296  65.340  1.00  0.00     2.458 C  
HETATM    2  C   UNL     1     -12.012  12.265  66.422  1.00  0.00    -0.209 C  
HETATM    3  O   UNL     1     -10.588  12.192  66.340  1.00  0.00    -0.231 OA 
HETATM    4  C   UNL     1      -9.781  12.608  67.432  1.00  0.00    -0.199 C  
HETATM    5  H   UNL     1     -13.308  12.624  70.225  1.00  0.00     0.000 HD 
HETATM    6  C   UNL     1     -10.363  12.260  68.811  1.00  0.00    -0.135 C  
HETATM    7  C   UNL     1     -11.844  12.658  68.883  1.00  0.00    -0.302 C  
HETATM    8  O   UNL     1     -14.020  12.195  67.799  1.00  0.00     8.408 OA 
HETATM    9  O   UNL     1     -10.235  10.847  69.065  1.00  0.00    -0.198 OA 
HETATM   10  H   UNL     1     -10.596  10.632  69.917  1.00  0.00     0.000 HD 
HETATM   11  H   UNL     1     -14.391  11.969  68.644  1.00  0.00     0.000 HD 
HETATM   12  O   UNL     1     -12.392  12.378  70.180  1.00  0.00    -0.236 OA 
HETATM   13  C   UNL     1     -12.614  11.899  67.792  1.00  0.00     1.811 C  
ENDROOT
BRANCH   4  14
HETATM   14  O   UNL     1      -9.393  13.983  67.418  1.00  0.00    -0.205 OA 
BRANCH  14  15
HETATM   15  C   UNL     1      -8.969  14.467  68.704  1.00  0.00    -0.181 C  
BRANCH  15  16
HETATM   16  C   UNL     1      -8.807  15.990  68.626  1.00  0.00    -0.210 C  
HETATM   17  C   UNL     1      -6.593  16.377  67.606  1.00  0.00    -0.148 C  
HETATM   18  O   UNL     1      -7.422  16.386  68.787  1.00  0.00    -0.181 OA 
HETATM   19  H   UNL     1      -9.523  15.174  65.268  1.00  0.00     0.000 HD 
HETATM   20  C   UNL     1      -7.291  17.300  66.580  1.00  0.00    -0.247 C  
HETATM   21  H   UNL     1     -10.561  18.269  67.117  1.00  0.00     0.000 HD 
HETATM   22  O   UNL     1      -7.453  18.636  67.122  1.00  0.00    -0.218 OA 
HETATM   23  C   UNL     1      -8.678  16.759  66.197  1.00  0.00    -0.264 C  
HETATM   24  H   UNL     1      -7.882  19.202  66.492  1.00  0.00     0.000 HD 
HETATM   25  O   UNL     1     -10.095  17.884  67.850  1.00  0.00    -0.314 OA 
HETATM   26  O   UNL     1      -8.666  15.508  65.505  1.00  0.00     0.397 OA 
HETATM   27  C   UNL     1      -9.563  16.613  67.437  1.00  0.00    -0.242 C  
BRANCH  17  28
HETATM   28  O   UNL     1      -6.308  15.035  67.181  1.00  0.00    -0.267 OA 
BRANCH  28  29
HETATM   29  C   UNL     1      -6.312  14.040  68.158  1.00  0.00    -0.128 C  
HETATM   30  O   UNL     1      -6.136  11.684  68.793  1.00  0.00    -0.047 OA 
HETATM   31  C   UNL     1      -6.398  12.714  67.887  1.00  0.00    -0.111 C  
HETATM   32  C   UNL     1      -5.908  12.002  70.108  1.00  0.00    -0.162 A  
HETATM   33  O   UNL     1      -5.262  15.421  69.727  1.00  0.00    -0.096 OA 
HETATM   34  H   UNL     1      -6.273  15.601  71.718  1.00  0.00     0.000 HD 
HETATM   35  C   UNL     1      -5.627  10.991  71.025  1.00  0.00    -0.041 A  
HETATM   36  C   UNL     1      -5.847  14.365  69.523  1.00  0.00    -0.099 C  
HETATM   37  C   UNL     1      -5.471  11.316  72.378  1.00  0.00     0.788 A  
HETATM   38  C   UNL     1      -5.950  13.338  70.553  1.00  0.00    -0.110 A  
HETATM   39  O   UNL     1      -6.112  14.905  72.345  1.00  0.00     0.558 OA 
HETATM   40  C   UNL     1      -5.659  12.616  72.836  1.00  0.00     1.083 A  
HETATM   41  O   UNL     1      -5.129  10.384  73.314  1.00  0.00    -0.319 OA 
HETATM   42  H   UNL     1      -5.023  10.605  74.232  1.00  0.00     0.000 HD 
HETATM   43  C   UNL     1      -5.893  13.631  71.921  1.00  0.00     0.190 A  
BRANCH  31  44
HETATM   44  C   UNL     1      -6.686  12.280  66.512  1.00  0.00     0.639 A  
HETATM   45  O   UNL     1      -7.812  10.483  62.945  1.00  0.00    -0.184 OA 
HETATM   46  H   UNL     1      -5.551   9.768  63.025  1.00  0.00     0.000 HD 
HETATM   47  C   UNL     1      -7.985  12.464  65.997  1.00  0.00     1.048 A  
HETATM   48  H   UNL     1      -8.697  10.587  62.618  1.00  0.00     0.000 HD 
HETATM   49  O   UNL     1      -5.284  10.173  63.842  1.00  0.00    -0.086 OA 
HETATM   50  C   UNL     1      -7.429  11.116  64.094  1.00  0.00     1.013 A  
HETATM   51  C   UNL     1      -6.130  10.963  64.573  1.00  0.00     0.343 A  
HETATM   52  C   UNL     1      -5.739  11.556  65.771  1.00  0.00     0.527 A  
HETATM   53  C   UNL     1      -8.359  11.878  64.786  1.00  0.00     1.480 A  
ENDBRANCH  31  44
ENDBRANCH  28  29
ENDBRANCH  17  28
ENDBRANCH  15  16
ENDBRANCH  14  15
ENDBRANCH   4  14
TORSDOF 6
ENDMDL
MODEL      222
REMARK 921   NORMALIZED FREE ENERGY PREDICTED BY IDOCK:   18.42 KCAL/MOL
REMARK 922        TOTAL FREE ENERGY PREDICTED BY IDOCK:   23.40 KCAL/MOL
REMARK 923 INTER-LIGAND FREE ENERGY PREDICTED BY IDOCK:   10.38 KCAL/MOL
REMARK 924 INTRA-LIGAND FREE ENERGY PREDICTED BY IDOCK:   13.02 KCAL/MOL
REMARK 927      BINDING AFFINITY PREDICTED BY RF-SCORE:    0.00 PKD
ROOT
HETATM    1  C   UNL     1     -11.065  16.053  71.774  1.00  0.00     0.112 C  
HETATM    2  C   UNL     1     -11.620  15.841  70.363  1.00  0.00    -0.360 C  
HETATM    3  O   UNL     1     -11.127  14.557  69.982  1.00  0.00    -0.220 OA 
HETATM    4  C   UNL     1     -11.065  14.185  68.612  1.00  0.00    -0.262 C  
HETATM    5  H   UNL     1     -11.663  18.439  67.276  1.00  0.00     0.000 HD 
HETATM    6  C   UNL     1     -10.669  15.330  67.668  1.00  0.00    -0.282 C  
HETATM    7  C   UNL     1     -11.486  16.592  67.983  1.00  0.00     0.016 C  
HETATM    8  O   UNL     1     -11.925  18.195  69.815  1.00  0.00     4.159 OA 
HETATM    9  O   UNL     1      -9.265  15.625  67.801  1.00  0.00    -0.192 OA 
HETATM   10  H   UNL     1      -9.020  16.333  67.218  1.00  0.00     0.000 HD 
HETATM   11  H   UNL     1     -11.676  18.913  69.245  1.00  0.00     0.000 HD 
HETATM   12  O   UNL     1     -11.158  17.659  67.081  1.00  0.00    -0.068 OA 
HETATM   13  C   UNL     1     -11.215  17.005  69.438  1.00  0.00     0.344 C  
ENDROOT
BRANCH   4  14
HETATM   14  O   UNL     1     -12.231  13.535  68.102  1.00  0.00    -0.302 OA 
BRANCH  14  15
HETATM   15  C   UNL     1     -12.266  12.125  68.388  1.00  0.00     0.203 C  
BRANCH  15  16
HETATM   16  C   UNL     1     -11.599  11.883  69.748  1.00  0.00    -0.286 C  
HETATM   17  C   UNL     1     -11.731   9.449  70.135  1.00  0.00    -0.015 C  
HETATM   18  O   UNL     1     -12.211  10.773  70.450  1.00  0.00    -0.294 OA 
HETATM   19  H   UNL     1      -9.102  10.765  67.517  1.00  0.00     0.000 HD 
HETATM   20  C   UNL     1     -10.208   9.467  70.401  1.00  0.00    -0.255 C  
HETATM   21  H   UNL     1      -8.590  12.490  70.809  1.00  0.00     0.000 HD 
HETATM   22  O   UNL     1      -9.933   9.833  71.776  1.00  0.00     0.109 OA 
HETATM   23  C   UNL     1      -9.493  10.468  69.478  1.00  0.00    -0.080 C  
HETATM   24  H   UNL     1      -8.997   9.844  71.939  1.00  0.00     0.000 HD 
HETATM   25  O   UNL     1      -9.539  12.494  70.858  1.00  0.00     6.787 OA 
HETATM   26  O   UNL     1      -9.544  10.147  68.086  1.00  0.00    -0.138 OA 
HETATM   27  C   UNL     1     -10.060  11.877  69.668  1.00  0.00     0.936 C  
BRANCH  17  28
HETATM   28  O   UNL     1     -12.156   9.040  68.826  1.00  0.00     1.670 OA 
BRANCH  28  29
HETATM   29  C   UNL     1     -11.170   8.885  67.852  1.00  0.00     0.534 C  
HETATM   30  O   UNL     1      -9.686   7.450  66.538  1.00  0.00    -0.197 OA 
HETATM   31  C   UNL     1     -10.474   7.738  67.656  1.00  0.00    -0.239 C  
HETATM   32  C   UNL     1      -9.463   8.440  65.615  1.00  0.00     0.085 A  
HETATM   33  O   UNL     1     -12.018  10.638  66.557  1.00  0.00     0.785 OA 
HETATM   34  H   UNL     1     -10.555  12.229  65.968  1.00  0.00     0.000 HD 
HETATM   35  C   UNL     1      -8.694   8.169  64.484  1.00  0.00     0.178 A  
HETATM   36  C   UNL     1     -11.095   9.854  66.738  1.00  0.00     0.242 C  
HETATM   37  C   UNL     1      -8.408   9.204  63.586  1.00  0.00    -0.187 A  
HETATM   38  C   UNL     1     -10.000   9.731  65.785  1.00  0.00    -0.349 A  
HETATM   39  O   UNL     1     -10.005  12.048  65.214  1.00  0.00    -0.251 OA 
HETATM   40  C   UNL     1      -8.816  10.511  63.833  1.00  0.00    -0.203 A  
HETATM   41  O   UNL     1      -7.719   8.990  62.427  1.00  0.00    -0.113 OA 
HETATM   42  H   UNL     1      -7.525   9.692  61.818  1.00  0.00     0.000 HD 
HETATM   43  C   UNL     1      -9.619  10.774  64.932  1.00  0.00    -0.256 A  
BRANCH  31  44
HETATM   44  C   UNL     1     -10.615   6.638  68.622  1.00  0.00    -0.274 A  
HETATM   45  O   UNL     1     -10.394   3.784  71.626  1.00  0.00    -0.054 OA 
HETATM   46  H   UNL     1      -9.510   2.507  69.834  1.00  0.00     0.000 HD 
HETATM   47  C   UNL     1     -11.091   6.925  69.916  1.00  0.00    -0.333 A  
HETATM   48  H   UNL     1     -10.690   3.994  72.504  1.00  0.00     0.000 HD 
HETATM   49  O   UNL     1      -9.553   3.154  69.139  1.00  0.00    -0.149 OA 
HETATM   50  C   UNL     1     -10.514   4.709  70.627  1.00  0.00     0.082 A  
HETATM   51  C   UNL     1     -10.081   4.401  69.339  1.00  0.00     0.032 A  
HETATM   52  C   UNL     1     -10.144   5.350  68.322  1.00  0.00    -0.225 A  
HETATM   53  C   UNL     1     -11.037   5.959  70.923  1.00  0.00    -0.312 A  
ENDBRANCH  31  44
ENDBRANCH  28  29
ENDBRANCH  17  28
ENDBRANCH  15  16
ENDBRANCH  14  15
ENDBRANCH   4  14
TORSDOF 6
ENDMDL
MODEL      223
REMARK 921   NORMALIZED FREE ENERGY PREDICTED BY IDOCK:   19.33 KCAL/MOL
REMARK 922        TOTAL FREE ENERGY PREDICTED BY IDOCK:   24.63 KCAL/MOL
REMARK 923 INTER-LIGAND FREE ENERGY PREDICTED BY IDOCK:   11.75 KCAL/MOL
REMARK 924 INTRA-LIGAND FREE ENERGY PREDICTED BY IDOCK:   12.88 KCAL/MOL
REMARK 927      BINDING AFFINITY PREDICTED BY RF-SCORE:    0.00 PKD
ROOT
HETATM    1  C   UNL     1      -7.871  19.828  66.011  1.00  0.00    -0.344 C  
HETATM    2  C   UNL     1      -8.033  18.549  66.839  1.00  0.00    -0.239 C  
HETATM    3  O   UNL     1      -7.188  17.601  66.186  1.00  0.00    -0.277 OA 
HETATM    4  C   UNL     1      -7.379  16.208  66.385  1.00  0.00     0.173 C  
HETATM    5  H   UNL     1     -11.435  16.874  68.213  1.00  0.00     0.000 HD 
HETATM    6  C   UNL     1      -8.852  15.786  66.497  1.00  0.00    -0.310 C  
HETATM    7  C   UNL     1      -9.603  16.710  67.466  1.00  0.00    -0.242 C  
HETATM    8  O   UNL     1     -10.215  19.086  67.778  1.00  0.00    -0.358 OA 
HETATM    9  O   UNL     1      -9.485  15.835  65.203  1.00  0.00    -0.213 OA 
HETATM   10  H   UNL     1     -10.396  15.574  65.272  1.00  0.00     0.000 HD 
HETATM   11  H   UNL     1     -11.131  18.841  67.842  1.00  0.00     0.000 HD 
HETATM   12  O   UNL     1     -10.971  16.302  67.614  1.00  0.00    -0.315 OA 
HETATM   13  C   UNL     1      -9.518  18.151  66.941  1.00  0.00    -0.286 C  
ENDROOT
BRANCH   4  14
HETATM   14  O   UNL     1      -6.642  15.639  67.469  1.00  0.00    -0.159 OA 
BRANCH  14  15
HETATM   15  C   UNL     1      -7.223  14.425  67.976  1.00  0.00    -0.141 C  
BRANCH  15  16
HETATM   16  C   UNL     1      -7.195  13.366  66.866  1.00  0.00     0.659 C  
HETATM   17  C   UNL     1      -8.538  11.475  67.710  1.00  0.00    -0.138 C  
HETATM   18  O   UNL     1      -7.237  12.024  67.411  1.00  0.00    -0.122 OA 
HETATM   19  H   UNL     1     -10.441  14.702  66.498  1.00  0.00     0.000 HD 
HETATM   20  C   UNL     1      -9.346  11.537  66.393  1.00  0.00    -0.209 C  
HETATM   21  H   UNL     1      -8.180  13.461  63.773  1.00  0.00     0.000 HD 
HETATM   22  O   UNL     1      -8.671  10.798  65.344  1.00  0.00    -0.185 OA 
HETATM   23  C   UNL     1      -9.535  12.988  65.922  1.00  0.00    -0.032 C  
HETATM   24  H   UNL     1      -9.168  10.836  64.535  1.00  0.00     0.000 HD 
HETATM   25  O   UNL     1      -7.573  13.273  64.479  1.00  0.00     8.225 OA 
HETATM   26  O   UNL     1     -10.325  13.805  66.790  1.00  0.00    -0.266 OA 
HETATM   27  C   UNL     1      -8.180  13.671  65.722  1.00  0.00     2.523 C  
BRANCH  17  28
HETATM   28  O   UNL     1      -9.120  12.112  68.858  1.00  0.00     0.044 OA 
BRANCH  28  29
HETATM   29  C   UNL     1     -10.120  11.416  69.538  1.00  0.00     0.328 C  
HETATM   30  O   UNL     1     -12.394  10.522  69.638  1.00  0.00    -0.225 OA 
HETATM   31  C   UNL     1     -11.423  11.405  69.161  1.00  0.00    -0.299 C  
HETATM   32  C   UNL     1     -12.073   9.681  70.673  1.00  0.00    -0.194 A  
HETATM   33  O   UNL     1      -8.586   9.944  70.514  1.00  0.00    -0.127 OA 
HETATM   34  H   UNL     1      -8.698   9.737  72.742  1.00  0.00     0.000 HD 
HETATM   35  C   UNL     1     -13.023   8.780  71.152  1.00  0.00    -0.130 A  
HETATM   36  C   UNL     1      -9.741  10.354  70.493  1.00  0.00     0.793 C  
HETATM   37  C   UNL     1     -12.711   7.979  72.257  1.00  0.00    -0.207 A  
HETATM   38  C   UNL     1     -10.794   9.707  71.263  1.00  0.00    -0.366 A  
HETATM   39  O   UNL     1      -9.358   9.146  73.085  1.00  0.00     0.482 OA 
HETATM   40  C   UNL     1     -11.501   8.112  72.929  1.00  0.00    -0.274 A  
HETATM   41  O   UNL     1     -13.571   7.031  72.731  1.00  0.00     0.161 OA 
HETATM   42  H   UNL     1     -13.360   6.487  73.481  1.00  0.00     0.000 HD 
HETATM   43  C   UNL     1     -10.537   8.974  72.428  1.00  0.00     0.184 A  
BRANCH  31  44
HETATM   44  C   UNL     1     -11.869  12.308  68.090  1.00  0.00    -0.372 A  
HETATM   45  O   UNL     1     -13.744  14.897  65.444  1.00  0.00     0.138 OA 
HETATM   46  H   UNL     1     -14.133  12.854  64.304  1.00  0.00     0.000 HD 
HETATM   47  C   UNL     1     -11.861  13.698  68.323  1.00  0.00    -0.404 A  
HETATM   48  H   UNL     1     -13.759  15.830  65.622  1.00  0.00     0.000 HD 
HETATM   49  O   UNL     1     -13.709  12.252  64.905  1.00  0.00     0.145 OA 
HETATM   50  C   UNL     1     -13.083  14.052  66.292  1.00  0.00     0.573 A  
HETATM   51  C   UNL     1     -13.059  12.684  66.030  1.00  0.00     1.792 A  
HETATM   52  C   UNL     1     -12.438  11.802  66.911  1.00  0.00     1.726 A  
HETATM   53  C   UNL     1     -12.472  14.572  67.423  1.00  0.00     0.235 A  
ENDBRANCH  31  44
ENDBRANCH  28  29
ENDBRANCH  17  28
ENDBRANCH  15  16
ENDBRANCH  14  15
ENDBRANCH   4  14
TORSDOF 6
ENDMDL
MODEL      224
REMARK 921   NORMALIZED FREE ENERGY PREDICTED BY IDOCK:   20.76 KCAL/MOL
REMARK 922        TOTAL FREE ENERGY PREDICTED BY IDOCK:   26.57 KCAL/MOL
REMARK 923 INTER-LIGAND FREE ENERGY PREDICTED BY IDOCK:   15.09 KCAL/MOL
REMARK 924 INTRA-LIGAND FREE ENERGY PREDICTED BY IDOCK:   11.48 KCAL/MOL
REMARK 927      BINDING AFFINITY PREDICTED BY RF-SCORE:    0.00 PKD
ROOT
HETATM    1  C   UNL     1      -9.471  12.345  66.750  1.00  0.00    -0.228 C  
HETATM    2  C   UNL     1     -10.220  11.175  66.105  1.00  0.00    -0.244 C  
HETATM    3  O   UNL     1      -9.229  10.156  65.972  1.00  0.00    -0.148 OA 
HETATM    4  C   UNL     1      -9.411   9.089  65.052  1.00  0.00     0.154 C  
HETATM    5  H   UNL     1     -12.763  11.255  62.974  1.00  0.00     0.000 HD 
HETATM    6  C   UNL     1     -10.087   9.503  63.736  1.00  0.00     1.827 C  
HETATM    7  C   UNL     1     -11.328  10.363  64.018  1.00  0.00     2.496 C  
HETATM    8  O   UNL     1     -11.993  12.496  65.082  1.00  0.00    -0.395 OA 
HETATM    9  O   UNL     1      -9.167  10.247  62.914  1.00  0.00    -0.246 OA 
HETATM   10  H   UNL     1      -9.585  10.504  62.101  1.00  0.00     0.000 HD 
HETATM   11  H   UNL     1     -12.409  12.769  64.272  1.00  0.00     0.000 HD 
HETATM   12  O   UNL     1     -11.996  10.723  62.800  1.00  0.00     1.373 OA 
HETATM   13  C   UNL     1     -10.894  11.618  64.792  1.00  0.00    -0.308 C  
ENDROOT
BRANCH   4  14
HETATM   14  O   UNL     1     -10.069   7.935  65.578  1.00  0.00     0.915 OA 
BRANCH  14  15
HETATM   15  C   UNL     1      -9.523   6.697  65.087  1.00  0.00     1.030 C  
BRANCH  15  16
HETATM   16  C   UNL     1      -8.253   6.373  65.882  1.00  0.00    -0.130 C  
HETATM   17  C   UNL     1      -8.543   7.455  68.081  1.00  0.00    -0.123 C  
HETATM   18  O   UNL     1      -7.903   7.449  66.788  1.00  0.00    -0.105 OA 
HETATM   19  H   UNL     1     -10.595   4.176  67.348  1.00  0.00     0.000 HD 
HETATM   20  C   UNL     1      -8.218   6.090  68.732  1.00  0.00    -0.104 C  
HETATM   21  H   UNL     1      -6.940   3.542  66.784  1.00  0.00     0.000 HD 
HETATM   22  O   UNL     1      -6.785   5.901  68.834  1.00  0.00    -0.055 OA 
HETATM   23  C   UNL     1      -8.805   4.929  67.912  1.00  0.00    -0.104 C  
HETATM   24  H   UNL     1      -6.586   5.063  69.234  1.00  0.00     0.000 HD 
HETATM   25  O   UNL     1      -6.932   4.417  66.415  1.00  0.00    -0.060 OA 
HETATM   26  O   UNL     1     -10.233   4.894  67.854  1.00  0.00    -0.123 OA 
HETATM   27  C   UNL     1      -8.266   4.953  66.480  1.00  0.00    -0.107 C  
BRANCH  17  28
HETATM   28  O   UNL     1      -9.931   7.808  67.973  1.00  0.00    -0.161 OA 
BRANCH  28  29
HETATM   29  C   UNL     1     -10.550   8.329  69.109  1.00  0.00    -0.165 C  
HETATM   30  O   UNL     1     -10.457   9.015  71.454  1.00  0.00    -0.269 OA 
HETATM   31  C   UNL     1     -10.012   8.281  70.352  1.00  0.00    -0.188 C  
HETATM   32  C   UNL     1     -11.614   9.743  71.341  1.00  0.00    -0.378 A  
HETATM   33  O   UNL     1     -11.879   9.786  67.851  1.00  0.00     0.508 OA 
HETATM   34  H   UNL     1     -14.083   9.703  68.246  1.00  0.00     0.000 HD 
HETATM   35  C   UNL     1     -12.066  10.497  72.423  1.00  0.00     1.489 A  
HETATM   36  C   UNL     1     -11.662   9.290  68.950  1.00  0.00     0.941 C  
HETATM   37  C   UNL     1     -13.286  11.175  72.324  1.00  0.00     0.025 A  
HETATM   38  C   UNL     1     -12.358   9.748  70.145  1.00  0.00     0.107 A  
HETATM   39  O   UNL     1     -14.403  10.191  68.996  1.00  0.00     4.677 OA 
HETATM   40  C   UNL     1     -14.090  11.058  71.195  1.00  0.00     1.938 A  
HETATM   41  O   UNL     1     -13.750  11.984  73.321  1.00  0.00     0.962 OA 
HETATM   42  H   UNL     1     -14.578  12.444  73.254  1.00  0.00     0.000 HD 
HETATM   43  C   UNL     1     -13.623  10.347  70.100  1.00  0.00     0.894 A  
BRANCH  31  44
HETATM   44  C   UNL     1      -8.796   7.486  70.579  1.00  0.00    -0.147 A  
HETATM   45  O   UNL     1      -5.422   5.467  71.904  1.00  0.00    -0.015 OA 
HETATM   46  H   UNL     1      -4.370   7.375  70.966  1.00  0.00     0.000 HD 
HETATM   47  C   UNL     1      -8.913   6.221  71.188  1.00  0.00    -0.146 A  
HETATM   48  H   UNL     1      -5.510   4.627  72.339  1.00  0.00     0.000 HD 
HETATM   49  O   UNL     1      -5.136   7.847  70.662  1.00  0.00    -0.023 OA 
HETATM   50  C   UNL     1      -6.531   6.106  71.424  1.00  0.00    -0.050 A  
HETATM   51  C   UNL     1      -6.401   7.337  70.785  1.00  0.00    -0.039 A  
HETATM   52  C   UNL     1      -7.524   8.029  70.340  1.00  0.00    -0.075 A  
HETATM   53  C   UNL     1      -7.777   5.530  71.614  1.00  0.00    -0.107 A  
ENDBRANCH  31  44
ENDBRANCH  28  29
ENDBRANCH  17  28
ENDBRANCH  15  16
ENDBRANCH  14  15
ENDBRANCH   4  14
TORSDOF 6
ENDMDL
MODEL      225
REMARK 921   NORMALIZED FREE ENERGY PREDICTED BY IDOCK:   21.06 KCAL/MOL
REMARK 922        TOTAL FREE ENERGY PREDICTED BY IDOCK:   26.97 KCAL/MOL
REMARK 923 INTER-LIGAND FREE ENERGY PREDICTED BY IDOCK:   25.79 KCAL/MOL
REMARK 924 INTRA-LIGAND FREE ENERGY PREDICTED BY IDOCK:    1.18 KCAL/MOL
REMARK 927      BINDING AFFINITY PREDICTED BY RF-SCORE:    0.00 PKD
ROOT
HETATM    1  C   UNL     1     -12.533  16.559  72.528  1.00  0.00    -0.029 C  
HETATM    2  C   UNL     1     -11.616  16.001  71.435  1.00  0.00    -0.455 C  
HETATM    3  O   UNL     1     -10.615  15.279  72.153  1.00  0.00     0.329 OA 
HETATM    4  C   UNL     1      -9.368  14.976  71.544  1.00  0.00     3.616 C  
HETATM    5  H   UNL     1     -10.112  17.910  68.216  1.00  0.00     0.000 HD 
HETATM    6  C   UNL     1      -8.828  16.088  70.632  1.00  0.00     2.474 C  
HETATM    7  C   UNL     1      -9.931  16.590  69.687  1.00  0.00    -0.044 C  
HETATM    8  O   UNL     1     -12.167  17.647  69.726  1.00  0.00     3.392 OA 
HETATM    9  O   UNL     1      -8.339  17.189  71.422  1.00  0.00     7.503 OA 
HETATM   10  H   UNL     1      -8.006  17.877  70.859  1.00  0.00     0.000 HD 
HETATM   11  H   UNL     1     -11.845  18.346  69.168  1.00  0.00     0.000 HD 
HETATM   12  O   UNL     1      -9.430  17.600  68.799  1.00  0.00    -0.286 OA 
HETATM   13  C   UNL     1     -11.094  17.134  70.531  1.00  0.00     0.842 C  
ENDROOT
BRANCH   4  14
HETATM   14  O   UNL     1      -9.315  13.729  70.849  1.00  0.00     4.548 OA 
BRANCH  14  15
HETATM   15  C   UNL     1     -10.601  13.098  70.715  1.00  0.00     3.631 C  
BRANCH  15  16
HETATM   16  C   UNL     1     -10.881  12.867  69.225  1.00  0.00     0.012 C  
HETATM   17  C   UNL     1     -10.777  10.423  68.895  1.00  0.00    -0.224 C  
HETATM   18  O   UNL     1     -10.160  11.716  68.721  1.00  0.00    -0.207 OA 
HETATM   19  H   UNL     1     -13.949  11.914  70.688  1.00  0.00     0.000 HD 
HETATM   20  C   UNL     1     -12.167  10.513  68.221  1.00  0.00     1.083 C  
HETATM   21  H   UNL     1     -13.447  13.606  67.377  1.00  0.00     0.000 HD 
HETATM   22  O   UNL     1     -12.034  10.869  66.822  1.00  0.00     0.216 OA 
HETATM   23  C   UNL     1     -13.052  11.564  68.910  1.00  0.00     2.567 C  
HETATM   24  H   UNL     1     -12.887  10.924  66.409  1.00  0.00     0.000 HD 
HETATM   25  O   UNL     1     -12.523  13.561  67.590  1.00  0.00    -0.125 OA 
HETATM   26  O   UNL     1     -13.401  11.265  70.263  1.00  0.00     0.332 OA 
HETATM   27  C   UNL     1     -12.381  12.939  68.880  1.00  0.00     0.190 C  
BRANCH  17  28
HETATM   28  O   UNL     1     -10.750  10.015  70.271  1.00  0.00    -0.276 OA 
BRANCH  28  29
HETATM   29  C   UNL     1      -9.994   8.886  70.590  1.00  0.00    -0.216 C  
HETATM   30  O   UNL     1      -7.835   7.746  70.739  1.00  0.00    -0.095 OA 
HETATM   31  C   UNL     1      -8.700   8.714  70.223  1.00  0.00    -0.147 C  
HETATM   32  C   UNL     1      -8.342   6.788  71.581  1.00  0.00    -0.111 A  
HETATM   33  O   UNL     1     -11.367   8.344  72.405  1.00  0.00    -0.363 OA 
HETATM   34  H   UNL     1     -12.167   6.252  72.449  1.00  0.00     0.000 HD 
HETATM   35  C   UNL     1      -7.492   5.824  72.121  1.00  0.00    -0.096 A  
HETATM   36  C   UNL     1     -10.460   7.984  71.664  1.00  0.00    -0.219 C  
HETATM   37  C   UNL     1      -8.029   4.806  72.918  1.00  0.00    -0.097 A  
HETATM   38  C   UNL     1      -9.710   6.761  71.916  1.00  0.00    -0.160 A  
HETATM   39  O   UNL     1     -11.590   5.579  72.790  1.00  0.00    -0.308 OA 
HETATM   40  C   UNL     1      -9.400   4.697  73.126  1.00  0.00    -0.134 A  
HETATM   41  O   UNL     1      -7.244   3.873  73.531  1.00  0.00    -0.063 OA 
HETATM   42  H   UNL     1      -7.608   3.183  74.072  1.00  0.00     0.000 HD 
HETATM   43  C   UNL     1     -10.243   5.680  72.628  1.00  0.00    -0.185 A  
BRANCH  31  44
HETATM   44  C   UNL     1      -8.086   9.666  69.286  1.00  0.00    -0.107 A  
HETATM   45  O   UNL     1      -6.936  12.760  66.771  1.00  0.00    -0.370 OA 
HETATM   46  H   UNL     1      -7.856  11.288  65.154  1.00  0.00     0.000 HD 
HETATM   47  C   UNL     1      -7.421  10.795  69.801  1.00  0.00    -0.028 A  
HETATM   48  H   UNL     1      -6.513  13.531  67.129  1.00  0.00     0.000 HD 
HETATM   49  O   UNL     1      -8.127  10.576  65.721  1.00  0.00    -0.150 OA 
HETATM   50  C   UNL     1      -7.269  11.721  67.595  1.00  0.00    -0.111 A  
HETATM   51  C   UNL     1      -7.888  10.589  67.069  1.00  0.00    -0.114 A  
HETATM   52  C   UNL     1      -8.284   9.544  67.901  1.00  0.00    -0.114 A  
HETATM   53  C   UNL     1      -7.013  11.828  68.953  1.00  0.00    -0.109 A  
ENDBRANCH  31  44
ENDBRANCH  28  29
ENDBRANCH  17  28
ENDBRANCH  15  16
ENDBRANCH  14  15
ENDBRANCH   4  14
TORSDOF 6
ENDMDL
MODEL      226
REMARK 921   NORMALIZED FREE ENERGY PREDICTED BY IDOCK:   21.86 KCAL/MOL
REMARK 922        TOTAL FREE ENERGY PREDICTED BY IDOCK:   28.05 KCAL/MOL
REMARK 923 INTER-LIGAND FREE ENERGY PREDICTED BY IDOCK:   -4.43 KCAL/MOL
REMARK 924 INTRA-LIGAND FREE ENERGY PREDICTED BY IDOCK:   32.47 KCAL/MOL
REMARK 927      BINDING AFFINITY PREDICTED BY RF-SCORE:    0.00 PKD
ROOT
HETATM    1  C   UNL     1     -11.993   7.277  72.469  1.00  0.00    -0.136 C  
HETATM    2  C   UNL     1     -10.776   7.017  71.576  1.00  0.00    -0.221 C  
HETATM    3  O   UNL     1     -10.603   8.238  70.857  1.00  0.00    -0.202 OA 
HETATM    4  C   UNL     1      -9.861   8.263  69.646  1.00  0.00    -0.184 C  
HETATM    5  H   UNL     1      -9.987   3.779  69.304  1.00  0.00     0.000 HD 
HETATM    6  C   UNL     1     -10.058   7.021  68.764  1.00  0.00    -0.170 C  
HETATM    7  C   UNL     1      -9.928   5.741  69.603  1.00  0.00    -0.189 C  
HETATM    8  O   UNL     1     -10.962   4.588  71.532  1.00  0.00     0.245 OA 
HETATM    9  O   UNL     1     -11.356   7.052  68.139  1.00  0.00    -0.509 OA 
HETATM   10  H   UNL     1     -11.478   6.284  67.594  1.00  0.00     0.000 HD 
HETATM   11  H   UNL     1     -11.097   3.815  70.997  1.00  0.00     0.000 HD 
HETATM   12  O   UNL     1     -10.067   4.570  68.785  1.00  0.00    -0.099 OA 
HETATM   13  C   UNL     1     -10.996   5.764  70.707  1.00  0.00    -0.242 C  
ENDROOT
BRANCH   4  14
HETATM   14  O   UNL     1      -8.463   8.522  69.790  1.00  0.00    -0.124 OA 
BRANCH  14  15
HETATM   15  C   UNL     1      -7.827   8.910  68.560  1.00  0.00    -0.103 C  
BRANCH  15  16
HETATM   16  C   UNL     1      -8.702   8.446  67.388  1.00  0.00    -0.135 C  
HETATM   17  C   UNL     1      -7.321   8.741  65.364  1.00  0.00    -0.085 C  
HETATM   18  O   UNL     1      -8.418   9.199  66.183  1.00  0.00    -0.122 OA 
HETATM   19  H   UNL     1      -6.488   5.721  67.749  1.00  0.00     0.000 HD 
HETATM   20  C   UNL     1      -7.633   7.269  65.007  1.00  0.00    -0.107 C  
HETATM   21  H   UNL     1     -10.099   5.587  66.742  1.00  0.00     0.000 HD 
HETATM   22  O   UNL     1      -8.906   7.169  64.319  1.00  0.00    -0.115 OA 
HETATM   23  C   UNL     1      -7.690   6.390  66.267  1.00  0.00    -0.099 C  
HETATM   24  H   UNL     1      -9.097   6.264  64.100  1.00  0.00     0.000 HD 
HETATM   25  O   UNL     1     -10.072   6.532  66.832  1.00  0.00    -0.166 OA 
HETATM   26  O   UNL     1      -6.452   6.265  66.971  1.00  0.00    -0.046 OA 
HETATM   27  C   UNL     1      -8.747   6.913  67.243  1.00  0.00    -0.119 C  
BRANCH  17  28
HETATM   28  O   UNL     1      -6.058   9.001  65.994  1.00  0.00    -0.051 OA 
BRANCH  28  29
HETATM   29  C   UNL     1      -6.074   9.714  67.193  1.00  0.00    -0.063 C  
HETATM   30  O   UNL     1      -5.469   9.915  69.554  1.00  0.00    -0.034 OA 
HETATM   31  C   UNL     1      -5.728   9.184  68.392  1.00  0.00    -0.038 C  
HETATM   32  C   UNL     1      -5.715  11.265  69.555  1.00  0.00    -0.061 A  
HETATM   33  O   UNL     1      -5.914  11.775  66.098  1.00  0.00    -0.094 OA 
HETATM   34  H   UNL     1      -7.456  13.305  66.643  1.00  0.00     0.000 HD 
HETATM   35  C   UNL     1      -5.448  12.015  70.699  1.00  0.00    -0.159 A  
HETATM   36  C   UNL     1      -6.117  11.191  67.155  1.00  0.00    -0.082 C  
HETATM   37  C   UNL     1      -5.772  13.377  70.716  1.00  0.00    -0.184 A  
HETATM   38  C   UNL     1      -6.231  11.913  68.416  1.00  0.00    -0.050 A  
HETATM   39  O   UNL     1      -7.301  13.807  67.435  1.00  0.00    -0.171 OA 
HETATM   40  C   UNL     1      -6.418  13.981  69.643  1.00  0.00    -0.122 A  
HETATM   41  O   UNL     1      -5.474  14.180  71.779  1.00  0.00    -0.193 OA 
HETATM   42  H   UNL     1      -5.694  15.104  71.791  1.00  0.00     0.000 HD 
HETATM   43  C   UNL     1      -6.643  13.249  68.487  1.00  0.00    -0.089 A  
BRANCH  31  44
HETATM   44  C   UNL     1      -5.490   7.737  68.497  1.00  0.00    -0.027 A  
HETATM   45  O   UNL     1      -5.529   3.591  68.670  1.00  0.00    -0.012 OA 
HETATM   46  H   UNL     1      -5.591   4.061  70.994  1.00  0.00     0.000 HD 
HETATM   47  C   UNL     1      -5.413   6.972  67.317  1.00  0.00    -0.017 A  
HETATM   48  H   UNL     1      -5.506   3.082  67.869  1.00  0.00     0.000 HD 
HETATM   49  O   UNL     1      -5.586   5.011  70.966  1.00  0.00    -0.011 OA 
HETATM   50  C   UNL     1      -5.466   4.955  68.612  1.00  0.00    -0.011 A  
HETATM   51  C   UNL     1      -5.499   5.703  69.787  1.00  0.00    -0.004 A  
HETATM   52  C   UNL     1      -5.491   7.095  69.745  1.00  0.00    -0.022 A  
HETATM   53  C   UNL     1      -5.404   5.577  67.374  1.00  0.00    -0.008 A  
ENDBRANCH  31  44
ENDBRANCH  28  29
ENDBRANCH  17  28
ENDBRANCH  15  16
ENDBRANCH  14  15
ENDBRANCH   4  14
TORSDOF 6
ENDMDL
MODEL      227
REMARK 921   NORMALIZED FREE ENERGY PREDICTED BY IDOCK:   22.62 KCAL/MOL
REMARK 922        TOTAL FREE ENERGY PREDICTED BY IDOCK:   29.07 KCAL/MOL
REMARK 923 INTER-LIGAND FREE ENERGY PREDICTED BY IDOCK:   10.17 KCAL/MOL
REMARK 924 INTRA-LIGAND FREE ENERGY PREDICTED BY IDOCK:   18.91 KCAL/MOL
REMARK 927      BINDING AFFINITY PREDICTED BY RF-SCORE:    0.00 PKD
ROOT
HETATM    1  C   UNL     1     -12.309  15.279  69.092  1.00  0.00    -0.092 C  
HETATM    2  C   UNL     1     -11.760  14.020  68.414  1.00  0.00    -0.354 C  
HETATM    3  O   UNL     1     -12.924  13.345  67.936  1.00  0.00     1.111 OA 
HETATM    4  C   UNL     1     -12.878  11.959  67.629  1.00  0.00     3.245 C  
HETATM    5  H   UNL     1      -8.960  11.459  69.784  1.00  0.00     0.000 HD 
HETATM    6  C   UNL     1     -12.004  11.133  68.585  1.00  0.00    -0.219 C  
HETATM    7  C   UNL     1     -10.645  11.817  68.796  1.00  0.00    -0.206 C  
HETATM    8  O   UNL     1      -9.659  13.922  69.642  1.00  0.00     0.021 OA 
HETATM    9  O   UNL     1     -12.663  10.978  69.857  1.00  0.00    -0.212 OA 
HETATM   10  H   UNL     1     -12.122  10.468  70.448  1.00  0.00     0.000 HD 
HETATM   11  H   UNL     1      -9.117  13.425  70.244  1.00  0.00     0.000 HD 
HETATM   12  O   UNL     1      -9.800  11.036  69.654  1.00  0.00     0.040 OA 
HETATM   13  C   UNL     1     -10.882  13.214  69.390  1.00  0.00     0.084 C  
ENDROOT
BRANCH   4  14
HETATM   14  O   UNL     1     -12.530  11.642  66.279  1.00  0.00     0.525 OA 
BRANCH  14  15
HETATM   15  C   UNL     1     -11.728  12.655  65.647  1.00  0.00    -0.412 C  
BRANCH  15  16
HETATM   16  C   UNL     1     -12.290  14.032  66.023  1.00  0.00    -0.473 C  
HETATM   17  C   UNL     1     -10.706  15.679  65.092  1.00  0.00    -0.443 C  
HETATM   18  O   UNL     1     -11.230  14.995  66.249  1.00  0.00    -0.344 OA 
HETATM   19  H   UNL     1     -13.127  13.827  62.601  1.00  0.00     0.000 HD 
HETATM   20  C   UNL     1     -11.912  16.369  64.413  1.00  0.00     0.540 C  
HETATM   21  H   UNL     1     -15.118  15.468  65.325  1.00  0.00     0.000 HD 
HETATM   22  O   UNL     1     -12.565  17.279  65.335  1.00  0.00     4.432 OA 
HETATM   23  C   UNL     1     -12.946  15.338  63.932  1.00  0.00     1.315 C  
HETATM   24  H   UNL     1     -13.306  17.702  64.918  1.00  0.00     0.000 HD 
HETATM   25  O   UNL     1     -14.409  15.190  65.894  1.00  0.00     2.805 OA 
HETATM   26  O   UNL     1     -12.488  14.464  62.898  1.00  0.00    -0.037 OA 
HETATM   27  C   UNL     1     -13.439  14.482  65.101  1.00  0.00     0.998 C  
BRANCH  17  28
HETATM   28  O   UNL     1      -9.922  14.795  64.276  1.00  0.00     0.396 OA 
BRANCH  28  29
HETATM   29  C   UNL     1      -9.404  13.651  64.884  1.00  0.00     1.031 C  
HETATM   30  O   UNL     1      -8.623  12.476  66.882  1.00  0.00    -0.195 OA 
HETATM   31  C   UNL     1      -8.895  13.628  66.141  1.00  0.00     0.411 C  
HETATM   32  C   UNL     1      -8.733  11.254  66.268  1.00  0.00    -0.184 A  
HETATM   33  O   UNL     1     -10.610  12.223  63.478  1.00  0.00    -0.436 OA 
HETATM   34  H   UNL     1      -9.423  10.648  62.417  1.00  0.00     0.000 HD 
HETATM   35  C   UNL     1      -8.482  10.091  66.995  1.00  0.00    -0.125 A  
HETATM   36  C   UNL     1      -9.727  12.324  64.321  1.00  0.00    -0.018 C  
HETATM   37  C   UNL     1      -8.524   8.853  66.342  1.00  0.00    -0.117 A  
HETATM   38  C   UNL     1      -9.101  11.149  64.912  1.00  0.00    -0.111 A  
HETATM   39  O   UNL     1      -9.221   9.860  62.908  1.00  0.00    -0.267 OA 
HETATM   40  C   UNL     1      -8.741   8.764  64.971  1.00  0.00    -0.183 A  
HETATM   41  O   UNL     1      -8.355   7.674  67.009  1.00  0.00    -0.121 OA 
HETATM   42  H   UNL     1      -8.383   6.834  66.566  1.00  0.00     0.000 HD 
HETATM   43  C   UNL     1      -9.036   9.915  64.254  1.00  0.00    -0.253 A  
BRANCH  31  44
HETATM   44  C   UNL     1      -8.697  14.896  66.859  1.00  0.00    -0.276 A  
HETATM   45  O   UNL     1      -8.854  18.545  68.830  1.00  0.00    -0.312 OA 
HETATM   46  H   UNL     1      -8.220  19.311  66.676  1.00  0.00     0.000 HD 
HETATM   47  C   UNL     1      -8.997  14.953  68.235  1.00  0.00    -0.177 A  
HETATM   48  H   UNL     1      -9.085  18.578  69.750  1.00  0.00     0.000 HD 
HETATM   49  O   UNL     1      -8.185  18.481  66.214  1.00  0.00    -0.337 OA 
HETATM   50  C   UNL     1      -8.754  17.338  68.195  1.00  0.00    -0.243 A  
HETATM   51  C   UNL     1      -8.415  17.288  66.845  1.00  0.00    -0.226 A  
HETATM   52  C   UNL     1      -8.362  16.071  66.169  1.00  0.00    -0.165 A  
HETATM   53  C   UNL     1      -9.029  16.178  68.904  1.00  0.00    -0.247 A  
ENDBRANCH  31  44
ENDBRANCH  28  29
ENDBRANCH  17  28
ENDBRANCH  15  16
ENDBRANCH  14  15
ENDBRANCH   4  14
TORSDOF 6
ENDMDL
MODEL      228
REMARK 921   NORMALIZED FREE ENERGY PREDICTED BY IDOCK:   23.95 KCAL/MOL
REMARK 922        TOTAL FREE ENERGY PREDICTED BY IDOCK:   30.88 KCAL/MOL
REMARK 923 INTER-LIGAND FREE ENERGY PREDICTED BY IDOCK:    4.87 KCAL/MOL
REMARK 924 INTRA-LIGAND FREE ENERGY PREDICTED BY IDOCK:   26.01 KCAL/MOL
REMARK 927      BINDING AFFINITY PREDICTED BY RF-SCORE:    0.00 PKD
ROOT
HETATM    1  C   UNL     1      -6.623   5.098  72.933  1.00  0.00    -0.062 C  
HETATM    2  C   UNL     1      -7.396   6.019  71.984  1.00  0.00    -0.094 C  
HETATM    3  O   UNL     1      -6.558   7.168  71.850  1.00  0.00    -0.051 OA 
HETATM    4  C   UNL     1      -7.096   8.405  71.404  1.00  0.00    -0.074 C  
HETATM    5  H   UNL     1     -11.312   6.986  72.077  1.00  0.00     0.000 HD 
HETATM    6  C   UNL     1      -8.510   8.699  71.926  1.00  0.00    -0.143 C  
HETATM    7  C   UNL     1      -9.415   7.472  71.745  1.00  0.00    -0.145 C  
HETATM    8  O   UNL     1      -9.609   5.102  72.430  1.00  0.00    -0.146 OA 
HETATM    9  O   UNL     1      -8.464   9.056  73.321  1.00  0.00    -0.111 OA 
HETATM   10  H   UNL     1      -9.338   9.238  73.644  1.00  0.00     0.000 HD 
HETATM   11  H   UNL     1     -10.482   5.272  72.764  1.00  0.00     0.000 HD 
HETATM   12  O   UNL     1     -10.752   7.745  72.189  1.00  0.00    -0.221 OA 
HETATM   13  C   UNL     1      -8.812   6.294  72.526  1.00  0.00    -0.123 C  
ENDROOT
BRANCH   4  14
HETATM   14  O   UNL     1      -7.062   8.611  69.990  1.00  0.00    -0.045 OA 
BRANCH  14  15
HETATM   15  C   UNL     1      -6.681   9.948  69.621  1.00  0.00    -0.061 C  
BRANCH  15  16
HETATM   16  C   UNL     1      -5.778   9.877  68.384  1.00  0.00    -0.042 C  
HETATM   17  C   UNL     1      -6.267   7.704  67.320  1.00  0.00    -0.053 C  
HETATM   18  O   UNL     1      -5.367   8.516  68.103  1.00  0.00    -0.033 OA 
HETATM   19  H   UNL     1      -8.918  10.591  66.938  1.00  0.00     0.000 HD 
HETATM   20  C   UNL     1      -6.501   8.470  65.997  1.00  0.00    -0.053 C  
HETATM   21  H   UNL     1      -5.560  11.783  65.763  1.00  0.00     0.000 HD 
HETATM   22  O   UNL     1      -5.243   8.702  65.313  1.00  0.00    -0.034 OA 
HETATM   23  C   UNL     1      -7.176   9.828  66.250  1.00  0.00    -0.099 C  
HETATM   24  H   UNL     1      -5.387   9.173  64.500  1.00  0.00     0.000 HD 
HETATM   25  O   UNL     1      -5.221  11.286  66.498  1.00  0.00    -0.098 OA 
HETATM   26  O   UNL     1      -8.500   9.752  66.782  1.00  0.00    -0.123 OA 
HETATM   27  C   UNL     1      -6.328  10.685  67.193  1.00  0.00    -0.070 C  
BRANCH  17  28
HETATM   28  O   UNL     1      -7.435   7.346  68.076  1.00  0.00    -0.100 OA 
BRANCH  28  29
HETATM   29  C   UNL     1      -8.579   8.124  67.895  1.00  0.00    -0.132 C  
HETATM   30  O   UNL     1     -10.950   8.316  67.328  1.00  0.00    -0.135 OA 
HETATM   31  C   UNL     1      -9.708   7.679  67.290  1.00  0.00    -0.169 C  
HETATM   32  C   UNL     1     -11.037   9.564  67.892  1.00  0.00     0.011 A  
HETATM   33  O   UNL     1      -8.005   9.573  69.640  1.00  0.00    -0.095 OA 
HETATM   34  H   UNL     1      -7.989  11.758  69.145  1.00  0.00     0.000 HD 
HETATM   35  C   UNL     1     -12.271  10.209  67.955  1.00  0.00     2.638 A  
HETATM   36  C   UNL     1      -8.745   9.360  68.688  1.00  0.00    -0.131 C  
HETATM   37  C   UNL     1     -12.337  11.512  68.463  1.00  0.00     0.373 A  
HETATM   38  C   UNL     1      -9.899  10.208  68.415  1.00  0.00    -0.164 A  
HETATM   39  O   UNL     1      -8.826  12.206  69.158  1.00  0.00     0.303 OA 
HETATM   40  C   UNL     1     -11.189  12.201  68.842  1.00  0.00    -0.320 A  
HETATM   41  O   UNL     1     -13.522  12.173  68.614  1.00  0.00     3.406 OA 
HETATM   42  H   UNL     1     -13.567  13.057  68.959  1.00  0.00     0.000 HD 
HETATM   43  C   UNL     1      -9.967  11.546  68.823  1.00  0.00    -0.157 A  
BRANCH  31  44
HETATM   44  C   UNL     1      -9.695   6.371  66.618  1.00  0.00    -0.197 A  
HETATM   45  O   UNL     1     -10.346   2.634  64.937  1.00  0.00    -0.245 OA 
HETATM   46  H   UNL     1      -9.271   1.959  66.941  1.00  0.00     0.000 HD 
HETATM   47  C   UNL     1     -10.290   6.253  65.346  1.00  0.00     1.743 A  
HETATM   48  H   UNL     1     -10.774   2.560  64.092  1.00  0.00     0.000 HD 
HETATM   49  O   UNL     1      -9.120   2.809  67.336  1.00  0.00    -0.150 OA 
HETATM   50  C   UNL     1     -10.088   3.868  65.465  1.00  0.00    -0.071 A  
HETATM   51  C   UNL     1      -9.460   3.976  66.704  1.00  0.00    -0.197 A  
HETATM   52  C   UNL     1      -9.239   5.222  67.283  1.00  0.00    -0.114 A  
HETATM   53  C   UNL     1     -10.490   4.998  64.769  1.00  0.00     0.653 A  
ENDBRANCH  31  44
ENDBRANCH  28  29
ENDBRANCH  17  28
ENDBRANCH  15  16
ENDBRANCH  14  15
ENDBRANCH   4  14
TORSDOF 6
ENDMDL
MODEL      229
REMARK 921   NORMALIZED FREE ENERGY PREDICTED BY IDOCK:   24.45 KCAL/MOL
REMARK 922        TOTAL FREE ENERGY PREDICTED BY IDOCK:   31.55 KCAL/MOL
REMARK 923 INTER-LIGAND FREE ENERGY PREDICTED BY IDOCK:    1.44 KCAL/MOL
REMARK 924 INTRA-LIGAND FREE ENERGY PREDICTED BY IDOCK:   30.11 KCAL/MOL
REMARK 927      BINDING AFFINITY PREDICTED BY RF-SCORE:    0.00 PKD
ROOT
HETATM    1  C   UNL     1     -11.626   5.030  70.602  1.00  0.00     2.230 C  
HETATM    2  C   UNL     1     -11.978   6.513  70.752  1.00  0.00    -0.287 C  
HETATM    3  O   UNL     1     -10.735   7.136  71.078  1.00  0.00    -0.228 OA 
HETATM    4  C   UNL     1     -10.709   8.413  71.700  1.00  0.00    -0.265 C  
HETATM    5  H   UNL     1     -15.078   8.158  72.741  1.00  0.00     0.000 HD 
HETATM    6  C   UNL     1     -11.825   8.630  72.733  1.00  0.00     0.012 C  
HETATM    7  C   UNL     1     -13.180   8.192  72.158  1.00  0.00    -0.231 C  
HETATM    8  O   UNL     1     -14.340   6.200  71.259  1.00  0.00     0.974 OA 
HETATM    9  O   UNL     1     -11.550   7.878  73.931  1.00  0.00     0.299 OA 
HETATM   10  H   UNL     1     -12.240   8.012  74.570  1.00  0.00     0.000 HD 
HETATM   11  H   UNL     1     -15.034   6.317  71.898  1.00  0.00     0.000 HD 
HETATM   12  O   UNL     1     -14.240   8.428  73.097  1.00  0.00    -0.072 OA 
HETATM   13  C   UNL     1     -13.103   6.703  71.788  1.00  0.00    -0.081 C  
ENDROOT
BRANCH   4  14
HETATM   14  O   UNL     1     -10.669   9.528  70.808  1.00  0.00    -0.272 OA 
BRANCH  14  15
HETATM   15  C   UNL     1     -10.861   9.160  69.430  1.00  0.00    -0.151 C  
BRANCH  15  16
HETATM   16  C   UNL     1     -10.096   7.859  69.159  1.00  0.00    -0.197 C  
HETATM   17  C   UNL     1     -10.357   7.419  66.744  1.00  0.00    -0.251 C  
HETATM   18  O   UNL     1     -10.718   7.087  68.101  1.00  0.00    -0.210 OA 
HETATM   19  H   UNL     1      -7.885  10.278  67.847  1.00  0.00     0.000 HD 
HETATM   20  C   UNL     1      -8.818   7.287  66.660  1.00  0.00    -0.139 C  
HETATM   21  H   UNL     1      -6.972   7.072  69.569  1.00  0.00     0.000 HD 
HETATM   22  O   UNL     1      -8.401   5.947  67.022  1.00  0.00    -0.105 OA 
HETATM   23  C   UNL     1      -8.121   8.285  67.599  1.00  0.00    -0.126 C  
HETATM   24  H   UNL     1      -7.456   5.866  66.971  1.00  0.00     0.000 HD 
HETATM   25  O   UNL     1      -7.910   6.941  69.639  1.00  0.00    -0.113 OA 
HETATM   26  O   UNL     1      -8.316   9.661  67.267  1.00  0.00    -0.114 OA 
HETATM   27  C   UNL     1      -8.574   8.071  69.046  1.00  0.00    -0.137 C  
BRANCH  17  28
HETATM   28  O   UNL     1     -10.922   8.680  66.350  1.00  0.00     0.397 OA 
BRANCH  28  29
HETATM   29  C   UNL     1     -10.497   9.815  67.040  1.00  0.00    -0.227 C  
HETATM   30  O   UNL     1      -9.188  11.879  67.135  1.00  0.00    -0.174 OA 
HETATM   31  C   UNL     1      -9.470  10.604  66.639  1.00  0.00    -0.167 C  
HETATM   32  C   UNL     1      -9.900  12.342  68.212  1.00  0.00    -0.224 A  
HETATM   33  O   UNL     1     -12.562  10.071  68.110  1.00  0.00     2.222 OA 
HETATM   34  H   UNL     1     -12.501  10.252  70.342  1.00  0.00     0.000 HD 
HETATM   35  C   UNL     1      -9.646  13.619  68.711  1.00  0.00    -0.017 A  
HETATM   36  C   UNL     1     -11.390  10.424  68.048  1.00  0.00    -0.204 C  
HETATM   37  C   UNL     1     -10.324  14.054  69.856  1.00  0.00     0.662 A  
HETATM   38  C   UNL     1     -10.891  11.551  68.825  1.00  0.00    -0.258 A  
HETATM   39  O   UNL     1     -12.304  11.110  70.698  1.00  0.00    -0.339 OA 
HETATM   40  C   UNL     1     -11.193  13.215  70.546  1.00  0.00     0.924 A  
HETATM   41  O   UNL     1     -10.170  15.315  70.355  1.00  0.00    -0.483 OA 
HETATM   42  H   UNL     1     -10.630  15.610  71.132  1.00  0.00     0.000 HD 
HETATM   43  C   UNL     1     -11.482  11.962  70.026  1.00  0.00    -0.130 A  
BRANCH  31  44
HETATM   44  C   UNL     1      -8.622  10.166  65.520  1.00  0.00    -0.162 A  
HETATM   45  O   UNL     1      -6.551   8.289  62.453  1.00  0.00    -0.087 OA 
HETATM   46  H   UNL     1      -4.913   8.128  64.162  1.00  0.00     0.000 HD 
HETATM   47  C   UNL     1      -9.190  10.057  64.236  1.00  0.00    -0.318 A  
HETATM   48  H   UNL     1      -6.952   8.193  61.598  1.00  0.00     0.000 HD 
HETATM   49  O   UNL     1      -5.379   8.553  64.872  1.00  0.00    -0.035 OA 
HETATM   50  C   UNL     1      -7.215   8.952  63.447  1.00  0.00    -0.093 A  
HETATM   51  C   UNL     1      -6.627   9.092  64.702  1.00  0.00    -0.075 A  
HETATM   52  C   UNL     1      -7.311   9.716  65.743  1.00  0.00    -0.100 A  
HETATM   53  C   UNL     1      -8.486   9.445  63.197  1.00  0.00    -0.205 A  
ENDBRANCH  31  44
ENDBRANCH  28  29
ENDBRANCH  17  28
ENDBRANCH  15  16
ENDBRANCH  14  15
ENDBRANCH   4  14
TORSDOF 6
ENDMDL
MODEL      230
REMARK 921   NORMALIZED FREE ENERGY PREDICTED BY IDOCK:   25.49 KCAL/MOL
REMARK 922        TOTAL FREE ENERGY PREDICTED BY IDOCK:   32.95 KCAL/MOL
REMARK 923 INTER-LIGAND FREE ENERGY PREDICTED BY IDOCK:   22.54 KCAL/MOL
REMARK 924 INTRA-LIGAND FREE ENERGY PREDICTED BY IDOCK:   10.41 KCAL/MOL
REMARK 927      BINDING AFFINITY PREDICTED BY RF-SCORE:    0.00 PKD
ROOT
HETATM    1  C   UNL     1      -8.351  20.529  65.571  1.00  0.00     0.545 C  
HETATM    2  C   UNL     1      -8.290  19.243  66.401  1.00  0.00    -0.321 C  
HETATM    3  O   UNL     1      -7.232  18.492  65.805  1.00  0.00    -0.416 OA 
HETATM    4  C   UNL     1      -7.140  17.089  66.007  1.00  0.00     0.018 C  
HETATM    5  H   UNL     1     -11.343  16.894  67.601  1.00  0.00     0.000 HD 
HETATM    6  C   UNL     1      -8.497  16.370  66.041  1.00  0.00    -0.170 C  
HETATM    7  C   UNL     1      -9.477  17.116  66.958  1.00  0.00    -0.252 C  
HETATM    8  O   UNL     1     -10.586  19.313  67.213  1.00  0.00    -0.432 OA 
HETATM    9  O   UNL     1      -9.053  16.289  64.714  1.00  0.00     1.484 OA 
HETATM   10  H   UNL     1      -9.892  15.845  64.735  1.00  0.00     0.000 HD 
HETATM   11  H   UNL     1     -11.433  18.883  67.227  1.00  0.00     0.000 HD 
HETATM   12  O   UNL     1     -10.737  16.433  67.034  1.00  0.00    -0.302 OA 
HETATM   13  C   UNL     1      -9.664  18.545  66.424  1.00  0.00    -0.336 C  
ENDROOT
BRANCH   4  14
HETATM   14  O   UNL     1      -6.363  16.684  67.136  1.00  0.00    -0.154 OA 
BRANCH  14  15
HETATM   15  C   UNL     1      -6.736  15.392  67.647  1.00  0.00    -0.173 C  
BRANCH  15  16
HETATM   16  C   UNL     1      -6.633  14.366  66.511  1.00  0.00     2.928 C  
HETATM   17  C   UNL     1      -6.843  12.154  67.586  1.00  0.00    -0.119 C  
HETATM   18  O   UNL     1      -5.999  13.142  66.957  1.00  0.00    -0.235 OA 
HETATM   19  H   UNL     1     -10.096  14.336  67.192  1.00  0.00     0.000 HD 
HETATM   20  C   UNL     1      -7.961  11.830  66.568  1.00  0.00    -0.009 C  
HETATM   21  H   UNL     1      -8.440  13.908  63.853  1.00  0.00     0.000 HD 
HETATM   22  O   UNL     1      -7.395  11.350  65.322  1.00  0.00    -0.037 OA 
HETATM   23  C   UNL     1      -8.818  13.071  66.267  1.00  0.00     0.196 C  
HETATM   24  H   UNL     1      -8.082  11.151  64.697  1.00  0.00     0.000 HD 
HETATM   25  O   UNL     1      -7.629  14.005  64.337  1.00  0.00    11.292 OA 
HETATM   26  O   UNL     1      -9.567  13.569  67.378  1.00  0.00    -0.215 OA 
HETATM   27  C   UNL     1      -7.948  14.208  65.725  1.00  0.00     3.540 C  
BRANCH  17  28
HETATM   28  O   UNL     1      -7.259  12.581  68.892  1.00  0.00    -0.102 OA 
BRANCH  28  29
HETATM   29  C   UNL     1      -7.621  11.590  69.805  1.00  0.00     0.640 C  
HETATM   30  O   UNL     1      -8.968   9.636  70.397  1.00  0.00    -0.244 OA 
HETATM   31  C   UNL     1      -8.716  10.802  69.670  1.00  0.00     0.280 C  
HETATM   32  C   UNL     1      -8.132   9.311  71.436  1.00  0.00     0.203 A  
HETATM   33  O   UNL     1      -5.441  11.400  70.631  1.00  0.00    -0.115 OA 
HETATM   34  H   UNL     1      -5.208  11.574  72.853  1.00  0.00     0.000 HD 
HETATM   35  C   UNL     1      -8.356   8.143  72.163  1.00  0.00    -0.209 A  
HETATM   36  C   UNL     1      -6.620  11.101  70.776  1.00  0.00     0.785 C  
HETATM   37  C   UNL     1      -7.545   7.858  73.268  1.00  0.00    -0.131 A  
HETATM   38  C   UNL     1      -7.045  10.137  71.782  1.00  0.00     1.867 A  
HETATM   39  O   UNL     1      -5.383  10.792  73.365  1.00  0.00    -0.212 OA 
HETATM   40  C   UNL     1      -6.567   8.749  73.697  1.00  0.00     0.009 A  
HETATM   41  O   UNL     1      -7.668   6.700  73.979  1.00  0.00    -0.096 OA 
HETATM   42  H   UNL     1      -7.118   6.507  74.729  1.00  0.00     0.000 HD 
HETATM   43  C   UNL     1      -6.312   9.889  72.949  1.00  0.00     1.240 A  
BRANCH  31  44
HETATM   44  C   UNL     1      -9.692  11.102  68.612  1.00  0.00    -0.202 A  
HETATM   45  O   UNL     1     -12.867  11.470  65.965  1.00  0.00     2.175 OA 
HETATM   46  H   UNL     1     -11.509   9.980  64.714  1.00  0.00     0.000 HD 
HETATM   47  C   UNL     1     -10.772  11.958  68.905  1.00  0.00    -0.236 A  
HETATM   48  H   UNL     1     -13.605  12.026  66.182  1.00  0.00     0.000 HD 
HETATM   49  O   UNL     1     -10.779   9.886  65.314  1.00  0.00     0.274 OA 
HETATM   50  C   UNL     1     -11.800  11.389  66.816  1.00  0.00     0.432 A  
HETATM   51  C   UNL     1     -10.717  10.573  66.497  1.00  0.00    -0.121 A  
HETATM   52  C   UNL     1      -9.646  10.436  67.378  1.00  0.00    -0.178 A  
HETATM   53  C   UNL     1     -11.831  12.100  68.006  1.00  0.00    -0.351 A  
ENDBRANCH  31  44
ENDBRANCH  28  29
ENDBRANCH  17  28
ENDBRANCH  15  16
ENDBRANCH  14  15
ENDBRANCH   4  14
TORSDOF 6
ENDMDL
MODEL      231
REMARK 921   NORMALIZED FREE ENERGY PREDICTED BY IDOCK:   26.77 KCAL/MOL
REMARK 922        TOTAL FREE ENERGY PREDICTED BY IDOCK:   34.68 KCAL/MOL
REMARK 923 INTER-LIGAND FREE ENERGY PREDICTED BY IDOCK:   13.27 KCAL/MOL
REMARK 924 INTRA-LIGAND FREE ENERGY PREDICTED BY IDOCK:   21.41 KCAL/MOL
REMARK 927      BINDING AFFINITY PREDICTED BY RF-SCORE:    0.00 PKD
ROOT
HETATM    1  C   UNL     1      -6.190  12.682  66.596  1.00  0.00     1.032 C  
HETATM    2  C   UNL     1      -6.636  11.323  66.048  1.00  0.00     0.115 C  
HETATM    3  O   UNL     1      -6.355  11.400  64.650  1.00  0.00     0.856 OA 
HETATM    4  C   UNL     1      -7.000  10.524  63.735  1.00  0.00     0.110 C  
HETATM    5  H   UNL     1     -10.051   9.316  66.812  1.00  0.00     0.000 HD 
HETATM    6  C   UNL     1      -8.467  10.227  64.080  1.00  0.00    -0.176 C  
HETATM    7  C   UNL     1      -8.606   9.863  65.565  1.00  0.00    -0.145 C  
HETATM    8  O   UNL     1      -8.221  10.801  67.822  1.00  0.00    -0.111 OA 
HETATM    9  O   UNL     1      -9.291  11.372  63.789  1.00  0.00    -0.368 OA 
HETATM   10  H   UNL     1     -10.198  11.188  64.002  1.00  0.00     0.000 HD 
HETATM   11  H   UNL     1      -9.128  10.629  68.047  1.00  0.00     0.000 HD 
HETATM   12  O   UNL     1      -9.965   9.541  65.894  1.00  0.00    -0.291 OA 
HETATM   13  C   UNL     1      -8.107  11.045  66.411  1.00  0.00    -0.166 C  
ENDROOT
BRANCH   4  14
HETATM   14  O   UNL     1      -6.316   9.296  63.480  1.00  0.00    -0.089 OA 
BRANCH  14  15
HETATM   15  C   UNL     1      -7.055   8.136  63.902  1.00  0.00    -0.084 C  
BRANCH  15  16
HETATM   16  C   UNL     1      -6.264   7.426  65.007  1.00  0.00    -0.038 C  
HETATM   17  C   UNL     1      -7.632   7.634  67.051  1.00  0.00    -0.103 C  
HETATM   18  O   UNL     1      -6.474   8.051  66.298  1.00  0.00    -0.046 OA 
HETATM   19  H   UNL     1      -8.790   5.063  64.303  1.00  0.00     0.000 HD 
HETATM   20  C   UNL     1      -7.510   6.101  67.220  1.00  0.00    -0.081 C  
HETATM   21  H   UNL     1      -5.239   4.357  65.290  1.00  0.00     0.000 HD 
HETATM   22  O   UNL     1      -6.271   5.759  67.891  1.00  0.00    -0.027 OA 
HETATM   23  C   UNL     1      -7.539   5.386  65.859  1.00  0.00    -0.083 C  
HETATM   24  H   UNL     1      -6.196   4.818  67.995  1.00  0.00     0.000 HD 
HETATM   25  O   UNL     1      -5.149   5.302  65.320  1.00  0.00    -0.009 OA 
HETATM   26  O   UNL     1      -8.771   5.505  65.143  1.00  0.00    -0.154 OA 
HETATM   27  C   UNL     1      -6.410   5.893  64.958  1.00  0.00    -0.037 C  
BRANCH  17  28
HETATM   28  O   UNL     1      -8.844   8.125  66.456  1.00  0.00    -0.133 OA 
BRANCH  28  29
HETATM   29  C   UNL     1      -9.917   8.385  67.310  1.00  0.00    -0.227 C  
HETATM   30  O   UNL     1     -11.898   7.624  68.525  1.00  0.00     1.326 OA 
HETATM   31  C   UNL     1     -10.957   7.536  67.497  1.00  0.00    -0.063 C  
HETATM   32  C   UNL     1     -11.882   8.725  69.344  1.00  0.00     1.094 A  
HETATM   33  O   UNL     1      -8.681   9.916  68.576  1.00  0.00    -0.117 OA 
HETATM   34  H   UNL     1      -9.610  11.933  68.868  1.00  0.00     0.000 HD 
HETATM   35  C   UNL     1     -12.801   8.824  70.387  1.00  0.00     0.805 A  
HETATM   36  C   UNL     1      -9.784   9.440  68.336  1.00  0.00    -0.149 C  
HETATM   37  C   UNL     1     -12.827   9.985  71.169  1.00  0.00    -0.385 A  
HETATM   38  C   UNL     1     -10.947   9.762  69.153  1.00  0.00    -0.205 A  
HETATM   39  O   UNL     1     -10.259  12.011  69.559  1.00  0.00     0.297 OA 
HETATM   40  C   UNL     1     -12.002  11.068  70.885  1.00  0.00    -0.391 A  
HETATM   41  O   UNL     1     -13.656  10.116  72.246  1.00  0.00    -0.567 OA 
HETATM   42  H   UNL     1     -13.673  10.904  72.777  1.00  0.00     0.000 HD 
HETATM   43  C   UNL     1     -11.055  10.955  69.878  1.00  0.00    -0.241 A  
BRANCH  31  44
HETATM   44  C   UNL     1     -11.082   6.352  66.634  1.00  0.00    -0.093 A  
HETATM   45  O   UNL     1     -10.714   3.001  64.213  1.00  0.00    -0.442 OA 
HETATM   46  H   UNL     1     -11.038   4.643  62.531  1.00  0.00     0.000 HD 
HETATM   47  C   UNL     1     -10.917   5.074  67.203  1.00  0.00     0.528 A  
HETATM   48  H   UNL     1     -10.574   2.147  64.602  1.00  0.00     0.000 HD 
HETATM   49  O   UNL     1     -11.120   5.417  63.076  1.00  0.00     2.347 OA 
HETATM   50  C   UNL     1     -10.885   4.096  65.014  1.00  0.00    -0.034 A  
HETATM   51  C   UNL     1     -11.091   5.350  64.443  1.00  0.00     2.932 A  
HETATM   52  C   UNL     1     -11.211   6.484  65.242  1.00  0.00     5.072 A  
HETATM   53  C   UNL     1     -10.815   3.942  66.390  1.00  0.00     1.813 A  
ENDBRANCH  31  44
ENDBRANCH  28  29
ENDBRANCH  17  28
ENDBRANCH  15  16
ENDBRANCH  14  15
ENDBRANCH   4  14
TORSDOF 6
ENDMDL
MODEL      232
REMARK 921   NORMALIZED FREE ENERGY PREDICTED BY IDOCK:   27.16 KCAL/MOL
REMARK 922        TOTAL FREE ENERGY PREDICTED BY IDOCK:   35.21 KCAL/MOL
REMARK 923 INTER-LIGAND FREE ENERGY PREDICTED BY IDOCK:   -2.86 KCAL/MOL
REMARK 924 INTRA-LIGAND FREE ENERGY PREDICTED BY IDOCK:   38.07 KCAL/MOL
REMARK 927      BINDING AFFINITY PREDICTED BY RF-SCORE:    0.00 PKD
ROOT
HETATM    1  C   UNL     1      -5.278   6.250  72.793  1.00  0.00    -0.031 C  
HETATM    2  C   UNL     1      -6.541   6.897  72.216  1.00  0.00    -0.057 C  
HETATM    3  O   UNL     1      -6.112   8.194  71.800  1.00  0.00    -0.036 OA 
HETATM    4  C   UNL     1      -7.055   9.238  71.606  1.00  0.00     0.196 C  
HETATM    5  H   UNL     1     -10.261   6.946  73.776  1.00  0.00     0.000 HD 
HETATM    6  C   UNL     1      -8.207   9.239  72.622  1.00  0.00     1.375 C  
HETATM    7  C   UNL     1      -8.793   7.827  72.770  1.00  0.00    -0.173 C  
HETATM    8  O   UNL     1      -8.148   5.534  73.438  1.00  0.00    -0.113 OA 
HETATM    9  O   UNL     1      -7.742   9.700  73.905  1.00  0.00     1.193 OA 
HETATM   10  H   UNL     1      -8.454   9.700  74.533  1.00  0.00     0.000 HD 
HETATM   11  H   UNL     1      -8.852   5.523  74.076  1.00  0.00     0.000 HD 
HETATM   12  O   UNL     1      -9.899   7.819  73.684  1.00  0.00    -0.290 OA 
HETATM   13  C   UNL     1      -7.683   6.879  73.250  1.00  0.00    -0.087 C  
ENDROOT
BRANCH   4  14
HETATM   14  O   UNL     1      -7.590   9.341  70.285  1.00  0.00    -0.089 OA 
BRANCH  14  15
HETATM   15  C   UNL     1      -8.302  10.570  70.056  1.00  0.00     0.402 C  
BRANCH  15  16
HETATM   16  C   UNL     1      -8.002  11.052  68.631  1.00  0.00    -0.143 C  
HETATM   17  C   UNL     1      -7.909   9.015  67.240  1.00  0.00    -0.099 C  
HETATM   18  O   UNL     1      -7.205  10.088  67.900  1.00  0.00    -0.085 OA 
HETATM   19  H   UNL     1     -11.442  10.290  68.420  1.00  0.00     0.000 HD 
HETATM   20  C   UNL     1      -8.927   9.687  66.290  1.00  0.00    -0.155 C  
HETATM   21  H   UNL     1      -9.622  13.050  66.648  1.00  0.00     0.000 HD 
HETATM   22  O   UNL     1      -8.250  10.556  65.347  1.00  0.00    -0.158 OA 
HETATM   23  C   UNL     1      -9.953  10.524  67.073  1.00  0.00    -0.201 C  
HETATM   24  H   UNL     1      -8.876  10.968  64.763  1.00  0.00     0.000 HD 
HETATM   25  O   UNL     1      -8.853  12.715  67.094  1.00  0.00    -0.190 OA 
HETATM   26  O   UNL     1     -10.809   9.773  67.937  1.00  0.00    -0.266 OA 
HETATM   27  C   UNL     1      -9.249  11.596  67.908  1.00  0.00    -0.171 C  
BRANCH  17  28
HETATM   28  O   UNL     1      -8.432   8.075  68.190  1.00  0.00    -0.122 OA 
BRANCH  28  29
HETATM   29  C   UNL     1      -9.663   8.373  68.776  1.00  0.00    -0.164 C  
HETATM   30  O   UNL     1     -11.721   7.650  69.882  1.00  0.00     0.066 OA 
HETATM   31  C   UNL     1     -10.609   7.445  69.062  1.00  0.00    -0.192 C  
HETATM   32  C   UNL     1     -11.984   8.918  70.335  1.00  0.00     0.115 A  
HETATM   33  O   UNL     1      -8.866  10.373  69.692  1.00  0.00    -0.142 OA 
HETATM   34  H   UNL     1     -10.070  12.210  69.250  1.00  0.00     0.000 HD 
HETATM   35  C   UNL     1     -13.079   9.141  71.168  1.00  0.00    -0.216 A  
HETATM   36  C   UNL     1      -9.843   9.673  69.455  1.00  0.00    -0.206 C  
HETATM   37  C   UNL     1     -13.383  10.449  71.564  1.00  0.00    -0.310 A  
HETATM   38  C   UNL     1     -11.163  10.005  69.976  1.00  0.00    -0.345 A  
HETATM   39  O   UNL     1     -10.835  12.362  69.793  1.00  0.00     0.157 OA 
HETATM   40  C   UNL     1     -12.658  11.537  71.089  1.00  0.00    -0.463 A  
HETATM   41  O   UNL     1     -14.400  10.727  72.432  1.00  0.00     0.162 OA 
HETATM   42  H   UNL     1     -14.606  11.614  72.701  1.00  0.00     0.000 HD 
HETATM   43  C   UNL     1     -11.542  11.315  70.297  1.00  0.00    -0.275 A  
BRANCH  31  44
HETATM   44  C   UNL     1     -10.435   6.068  68.576  1.00  0.00    -0.287 A  
HETATM   45  O   UNL     1      -9.250   2.364  67.129  1.00  0.00    -0.242 OA 
HETATM   46  H   UNL     1     -10.106   3.292  65.120  1.00  0.00     0.000 HD 
HETATM   47  C   UNL     1      -9.888   5.103  69.444  1.00  0.00    -0.269 A  
HETATM   48  H   UNL     1      -8.855   1.729  67.714  1.00  0.00     0.000 HD 
HETATM   49  O   UNL     1     -10.378   4.144  65.440  1.00  0.00    -0.215 OA 
HETATM   50  C   UNL     1      -9.685   3.564  67.618  1.00  0.00    -0.018 A  
HETATM   51  C   UNL     1     -10.265   4.495  66.759  1.00  0.00    -0.132 A  
HETATM   52  C   UNL     1     -10.663   5.744  67.229  1.00  0.00    -0.345 A  
HETATM   53  C   UNL     1      -9.508   3.849  68.963  1.00  0.00    -0.240 A  
ENDBRANCH  31  44
ENDBRANCH  28  29
ENDBRANCH  17  28
ENDBRANCH  15  16
ENDBRANCH  14  15
ENDBRANCH   4  14
TORSDOF 6
ENDMDL
MODEL      233
REMARK 921   NORMALIZED FREE ENERGY PREDICTED BY IDOCK:   27.74 KCAL/MOL
REMARK 922        TOTAL FREE ENERGY PREDICTED BY IDOCK:   35.99 KCAL/MOL
REMARK 923 INTER-LIGAND FREE ENERGY PREDICTED BY IDOCK:    1.25 KCAL/MOL
REMARK 924 INTRA-LIGAND FREE ENERGY PREDICTED BY IDOCK:   34.74 KCAL/MOL
REMARK 927      BINDING AFFINITY PREDICTED BY RF-SCORE:    0.00 PKD
ROOT
HETATM    1  C   UNL     1      -7.154  13.052  70.638  1.00  0.00     2.356 C  
HETATM    2  C   UNL     1      -7.435  11.657  70.073  1.00  0.00     1.165 C  
HETATM    3  O   UNL     1      -8.658  11.265  70.698  1.00  0.00     2.690 OA 
HETATM    4  C   UNL     1      -9.028   9.896  70.764  1.00  0.00     0.511 C  
HETATM    5  H   UNL     1      -4.876   8.567  69.653  1.00  0.00     0.000 HD 
HETATM    6  C   UNL     1      -7.851   8.938  71.002  1.00  0.00    -0.137 C  
HETATM    7  C   UNL     1      -6.688   9.273  70.057  1.00  0.00    -0.054 C  
HETATM    8  O   UNL     1      -5.134  11.112  69.489  1.00  0.00    -0.044 OA 
HETATM    9  O   UNL     1      -7.399   9.032  72.367  1.00  0.00    -0.337 OA 
HETATM   10  H   UNL     1      -6.670   8.441  72.514  1.00  0.00     0.000 HD 
HETATM   11  H   UNL     1      -4.395  10.534  69.641  1.00  0.00     0.000 HD 
HETATM   12  O   UNL     1      -5.595   8.360  70.238  1.00  0.00    -0.022 OA 
HETATM   13  C   UNL     1      -6.238  10.718  70.319  1.00  0.00    -0.146 C  
ENDROOT
BRANCH   4  14
HETATM   14  O   UNL     1      -9.809   9.420  69.665  1.00  0.00    -0.174 OA 
BRANCH  14  15
HETATM   15  C   UNL     1     -11.073   8.864  70.066  1.00  0.00    -0.170 C  
BRANCH  15  16
HETATM   16  C   UNL     1     -10.819   7.534  70.788  1.00  0.00    -0.242 C  
HETATM   17  C   UNL     1     -10.997   5.786  69.054  1.00  0.00    -0.210 C  
HETATM   18  O   UNL     1     -11.580   6.453  70.194  1.00  0.00    -0.408 OA 
HETATM   19  H   UNL     1      -7.761   8.028  69.095  1.00  0.00     0.000 HD 
HETATM   20  C   UNL     1      -9.615   5.269  69.516  1.00  0.00    -0.152 C  
HETATM   21  H   UNL     1      -8.257   6.449  72.463  1.00  0.00     0.000 HD 
HETATM   22  O   UNL     1      -9.756   4.381  70.653  1.00  0.00    -0.182 OA 
HETATM   23  C   UNL     1      -8.690   6.430  69.916  1.00  0.00    -0.142 C  
HETATM   24  H   UNL     1      -8.906   4.063  70.936  1.00  0.00     0.000 HD 
HETATM   25  O   UNL     1      -9.179   6.616  72.311  1.00  0.00    -0.138 OA 
HETATM   26  O   UNL     1      -8.332   7.310  68.848  1.00  0.00    -0.124 OA 
HETATM   27  C   UNL     1      -9.322   7.263  71.034  1.00  0.00    -0.158 C  
BRANCH  17  28
HETATM   28  O   UNL     1     -11.019   6.629  67.892  1.00  0.00    -0.264 OA 
BRANCH  28  29
HETATM   29  C   UNL     1      -9.938   7.492  67.706  1.00  0.00    -0.171 C  
HETATM   30  O   UNL     1      -7.719   7.951  66.786  1.00  0.00    -0.095 OA 
HETATM   31  C   UNL     1      -8.727   7.098  67.240  1.00  0.00    -0.120 C  
HETATM   32  C   UNL     1      -7.878   9.305  66.942  1.00  0.00    -0.098 A  
HETATM   33  O   UNL     1     -11.323   9.372  67.558  1.00  0.00     0.167 OA 
HETATM   34  H   UNL     1     -10.816  11.081  68.915  1.00  0.00     0.000 HD 
HETATM   35  C   UNL     1      -6.891  10.175  66.480  1.00  0.00    -0.090 A  
HETATM   36  C   UNL     1     -10.177   8.950  67.659  1.00  0.00    -0.237 C  
HETATM   37  C   UNL     1      -7.027  11.549  66.711  1.00  0.00    -0.108 A  
HETATM   38  C   UNL     1      -9.026   9.838  67.561  1.00  0.00    -0.138 A  
HETATM   39  O   UNL     1     -10.127  11.668  68.626  1.00  0.00    -0.211 OA 
HETATM   40  C   UNL     1      -8.088  12.058  67.452  1.00  0.00    -0.168 A  
HETATM   41  O   UNL     1      -6.131  12.458  66.226  1.00  0.00    -0.179 OA 
HETATM   42  H   UNL     1      -6.223  13.390  66.383  1.00  0.00     0.000 HD 
HETATM   43  C   UNL     1      -9.094  11.201  67.873  1.00  0.00    -0.150 A  
BRANCH  31  44
HETATM   44  C   UNL     1      -8.450   5.663  67.084  1.00  0.00    -0.110 A  
HETATM   45  O   UNL     1      -7.736   1.584  67.363  1.00  0.00    -0.058 OA 
HETATM   46  H   UNL     1      -5.494   2.346  67.231  1.00  0.00     0.000 HD 
HETATM   47  C   UNL     1      -9.523   4.751  67.138  1.00  0.00    -0.164 A  
HETATM   48  H   UNL     1      -8.464   0.978  67.428  1.00  0.00     0.000 HD 
HETATM   49  O   UNL     1      -5.646   3.282  67.170  1.00  0.00    -0.020 OA 
HETATM   50  C   UNL     1      -7.975   2.923  67.221  1.00  0.00    -0.077 A  
HETATM   51  C   UNL     1      -6.908   3.812  67.125  1.00  0.00    -0.051 A  
HETATM   52  C   UNL     1      -7.131   5.184  67.036  1.00  0.00    -0.069 A  
HETATM   53  C   UNL     1      -9.285   3.377  67.210  1.00  0.00    -0.222 A  
ENDBRANCH  31  44
ENDBRANCH  28  29
ENDBRANCH  17  28
ENDBRANCH  15  16
ENDBRANCH  14  15
ENDBRANCH   4  14
TORSDOF 6
ENDMDL
MODEL      234
REMARK 921   NORMALIZED FREE ENERGY PREDICTED BY IDOCK:   30.61 KCAL/MOL
REMARK 922        TOTAL FREE ENERGY PREDICTED BY IDOCK:   39.87 KCAL/MOL
REMARK 923 INTER-LIGAND FREE ENERGY PREDICTED BY IDOCK:   10.10 KCAL/MOL
REMARK 924 INTRA-LIGAND FREE ENERGY PREDICTED BY IDOCK:   29.78 KCAL/MOL
REMARK 927      BINDING AFFINITY PREDICTED BY RF-SCORE:    0.00 PKD
ROOT
HETATM    1  C   UNL     1     -11.718   3.367  70.685  1.00  0.00     8.556 C  
HETATM    2  C   UNL     1     -10.256   3.824  70.709  1.00  0.00     0.344 C  
HETATM    3  O   UNL     1     -10.058   4.431  69.432  1.00  0.00    -0.162 OA 
HETATM    4  C   UNL     1      -8.749   4.598  68.908  1.00  0.00    -0.089 C  
HETATM    5  H   UNL     1      -7.013   1.766  71.943  1.00  0.00     0.000 HD 
HETATM    6  C   UNL     1      -7.795   3.435  69.221  1.00  0.00    -0.050 C  
HETATM    7  C   UNL     1      -7.878   3.057  70.707  1.00  0.00    -0.046 C  
HETATM    8  O   UNL     1      -9.488   2.249  72.402  1.00  0.00    -0.084 OA 
HETATM    9  O   UNL     1      -8.127   2.286  68.417  1.00  0.00    -0.056 OA 
HETATM   10  H   UNL     1      -7.538   1.567  68.610  1.00  0.00     0.000 HD 
HETATM   11  H   UNL     1      -8.912   1.521  72.601  1.00  0.00     0.000 HD 
HETATM   12  O   UNL     1      -6.961   2.000  71.024  1.00  0.00    -0.031 OA 
HETATM   13  C   UNL     1      -9.321   2.642  71.031  1.00  0.00    -0.146 C  
ENDROOT
BRANCH   4  14
HETATM   14  O   UNL     1      -8.111   5.833  69.238  1.00  0.00    -0.099 OA 
BRANCH  14  15
HETATM   15  C   UNL     1      -6.675   5.758  69.204  1.00  0.00    -0.060 C  
BRANCH  15  16
HETATM   16  C   UNL     1      -6.113   6.557  70.386  1.00  0.00    -0.031 C  
HETATM   17  C   UNL     1      -6.236   8.928  69.711  1.00  0.00    -0.035 C  
HETATM   18  O   UNL     1      -5.428   7.754  69.941  1.00  0.00    -0.023 OA 
HETATM   19  H   UNL     1      -9.581   7.117  70.728  1.00  0.00     0.000 HD 
HETATM   20  C   UNL     1      -6.980   9.207  71.038  1.00  0.00    -0.099 C  
HETATM   21  H   UNL     1      -7.060   6.773  73.485  1.00  0.00     0.000 HD 
HETATM   22  O   UNL     1      -6.037   9.398  72.122  1.00  0.00    -0.263 OA 
HETATM   23  C   UNL     1      -7.917   8.045  71.406  1.00  0.00    -0.102 C  
HETATM   24  H   UNL     1      -6.495   9.570  72.937  1.00  0.00     0.000 HD 
HETATM   25  O   UNL     1      -6.431   6.662  72.782  1.00  0.00    -0.061 OA 
HETATM   26  O   UNL     1      -9.002   7.835  70.500  1.00  0.00    -0.147 OA 
HETATM   27  C   UNL     1      -7.132   6.736  71.527  1.00  0.00    -0.079 C  
BRANCH  17  28
HETATM   28  O   UNL     1      -7.044   8.781  68.533  1.00  0.00    -0.070 OA 
BRANCH  28  29
HETATM   29  C   UNL     1      -8.426   8.709  68.709  1.00  0.00    -0.129 C  
HETATM   30  O   UNL     1     -10.548   7.530  68.410  1.00  0.00    -0.193 OA 
HETATM   31  C   UNL     1      -9.224   7.819  68.070  1.00  0.00    -0.138 C  
HETATM   32  C   UNL     1     -11.165   8.292  69.371  1.00  0.00     0.233 A  
HETATM   33  O   UNL     1      -8.325   9.757  70.798  1.00  0.00    -0.229 OA 
HETATM   34  H   UNL     1      -9.662  11.532  71.078  1.00  0.00     0.000 HD 
HETATM   35  C   UNL     1     -12.480   8.009  69.737  1.00  0.00     1.774 A  
HETATM   36  C   UNL     1      -9.039   9.360  69.885  1.00  0.00    -0.204 C  
HETATM   37  C   UNL     1     -13.126   8.837  70.662  1.00  0.00     0.545 A  
HETATM   38  C   UNL     1     -10.492   9.357  70.000  1.00  0.00    -0.266 A  
HETATM   39  O   UNL     1     -10.568  11.355  71.302  1.00  0.00     3.065 OA 
HETATM   40  C   UNL     1     -12.508   9.975  71.171  1.00  0.00    -0.480 A  
HETATM   41  O   UNL     1     -14.388   8.576  71.113  1.00  0.00    -0.626 OA 
HETATM   42  H   UNL     1     -14.826   9.138  71.741  1.00  0.00     0.000 HD 
HETATM   43  C   UNL     1     -11.186  10.233  70.844  1.00  0.00    -0.233 A  
BRANCH  31  44
HETATM   44  C   UNL     1      -8.660   6.992  66.993  1.00  0.00    -0.122 A  
HETATM   45  O   UNL     1      -7.493   4.136  64.218  1.00  0.00    -0.068 OA 
HETATM   46  H   UNL     1      -5.676   3.949  65.731  1.00  0.00     0.000 HD 
HETATM   47  C   UNL     1      -9.430   6.764  65.835  1.00  0.00     0.120 A  
HETATM   48  H   UNL     1      -8.032   3.967  63.454  1.00  0.00     0.000 HD 
HETATM   49  O   UNL     1      -5.935   4.598  66.374  1.00  0.00    -0.025 OA 
HETATM   50  C   UNL     1      -7.854   5.112  65.105  1.00  0.00    -0.091 A  
HETATM   51  C   UNL     1      -7.064   5.360  66.225  1.00  0.00    -0.072 A  
HETATM   52  C   UNL     1      -7.445   6.311  67.167  1.00  0.00    -0.084 A  
HETATM   53  C   UNL     1      -9.027   5.818  64.889  1.00  0.00     0.150 A  
ENDBRANCH  31  44
ENDBRANCH  28  29
ENDBRANCH  17  28
ENDBRANCH  15  16
ENDBRANCH  14  15
ENDBRANCH   4  14
TORSDOF 6
ENDMDL
MODEL      235
REMARK 921   NORMALIZED FREE ENERGY PREDICTED BY IDOCK:   30.77 KCAL/MOL
REMARK 922        TOTAL FREE ENERGY PREDICTED BY IDOCK:   40.08 KCAL/MOL
REMARK 923 INTER-LIGAND FREE ENERGY PREDICTED BY IDOCK:   19.47 KCAL/MOL
REMARK 924 INTRA-LIGAND FREE ENERGY PREDICTED BY IDOCK:   20.61 KCAL/MOL
REMARK 927      BINDING AFFINITY PREDICTED BY RF-SCORE:    0.00 PKD
ROOT
HETATM    1  C   UNL     1      -8.508   5.329  71.386  1.00  0.00    -0.125 C  
HETATM    2  C   UNL     1     -10.005   5.150  71.112  1.00  0.00    -0.206 C  
HETATM    3  O   UNL     1     -10.553   6.456  71.295  1.00  0.00    -0.218 OA 
HETATM    4  C   UNL     1     -11.940   6.628  71.544  1.00  0.00    -0.352 C  
HETATM    5  H   UNL     1     -12.467   2.256  72.468  1.00  0.00     0.000 HD 
HETATM    6  C   UNL     1     -12.556   5.542  72.440  1.00  0.00     0.640 C  
HETATM    7  C   UNL     1     -12.129   4.146  71.962  1.00  0.00     3.020 C  
HETATM    8  O   UNL     1     -10.107   2.767  71.606  1.00  0.00    -0.136 OA 
HETATM    9  O   UNL     1     -12.140   5.727  73.807  1.00  0.00     0.710 OA 
HETATM   10  H   UNL     1     -12.520   5.055  74.361  1.00  0.00     0.000 HD 
HETATM   11  H   UNL     1     -10.471   2.090  72.164  1.00  0.00     0.000 HD 
HETATM   12  O   UNL     1     -12.731   3.119  72.764  1.00  0.00     1.379 OA 
HETATM   13  C   UNL     1     -10.597   4.053  72.018  1.00  0.00     0.132 C  
ENDROOT
BRANCH   4  14
HETATM   14  O   UNL     1     -12.754   6.797  70.382  1.00  0.00    -0.053 OA 
BRANCH  14  15
HETATM   15  C   UNL     1     -12.769   8.150  69.892  1.00  0.00     2.013 C  
BRANCH  15  16
HETATM   16  C   UNL     1     -12.525   9.101  71.070  1.00  0.00    -0.181 C  
HETATM   17  C   UNL     1     -11.387  11.072  70.114  1.00  0.00    -0.251 C  
HETATM   18  O   UNL     1     -11.303   9.861  70.895  1.00  0.00    -0.316 OA 
HETATM   19  H   UNL     1     -15.245  10.657  69.446  1.00  0.00     0.000 HD 
HETATM   20  C   UNL     1     -12.463  11.951  70.794  1.00  0.00    -0.291 C  
HETATM   21  H   UNL     1     -14.574  10.543  73.135  1.00  0.00     0.000 HD 
HETATM   22  O   UNL     1     -12.109  12.216  72.175  1.00  0.00     0.846 OA 
HETATM   23  C   UNL     1     -13.840  11.266  70.766  1.00  0.00     1.920 C  
HETATM   24  H   UNL     1     -12.770  12.755  72.592  1.00  0.00     0.000 HD 
HETATM   25  O   UNL     1     -13.801  10.048  72.894  1.00  0.00     0.247 OA 
HETATM   26  O   UNL     1     -14.394  11.080  69.462  1.00  0.00     4.288 OA 
HETATM   27  C   UNL     1     -13.779   9.904  71.462  1.00  0.00    -0.148 C  
BRANCH  17  28
HETATM   28  O   UNL     1     -11.573  10.781  68.721  1.00  0.00    -0.282 OA 
BRANCH  28  29
HETATM   29  C   UNL     1     -11.803  11.859  67.866  1.00  0.00    -0.238 C  
HETATM   30  O   UNL     1     -11.776  14.265  67.425  1.00  0.00    -0.354 OA 
HETATM   31  C   UNL     1     -11.823  13.153  68.270  1.00  0.00    -0.349 C  
HETATM   32  C   UNL     1     -11.861  14.069  66.070  1.00  0.00    -0.388 A  
HETATM   33  O   UNL     1     -11.148  10.644  65.977  1.00  0.00     0.030 OA 
HETATM   34  H   UNL     1     -12.595  10.622  64.267  1.00  0.00     0.000 HD 
HETATM   35  C   UNL     1     -11.800  15.164  65.209  1.00  0.00    -0.062 A  
HETATM   36  C   UNL     1     -11.669  11.666  66.407  1.00  0.00     0.075 C  
HETATM   37  C   UNL     1     -11.963  14.963  63.833  1.00  0.00     0.091 A  
HETATM   38  C   UNL     1     -12.006  12.777  65.527  1.00  0.00    -0.497 A  
HETATM   39  O   UNL     1     -12.583  11.373  63.686  1.00  0.00    -0.101 OA 
HETATM   40  C   UNL     1     -12.254  13.705  63.314  1.00  0.00    -0.096 A  
HETATM   41  O   UNL     1     -11.846  15.982  62.932  1.00  0.00     1.498 OA 
HETATM   42  H   UNL     1     -11.957  15.845  61.998  1.00  0.00     0.000 HD 
HETATM   43  C   UNL     1     -12.270  12.608  64.162  1.00  0.00    -0.450 A  
BRANCH  31  44
HETATM   44  C   UNL     1     -11.783  13.458  69.708  1.00  0.00    -0.355 A  
HETATM   45  O   UNL     1     -11.835  14.991  73.564  1.00  0.00    -0.363 OA 
HETATM   46  H   UNL     1      -9.496  15.043  73.174  1.00  0.00     0.000 HD 
HETATM   47  C   UNL     1     -12.996  13.578  70.413  1.00  0.00     0.047 A  
HETATM   48  H   UNL     1     -12.660  15.096  74.022  1.00  0.00     0.000 HD 
HETATM   49  O   UNL     1      -9.473  14.697  72.290  1.00  0.00     4.180 OA 
HETATM   50  C   UNL     1     -11.816  14.440  72.313  1.00  0.00     0.229 A  
HETATM   51  C   UNL     1     -10.606  14.285  71.640  1.00  0.00     2.953 A  
HETATM   52  C   UNL     1     -10.573  13.776  70.344  1.00  0.00     1.421 A  
HETATM   53  C   UNL     1     -13.014  14.073  71.718  1.00  0.00    -0.435 A  
ENDBRANCH  31  44
ENDBRANCH  28  29
ENDBRANCH  17  28
ENDBRANCH  15  16
ENDBRANCH  14  15
ENDBRANCH   4  14
TORSDOF 6
ENDMDL
MODEL      236
REMARK 921   NORMALIZED FREE ENERGY PREDICTED BY IDOCK:   30.79 KCAL/MOL
REMARK 922        TOTAL FREE ENERGY PREDICTED BY IDOCK:   40.11 KCAL/MOL
REMARK 923 INTER-LIGAND FREE ENERGY PREDICTED BY IDOCK:    2.68 KCAL/MOL
REMARK 924 INTRA-LIGAND FREE ENERGY PREDICTED BY IDOCK:   37.43 KCAL/MOL
REMARK 927      BINDING AFFINITY PREDICTED BY RF-SCORE:    0.00 PKD
ROOT
HETATM    1  C   UNL     1     -10.620   9.537  71.999  1.00  0.00     0.482 C  
HETATM    2  C   UNL     1      -9.949   9.457  70.625  1.00  0.00    -0.284 C  
HETATM    3  O   UNL     1      -9.989   8.068  70.295  1.00  0.00    -0.187 OA 
HETATM    4  C   UNL     1      -9.110   7.533  69.317  1.00  0.00    -0.138 C  
HETATM    5  H   UNL     1      -6.529  11.217  69.406  1.00  0.00     0.000 HD 
HETATM    6  C   UNL     1      -7.702   8.147  69.336  1.00  0.00    -0.103 C  
HETATM    7  C   UNL     1      -7.785   9.679  69.394  1.00  0.00    -0.101 C  
HETATM    8  O   UNL     1      -8.650  11.509  70.818  1.00  0.00     3.480 OA 
HETATM    9  O   UNL     1      -6.962   7.665  70.475  1.00  0.00    -0.046 OA 
HETATM   10  H   UNL     1      -6.092   8.045  70.487  1.00  0.00     0.000 HD 
HETATM   11  H   UNL     1      -7.782  11.896  70.845  1.00  0.00     0.000 HD 
HETATM   12  O   UNL     1      -6.477  10.270  69.370  1.00  0.00    -0.045 OA 
HETATM   13  C   UNL     1      -8.542  10.085  70.669  1.00  0.00     0.643 C  
ENDROOT
BRANCH   4  14
HETATM   14  O   UNL     1      -9.608   7.538  67.978  1.00  0.00    -0.141 OA 
BRANCH  14  15
HETATM   15  C   UNL     1      -8.841   8.369  67.089  1.00  0.00    -0.130 C  
BRANCH  15  16
HETATM   16  C   UNL     1      -7.477   7.708  66.855  1.00  0.00    -0.094 C  
HETATM   17  C   UNL     1      -7.598   6.699  64.606  1.00  0.00    -0.105 C  
HETATM   18  O   UNL     1      -7.596   6.517  66.038  1.00  0.00    -0.083 OA 
HETATM   19  H   UNL     1      -7.217  10.609  64.862  1.00  0.00     0.000 HD 
HETATM   20  C   UNL     1      -6.288   7.446  64.263  1.00  0.00    -0.044 C  
HETATM   21  H   UNL     1      -4.470   8.934  66.794  1.00  0.00     0.000 HD 
HETATM   22  O   UNL     1      -5.136   6.691  64.715  1.00  0.00    -0.024 OA 
HETATM   23  C   UNL     1      -6.249   8.835  64.923  1.00  0.00    -0.065 C  
HETATM   24  H   UNL     1      -4.331   7.150  64.505  1.00  0.00     0.000 HD 
HETATM   25  O   UNL     1      -5.143   8.314  67.048  1.00  0.00    -0.027 OA 
HETATM   26  O   UNL     1      -7.241   9.751  64.455  1.00  0.00    -0.117 OA 
HETATM   27  C   UNL     1      -6.386   8.714  66.443  1.00  0.00    -0.061 C  
BRANCH  17  28
HETATM   28  O   UNL     1      -8.823   7.301  64.159  1.00  0.00     0.504 OA 
BRANCH  28  29
HETATM   29  C   UNL     1      -9.633   7.897  65.126  1.00  0.00     1.252 C  
HETATM   30  O   UNL     1     -10.785   7.810  67.282  1.00  0.00    -0.307 OA 
HETATM   31  C   UNL     1     -10.202   7.223  66.156  1.00  0.00     0.471 C  
HETATM   32  C   UNL     1     -10.937   9.173  67.314  1.00  0.00     0.110 A  
HETATM   33  O   UNL     1      -8.729  10.019  64.733  1.00  0.00    -0.160 OA 
HETATM   34  H   UNL     1     -10.200  11.658  64.321  1.00  0.00     0.000 HD 
HETATM   35  C   UNL     1     -11.500   9.779  68.436  1.00  0.00     0.168 A  
HETATM   36  C   UNL     1      -9.608   9.367  65.284  1.00  0.00    -0.180 C  
HETATM   37  C   UNL     1     -11.721  11.162  68.429  1.00  0.00    -0.279 A  
HETATM   38  C   UNL     1     -10.530   9.978  66.231  1.00  0.00    -0.172 A  
HETATM   39  O   UNL     1     -10.612  12.064  65.075  1.00  0.00    -0.268 OA 
HETATM   40  C   UNL     1     -11.455  11.932  67.301  1.00  0.00    -0.385 A  
HETATM   41  O   UNL     1     -12.206  11.825  69.519  1.00  0.00    -0.258 OA 
HETATM   42  H   UNL     1     -12.355  12.763  69.514  1.00  0.00     0.000 HD 
HETATM   43  C   UNL     1     -10.853  11.340  66.201  1.00  0.00    -0.222 A  
BRANCH  31  44
HETATM   44  C   UNL     1     -10.130   5.755  66.182  1.00  0.00    -0.058 A  
HETATM   45  O   UNL     1      -9.256   1.712  66.508  1.00  0.00    -0.277 OA 
HETATM   46  H   UNL     1      -8.830   1.999  64.192  1.00  0.00     0.000 HD 
HETATM   47  C   UNL     1     -10.288   5.087  67.412  1.00  0.00    -0.174 A  
HETATM   48  H   UNL     1      -9.338   1.274  67.347  1.00  0.00     0.000 HD 
HETATM   49  O   UNL     1      -9.024   2.925  64.107  1.00  0.00    -0.100 OA 
HETATM   50  C   UNL     1      -9.593   3.032  66.392  1.00  0.00     0.100 A  
HETATM   51  C   UNL     1      -9.474   3.674  65.162  1.00  0.00    -0.162 A  
HETATM   52  C   UNL     1      -9.759   5.031  65.038  1.00  0.00     0.131 A  
HETATM   53  C   UNL     1     -10.016   3.721  67.518  1.00  0.00     0.141 A  
ENDBRANCH  31  44
ENDBRANCH  28  29
ENDBRANCH  17  28
ENDBRANCH  15  16
ENDBRANCH  14  15
ENDBRANCH   4  14
TORSDOF 6
ENDMDL
MODEL      237
REMARK 921   NORMALIZED FREE ENERGY PREDICTED BY IDOCK:   31.84 KCAL/MOL
REMARK 922        TOTAL FREE ENERGY PREDICTED BY IDOCK:   41.53 KCAL/MOL
REMARK 923 INTER-LIGAND FREE ENERGY PREDICTED BY IDOCK:   -0.44 KCAL/MOL
REMARK 924 INTRA-LIGAND FREE ENERGY PREDICTED BY IDOCK:   41.97 KCAL/MOL
REMARK 927      BINDING AFFINITY PREDICTED BY RF-SCORE:    0.00 PKD
ROOT
HETATM    1  C   UNL     1     -10.769  13.365  64.329  1.00  0.00    -0.374 C  
HETATM    2  C   UNL     1     -10.445  12.578  65.602  1.00  0.00    -0.273 C  
HETATM    3  O   UNL     1      -9.018  12.577  65.660  1.00  0.00     0.196 OA 
HETATM    4  C   UNL     1      -8.328  11.611  66.441  1.00  0.00    -0.084 C  
HETATM    5  H   UNL     1     -12.027   9.084  66.853  1.00  0.00     0.000 HD 
HETATM    6  C   UNL     1      -8.971  10.216  66.425  1.00  0.00    -0.144 C  
HETATM    7  C   UNL     1     -10.483  10.319  66.671  1.00  0.00    -0.194 C  
HETATM    8  O   UNL     1     -12.529  11.320  65.703  1.00  0.00     1.182 OA 
HETATM    9  O   UNL     1      -8.736   9.572  65.158  1.00  0.00    -0.150 OA 
HETATM   10  H   UNL     1      -9.133   8.710  65.148  1.00  0.00     0.000 HD 
HETATM   11  H   UNL     1     -12.936  10.462  65.680  1.00  0.00     0.000 HD 
HETATM   12  O   UNL     1     -11.092   9.020  66.701  1.00  0.00     0.235 OA 
HETATM   13  C   UNL     1     -11.105  11.186  65.565  1.00  0.00    -0.003 C  
ENDROOT
BRANCH   4  14
HETATM   14  O   UNL     1      -8.064  11.994  67.792  1.00  0.00    -0.131 OA 
BRANCH  14  15
HETATM   15  C   UNL     1      -6.661  12.040  68.105  1.00  0.00    -0.055 C  
BRANCH  15  16
HETATM   16  C   UNL     1      -6.005  10.745  67.608  1.00  0.00    -0.044 C  
HETATM   17  C   UNL     1      -5.739   9.320  69.606  1.00  0.00    -0.033 C  
HETATM   18  O   UNL     1      -5.131  10.173  68.613  1.00  0.00    -0.036 OA 
HETATM   19  H   UNL     1      -9.348   9.717  68.083  1.00  0.00     0.000 HD 
HETATM   20  C   UNL     1      -6.458   8.194  68.827  1.00  0.00    -0.053 C  
HETATM   21  H   UNL     1      -6.971   8.539  65.430  1.00  0.00     0.000 HD 
HETATM   22  O   UNL     1      -5.519   7.473  67.989  1.00  0.00    -0.024 OA 
HETATM   23  C   UNL     1      -7.573   8.759  67.933  1.00  0.00    -0.097 C  
HETATM   24  H   UNL     1      -5.961   6.781  67.511  1.00  0.00     0.000 HD 
HETATM   25  O   UNL     1      -6.353   9.133  65.839  1.00  0.00    -0.059 OA 
HETATM   26  O   UNL     1      -8.658   9.368  68.636  1.00  0.00    -0.121 OA 
HETATM   27  C   UNL     1      -7.007   9.782  66.944  1.00  0.00    -0.088 C  
BRANCH  17  28
HETATM   28  O   UNL     1      -6.535  10.081  70.527  1.00  0.00    -0.105 OA 
BRANCH  28  29
HETATM   29  C   UNL     1      -7.699  10.669  70.034  1.00  0.00     0.255 C  
HETATM   30  O   UNL     1     -10.139  10.743  69.872  1.00  0.00    -0.037 OA 
HETATM   31  C   UNL     1      -8.924  10.091  70.099  1.00  0.00    -0.001 C  
HETATM   32  C   UNL     1     -10.120  12.033  69.406  1.00  0.00     0.538 A  
HETATM   33  O   UNL     1      -6.792  12.822  70.148  1.00  0.00     0.318 OA 
HETATM   34  H   UNL     1      -6.902  14.041  68.271  1.00  0.00     0.000 HD 
HETATM   35  C   UNL     1     -11.321  12.707  69.189  1.00  0.00    -0.339 A  
HETATM   36  C   UNL     1      -7.711  12.119  69.747  1.00  0.00     1.259 C  
HETATM   37  C   UNL     1     -11.294  13.995  68.642  1.00  0.00    -0.276 A  
HETATM   38  C   UNL     1      -8.905  12.696  69.143  1.00  0.00     0.709 A  
HETATM   39  O   UNL     1      -7.723  14.485  68.096  1.00  0.00    -0.110 OA 
HETATM   40  C   UNL     1     -10.100  14.589  68.246  1.00  0.00    -0.232 A  
HETATM   41  O   UNL     1     -12.429  14.734  68.468  1.00  0.00    -0.582 OA 
HETATM   42  H   UNL     1     -12.411  15.608  68.097  1.00  0.00     0.000 HD 
HETATM   43  C   UNL     1      -8.902  13.941  68.502  1.00  0.00    -0.137 A  
BRANCH  31  44
HETATM   44  C   UNL     1      -9.037   8.694  70.544  1.00  0.00    -0.188 A  
HETATM   45  O   UNL     1      -8.943   4.602  71.225  1.00  0.00    -0.122 OA 
HETATM   46  H   UNL     1     -11.050   4.752  70.145  1.00  0.00     0.000 HD 
HETATM   47  C   UNL     1      -7.957   8.109  71.232  1.00  0.00    -0.107 A  
HETATM   48  H   UNL     1      -8.198   4.210  71.664  1.00  0.00     0.000 HD 
HETATM   49  O   UNL     1     -11.080   5.687  69.981  1.00  0.00    -0.310 OA 
HETATM   50  C   UNL     1      -8.995   5.956  71.046  1.00  0.00    -0.142 A  
HETATM   51  C   UNL     1     -10.088   6.531  70.402  1.00  0.00    -0.184 A  
HETATM   52  C   UNL     1     -10.132   7.902  70.162  1.00  0.00    -0.194 A  
HETATM   53  C   UNL     1      -7.934   6.735  71.482  1.00  0.00    -0.102 A  
ENDBRANCH  31  44
ENDBRANCH  28  29
ENDBRANCH  17  28
ENDBRANCH  15  16
ENDBRANCH  14  15
ENDBRANCH   4  14
TORSDOF 6
ENDMDL
MODEL      238
REMARK 921   NORMALIZED FREE ENERGY PREDICTED BY IDOCK:   32.67 KCAL/MOL
REMARK 922        TOTAL FREE ENERGY PREDICTED BY IDOCK:   42.65 KCAL/MOL
REMARK 923 INTER-LIGAND FREE ENERGY PREDICTED BY IDOCK:   25.51 KCAL/MOL
REMARK 924 INTRA-LIGAND FREE ENERGY PREDICTED BY IDOCK:   17.14 KCAL/MOL
REMARK 927      BINDING AFFINITY PREDICTED BY RF-SCORE:    0.00 PKD
ROOT
HETATM    1  C   UNL     1      -7.894  14.476  65.182  1.00  0.00     7.912 C  
HETATM    2  C   UNL     1      -7.981  14.929  66.643  1.00  0.00     0.270 C  
HETATM    3  O   UNL     1      -6.980  15.942  66.755  1.00  0.00    -0.225 OA 
HETATM    4  C   UNL     1      -6.463  16.307  68.027  1.00  0.00    -0.131 C  
HETATM    5  H   UNL     1      -8.223  12.645  69.959  1.00  0.00     0.000 HD 
HETATM    6  C   UNL     1      -6.296  15.128  68.998  1.00  0.00    -0.100 C  
HETATM    7  C   UNL     1      -7.564  14.262  69.014  1.00  0.00    -0.084 C  
HETATM    8  O   UNL     1      -8.977  12.887  67.521  1.00  0.00    -0.174 OA 
HETATM    9  O   UNL     1      -5.169  14.318  68.611  1.00  0.00    -0.082 OA 
HETATM   10  H   UNL     1      -5.066  13.589  69.211  1.00  0.00     0.000 HD 
HETATM   11  H   UNL     1      -8.876  12.147  68.108  1.00  0.00     0.000 HD 
HETATM   12  O   UNL     1      -7.439  13.180  69.949  1.00  0.00     0.731 OA 
HETATM   13  C   UNL     1      -7.817  13.729  67.596  1.00  0.00    -0.178 C  
ENDROOT
BRANCH   4  14
HETATM   14  O   UNL     1      -7.157  17.367  68.687  1.00  0.00    -0.215 OA 
BRANCH  14  15
HETATM   15  C   UNL     1      -7.549  18.429  67.799  1.00  0.00    -0.231 C  
BRANCH  15  16
HETATM   16  C   UNL     1      -7.827  19.687  68.630  1.00  0.00    -0.314 C  
HETATM   17  C   UNL     1     -10.281  19.803  68.870  1.00  0.00    -0.317 C  
HETATM   18  O   UNL     1      -9.080  20.309  68.250  1.00  0.00    -0.148 OA 
HETATM   19  H   UNL     1      -8.337  17.130  71.009  1.00  0.00     0.000 HD 
HETATM   20  C   UNL     1     -10.068  19.932  70.396  1.00  0.00     0.993 C  
HETATM   21  H   UNL     1      -6.899  20.540  71.623  1.00  0.00     0.000 HD 
HETATM   22  O   UNL     1      -9.807  21.311  70.760  1.00  0.00     1.526 OA 
HETATM   23  C   UNL     1      -8.885  19.071  70.869  1.00  0.00     3.944 C  
HETATM   24  H   UNL     1      -9.677  21.390  71.698  1.00  0.00     0.000 HD 
HETATM   25  O   UNL     1      -7.038  20.674  70.693  1.00  0.00     0.185 OA 
HETATM   26  O   UNL     1      -9.068  17.662  70.717  1.00  0.00     4.101 OA 
HETATM   27  C   UNL     1      -7.601  19.471  70.139  1.00  0.00     0.677 C  
BRANCH  17  28
HETATM   28  O   UNL     1     -10.614  18.498  68.370  1.00  0.00    -0.287 OA 
BRANCH  28  29
HETATM   29  C   UNL     1     -11.099  17.565  69.287  1.00  0.00     0.740 C  
HETATM   30  O   UNL     1     -11.486  15.245  69.956  1.00  0.00    -0.250 OA 
HETATM   31  C   UNL     1     -11.267  16.249  69.009  1.00  0.00    -0.326 C  
HETATM   32  C   UNL     1     -11.695  15.602  71.264  1.00  0.00    -0.422 A  
HETATM   33  O   UNL     1     -10.489  18.885  71.120  1.00  0.00     1.752 OA 
HETATM   34  H   UNL     1     -12.102  19.300  72.618  1.00  0.00     0.000 HD 
HETATM   35  C   UNL     1     -11.898  14.614  72.226  1.00  0.00    -0.173 A  
HETATM   36  C   UNL     1     -11.105  17.902  70.726  1.00  0.00     2.557 C  
HETATM   37  C   UNL     1     -12.185  14.991  73.544  1.00  0.00    -0.437 A  
HETATM   38  C   UNL     1     -11.705  16.955  71.657  1.00  0.00     0.594 A  
HETATM   39  O   UNL     1     -12.270  18.625  73.265  1.00  0.00     4.558 OA 
HETATM   40  C   UNL     1     -12.340  16.327  73.898  1.00  0.00    -0.645 A  
HETATM   41  O   UNL     1     -12.327  14.074  74.545  1.00  0.00     0.862 OA 
HETATM   42  H   UNL     1     -12.521  14.330  75.440  1.00  0.00     0.000 HD 
HETATM   43  C   UNL     1     -12.094  17.312  72.953  1.00  0.00     1.137 A  
BRANCH  31  44
HETATM   44  C   UNL     1     -11.110  15.780  67.625  1.00  0.00    -0.283 A  
HETATM   45  O   UNL     1     -11.271  14.829  63.589  1.00  0.00     0.158 OA 
HETATM   46  H   UNL     1     -12.220  12.845  64.478  1.00  0.00     0.000 HD 
HETATM   47  C   UNL     1     -10.593  16.668  66.660  1.00  0.00    -0.203 A  
HETATM   48  H   UNL     1     -10.947  15.444  62.942  1.00  0.00     0.000 HD 
HETATM   49  O   UNL     1     -12.191  13.054  65.404  1.00  0.00    -0.419 OA 
HETATM   50  C   UNL     1     -11.171  15.124  64.920  1.00  0.00    -0.417 A  
HETATM   51  C   UNL     1     -11.645  14.221  65.869  1.00  0.00    -0.358 A  
HETATM   52  C   UNL     1     -11.602  14.528  67.227  1.00  0.00    -0.405 A  
HETATM   53  C   UNL     1     -10.627  16.340  65.303  1.00  0.00    -0.357 A  
ENDBRANCH  31  44
ENDBRANCH  28  29
ENDBRANCH  17  28
ENDBRANCH  15  16
ENDBRANCH  14  15
ENDBRANCH   4  14
TORSDOF 6
ENDMDL
MODEL      239
REMARK 921   NORMALIZED FREE ENERGY PREDICTED BY IDOCK:   32.82 KCAL/MOL
REMARK 922        TOTAL FREE ENERGY PREDICTED BY IDOCK:   42.86 KCAL/MOL
REMARK 923 INTER-LIGAND FREE ENERGY PREDICTED BY IDOCK:   29.12 KCAL/MOL
REMARK 924 INTRA-LIGAND FREE ENERGY PREDICTED BY IDOCK:   13.73 KCAL/MOL
REMARK 927      BINDING AFFINITY PREDICTED BY RF-SCORE:    0.00 PKD
ROOT
HETATM    1  C   UNL     1     -12.453  17.118  66.250  1.00  0.00     5.228 C  
HETATM    2  C   UNL     1     -11.209  16.375  66.746  1.00  0.00     0.278 C  
HETATM    3  O   UNL     1     -10.315  16.406  65.633  1.00  0.00    -0.399 OA 
HETATM    4  C   UNL     1      -9.243  15.479  65.541  1.00  0.00     0.123 C  
HETATM    5  H   UNL     1     -11.018  12.884  68.760  1.00  0.00     0.000 HD 
HETATM    6  C   UNL     1      -9.588  14.070  66.048  1.00  0.00    -0.205 C  
HETATM    7  C   UNL     1     -10.292  14.147  67.411  1.00  0.00    -0.256 C  
HETATM    8  O   UNL     1     -12.320  15.075  68.481  1.00  0.00    -0.586 OA 
HETATM    9  O   UNL     1     -10.443  13.396  65.105  1.00  0.00    -0.315 OA 
HETATM   10  H   UNL     1     -10.657  12.525  65.419  1.00  0.00     0.000 HD 
HETATM   11  H   UNL     1     -12.550  14.208  68.795  1.00  0.00     0.000 HD 
HETATM   12  O   UNL     1     -10.583  12.836  67.917  1.00  0.00    -0.212 OA 
HETATM   13  C   UNL     1     -11.581  14.969  67.254  1.00  0.00    -0.273 C  
ENDROOT
BRANCH   4  14
HETATM   14  O   UNL     1      -8.014  15.905  66.132  1.00  0.00    -0.096 OA 
BRANCH  14  15
HETATM   15  C   UNL     1      -7.728  15.252  67.381  1.00  0.00    -0.197 C  
BRANCH  15  16
HETATM   16  C   UNL     1      -8.760  15.707  68.421  1.00  0.00    -0.178 C  
HETATM   17  C   UNL     1      -9.294  13.701  69.756  1.00  0.00     1.728 C  
HETATM   18  O   UNL     1      -9.694  14.645  68.741  1.00  0.00    -0.215 OA 
HETATM   19  H   UNL     1      -5.832  15.470  70.377  1.00  0.00     0.000 HD 
HETATM   20  C   UNL     1      -8.983  14.532  71.023  1.00  0.00     3.640 C  
HETATM   21  H   UNL     1      -8.616  17.955  70.760  1.00  0.00     0.000 HD 
HETATM   22  O   UNL     1     -10.143  15.304  71.424  1.00  0.00     0.142 OA 
HETATM   23  C   UNL     1      -7.813  15.499  70.781  1.00  0.00     2.034 C  
HETATM   24  H   UNL     1      -9.951  15.814  72.202  1.00  0.00     0.000 HD 
HETATM   25  O   UNL     1      -9.008  17.501  70.023  1.00  0.00     1.353 OA 
HETATM   26  O   UNL     1      -6.555  14.871  70.526  1.00  0.00    -0.099 OA 
HETATM   27  C   UNL     1      -8.124  16.442  69.616  1.00  0.00     0.371 C  
BRANCH  17  28
HETATM   28  O   UNL     1      -8.253  12.834  69.278  1.00  0.00     0.455 OA 
BRANCH  28  29
HETATM   29  C   UNL     1      -8.016  11.662  69.997  1.00  0.00     1.908 C  
HETATM   30  O   UNL     1      -8.081   9.223  70.167  1.00  0.00    -0.108 OA 
HETATM   31  C   UNL     1      -8.507  10.447  69.647  1.00  0.00    -0.049 C  
HETATM   32  C   UNL     1      -7.200   9.221  71.218  1.00  0.00     0.020 A  
HETATM   33  O   UNL     1      -6.079  12.529  70.983  1.00  0.00    -0.207 OA 
HETATM   34  H   UNL     1      -5.970  12.410  73.217  1.00  0.00     0.000 HD 
HETATM   35  C   UNL     1      -6.750   8.009  71.740  1.00  0.00    -0.058 A  
HETATM   36  C   UNL     1      -6.906  11.625  70.973  1.00  0.00     2.664 C  
HETATM   37  C   UNL     1      -5.910   8.016  72.861  1.00  0.00    -0.050 A  
HETATM   38  C   UNL     1      -6.735  10.425  71.782  1.00  0.00     1.751 A  
HETATM   39  O   UNL     1      -5.690  11.582  73.589  1.00  0.00     0.665 OA 
HETATM   40  C   UNL     1      -5.572   9.202  73.505  1.00  0.00    -0.062 A  
HETATM   41  O   UNL     1      -5.381   6.869  73.378  1.00  0.00    -0.041 OA 
HETATM   42  H   UNL     1      -4.811   6.874  74.138  1.00  0.00     0.000 HD 
HETATM   43  C   UNL     1      -5.980  10.410  72.961  1.00  0.00     1.394 A  
BRANCH  31  44
HETATM   44  C   UNL     1      -9.493  10.357  68.561  1.00  0.00    -0.159 A  
HETATM   45  O   UNL     1     -12.392   9.432  65.738  1.00  0.00     7.256 OA 
HETATM   46  H   UNL     1     -10.455   9.034  64.428  1.00  0.00     0.000 HD 
HETATM   47  C   UNL     1     -10.861  10.494  68.869  1.00  0.00    -0.275 A  
HETATM   48  H   UNL     1     -13.312   9.499  65.963  1.00  0.00     0.000 HD 
HETATM   49  O   UNL     1      -9.784   9.240  65.067  1.00  0.00    -0.106 OA 
HETATM   50  C   UNL     1     -11.440   9.785  66.654  1.00  0.00     1.590 A  
HETATM   51  C   UNL     1     -10.090   9.688  66.325  1.00  0.00    -0.252 A  
HETATM   52  C   UNL     1      -9.105   9.990  67.262  1.00  0.00    -0.152 A  
HETATM   53  C   UNL     1     -11.837  10.204  67.914  1.00  0.00     1.074 A  
ENDBRANCH  31  44
ENDBRANCH  28  29
ENDBRANCH  17  28
ENDBRANCH  15  16
ENDBRANCH  14  15
ENDBRANCH   4  14
TORSDOF 6
ENDMDL
MODEL      240
REMARK 921   NORMALIZED FREE ENERGY PREDICTED BY IDOCK:   33.71 KCAL/MOL
REMARK 922        TOTAL FREE ENERGY PREDICTED BY IDOCK:   44.05 KCAL/MOL
REMARK 923 INTER-LIGAND FREE ENERGY PREDICTED BY IDOCK:   16.13 KCAL/MOL
REMARK 924 INTRA-LIGAND FREE ENERGY PREDICTED BY IDOCK:   27.93 KCAL/MOL
REMARK 927      BINDING AFFINITY PREDICTED BY RF-SCORE:    0.00 PKD
ROOT
HETATM    1  C   UNL     1      -8.098  13.309  65.286  1.00  0.00     4.377 C  
HETATM    2  C   UNL     1      -9.373  14.079  65.645  1.00  0.00     0.221 C  
HETATM    3  O   UNL     1     -10.235  13.087  66.204  1.00  0.00    -0.272 OA 
HETATM    4  C   UNL     1     -11.637  13.304  66.269  1.00  0.00    -0.346 C  
HETATM    5  H   UNL     1     -11.385  16.766  63.407  1.00  0.00     0.000 HD 
HETATM    6  C   UNL     1     -12.215  14.044  65.054  1.00  0.00    -0.433 C  
HETATM    7  C   UNL     1     -11.361  15.277  64.721  1.00  0.00    -0.391 C  
HETATM    8  O   UNL     1      -9.060  15.908  64.066  1.00  0.00     4.375 OA 
HETATM    9  O   UNL     1     -12.257  13.170  63.909  1.00  0.00    -0.503 OA 
HETATM   10  H   UNL     1     -12.613  13.627  63.157  1.00  0.00     0.000 HD 
HETATM   11  H   UNL     1      -9.403  16.363  63.306  1.00  0.00     0.000 HD 
HETATM   12  O   UNL     1     -11.913  16.004  63.613  1.00  0.00    -0.765 OA 
HETATM   13  C   UNL     1      -9.929  14.817  64.411  1.00  0.00     1.202 C  
ENDROOT
BRANCH   4  14
HETATM   14  O   UNL     1     -12.104  13.928  67.467  1.00  0.00    -0.389 OA 
BRANCH  14  15
HETATM   15  C   UNL     1     -11.055  14.549  68.230  1.00  0.00    -0.261 C  
BRANCH  15  16
HETATM   16  C   UNL     1     -11.617  15.807  68.904  1.00  0.00    -0.394 C  
HETATM   17  C   UNL     1      -9.837  16.610  70.415  1.00  0.00     1.426 C  
HETATM   18  O   UNL     1     -11.114  15.956  70.255  1.00  0.00    -0.316 OA 
HETATM   19  H   UNL     1      -9.384  17.193  66.547  1.00  0.00     0.000 HD 
HETATM   20  C   UNL     1      -9.975  17.997  69.746  1.00  0.00     0.573 C  
HETATM   21  H   UNL     1     -12.664  18.624  67.674  1.00  0.00     0.000 HD 
HETATM   22  O   UNL     1     -11.053  18.752  70.354  1.00  0.00     1.813 OA 
HETATM   23  C   UNL     1     -10.261  17.865  68.241  1.00  0.00    -0.388 C  
HETATM   24  H   UNL     1     -11.138  19.605  69.943  1.00  0.00     0.000 HD 
HETATM   25  O   UNL     1     -12.713  17.855  68.228  1.00  0.00     3.821 OA 
HETATM   26  O   UNL     1      -9.207  17.275  67.477  1.00  0.00    -0.225 OA 
HETATM   27  C   UNL     1     -11.538  17.055  68.003  1.00  0.00     0.535 C  
BRANCH  17  28
HETATM   28  O   UNL     1      -8.764  15.773  69.956  1.00  0.00     0.118 OA 
BRANCH  28  29
HETATM   29  C   UNL     1      -9.062  14.436  69.690  1.00  0.00     0.602 C  
HETATM   30  O   UNL     1     -10.661  12.586  69.635  1.00  0.00     0.274 OA 
HETATM   31  C   UNL     1     -10.198  13.819  70.100  1.00  0.00     1.592 C  
HETATM   32  C   UNL     1      -9.856  11.848  68.804  1.00  0.00    -0.065 A  
HETATM   33  O   UNL     1      -7.621  14.366  67.849  1.00  0.00    -0.120 OA 
HETATM   34  H   UNL     1      -6.115  12.707  67.837  1.00  0.00     0.000 HD 
HETATM   35  C   UNL     1     -10.307  10.622  68.316  1.00  0.00    -0.201 A  
HETATM   36  C   UNL     1      -8.320  13.728  68.626  1.00  0.00    -0.067 C  
HETATM   37  C   UNL     1      -9.451   9.842  67.530  1.00  0.00    -0.147 A  
HETATM   38  C   UNL     1      -8.579  12.307  68.429  1.00  0.00    -0.136 A  
HETATM   39  O   UNL     1      -6.414  11.859  67.531  1.00  0.00    -0.084 OA 
HETATM   40  C   UNL     1      -8.138  10.230  67.284  1.00  0.00    -0.120 A  
HETATM   41  O   UNL     1      -9.854   8.666  66.966  1.00  0.00    -0.179 OA 
HETATM   42  H   UNL     1      -9.273   8.136  66.433  1.00  0.00     0.000 HD 
HETATM   43  C   UNL     1      -7.702  11.469  67.730  1.00  0.00    -0.124 A  
BRANCH  31  44
HETATM   44  C   UNL     1     -11.099  14.516  71.030  1.00  0.00     0.256 A  
HETATM   45  O   UNL     1     -13.937  15.831  73.757  1.00  0.00    -0.454 OA 
HETATM   46  H   UNL     1     -15.043  16.434  71.747  1.00  0.00     0.000 HD 
HETATM   47  C   UNL     1     -10.861  14.413  72.415  1.00  0.00     2.546 A  
HETATM   48  H   UNL     1     -13.782  15.732  74.689  1.00  0.00     0.000 HD 
HETATM   49  O   UNL     1     -14.402  16.134  71.115  1.00  0.00     0.417 OA 
HETATM   50  C   UNL     1     -12.979  15.443  72.862  1.00  0.00    -0.470 A  
HETATM   51  C   UNL     1     -13.205  15.588  71.495  1.00  0.00    -0.509 A  
HETATM   52  C   UNL     1     -12.264  15.147  70.568  1.00  0.00    -0.389 A  
HETATM   53  C   UNL     1     -11.805  14.875  73.334  1.00  0.00    -0.274 A  
ENDBRANCH  31  44
ENDBRANCH  28  29
ENDBRANCH  17  28
ENDBRANCH  15  16
ENDBRANCH  14  15
ENDBRANCH   4  14
TORSDOF 6
ENDMDL
MODEL      241
REMARK 921   NORMALIZED FREE ENERGY PREDICTED BY IDOCK:   35.00 KCAL/MOL
REMARK 922        TOTAL FREE ENERGY PREDICTED BY IDOCK:   45.80 KCAL/MOL
REMARK 923 INTER-LIGAND FREE ENERGY PREDICTED BY IDOCK:   12.17 KCAL/MOL
REMARK 924 INTRA-LIGAND FREE ENERGY PREDICTED BY IDOCK:   33.63 KCAL/MOL
REMARK 927      BINDING AFFINITY PREDICTED BY RF-SCORE:    0.00 PKD
ROOT
HETATM    1  C   UNL     1     -11.311  17.298  68.402  1.00  0.00     0.327 C  
HETATM    2  C   UNL     1     -11.440  16.035  67.544  1.00  0.00     0.051 C  
HETATM    3  O   UNL     1     -10.635  16.308  66.397  1.00  0.00    -0.306 OA 
HETATM    4  C   UNL     1     -10.825  15.579  65.193  1.00  0.00    -0.436 C  
HETATM    5  H   UNL     1     -14.782  13.976  66.613  1.00  0.00     0.000 HD 
HETATM    6  C   UNL     1     -12.293  15.250  64.883  1.00  0.00     0.124 C  
HETATM    7  C   UNL     1     -12.989  14.680  66.128  1.00  0.00     0.669 C  
HETATM    8  O   UNL     1     -13.570  15.283  68.457  1.00  0.00     2.715 OA 
HETATM    9  O   UNL     1     -12.989  16.434  64.447  1.00  0.00     0.954 OA 
HETATM   10  H   UNL     1     -13.897  16.231  64.256  1.00  0.00     0.000 HD 
HETATM   11  H   UNL     1     -14.483  15.090  68.278  1.00  0.00     0.000 HD 
HETATM   12  O   UNL     1     -14.351  14.328  65.844  1.00  0.00     2.349 OA 
HETATM   13  C   UNL     1     -12.921  15.724  67.254  1.00  0.00     3.400 C  
ENDROOT
BRANCH   4  14
HETATM   14  O   UNL     1     -10.039  14.392  65.066  1.00  0.00    -0.390 OA 
BRANCH  14  15
HETATM   15  C   UNL     1      -9.340  14.043  66.274  1.00  0.00    -0.175 C  
BRANCH  15  16
HETATM   16  C   UNL     1      -9.445  15.215  67.258  1.00  0.00    -0.210 C  
HETATM   17  C   UNL     1      -7.184  15.498  68.207  1.00  0.00    -0.116 C  
HETATM   18  O   UNL     1      -8.544  15.048  68.381  1.00  0.00    -0.150 OA 
HETATM   19  H   UNL     1      -7.810  16.725  64.518  1.00  0.00     0.000 HD 
HETATM   20  C   UNL     1      -7.269  16.991  67.814  1.00  0.00    -0.152 C  
HETATM   21  H   UNL     1     -10.300  18.318  66.829  1.00  0.00     0.000 HD 
HETATM   22  O   UNL     1      -7.966  17.748  68.835  1.00  0.00    -0.261 OA 
HETATM   23  C   UNL     1      -8.010  17.175  66.480  1.00  0.00    -0.289 C  
HETATM   24  H   UNL     1      -8.018  18.666  68.594  1.00  0.00     0.000 HD 
HETATM   25  O   UNL     1     -10.315  17.471  67.259  1.00  0.00    -0.322 OA 
HETATM   26  O   UNL     1      -7.352  16.611  65.343  1.00  0.00     1.029 OA 
HETATM   27  C   UNL     1      -9.421  16.588  66.560  1.00  0.00    -0.273 C  
BRANCH  17  28
HETATM   28  O   UNL     1      -6.461  14.634  67.316  1.00  0.00    -0.298 OA 
BRANCH  28  29
HETATM   29  C   UNL     1      -6.705  13.264  67.413  1.00  0.00    -0.073 C  
HETATM   30  O   UNL     1      -7.140  11.273  68.767  1.00  0.00    -0.081 OA 
HETATM   31  C   UNL     1      -6.646  12.566  68.574  1.00  0.00    -0.077 C  
HETATM   32  C   UNL     1      -7.599  10.572  67.681  1.00  0.00    -0.093 A  
HETATM   33  O   UNL     1      -7.956  13.235  65.437  1.00  0.00     3.131 OA 
HETATM   34  H   UNL     1      -7.342  11.723  63.901  1.00  0.00     0.000 HD 
HETATM   35  C   UNL     1      -8.112   9.288  67.854  1.00  0.00    -0.104 A  
HETATM   36  C   UNL     1      -7.406  12.574  66.310  1.00  0.00     1.298 C  
HETATM   37  C   UNL     1      -8.508   8.551  66.732  1.00  0.00    -0.109 A  
HETATM   38  C   UNL     1      -7.566  11.128  66.387  1.00  0.00    -0.109 A  
HETATM   39  O   UNL     1      -7.662  10.837  64.020  1.00  0.00     0.094 OA 
HETATM   40  C   UNL     1      -8.336   9.046  65.443  1.00  0.00    -0.151 A  
HETATM   41  O   UNL     1      -9.080   7.316  66.839  1.00  0.00    -0.130 OA 
HETATM   42  H   UNL     1      -9.349   6.816  66.077  1.00  0.00     0.000 HD 
HETATM   43  C   UNL     1      -7.869  10.340  65.270  1.00  0.00    -0.145 A  
BRANCH  31  44
HETATM   44  C   UNL     1      -6.122  13.222  69.781  1.00  0.00    -0.128 A  
HETATM   45  O   UNL     1      -5.331  15.065  73.415  1.00  0.00    -0.019 OA 
HETATM   46  H   UNL     1      -5.416  16.990  72.031  1.00  0.00     0.000 HD 
HETATM   47  C   UNL     1      -5.930  12.453  70.946  1.00  0.00     0.263 A  
HETATM   48  H   UNL     1      -5.231  14.542  74.201  1.00  0.00     0.000 HD 
HETATM   49  O   UNL     1      -5.601  16.579  71.195  1.00  0.00     0.043 OA 
HETATM   50  C   UNL     1      -5.542  14.452  72.211  1.00  0.00    -0.043 A  
HETATM   51  C   UNL     1      -5.688  15.219  71.057  1.00  0.00     0.064 A  
HETATM   52  C   UNL     1      -5.958  14.615  69.831  1.00  0.00    -0.132 A  
HETATM   53  C   UNL     1      -5.642  13.070  72.165  1.00  0.00     0.422 A  
ENDBRANCH  31  44
ENDBRANCH  28  29
ENDBRANCH  17  28
ENDBRANCH  15  16
ENDBRANCH  14  15
ENDBRANCH   4  14
TORSDOF 6
ENDMDL
MODEL      242
REMARK 921   NORMALIZED FREE ENERGY PREDICTED BY IDOCK:   36.16 KCAL/MOL
REMARK 922        TOTAL FREE ENERGY PREDICTED BY IDOCK:   47.37 KCAL/MOL
REMARK 923 INTER-LIGAND FREE ENERGY PREDICTED BY IDOCK:   18.58 KCAL/MOL
REMARK 924 INTRA-LIGAND FREE ENERGY PREDICTED BY IDOCK:   28.78 KCAL/MOL
REMARK 927      BINDING AFFINITY PREDICTED BY RF-SCORE:    0.00 PKD
ROOT
HETATM    1  C   UNL     1      -8.471   7.380  71.042  1.00  0.00    -0.119 C  
HETATM    2  C   UNL     1      -8.433   8.685  70.241  1.00  0.00    -0.132 C  
HETATM    3  O   UNL     1      -7.997   8.286  68.941  1.00  0.00    -0.109 OA 
HETATM    4  C   UNL     1      -7.438   9.236  68.045  1.00  0.00    -0.083 C  
HETATM    5  H   UNL     1      -6.898  12.250  71.341  1.00  0.00     0.000 HD 
HETATM    6  C   UNL     1      -6.553  10.292  68.723  1.00  0.00    -0.052 C  
HETATM    7  C   UNL     1      -7.259  10.872  69.957  1.00  0.00     0.140 C  
HETATM    8  O   UNL     1      -8.188  10.185  72.145  1.00  0.00     2.300 OA 
HETATM    9  O   UNL     1      -5.296   9.711  69.120  1.00  0.00    -0.036 OA 
HETATM   10  H   UNL     1      -4.748  10.364  69.540  1.00  0.00     0.000 HD 
HETATM   11  H   UNL     1      -7.641  10.830  72.578  1.00  0.00     0.000 HD 
HETATM   12  O   UNL     1      -6.462  11.892  70.577  1.00  0.00    -0.134 OA 
HETATM   13  C   UNL     1      -7.545   9.730  70.944  1.00  0.00     0.247 C  
ENDROOT
BRANCH   4  14
HETATM   14  O   UNL     1      -8.373   9.886  67.182  1.00  0.00    -0.120 OA 
BRANCH  14  15
HETATM   15  C   UNL     1      -8.180   9.567  65.793  1.00  0.00    -0.116 C  
BRANCH  15  16
HETATM   16  C   UNL     1      -9.543   9.595  65.089  1.00  0.00    -0.254 C  
HETATM   17  C   UNL     1     -11.199   8.984  66.814  1.00  0.00     1.120 C  
HETATM   18  O   UNL     1     -10.446   8.606  65.642  1.00  0.00     0.856 OA 
HETATM   19  H   UNL     1      -9.635  12.595  66.946  1.00  0.00     0.000 HD 
HETATM   20  C   UNL     1     -11.983  10.261  66.430  1.00  0.00     3.429 C  
HETATM   21  H   UNL     1     -11.130  11.980  63.560  1.00  0.00     0.000 HD 
HETATM   22  O   UNL     1     -12.841  10.010  65.289  1.00  0.00     8.342 OA 
HETATM   23  C   UNL     1     -11.031  11.415  66.079  1.00  0.00    -0.226 C  
HETATM   24  H   UNL     1     -13.323  10.794  65.053  1.00  0.00     0.000 HD 
HETATM   25  O   UNL     1     -10.783  11.101  63.660  1.00  0.00    -0.377 OA 
HETATM   26  O   UNL     1     -10.224  11.881  67.163  1.00  0.00    -0.206 OA 
HETATM   27  C   UNL     1     -10.105  11.020  64.926  1.00  0.00    -0.300 C  
BRANCH  17  28
HETATM   28  O   UNL     1     -10.354   9.066  67.972  1.00  0.00    -0.206 OA 
BRANCH  28  29
HETATM   29  C   UNL     1     -10.509   8.083  68.949  1.00  0.00    -0.191 C  
HETATM   30  O   UNL     1     -10.476   5.732  69.622  1.00  0.00    -0.236 OA 
HETATM   31  C   UNL     1     -10.594   6.757  68.680  1.00  0.00    -0.227 C  
HETATM   32  C   UNL     1     -10.411   6.061  70.953  1.00  0.00    -0.222 A  
HETATM   33  O   UNL     1      -9.633   9.458  70.627  1.00  0.00    -0.250 OA 
HETATM   34  H   UNL     1     -10.886   9.686  72.470  1.00  0.00     0.000 HD 
HETATM   35  C   UNL     1     -10.275   5.054  71.907  1.00  0.00    -0.267 A  
HETATM   36  C   UNL     1     -10.214   8.413  70.359  1.00  0.00    -0.197 C  
HETATM   37  C   UNL     1     -10.286   5.392  73.266  1.00  0.00    -0.192 A  
HETATM   38  C   UNL     1     -10.474   7.403  71.376  1.00  0.00    -0.218 A  
HETATM   39  O   UNL     1     -10.825   8.995  73.119  1.00  0.00     1.172 OA 
HETATM   40  C   UNL     1     -10.497   6.702  73.684  1.00  0.00    -0.353 A  
HETATM   41  O   UNL     1     -10.090   4.463  74.247  1.00  0.00    -0.156 OA 
HETATM   42  H   UNL     1     -10.097   4.693  75.168  1.00  0.00     0.000 HD 
HETATM   43  C   UNL     1     -10.586   7.711  72.737  1.00  0.00    -0.325 A  
BRANCH  31  44
HETATM   44  C   UNL     1     -10.714   6.313  67.284  1.00  0.00    -0.424 A  
HETATM   45  O   UNL     1     -11.201   4.411  63.628  1.00  0.00    -0.321 OA 
HETATM   46  H   UNL     1      -8.833   4.358  63.763  1.00  0.00     0.000 HD 
HETATM   47  C   UNL     1     -11.999   6.145  66.731  1.00  0.00     2.297 A  
HETATM   48  H   UNL     1     -12.072   4.276  63.274  1.00  0.00     0.000 HD 
HETATM   49  O   UNL     1      -8.711   4.789  64.601  1.00  0.00    -0.145 OA 
HETATM   50  C   UNL     1     -11.041   5.082  64.808  1.00  0.00     1.043 A  
HETATM   51  C   UNL     1      -9.763   5.281  65.326  1.00  0.00     0.197 A  
HETATM   52  C   UNL     1      -9.584   5.913  66.554  1.00  0.00    -0.180 A  
HETATM   53  C   UNL     1     -12.163   5.525  65.491  1.00  0.00     3.814 A  
ENDBRANCH  31  44
ENDBRANCH  28  29
ENDBRANCH  17  28
ENDBRANCH  15  16
ENDBRANCH  14  15
ENDBRANCH   4  14
TORSDOF 6
ENDMDL
MODEL      243
REMARK 921   NORMALIZED FREE ENERGY PREDICTED BY IDOCK:   39.04 KCAL/MOL
REMARK 922        TOTAL FREE ENERGY PREDICTED BY IDOCK:   51.25 KCAL/MOL
REMARK 923 INTER-LIGAND FREE ENERGY PREDICTED BY IDOCK:   -0.32 KCAL/MOL
REMARK 924 INTRA-LIGAND FREE ENERGY PREDICTED BY IDOCK:   51.58 KCAL/MOL
REMARK 927      BINDING AFFINITY PREDICTED BY RF-SCORE:    0.00 PKD
ROOT
HETATM    1  C   UNL     1     -11.448   6.045  71.094  1.00  0.00    -0.246 C  
HETATM    2  C   UNL     1     -11.927   6.944  69.949  1.00  0.00     0.009 C  
HETATM    3  O   UNL     1     -10.785   7.069  69.101  1.00  0.00    -0.219 OA 
HETATM    4  C   UNL     1     -10.689   8.141  68.175  1.00  0.00    -0.029 C  
HETATM    5  H   UNL     1     -14.044  10.370  70.179  1.00  0.00     0.000 HD 
HETATM    6  C   UNL     1     -11.251   9.473  68.695  1.00  0.00     0.112 C  
HETATM    7  C   UNL     1     -12.632   9.260  69.332  1.00  0.00     2.280 C  
HETATM    8  O   UNL     1     -13.738   8.025  71.169  1.00  0.00    -0.558 OA 
HETATM    9  O   UNL     1     -10.358  10.044  69.671  1.00  0.00    -0.215 OA 
HETATM   10  H   UNL     1     -10.706  10.867  69.994  1.00  0.00     0.000 HD 
HETATM   11  H   UNL     1     -14.086   8.842  71.506  1.00  0.00     0.000 HD 
HETATM   12  O   UNL     1     -13.190  10.502  69.785  1.00  0.00     0.007 OA 
HETATM   13  C   UNL     1     -12.492   8.268  70.497  1.00  0.00     0.419 C  
ENDROOT
BRANCH   4  14
HETATM   14  O   UNL     1     -11.225   7.877  66.877  1.00  0.00     0.193 OA 
BRANCH  14  15
HETATM   15  C   UNL     1     -10.229   7.469  65.923  1.00  0.00     1.046 C  
BRANCH  15  16
HETATM   16  C   UNL     1      -9.334   6.406  66.573  1.00  0.00    -0.155 C  
HETATM   17  C   UNL     1      -8.071   7.582  68.337  1.00  0.00    -0.125 C  
HETATM   18  O   UNL     1      -8.081   6.974  67.029  1.00  0.00    -0.114 OA 
HETATM   19  H   UNL     1     -11.870   6.786  68.998  1.00  0.00     0.000 HD 
HETATM   20  C   UNL     1      -8.549   6.492  69.325  1.00  0.00    -0.127 C  
HETATM   21  H   UNL     1     -10.047   3.632  68.102  1.00  0.00     0.000 HD 
HETATM   22  O   UNL     1      -7.685   5.329  69.258  1.00  0.00    -0.081 OA 
HETATM   23  C   UNL     1      -9.987   6.049  69.013  1.00  0.00    -0.158 C  
HETATM   24  H   UNL     1      -7.978   4.660  69.865  1.00  0.00     0.000 HD 
HETATM   25  O   UNL     1      -9.581   4.178  67.481  1.00  0.00    -0.175 OA 
HETATM   26  O   UNL     1     -10.981   7.060  69.191  1.00  0.00    -0.219 OA 
HETATM   27  C   UNL     1     -10.091   5.520  67.580  1.00  0.00    -0.178 C  
BRANCH  17  28
HETATM   28  O   UNL     1      -8.797   8.821  68.340  1.00  0.00    -0.137 OA 
BRANCH  28  29
HETATM   29  C   UNL     1      -8.087   9.979  68.659  1.00  0.00    -0.102 C  
HETATM   30  O   UNL     1      -6.004  11.082  69.311  1.00  0.00    -0.041 OA 
HETATM   31  C   UNL     1      -6.855   9.978  69.226  1.00  0.00    -0.059 C  
HETATM   32  C   UNL     1      -6.476  12.313  68.930  1.00  0.00    -0.089 A  
HETATM   33  O   UNL     1      -9.285  11.271  67.121  1.00  0.00    -0.160 OA 
HETATM   34  H   UNL     1     -10.211  13.149  67.917  1.00  0.00     0.000 HD 
HETATM   35  C   UNL     1      -5.637  13.425  68.992  1.00  0.00    -0.074 A  
HETATM   36  C   UNL     1      -8.491  11.265  68.053  1.00  0.00    -0.138 C  
HETATM   37  C   UNL     1      -6.150  14.688  68.674  1.00  0.00    -0.087 A  
HETATM   38  C   UNL     1      -7.798  12.476  68.473  1.00  0.00    -0.108 A  
HETATM   39  O   UNL     1      -9.645  13.909  67.989  1.00  0.00    -0.205 OA 
HETATM   40  C   UNL     1      -7.494  14.867  68.365  1.00  0.00    -0.115 A  
HETATM   41  O   UNL     1      -5.365  15.804  68.649  1.00  0.00    -0.095 OA 
HETATM   42  H   UNL     1      -5.713  16.662  68.433  1.00  0.00     0.000 HD 
HETATM   43  C   UNL     1      -8.320  13.758  68.258  1.00  0.00    -0.161 A  
BRANCH  31  44
HETATM   44  C   UNL     1      -6.286   8.711  69.707  1.00  0.00    -0.035 A  
HETATM   45  O   UNL     1      -5.350   4.876  70.987  1.00  0.00    -0.004 OA 
HETATM   46  H   UNL     1      -5.592   5.926  73.101  1.00  0.00     0.000 HD 
HETATM   47  C   UNL     1      -5.995   7.696  68.773  1.00  0.00    -0.031 A  
HETATM   48  H   UNL     1      -5.184   4.190  70.352  1.00  0.00     0.000 HD 
HETATM   49  O   UNL     1      -5.810   6.806  72.819  1.00  0.00    -0.041 OA 
HETATM   50  C   UNL     1      -5.609   6.150  70.563  1.00  0.00    -0.018 A  
HETATM   51  C   UNL     1      -5.853   7.156  71.495  1.00  0.00    -0.037 A  
HETATM   52  C   UNL     1      -6.173   8.446  71.081  1.00  0.00    -0.038 A  
HETATM   53  C   UNL     1      -5.659   6.411  69.203  1.00  0.00    -0.016 A  
ENDBRANCH  31  44
ENDBRANCH  28  29
ENDBRANCH  17  28
ENDBRANCH  15  16
ENDBRANCH  14  15
ENDBRANCH   4  14
TORSDOF 6
ENDMDL
MODEL      244
REMARK 921   NORMALIZED FREE ENERGY PREDICTED BY IDOCK:   39.88 KCAL/MOL
REMARK 922        TOTAL FREE ENERGY PREDICTED BY IDOCK:   52.38 KCAL/MOL
REMARK 923 INTER-LIGAND FREE ENERGY PREDICTED BY IDOCK:   10.08 KCAL/MOL
REMARK 924 INTRA-LIGAND FREE ENERGY PREDICTED BY IDOCK:   42.30 KCAL/MOL
REMARK 927      BINDING AFFINITY PREDICTED BY RF-SCORE:    0.00 PKD
ROOT
HETATM    1  C   UNL     1     -12.001  16.469  68.723  1.00  0.00     0.433 C  
HETATM    2  C   UNL     1     -11.226  15.170  68.478  1.00  0.00    -0.293 C  
HETATM    3  O   UNL     1     -12.214  14.258  67.997  1.00  0.00    -0.293 OA 
HETATM    4  C   UNL     1     -11.991  12.857  68.055  1.00  0.00    -0.275 C  
HETATM    5  H   UNL     1      -8.531  13.375  70.884  1.00  0.00     0.000 HD 
HETATM    6  C   UNL     1     -11.248  12.391  69.317  1.00  0.00    -0.201 C  
HETATM    7  C   UNL     1     -10.019  13.276  69.573  1.00  0.00     0.951 C  
HETATM    8  O   UNL     1      -9.398  15.628  70.023  1.00  0.00    -0.184 OA 
HETATM    9  O   UNL     1     -12.123  12.447  70.461  1.00  0.00    -0.418 OA 
HETATM   10  H   UNL     1     -11.664  12.160  71.241  1.00  0.00     0.000 HD 
HETATM   11  H   UNL     1      -8.942  15.356  70.810  1.00  0.00     0.000 HD 
HETATM   12  O   UNL     1      -9.291  12.828  70.726  1.00  0.00     6.466 OA 
HETATM   13  C   UNL     1     -10.486  14.729  69.756  1.00  0.00    -0.065 C  
ENDROOT
BRANCH   4  14
HETATM   14  O   UNL     1     -11.365  12.289  66.903  1.00  0.00    -0.292 OA 
BRANCH  14  15
HETATM   15  C   UNL     1     -10.439  11.235  67.222  1.00  0.00    -0.214 C  
BRANCH  15  16
HETATM   16  C   UNL     1      -9.394  11.780  68.203  1.00  0.00    -0.190 C  
HETATM   17  C   UNL     1      -7.867   9.898  68.670  1.00  0.00    -0.086 C  
HETATM   18  O   UNL     1      -8.939  10.753  69.119  1.00  0.00    -0.159 OA 
HETATM   19  H   UNL     1      -7.567  11.702  65.184  1.00  0.00     0.000 HD 
HETATM   20  C   UNL     1      -6.693  10.833  68.299  1.00  0.00    -0.063 C  
HETATM   21  H   UNL     1      -7.266  14.220  67.949  1.00  0.00     0.000 HD 
HETATM   22  O   UNL     1      -6.304  11.641  69.439  1.00  0.00    -0.083 OA 
HETATM   23  C   UNL     1      -7.073  11.773  67.143  1.00  0.00    -0.146 C  
HETATM   24  H   UNL     1      -5.583  12.216  69.211  1.00  0.00     0.000 HD 
HETATM   25  O   UNL     1      -7.941  13.707  68.376  1.00  0.00    -0.139 OA 
HETATM   26  O   UNL     1      -7.333  11.122  65.898  1.00  0.00    -0.036 OA 
HETATM   27  C   UNL     1      -8.298  12.613  67.511  1.00  0.00    -0.177 C  
BRANCH  17  28
HETATM   28  O   UNL     1      -8.318   8.990  67.653  1.00  0.00    -0.115 OA 
BRANCH  28  29
HETATM   29  C   UNL     1      -9.400   9.392  66.870  1.00  0.00    -0.147 C  
HETATM   30  O   UNL     1     -11.762   9.993  66.655  1.00  0.00     0.867 OA 
HETATM   31  C   UNL     1     -10.690   9.357  67.287  1.00  0.00    -0.188 C  
HETATM   32  C   UNL     1     -11.553  10.588  65.437  1.00  0.00     1.806 A  
HETATM   33  O   UNL     1      -8.056  10.737  65.507  1.00  0.00    -0.153 OA 
HETATM   34  H   UNL     1      -8.225  10.388  63.300  1.00  0.00     0.000 HD 
HETATM   35  C   UNL     1     -12.605  11.242  64.798  1.00  0.00     1.849 A  
HETATM   36  C   UNL     1      -9.157  10.226  65.674  1.00  0.00    -0.175 C  
HETATM   37  C   UNL     1     -12.402  11.780  63.521  1.00  0.00    -0.383 A  
HETATM   38  C   UNL     1     -10.288  10.554  64.816  1.00  0.00    -0.300 A  
HETATM   39  O   UNL     1      -8.953  10.806  62.855  1.00  0.00    -0.218 OA 
HETATM   40  C   UNL     1     -11.195  11.616  62.850  1.00  0.00     0.237 A  
HETATM   41  O   UNL     1     -13.370  12.490  62.872  1.00  0.00     0.104 OA 
HETATM   42  H   UNL     1     -13.232  12.856  62.006  1.00  0.00     0.000 HD 
HETATM   43  C   UNL     1     -10.133  11.007  63.501  1.00  0.00    -0.373 A  
BRANCH  31  44
HETATM   44  C   UNL     1     -11.016   8.698  68.560  1.00  0.00     0.123 A  
HETATM   45  O   UNL     1     -12.478   7.312  72.188  1.00  0.00    -0.449 OA 
HETATM   46  H   UNL     1     -10.721   8.686  72.995  1.00  0.00     0.000 HD 
HETATM   47  C   UNL     1     -12.079   7.774  68.597  1.00  0.00     2.753 A  
HETATM   48  H   UNL     1     -13.214   6.712  72.206  1.00  0.00     0.000 HD 
HETATM   49  O   UNL     1     -10.380   9.012  72.171  1.00  0.00    -0.316 OA 
HETATM   50  C   UNL     1     -11.967   7.728  70.990  1.00  0.00    -0.262 A  
HETATM   51  C   UNL     1     -10.887   8.608  70.964  1.00  0.00    -0.247 A  
HETATM   52  C   UNL     1     -10.389   9.086  69.755  1.00  0.00    -0.219 A  
HETATM   53  C   UNL     1     -12.558   7.290  69.815  1.00  0.00     1.348 A  
ENDBRANCH  31  44
ENDBRANCH  28  29
ENDBRANCH  17  28
ENDBRANCH  15  16
ENDBRANCH  14  15
ENDBRANCH   4  14
TORSDOF 6
ENDMDL
MODEL      245
REMARK 921   NORMALIZED FREE ENERGY PREDICTED BY IDOCK:   40.92 KCAL/MOL
REMARK 922        TOTAL FREE ENERGY PREDICTED BY IDOCK:   53.80 KCAL/MOL
REMARK 923 INTER-LIGAND FREE ENERGY PREDICTED BY IDOCK:   18.52 KCAL/MOL
REMARK 924 INTRA-LIGAND FREE ENERGY PREDICTED BY IDOCK:   35.28 KCAL/MOL
REMARK 927      BINDING AFFINITY PREDICTED BY RF-SCORE:    0.00 PKD
ROOT
HETATM    1  C   UNL     1      -6.753   5.124  65.435  1.00  0.00    -0.052 C  
HETATM    2  C   UNL     1      -7.023   6.167  66.523  1.00  0.00    -0.067 C  
HETATM    3  O   UNL     1      -5.746   6.759  66.766  1.00  0.00    -0.016 OA 
HETATM    4  C   UNL     1      -5.494   7.458  67.976  1.00  0.00    -0.026 C  
HETATM    5  H   UNL     1      -9.182   5.751  69.905  1.00  0.00     0.000 HD 
HETATM    6  C   UNL     1      -6.155   6.831  69.213  1.00  0.00    -0.026 C  
HETATM    7  C   UNL     1      -7.628   6.502  68.924  1.00  0.00    -0.100 C  
HETATM    8  O   UNL     1      -9.038   5.133  67.421  1.00  0.00    -0.112 OA 
HETATM    9  O   UNL     1      -5.463   5.626  69.593  1.00  0.00    -0.004 OA 
HETATM   10  H   UNL     1      -5.872   5.238  70.357  1.00  0.00     0.000 HD 
HETATM   11  H   UNL     1      -9.451   4.731  68.176  1.00  0.00     0.000 HD 
HETATM   12  O   UNL     1      -8.272   5.954  70.084  1.00  0.00    -0.113 OA 
HETATM   13  C   UNL     1      -7.692   5.515  67.748  1.00  0.00    -0.092 C  
ENDROOT
BRANCH   4  14
HETATM   14  O   UNL     1      -5.781   8.857  67.946  1.00  0.00    -0.035 OA 
BRANCH  14  15
HETATM   15  C   UNL     1      -6.588   9.247  66.821  1.00  0.00    -0.068 C  
BRANCH  15  16
HETATM   16  C   UNL     1      -7.670  10.220  67.306  1.00  0.00    -0.095 C  
HETATM   17  C   UNL     1      -9.734   8.881  67.507  1.00  0.00    -0.170 C  
HETATM   18  O   UNL     1      -8.974   9.870  66.780  1.00  0.00    -0.137 OA 
HETATM   19  H   UNL     1      -6.953   8.417  70.255  1.00  0.00     0.000 HD 
HETATM   20  C   UNL     1      -9.873   9.417  68.951  1.00  0.00    -0.171 C  
HETATM   21  H   UNL     1      -7.883  12.042  69.986  1.00  0.00     0.000 HD 
HETATM   22  O   UNL     1     -10.522  10.713  68.954  1.00  0.00    -0.187 OA 
HETATM   23  C   UNL     1      -8.499   9.559  69.627  1.00  0.00    -0.169 C  
HETATM   24  H   UNL     1     -10.607  11.042  69.841  1.00  0.00     0.000 HD 
HETATM   25  O   UNL     1      -7.930  11.873  69.053  1.00  0.00    -0.015 OA 
HETATM   26  O   UNL     1      -7.801   8.329  69.837  1.00  0.00    -0.097 OA 
HETATM   27  C   UNL     1      -7.594  10.493  68.821  1.00  0.00    -0.101 C  
BRANCH  17  28
HETATM   28  O   UNL     1      -9.163   7.571  67.354  1.00  0.00    -0.130 OA 
BRANCH  28  29
HETATM   29  C   UNL     1      -9.581   6.815  66.258  1.00  0.00    -0.031 C  
HETATM   30  O   UNL     1      -9.202   5.958  63.999  1.00  0.00     0.593 OA 
HETATM   31  C   UNL     1      -9.003   6.876  65.033  1.00  0.00     0.479 C  
HETATM   32  C   UNL     1     -10.160   4.987  64.151  1.00  0.00     0.855 A  
HETATM   33  O   UNL     1     -10.594   5.203  67.618  1.00  0.00    -0.117 OA 
HETATM   34  H   UNL     1     -12.730   4.718  67.151  1.00  0.00     0.000 HD 
HETATM   35  C   UNL     1     -10.362   4.051  63.138  1.00  0.00    -0.135 A  
HETATM   36  C   UNL     1     -10.441   5.634  66.481  1.00  0.00    -0.249 C  
HETATM   37  C   UNL     1     -11.392   3.112  63.270  1.00  0.00     0.383 A  
HETATM   38  C   UNL     1     -10.945   4.914  65.319  1.00  0.00     0.176 A  
HETATM   39  O   UNL     1     -12.885   4.101  66.445  1.00  0.00     9.988 OA 
HETATM   40  C   UNL     1     -12.260   3.136  64.356  1.00  0.00     5.626 A  
HETATM   41  O   UNL     1     -11.598   2.128  62.346  1.00  0.00    -0.188 OA 
HETATM   42  H   UNL     1     -12.297   1.490  62.436  1.00  0.00     0.000 HD 
HETATM   43  C   UNL     1     -12.033   4.036  65.387  1.00  0.00     4.212 A  
BRANCH  31  44
HETATM   44  C   UNL     1      -7.999   7.915  64.763  1.00  0.00    -0.140 A  
HETATM   45  O   UNL     1      -5.632  11.082  63.503  1.00  0.00    -0.364 OA 
HETATM   46  H   UNL     1      -4.609   9.337  62.264  1.00  0.00     0.000 HD 
HETATM   47  C   UNL     1      -8.200   9.208  65.283  1.00  0.00    -0.135 A  
HETATM   48  H   UNL     1      -5.792  11.957  63.836  1.00  0.00     0.000 HD 
HETATM   49  O   UNL     1      -5.147   8.606  62.543  1.00  0.00    -0.067 OA 
HETATM   50  C   UNL     1      -6.381  10.032  63.957  1.00  0.00    -0.132 A  
HETATM   51  C   UNL     1      -6.146   8.749  63.469  1.00  0.00    -0.081 A  
HETATM   52  C   UNL     1      -6.935   7.677  63.878  1.00  0.00    -0.062 A  
HETATM   53  C   UNL     1      -7.390  10.271  64.877  1.00  0.00    -0.110 A  
ENDBRANCH  31  44
ENDBRANCH  28  29
ENDBRANCH  17  28
ENDBRANCH  15  16
ENDBRANCH  14  15
ENDBRANCH   4  14
TORSDOF 6
ENDMDL
MODEL      246
REMARK 921   NORMALIZED FREE ENERGY PREDICTED BY IDOCK:   48.51 KCAL/MOL
REMARK 922        TOTAL FREE ENERGY PREDICTED BY IDOCK:   64.04 KCAL/MOL
REMARK 923 INTER-LIGAND FREE ENERGY PREDICTED BY IDOCK:   16.85 KCAL/MOL
REMARK 924 INTRA-LIGAND FREE ENERGY PREDICTED BY IDOCK:   47.19 KCAL/MOL
REMARK 927      BINDING AFFINITY PREDICTED BY RF-SCORE:    0.00 PKD
ROOT
HETATM    1  C   UNL     1      -6.624  10.665  69.951  1.00  0.00    -0.137 C  
HETATM    2  C   UNL     1      -7.524   9.689  69.188  1.00  0.00    -0.079 C  
HETATM    3  O   UNL     1      -7.055   8.399  69.582  1.00  0.00    -0.051 OA 
HETATM    4  C   UNL     1      -7.339   7.255  68.789  1.00  0.00    -0.096 C  
HETATM    5  H   UNL     1      -8.603   9.800  65.302  1.00  0.00     0.000 HD 
HETATM    6  C   UNL     1      -7.304   7.516  67.276  1.00  0.00    -0.098 C  
HETATM    7  C   UNL     1      -8.099   8.783  66.931  1.00  0.00    -0.101 C  
HETATM    8  O   UNL     1      -8.147  11.213  67.392  1.00  0.00    -0.125 OA 
HETATM    9  O   UNL     1      -5.943   7.669  66.827  1.00  0.00    -0.041 OA 
HETATM   10  H   UNL     1      -5.921   7.830  65.891  1.00  0.00     0.000 HD 
HETATM   11  H   UNL     1      -8.118  11.390  66.459  1.00  0.00     0.000 HD 
HETATM   12  O   UNL     1      -8.112   9.017  65.515  1.00  0.00    -0.102 OA 
HETATM   13  C   UNL     1      -7.476   9.975  67.674  1.00  0.00    -0.090 C  
ENDROOT
BRANCH   4  14
HETATM   14  O   UNL     1      -8.546   6.566  69.122  1.00  0.00    -0.128 OA 
BRANCH  14  15
HETATM   15  C   UNL     1      -8.481   5.152  68.866  1.00  0.00    -0.090 C  
BRANCH  15  16
HETATM   16  C   UNL     1      -7.847   4.931  67.486  1.00  0.00    -0.094 C  
HETATM   17  C   UNL     1      -9.718   4.960  65.877  1.00  0.00    -0.184 C  
HETATM   18  O   UNL     1      -8.733   4.197  66.606  1.00  0.00    -0.111 OA 
HETATM   19  H   UNL     1      -8.543   8.391  67.410  1.00  0.00     0.000 HD 
HETATM   20  C   UNL     1      -8.933   6.023  65.072  1.00  0.00     0.210 C  
HETATM   21  H   UNL     1      -5.623   6.633  65.841  1.00  0.00     0.000 HD 
HETATM   22  O   UNL     1      -7.973   5.389  64.190  1.00  0.00    -0.104 OA 
HETATM   23  C   UNL     1      -8.177   6.983  66.006  1.00  0.00    -0.129 C  
HETATM   24  H   UNL     1      -7.491   6.042  63.696  1.00  0.00     0.000 HD 
HETATM   25  O   UNL     1      -6.014   5.845  66.198  1.00  0.00    -0.023 OA 
HETATM   26  O   UNL     1      -9.010   7.798  66.834  1.00  0.00    -0.124 OA 
HETATM   27  C   UNL     1      -7.212   6.210  66.908  1.00  0.00    -0.074 C  
BRANCH  17  28
HETATM   28  O   UNL     1     -10.752   5.441  66.749  1.00  0.00    -0.284 OA 
BRANCH  28  29
HETATM   29  C   UNL     1     -10.601   5.201  68.115  1.00  0.00     0.072 C  
HETATM   30  O   UNL     1     -10.993   5.845  70.442  1.00  0.00    -0.303 OA 
HETATM   31  C   UNL     1     -10.868   6.118  69.078  1.00  0.00    -0.350 C  
HETATM   32  C   UNL     1     -10.689   4.586  70.895  1.00  0.00     0.495 A  
HETATM   33  O   UNL     1     -10.762   2.884  67.838  1.00  0.00     2.980 OA 
HETATM   34  H   UNL     1      -9.112   1.665  68.738  1.00  0.00     0.000 HD 
HETATM   35  C   UNL     1     -10.824   4.288  72.250  1.00  0.00     0.065 A  
HETATM   36  C   UNL     1     -10.496   3.808  68.597  1.00  0.00     1.554 C  
HETATM   37  C   UNL     1     -10.438   3.025  72.716  1.00  0.00    -0.127 A  
HETATM   38  C   UNL     1     -10.243   3.582  70.014  1.00  0.00     0.818 A  
HETATM   39  O   UNL     1      -9.176   1.475  69.666  1.00  0.00    -0.088 OA 
HETATM   40  C   UNL     1      -9.860   2.087  71.867  1.00  0.00    -0.216 A  
HETATM   41  O   UNL     1     -10.609   2.648  74.016  1.00  0.00    -0.144 OA 
HETATM   42  H   UNL     1     -10.347   1.791  74.332  1.00  0.00     0.000 HD 
HETATM   43  C   UNL     1      -9.767   2.363  70.512  1.00  0.00     0.022 A  
BRANCH  31  44
HETATM   44  C   UNL     1     -11.160   7.505  68.688  1.00  0.00     0.171 A  
HETATM   45  O   UNL     1     -12.671  11.249  67.729  1.00  0.00     0.918 OA 
HETATM   46  H   UNL     1     -12.498  10.346  65.542  1.00  0.00     0.000 HD 
HETATM   47  C   UNL     1     -11.394   8.462  69.696  1.00  0.00     0.209 A  
HETATM   48  H   UNL     1     -12.853  11.879  68.416  1.00  0.00     0.000 HD 
HETATM   49  O   UNL     1     -12.155   9.485  65.751  1.00  0.00     5.368 OA 
HETATM   50  C   UNL     1     -12.127  10.035  68.043  1.00  0.00     2.198 A  
HETATM   51  C   UNL     1     -11.859   9.112  67.035  1.00  0.00     4.129 A  
HETATM   52  C   UNL     1     -11.356   7.850  67.341  1.00  0.00     0.868 A  
HETATM   53  C   UNL     1     -11.882   9.729  69.373  1.00  0.00     0.270 A  
ENDBRANCH  31  44
ENDBRANCH  28  29
ENDBRANCH  17  28
ENDBRANCH  15  16
ENDBRANCH  14  15
ENDBRANCH   4  14
TORSDOF 6
ENDMDL
MODEL      247
REMARK 921   NORMALIZED FREE ENERGY PREDICTED BY IDOCK:   49.25 KCAL/MOL
REMARK 922        TOTAL FREE ENERGY PREDICTED BY IDOCK:   65.05 KCAL/MOL
REMARK 923 INTER-LIGAND FREE ENERGY PREDICTED BY IDOCK:   35.76 KCAL/MOL
REMARK 924 INTRA-LIGAND FREE ENERGY PREDICTED BY IDOCK:   29.28 KCAL/MOL
REMARK 927      BINDING AFFINITY PREDICTED BY RF-SCORE:    0.00 PKD
ROOT
HETATM    1  C   UNL     1     -12.455  14.119  66.033  1.00  0.00    -0.454 C  
HETATM    2  C   UNL     1     -11.149  14.685  66.598  1.00  0.00    -0.334 C  
HETATM    3  O   UNL     1     -11.572  15.610  67.600  1.00  0.00    -0.237 OA 
HETATM    4  C   UNL     1     -10.697  16.633  68.053  1.00  0.00    -0.350 C  
HETATM    5  H   UNL     1      -7.911  15.995  64.579  1.00  0.00     0.000 HD 
HETATM    6  C   UNL     1      -9.817  17.240  66.950  1.00  0.00    -0.287 C  
HETATM    7  C   UNL     1      -9.170  16.130  66.108  1.00  0.00    -0.347 C  
HETATM    8  O   UNL     1      -9.767  14.227  64.645  1.00  0.00    -0.510 OA 
HETATM    9  O   UNL     1     -10.605  18.091  66.094  1.00  0.00    -0.362 OA 
HETATM   10  H   UNL     1     -10.061  18.466  65.412  1.00  0.00     0.000 HD 
HETATM   11  H   UNL     1      -9.232  14.594  63.951  1.00  0.00     0.000 HD 
HETATM   12  O   UNL     1      -8.311  16.681  65.099  1.00  0.00     1.149 OA 
HETATM   13  C   UNL     1     -10.282  15.281  65.472  1.00  0.00    -0.388 C  
ENDROOT
BRANCH   4  14
HETATM   14  O   UNL     1      -9.879  16.286  69.172  1.00  0.00    -0.238 OA 
BRANCH  14  15
HETATM   15  C   UNL     1     -10.028  14.915  69.581  1.00  0.00    -0.022 C  
BRANCH  15  16
HETATM   16  C   UNL     1      -9.486  14.010  68.468  1.00  0.00    -0.191 C  
HETATM   17  C   UNL     1      -8.355  12.141  69.617  1.00  0.00     1.602 C  
HETATM   18  O   UNL     1      -8.248  13.366  68.862  1.00  0.00     0.006 OA 
HETATM   19  H   UNL     1     -12.292  12.178  69.578  1.00  0.00     0.000 HD 
HETATM   20  C   UNL     1      -9.202  11.175  68.756  1.00  0.00    -0.145 C  
HETATM   21  H   UNL     1     -10.983  12.412  66.070  1.00  0.00     0.000 HD 
HETATM   22  O   UNL     1      -8.582  10.966  67.463  1.00  0.00    -0.126 OA 
HETATM   23  C   UNL     1     -10.620  11.725  68.534  1.00  0.00    -0.217 C  
HETATM   24  H   UNL     1      -9.103  10.373  66.934  1.00  0.00     0.000 HD 
HETATM   25  O   UNL     1     -10.317  12.975  66.446  1.00  0.00    -0.271 OA 
HETATM   26  O   UNL     1     -11.415  11.839  69.716  1.00  0.00    -0.280 OA 
HETATM   27  C   UNL     1     -10.567  13.098  67.858  1.00  0.00    -0.234 C  
BRANCH  17  28
HETATM   28  O   UNL     1      -8.816  12.392  70.954  1.00  0.00     7.479 OA 
BRANCH  28  29
HETATM   29  C   UNL     1      -9.376  11.320  71.650  1.00  0.00    11.006 C  
HETATM   30  O   UNL     1     -11.294   9.895  72.171  1.00  0.00     0.352 OA 
HETATM   31  C   UNL     1     -10.709  11.083  71.726  1.00  0.00     5.081 C  
HETATM   32  C   UNL     1     -10.491   8.924  72.714  1.00  0.00     0.619 A  
HETATM   33  O   UNL     1      -7.398  10.076  71.547  1.00  0.00     0.282 OA 
HETATM   34  H   UNL     1      -6.627   9.285  73.496  1.00  0.00     0.000 HD 
HETATM   35  C   UNL     1     -11.053   7.725  73.147  1.00  0.00    -0.336 A  
HETATM   36  C   UNL     1      -8.519  10.178  72.030  1.00  0.00     4.808 C  
HETATM   37  C   UNL     1     -10.238   6.772  73.769  1.00  0.00    -0.349 A  
HETATM   38  C   UNL     1      -9.101   9.115  72.839  1.00  0.00     1.385 A  
HETATM   39  O   UNL     1      -7.019   8.482  73.818  1.00  0.00    -0.229 OA 
HETATM   40  C   UNL     1      -8.894   7.024  74.025  1.00  0.00    -0.210 A  
HETATM   41  O   UNL     1     -10.713   5.551  74.154  1.00  0.00    -0.308 OA 
HETATM   42  H   UNL     1     -10.160   4.904  74.576  1.00  0.00     0.000 HD 
HETATM   43  C   UNL     1      -8.322   8.196  73.554  1.00  0.00    -0.236 A  
BRANCH  31  44
HETATM   44  C   UNL     1     -11.649  12.090  71.212  1.00  0.00     1.584 A  
HETATM   45  O   UNL     1     -13.869  14.949  69.182  1.00  0.00     2.495 OA 
HETATM   46  H   UNL     1     -12.642  16.382  70.620  1.00  0.00     0.000 HD 
HETATM   47  C   UNL     1     -12.599  11.704  70.246  1.00  0.00    -0.159 A  
HETATM   48  H   UNL     1     -14.486  14.683  68.511  1.00  0.00     0.000 HD 
HETATM   49  O   UNL     1     -12.126  15.736  71.088  1.00  0.00    -0.365 OA 
HETATM   50  C   UNL     1     -13.175  14.002  69.884  1.00  0.00     0.862 A  
HETATM   51  C   UNL     1     -12.269  14.392  70.867  1.00  0.00    -0.342 A  
HETATM   52  C   UNL     1     -11.514  13.444  71.554  1.00  0.00     2.030 A  
HETATM   53  C   UNL     1     -13.362  12.663  69.577  1.00  0.00     2.551 A  
ENDBRANCH  31  44
ENDBRANCH  28  29
ENDBRANCH  17  28
ENDBRANCH  15  16
ENDBRANCH  14  15
ENDBRANCH   4  14
TORSDOF 6
ENDMDL
MODEL      248
REMARK 921   NORMALIZED FREE ENERGY PREDICTED BY IDOCK:   51.03 KCAL/MOL
REMARK 922        TOTAL FREE ENERGY PREDICTED BY IDOCK:   67.44 KCAL/MOL
REMARK 923 INTER-LIGAND FREE ENERGY PREDICTED BY IDOCK:   -2.48 KCAL/MOL
REMARK 924 INTRA-LIGAND FREE ENERGY PREDICTED BY IDOCK:   69.92 KCAL/MOL
REMARK 927      BINDING AFFINITY PREDICTED BY RF-SCORE:    0.00 PKD
ROOT
HETATM    1  C   UNL     1      -6.624  10.665  69.951  1.00  0.00    -0.137 C  
HETATM    2  C   UNL     1      -7.522   9.706  69.163  1.00  0.00    -0.079 C  
HETATM    3  O   UNL     1      -7.055   8.408  69.532  1.00  0.00    -0.051 OA 
HETATM    4  C   UNL     1      -7.337   7.281  68.714  1.00  0.00    -0.096 C  
HETATM    5  H   UNL     1      -8.584   9.901  65.276  1.00  0.00     0.000 HD 
HETATM    6  C   UNL     1      -7.295   7.574  67.207  1.00  0.00    -0.098 C  
HETATM    7  C   UNL     1      -8.088   8.849  66.886  1.00  0.00    -0.109 C  
HETATM    8  O   UNL     1      -8.135  11.269  67.398  1.00  0.00    -0.126 OA 
HETATM    9  O   UNL     1      -5.933   7.735  66.767  1.00  0.00    -0.044 OA 
HETATM   10  H   UNL     1      -5.907   7.916  65.835  1.00  0.00     0.000 HD 
HETATM   11  H   UNL     1      -8.102  11.465  66.469  1.00  0.00     0.000 HD 
HETATM   12  O   UNL     1      -8.094   9.113  65.475  1.00  0.00    -0.108 OA 
HETATM   13  C   UNL     1      -7.467  10.024  67.656  1.00  0.00    -0.090 C  
ENDROOT
BRANCH   4  14
HETATM   14  O   UNL     1      -8.546   6.586  69.027  1.00  0.00    -0.124 OA 
BRANCH  14  15
HETATM   15  C   UNL     1      -8.482   5.178  68.741  1.00  0.00    -0.087 C  
BRANCH  15  16
HETATM   16  C   UNL     1      -9.231   4.419  69.843  1.00  0.00    -0.133 C  
HETATM   17  C   UNL     1      -7.558   3.961  71.599  1.00  0.00    -0.057 C  
HETATM   18  O   UNL     1      -8.369   3.466  70.512  1.00  0.00    -0.058 OA 
HETATM   19  H   UNL     1      -8.934   7.635  71.265  1.00  0.00     0.000 HD 
HETATM   20  C   UNL     1      -8.537   4.594  72.615  1.00  0.00    -0.115 C  
HETATM   21  H   UNL     1     -11.793   5.238  71.663  1.00  0.00     0.000 HD 
HETATM   22  O   UNL     1      -9.510   3.618  73.063  1.00  0.00    -0.107 OA 
HETATM   23  C   UNL     1      -9.290   5.784  71.997  1.00  0.00    -0.150 C  
HETATM   24  H   UNL     1     -10.111   4.007  73.688  1.00  0.00     0.000 HD 
HETATM   25  O   UNL     1     -11.281   4.667  71.103  1.00  0.00     0.665 OA 
HETATM   26  O   UNL     1      -8.469   6.900  71.647  1.00  0.00    -0.116 OA 
HETATM   27  C   UNL     1     -10.062   5.345  70.751  1.00  0.00    -0.220 C  
BRANCH  17  28
HETATM   28  O   UNL     1      -6.496   4.798  71.115  1.00  0.00    -0.018 OA 
BRANCH  28  29
HETATM   29  C   UNL     1      -6.472   5.077  69.748  1.00  0.00    -0.035 C  
HETATM   30  O   UNL     1      -5.907   6.567  67.893  1.00  0.00    -0.017 OA 
HETATM   31  C   UNL     1      -6.207   6.302  69.231  1.00  0.00    -0.033 C  
HETATM   32  C   UNL     1      -6.020   5.553  66.976  1.00  0.00    -0.018 A  
HETATM   33  O   UNL     1      -6.087   2.839  69.186  1.00  0.00    -0.023 OA 
HETATM   34  H   UNL     1      -7.486   1.943  67.683  1.00  0.00     0.000 HD 
HETATM   35  C   UNL     1      -5.709   5.792  65.639  1.00  0.00    -0.017 A  
HETATM   36  C   UNL     1      -6.371   3.961  68.784  1.00  0.00    -0.033 C  
HETATM   37  C   UNL     1      -5.900   4.773  64.698  1.00  0.00    -0.017 A  
HETATM   38  C   UNL     1      -6.444   4.266  67.361  1.00  0.00    -0.042 A  
HETATM   39  O   UNL     1      -7.302   2.119  66.768  1.00  0.00    -0.055 OA 
HETATM   40  C   UNL     1      -6.458   3.551  65.057  1.00  0.00    -0.035 A  
HETATM   41  O   UNL     1      -5.551   4.922  63.386  1.00  0.00    -0.015 OA 
HETATM   42  H   UNL     1      -5.681   4.230  62.748  1.00  0.00     0.000 HD 
HETATM   43  C   UNL     1      -6.726   3.294  66.394  1.00  0.00    -0.048 A  
BRANCH  31  44
HETATM   44  C   UNL     1      -6.113   7.458  70.134  1.00  0.00    -0.024 A  
HETATM   45  O   UNL     1      -5.136  10.660  72.588  1.00  0.00    -0.309 OA 
HETATM   46  H   UNL     1      -5.442   8.995  74.251  1.00  0.00     0.000 HD 
HETATM   47  C   UNL     1      -5.880   8.735  69.585  1.00  0.00    -0.029 A  
HETATM   48  H   UNL     1      -4.952  11.510  72.208  1.00  0.00     0.000 HD 
HETATM   49  O   UNL     1      -5.663   8.255  73.698  1.00  0.00    -0.064 OA 
HETATM   50  C   UNL     1      -5.507   9.619  71.782  1.00  0.00    -0.062 A  
HETATM   51  C   UNL     1      -5.777   8.371  72.338  1.00  0.00    -0.054 A  
HETATM   52  C   UNL     1      -6.102   7.286  71.528  1.00  0.00    -0.037 A  
HETATM   53  C   UNL     1      -5.573   9.818  70.411  1.00  0.00    -0.051 A  
ENDBRANCH  31  44
ENDBRANCH  28  29
ENDBRANCH  17  28
ENDBRANCH  15  16
ENDBRANCH  14  15
ENDBRANCH   4  14
TORSDOF 6
ENDMDL
MODEL      249
REMARK 921   NORMALIZED FREE ENERGY PREDICTED BY IDOCK:   51.90 KCAL/MOL
REMARK 922        TOTAL FREE ENERGY PREDICTED BY IDOCK:   68.63 KCAL/MOL
REMARK 923 INTER-LIGAND FREE ENERGY PREDICTED BY IDOCK:   -1.44 KCAL/MOL
REMARK 924 INTRA-LIGAND FREE ENERGY PREDICTED BY IDOCK:   70.06 KCAL/MOL
REMARK 927      BINDING AFFINITY PREDICTED BY RF-SCORE:    0.00 PKD
ROOT
HETATM    1  C   UNL     1     -10.692  15.182  65.514  1.00  0.00    -0.379 C  
HETATM    2  C   UNL     1     -11.045  13.716  65.782  1.00  0.00    -0.287 C  
HETATM    3  O   UNL     1      -9.875  12.996  65.390  1.00  0.00    -0.221 OA 
HETATM    4  C   UNL     1      -9.948  11.610  65.091  1.00  0.00    -0.259 C  
HETATM    5  H   UNL     1     -14.437  11.747  64.838  1.00  0.00     0.000 HD 
HETATM    6  C   UNL     1     -11.233  11.192  64.360  1.00  0.00     0.006 C  
HETATM    7  C   UNL     1     -12.464  11.792  65.055  1.00  0.00     0.647 C  
HETATM    8  O   UNL     1     -13.464  13.973  65.657  1.00  0.00    -0.713 OA 
HETATM    9  O   UNL     1     -11.194  11.635  62.989  1.00  0.00    -0.720 OA 
HETATM   10  H   UNL     1     -11.989  11.377  62.538  1.00  0.00     0.000 HD 
HETATM   11  H   UNL     1     -14.262  13.732  65.203  1.00  0.00     0.000 HD 
HETATM   12  O   UNL     1     -13.676  11.376  64.408  1.00  0.00     1.025 OA 
HETATM   13  C   UNL     1     -12.339  13.324  65.044  1.00  0.00    -0.448 C  
ENDROOT
BRANCH   4  14
HETATM   14  O   UNL     1      -9.728  10.733  66.197  1.00  0.00    -0.193 OA 
BRANCH  14  15
HETATM   15  C   UNL     1      -8.335  10.492  66.463  1.00  0.00    -0.141 C  
BRANCH  15  16
HETATM   16  C   UNL     1      -8.186  10.022  67.915  1.00  0.00    -0.113 C  
HETATM   17  C   UNL     1      -5.857  10.538  68.551  1.00  0.00    -0.040 C  
HETATM   18  O   UNL     1      -6.843   9.549  68.185  1.00  0.00    -0.069 OA 
HETATM   19  H   UNL     1      -8.415  13.522  68.315  1.00  0.00     0.000 HD 
HETATM   20  C   UNL     1      -6.419  11.271  69.791  1.00  0.00    -0.140 C  
HETATM   21  H   UNL     1      -9.746  10.885  70.629  1.00  0.00     0.000 HD 
HETATM   22  O   UNL     1      -6.674  10.333  70.866  1.00  0.00    -0.340 OA 
HETATM   23  C   UNL     1      -7.731  12.001  69.460  1.00  0.00     0.666 C  
HETATM   24  H   UNL     1      -7.019  10.784  71.628  1.00  0.00     0.000 HD 
HETATM   25  O   UNL     1      -9.381  10.271  70.003  1.00  0.00    -0.111 OA 
HETATM   26  O   UNL     1      -7.604  13.070  68.519  1.00  0.00    -0.125 OA 
HETATM   27  C   UNL     1      -8.778  11.018  68.931  1.00  0.00    -0.117 C  
BRANCH  17  28
HETATM   28  O   UNL     1      -5.496  11.352  67.424  1.00  0.00    -0.046 OA 
BRANCH  28  29
HETATM   29  C   UNL     1      -6.349  12.407  67.097  1.00  0.00    -0.089 C  
HETATM   30  O   UNL     1      -8.423  13.230  66.097  1.00  0.00     0.481 OA 
HETATM   31  C   UNL     1      -7.396  12.294  66.243  1.00  0.00     0.915 C  
HETATM   32  C   UNL     1      -8.320  14.433  66.748  1.00  0.00     0.029 A  
HETATM   33  O   UNL     1      -5.823  13.584  69.049  1.00  0.00    -0.073 OA 
HETATM   34  H   UNL     1      -5.167  15.708  68.775  1.00  0.00     0.000 HD 
HETATM   35  C   UNL     1      -9.343  15.373  66.629  1.00  0.00    -0.288 A  
HETATM   36  C   UNL     1      -6.372  13.610  67.954  1.00  0.00    -0.156 C  
HETATM   37  C   UNL     1      -9.195  16.626  67.234  1.00  0.00    -0.221 A  
HETATM   38  C   UNL     1      -7.198  14.738  67.542  1.00  0.00    -0.222 A  
HETATM   39  O   UNL     1      -5.852  16.358  68.666  1.00  0.00    -0.111 OA 
HETATM   40  C   UNL     1      -8.021  16.978  67.894  1.00  0.00    -0.192 A  
HETATM   41  O   UNL     1     -10.186  17.565  67.212  1.00  0.00    -0.313 OA 
HETATM   42  H   UNL     1     -10.085  18.415  67.623  1.00  0.00     0.000 HD 
HETATM   43  C   UNL     1      -7.022  16.030  68.053  1.00  0.00    -0.127 A  
BRANCH  31  44
HETATM   44  C   UNL     1      -7.561  11.057  65.466  1.00  0.00     0.177 A  
HETATM   45  O   UNL     1      -7.845   7.972  62.705  1.00  0.00    -0.127 OA 
HETATM   46  H   UNL     1     -10.143   8.542  62.865  1.00  0.00     0.000 HD 
HETATM   47  C   UNL     1      -6.413  10.341  65.073  1.00  0.00    -0.120 A  
HETATM   48  H   UNL     1      -7.064   7.513  62.423  1.00  0.00     0.000 HD 
HETATM   49  O   UNL     1     -10.089   9.252  63.494  1.00  0.00     1.775 OA 
HETATM   50  C   UNL     1      -7.755   8.954  63.652  1.00  0.00    -0.129 A  
HETATM   51  C   UNL     1      -8.902   9.628  64.066  1.00  0.00    -0.227 A  
HETATM   52  C   UNL     1      -8.822  10.668  64.989  1.00  0.00    -0.212 A  
HETATM   53  C   UNL     1      -6.510   9.289  64.161  1.00  0.00    -0.090 A  
ENDBRANCH  31  44
ENDBRANCH  28  29
ENDBRANCH  17  28
ENDBRANCH  15  16
ENDBRANCH  14  15
ENDBRANCH   4  14
TORSDOF 6
ENDMDL
MODEL      250
REMARK 921   NORMALIZED FREE ENERGY PREDICTED BY IDOCK:   54.22 KCAL/MOL
REMARK 922        TOTAL FREE ENERGY PREDICTED BY IDOCK:   71.77 KCAL/MOL
REMARK 923 INTER-LIGAND FREE ENERGY PREDICTED BY IDOCK:   17.81 KCAL/MOL
REMARK 924 INTRA-LIGAND FREE ENERGY PREDICTED BY IDOCK:   53.95 KCAL/MOL
REMARK 927      BINDING AFFINITY PREDICTED BY RF-SCORE:    0.00 PKD
ROOT
HETATM    1  C   UNL     1      -6.296  11.495  71.142  1.00  0.00     1.283 C  
HETATM    2  C   UNL     1      -7.081  10.284  70.628  1.00  0.00     0.236 C  
HETATM    3  O   UNL     1      -8.313  10.334  71.349  1.00  0.00     1.571 OA 
HETATM    4  C   UNL     1      -9.124   9.174  71.470  1.00  0.00    -0.048 C  
HETATM    5  H   UNL     1      -5.777   6.505  70.089  1.00  0.00     0.000 HD 
HETATM    6  C   UNL     1      -8.332   7.869  71.643  1.00  0.00    -0.116 C  
HETATM    7  C   UNL     1      -7.200   7.789  70.608  1.00  0.00    -0.061 C  
HETATM    8  O   UNL     1      -5.157   8.985  69.890  1.00  0.00    -0.029 OA 
HETATM    9  O   UNL     1      -7.773   7.795  72.969  1.00  0.00    -0.100 OA 
HETATM   10  H   UNL     1      -7.283   6.989  73.075  1.00  0.00     0.000 HD 
HETATM   11  H   UNL     1      -4.653   8.187  69.999  1.00  0.00     0.000 HD 
HETATM   12  O   UNL     1      -6.477   6.555  70.728  1.00  0.00    -0.048 OA 
HETATM   13  C   UNL     1      -6.263   8.990  70.806  1.00  0.00    -0.048 C  
ENDROOT
BRANCH   4  14
HETATM   14  O   UNL     1     -10.101   9.001  70.442  1.00  0.00    -0.185 OA 
BRANCH  14  15
HETATM   15  C   UNL     1     -11.315   9.734  70.684  1.00  0.00    -0.330 C  
BRANCH  15  16
HETATM   16  C   UNL     1     -11.908   9.274  72.022  1.00  0.00    -0.300 C  
HETATM   17  C   UNL     1     -13.516   7.487  71.464  1.00  0.00    -0.359 C  
HETATM   18  O   UNL     1     -13.286   8.851  71.875  1.00  0.00    -0.341 OA 
HETATM   19  H   UNL     1      -9.674   6.642  71.286  1.00  0.00     0.000 HD 
HETATM   20  C   UNL     1     -12.796   6.595  72.502  1.00  0.00     0.411 C  
HETATM   21  H   UNL     1     -10.519   8.015  74.673  1.00  0.00     0.000 HD 
HETATM   22  O   UNL     1     -13.302   6.854  73.836  1.00  0.00     4.225 OA 
HETATM   23  C   UNL     1     -11.280   6.848  72.498  1.00  0.00    -0.267 C  
HETATM   24  H   UNL     1     -12.860   6.306  74.473  1.00  0.00     0.000 HD 
HETATM   25  O   UNL     1     -11.092   8.604  74.198  1.00  0.00     3.651 OA 
HETATM   26  O   UNL     1     -10.612   6.486  71.288  1.00  0.00    -0.219 OA 
HETATM   27  C   UNL     1     -10.977   8.319  72.793  1.00  0.00    -0.239 C  
BRANCH  17  28
HETATM   28  O   UNL     1     -13.161   7.292  70.086  1.00  0.00     0.824 OA 
BRANCH  28  29
HETATM   29  C   UNL     1     -11.803   7.300  69.767  1.00  0.00     0.276 C  
HETATM   30  O   UNL     1      -9.659   6.138  69.572  1.00  0.00    -0.141 OA 
HETATM   31  C   UNL     1     -10.944   6.304  70.096  1.00  0.00    -0.347 C  
HETATM   32  C   UNL     1      -9.142   7.120  68.766  1.00  0.00    -0.134 A  
HETATM   33  O   UNL     1     -12.112   8.809  68.006  1.00  0.00     2.742 OA 
HETATM   34  H   UNL     1     -10.812  10.634  68.031  1.00  0.00     0.000 HD 
HETATM   35  C   UNL     1      -7.869   6.966  68.220  1.00  0.00    -0.118 A  
HETATM   36  C   UNL     1     -11.310   8.226  68.726  1.00  0.00     0.741 C  
HETATM   37  C   UNL     1      -7.319   8.006  67.461  1.00  0.00    -0.089 A  
HETATM   38  C   UNL     1      -9.876   8.287  68.475  1.00  0.00    -0.188 A  
HETATM   39  O   UNL     1      -9.932  10.538  67.685  1.00  0.00    -0.166 OA 
HETATM   40  C   UNL     1      -7.986   9.215  67.299  1.00  0.00    -0.102 A  
HETATM   41  O   UNL     1      -6.107   7.890  66.843  1.00  0.00    -0.049 OA 
HETATM   42  H   UNL     1      -5.734   8.596  66.328  1.00  0.00     0.000 HD 
HETATM   43  C   UNL     1      -9.270   9.355  67.802  1.00  0.00    -0.128 A  
BRANCH  31  44
HETATM   44  C   UNL     1     -11.397   5.232  70.994  1.00  0.00     0.471 A  
HETATM   45  O   UNL     1     -12.348   2.586  74.047  1.00  0.00     0.611 OA 
HETATM   46  H   UNL     1     -10.460   1.462  73.154  1.00  0.00     0.000 HD 
HETATM   47  C   UNL     1     -12.524   5.456  71.810  1.00  0.00     1.494 A  
HETATM   48  H   UNL     1     -13.092   2.759  74.611  1.00  0.00     0.000 HD 
HETATM   49  O   UNL     1     -10.231   2.062  72.455  1.00  0.00    -0.146 OA 
HETATM   50  C   UNL     1     -12.067   3.433  73.011  1.00  0.00     0.784 A  
HETATM   51  C   UNL     1     -10.975   3.179  72.183  1.00  0.00     0.808 A  
HETATM   52  C   UNL     1     -10.641   4.060  71.158  1.00  0.00     0.583 A  
HETATM   53  C   UNL     1     -12.858   4.556  72.823  1.00  0.00     1.403 A  
ENDBRANCH  31  44
ENDBRANCH  28  29
ENDBRANCH  17  28
ENDBRANCH  15  16
ENDBRANCH  14  15
ENDBRANCH   4  14
TORSDOF 6
ENDMDL
MODEL      251
REMARK 921   NORMALIZED FREE ENERGY PREDICTED BY IDOCK:   60.18 KCAL/MOL
REMARK 922        TOTAL FREE ENERGY PREDICTED BY IDOCK:   79.81 KCAL/MOL
REMARK 923 INTER-LIGAND FREE ENERGY PREDICTED BY IDOCK:   40.95 KCAL/MOL
REMARK 924 INTRA-LIGAND FREE ENERGY PREDICTED BY IDOCK:   38.86 KCAL/MOL
REMARK 927      BINDING AFFINITY PREDICTED BY RF-SCORE:    0.00 PKD
ROOT
HETATM    1  C   UNL     1      -7.750   8.178  70.919  1.00  0.00    -0.085 C  
HETATM    2  C   UNL     1      -7.914   9.017  69.647  1.00  0.00    -0.093 C  
HETATM    3  O   UNL     1      -7.903   8.056  68.591  1.00  0.00    -0.113 OA 
HETATM    4  C   UNL     1      -7.610   8.452  67.259  1.00  0.00    -0.097 C  
HETATM    5  H   UNL     1      -6.002  12.422  68.636  1.00  0.00     0.000 HD 
HETATM    6  C   UNL     1      -6.527   9.537  67.151  1.00  0.00    -0.066 C  
HETATM    7  C   UNL     1      -6.808  10.676  68.141  1.00  0.00    -0.068 C  
HETATM    8  O   UNL     1      -7.056  11.104  70.565  1.00  0.00    -0.371 OA 
HETATM    9  O   UNL     1      -5.229   8.975  67.424  1.00  0.00    -0.033 OA 
HETATM   10  H   UNL     1      -4.559   9.646  67.358  1.00  0.00     0.000 HD 
HETATM   11  H   UNL     1      -6.383  11.772  70.515  1.00  0.00     0.000 HD 
HETATM   12  O   UNL     1      -5.828  11.718  68.023  1.00  0.00    -0.043 OA 
HETATM   13  C   UNL     1      -6.821  10.100  69.566  1.00  0.00    -0.079 C  
ENDROOT
BRANCH   4  14
HETATM   14  O   UNL     1      -8.740   8.833  66.471  1.00  0.00    -0.113 OA 
BRANCH  14  15
HETATM   15  C   UNL     1      -9.222  10.155  66.772  1.00  0.00    -0.151 C  
BRANCH  15  16
HETATM   16  C   UNL     1     -10.490  10.414  65.949  1.00  0.00    -0.125 C  
HETATM   17  C   UNL     1     -12.380   9.881  67.444  1.00  0.00     5.377 C  
HETATM   18  O   UNL     1     -11.558   9.507  66.318  1.00  0.00     1.698 OA 
HETATM   19  H   UNL     1     -10.420  13.239  68.065  1.00  0.00     0.000 HD 
HETATM   20  C   UNL     1     -12.961  11.275  67.111  1.00  0.00     6.073 C  
HETATM   21  H   UNL     1     -11.612  13.100  64.510  1.00  0.00     0.000 HD 
HETATM   22  O   UNL     1     -13.718  11.230  65.875  1.00  0.00     7.522 OA 
HETATM   23  C   UNL     1     -11.846  12.323  66.962  1.00  0.00    -0.259 C  
HETATM   24  H   UNL     1     -14.075  12.086  65.670  1.00  0.00     0.000 HD 
HETATM   25  O   UNL     1     -11.385  12.179  64.559  1.00  0.00    -0.313 OA 
HETATM   26  O   UNL     1     -11.109  12.591  68.157  1.00  0.00    -0.217 OA 
HETATM   27  C   UNL     1     -10.858  11.908  65.870  1.00  0.00    -0.297 C  
BRANCH  17  28
HETATM   28  O   UNL     1     -11.657   9.759  68.679  1.00  0.00     0.092 OA 
BRANCH  28  29
HETATM   29  C   UNL     1     -11.341  10.937  69.356  1.00  0.00    -0.280 C  
HETATM   30  O   UNL     1     -10.627  12.094  71.389  1.00  0.00     5.085 OA 
HETATM   31  C   UNL     1     -11.200  11.021  70.702  1.00  0.00     0.290 C  
HETATM   32  C   UNL     1     -10.300  13.228  70.690  1.00  0.00     3.784 A  
HETATM   33  O   UNL     1     -10.391  11.906  67.450  1.00  0.00    -0.203 OA 
HETATM   34  H   UNL     1     -11.155  13.936  66.889  1.00  0.00     0.000 HD 
HETATM   35  C   UNL     1      -9.711  14.304  71.354  1.00  0.00     4.785 A  
HETATM   36  C   UNL     1     -10.779  12.076  68.600  1.00  0.00    -0.236 C  
HETATM   37  C   UNL     1      -9.451  15.484  70.648  1.00  0.00     1.255 A  
HETATM   38  C   UNL     1     -10.545  13.328  69.306  1.00  0.00     0.086 A  
HETATM   39  O   UNL     1     -10.782  14.677  67.352  1.00  0.00    -0.272 OA 
HETATM   40  C   UNL     1      -9.830  15.632  69.318  1.00  0.00    -0.269 A  
HETATM   41  O   UNL     1      -8.815  16.547  71.223  1.00  0.00     5.093 OA 
HETATM   42  H   UNL     1      -8.638  17.349  70.744  1.00  0.00     0.000 HD 
HETATM   43  C   UNL     1     -10.373  14.550  68.643  1.00  0.00    -0.242 A  
BRANCH  31  44
HETATM   44  C   UNL     1     -11.570   9.869  71.537  1.00  0.00    -0.375 A  
HETATM   45  O   UNL     1     -12.031   6.303  73.609  1.00  0.00     0.585 OA 
HETATM   46  H   UNL     1     -13.570   5.912  71.846  1.00  0.00     0.000 HD 
HETATM   47  C   UNL     1     -10.868   9.644  72.737  1.00  0.00     3.029 A  
HETATM   48  H   UNL     1     -11.533   6.146  74.402  1.00  0.00     0.000 HD 
HETATM   49  O   UNL     1     -13.469   6.723  71.362  1.00  0.00    -0.212 OA 
HETATM   50  C   UNL     1     -11.915   7.499  72.956  1.00  0.00     0.259 A  
HETATM   51  C   UNL     1     -12.646   7.729  71.793  1.00  0.00    -0.329 A  
HETATM   52  C   UNL     1     -12.499   8.919  71.084  1.00  0.00    -0.260 A  
HETATM   53  C   UNL     1     -11.038   8.454  73.447  1.00  0.00     1.140 A  
ENDBRANCH  31  44
ENDBRANCH  28  29
ENDBRANCH  17  28
ENDBRANCH  15  16
ENDBRANCH  14  15
ENDBRANCH   4  14
TORSDOF 6
ENDMDL
MODEL      252
REMARK 921   NORMALIZED FREE ENERGY PREDICTED BY IDOCK:   67.12 KCAL/MOL
REMARK 922        TOTAL FREE ENERGY PREDICTED BY IDOCK:   89.19 KCAL/MOL
REMARK 923 INTER-LIGAND FREE ENERGY PREDICTED BY IDOCK:    9.36 KCAL/MOL
REMARK 924 INTRA-LIGAND FREE ENERGY PREDICTED BY IDOCK:   79.83 KCAL/MOL
REMARK 927      BINDING AFFINITY PREDICTED BY RF-SCORE:    0.00 PKD
ROOT
HETATM    1  C   UNL     1     -12.309   7.133  67.218  1.00  0.00     5.481 C  
HETATM    2  C   UNL     1     -11.600   8.486  67.330  1.00  0.00     2.276 C  
HETATM    3  O   UNL     1     -11.904   9.144  66.099  1.00  0.00     3.881 OA 
HETATM    4  C   UNL     1     -11.103  10.224  65.642  1.00  0.00     0.740 C  
HETATM    5  H   UNL     1      -7.840   9.244  68.580  1.00  0.00     0.000 HD 
HETATM    6  C   UNL     1      -9.603  10.058  65.927  1.00  0.00    -0.224 C  
HETATM    7  C   UNL     1      -9.378   9.628  67.385  1.00  0.00    -0.134 C  
HETATM    8  O   UNL     1      -9.925   7.801  68.961  1.00  0.00    -0.173 OA 
HETATM    9  O   UNL     1      -9.033   9.071  65.046  1.00  0.00    -0.287 OA 
HETATM   10  H   UNL     1      -8.105   8.968  65.222  1.00  0.00     0.000 HD 
HETATM   11  H   UNL     1      -9.000   7.682  69.142  1.00  0.00     0.000 HD 
HETATM   12  O   UNL     1      -7.979   9.510  67.679  1.00  0.00    -0.105 OA 
HETATM   13  C   UNL     1     -10.100   8.293  67.623  1.00  0.00    -0.209 C  
ENDROOT
BRANCH   4  14
HETATM   14  O   UNL     1     -11.524  11.521  66.069  1.00  0.00    -0.274 OA 
BRANCH  14  15
HETATM   15  C   UNL     1     -10.430  12.383  66.428  1.00  0.00    -0.243 C  
BRANCH  15  16
HETATM   16  C   UNL     1     -10.601  12.811  67.891  1.00  0.00    -0.221 C  
HETATM   17  C   UNL     1      -8.359  13.510  68.652  1.00  0.00    -0.024 C  
HETATM   18  O   UNL     1      -9.414  12.524  68.671  1.00  0.00    -0.132 OA 
HETATM   19  H   UNL     1     -10.340  15.930  66.260  1.00  0.00     0.000 HD 
HETATM   20  C   UNL     1      -8.998  14.836  69.128  1.00  0.00    -0.078 C  
HETATM   21  H   UNL     1     -12.437  15.112  69.262  1.00  0.00     0.000 HD 
HETATM   22  O   UNL     1      -9.574  14.679  70.449  1.00  0.00     0.113 OA 
HETATM   23  C   UNL     1     -10.105  15.298  68.166  1.00  0.00    -0.229 C  
HETATM   24  H   UNL     1      -9.966  15.494  70.742  1.00  0.00     0.000 HD 
HETATM   25  O   UNL     1     -12.074  14.239  69.172  1.00  0.00    -0.329 OA 
HETATM   26  O   UNL     1      -9.656  15.644  66.854  1.00  0.00    -0.221 OA 
HETATM   27  C   UNL     1     -11.190  14.227  68.036  1.00  0.00    -0.280 C  
BRANCH  17  28
HETATM   28  O   UNL     1      -7.692  13.532  67.380  1.00  0.00    -0.164 OA 
BRANCH  28  29
HETATM   29  C   UNL     1      -7.867  12.429  66.545  1.00  0.00     0.341 C  
HETATM   30  O   UNL     1      -8.939  11.372  64.617  1.00  0.00    -0.019 OA 
HETATM   31  C   UNL     1      -8.877  12.313  65.648  1.00  0.00     0.443 C  
HETATM   32  C   UNL     1      -7.990  10.382  64.568  1.00  0.00    -0.093 A  
HETATM   33  O   UNL     1      -5.619  11.805  66.713  1.00  0.00    -0.139 OA 
HETATM   34  H   UNL     1      -5.224   9.683  67.313  1.00  0.00     0.000 HD 
HETATM   35  C   UNL     1      -8.024   9.443  63.538  1.00  0.00    -0.141 A  
HETATM   36  C   UNL     1      -6.742  11.492  66.339  1.00  0.00     0.057 C  
HETATM   37  C   UNL     1      -7.099   8.392  63.538  1.00  0.00    -0.090 A  
HETATM   38  C   UNL     1      -6.975  10.296  65.541  1.00  0.00    -0.138 A  
HETATM   39  O   UNL     1      -5.269   9.028  66.627  1.00  0.00    -0.037 OA 
HETATM   40  C   UNL     1      -6.191   8.227  64.579  1.00  0.00    -0.065 A  
HETATM   41  O   UNL     1      -7.036   7.481  62.524  1.00  0.00    -0.072 OA 
HETATM   42  H   UNL     1      -6.407   6.768  62.524  1.00  0.00     0.000 HD 
HETATM   43  C   UNL     1      -6.125   9.183  65.581  1.00  0.00    -0.055 A  
BRANCH  31  44
HETATM   44  C   UNL     1      -9.964  13.303  65.657  1.00  0.00    -0.242 A  
HETATM   45  O   UNL     1     -12.687  16.388  65.119  1.00  0.00     2.032 OA 
HETATM   46  H   UNL     1     -11.400  17.329  66.876  1.00  0.00     0.000 HD 
HETATM   47  C   UNL     1     -11.003  13.183  64.713  1.00  0.00    -0.355 A  
HETATM   48  H   UNL     1     -13.367  16.312  64.461  1.00  0.00     0.000 HD 
HETATM   49  O   UNL     1     -10.770  16.630  67.005  1.00  0.00    -0.278 OA 
HETATM   50  C   UNL     1     -11.822  15.350  65.329  1.00  0.00     0.125 A  
HETATM   51  C   UNL     1     -10.825  15.461  66.294  1.00  0.00    -0.301 A  
HETATM   52  C   UNL     1      -9.901  14.436  66.483  1.00  0.00    -0.298 A  
HETATM   53  C   UNL     1     -11.933  14.211  64.546  1.00  0.00    -0.476 A  
ENDBRANCH  31  44
ENDBRANCH  28  29
ENDBRANCH  17  28
ENDBRANCH  15  16
ENDBRANCH  14  15
ENDBRANCH   4  14
TORSDOF 6
ENDMDL
MODEL      253
REMARK 921   NORMALIZED FREE ENERGY PREDICTED BY IDOCK:   67.17 KCAL/MOL
REMARK 922        TOTAL FREE ENERGY PREDICTED BY IDOCK:   89.26 KCAL/MOL
REMARK 923 INTER-LIGAND FREE ENERGY PREDICTED BY IDOCK:    2.71 KCAL/MOL
REMARK 924 INTRA-LIGAND FREE ENERGY PREDICTED BY IDOCK:   86.55 KCAL/MOL
REMARK 927      BINDING AFFINITY PREDICTED BY RF-SCORE:    0.00 PKD
ROOT
HETATM    1  C   UNL     1      -5.526  11.815  66.094  1.00  0.00     0.405 C  
HETATM    2  C   UNL     1      -5.935  10.544  65.343  1.00  0.00    -0.129 C  
HETATM    3  O   UNL     1      -5.539  10.792  63.994  1.00  0.00    -0.113 OA 
HETATM    4  C   UNL     1      -6.112  10.051  62.926  1.00  0.00    -0.126 C  
HETATM    5  H   UNL     1      -9.418   8.519  65.565  1.00  0.00     0.000 HD 
HETATM    6  C   UNL     1      -7.605   9.739  63.109  1.00  0.00    -0.122 C  
HETATM    7  C   UNL     1      -7.870   9.193  64.520  1.00  0.00    -0.120 C  
HETATM    8  O   UNL     1      -7.666   9.831  66.902  1.00  0.00    -0.098 OA 
HETATM    9  O   UNL     1      -8.393  10.927  62.901  1.00  0.00    -0.312 OA 
HETATM   10  H   UNL     1      -9.316  10.734  63.015  1.00  0.00     0.000 HD 
HETATM   11  H   UNL     1      -8.590   9.649  67.028  1.00  0.00     0.000 HD 
HETATM   12  O   UNL     1      -9.254   8.857  64.693  1.00  0.00    -0.013 OA 
HETATM   13  C   UNL     1      -7.434  10.249  65.548  1.00  0.00    -0.149 C  
ENDROOT
BRANCH   4  14
HETATM   14  O   UNL     1      -5.419   8.853  62.572  1.00  0.00    -0.077 OA 
BRANCH  14  15
HETATM   15  C   UNL     1      -6.217   7.667  62.735  1.00  0.00    -0.067 C  
BRANCH  15  16
HETATM   16  C   UNL     1      -5.715   6.902  63.966  1.00  0.00    -0.032 C  
HETATM   17  C   UNL     1      -7.047   7.743  65.866  1.00  0.00    -0.064 C  
HETATM   18  O   UNL     1      -5.787   7.716  65.163  1.00  0.00    -0.037 OA 
HETATM   19  H   UNL     1      -8.789   5.290  63.327  1.00  0.00     0.000 HD 
HETATM   20  C   UNL     1      -7.384   6.273  66.206  1.00  0.00    -0.081 C  
HETATM   21  H   UNL     1      -5.644   3.728  64.650  1.00  0.00     0.000 HD 
HETATM   22  O   UNL     1      -6.329   5.677  67.001  1.00  0.00    -0.036 OA 
HETATM   23  C   UNL     1      -7.565   5.433  64.930  1.00  0.00    -0.084 C  
HETATM   24  H   UNL     1      -6.536   4.774  67.210  1.00  0.00     0.000 HD 
HETATM   25  O   UNL     1      -5.283   4.604  64.586  1.00  0.00    -0.012 OA 
HETATM   26  O   UNL     1      -8.677   5.809  64.115  1.00  0.00     0.023 OA 
HETATM   27  C   UNL     1      -6.300   5.481  64.069  1.00  0.00    -0.022 C  
BRANCH  17  28
HETATM   28  O   UNL     1      -8.036   8.482  65.133  1.00  0.00    -0.125 OA 
BRANCH  28  29
HETATM   29  C   UNL     1      -9.110   9.004  65.853  1.00  0.00    -0.212 C  
HETATM   30  O   UNL     1     -10.841   8.760  67.564  1.00  0.00    -0.206 OA 
HETATM   31  C   UNL     1      -9.938   8.257  66.624  1.00  0.00    -0.278 C  
HETATM   32  C   UNL     1     -11.034  10.117  67.636  1.00  0.00    -0.268 A  
HETATM   33  O   UNL     1      -8.190  11.155  65.880  1.00  0.00    -0.141 OA 
HETATM   34  H   UNL     1      -9.519  12.807  65.158  1.00  0.00     0.000 HD 
HETATM   35  C   UNL     1     -11.918  10.640  68.578  1.00  0.00     0.048 A  
HETATM   36  C   UNL     1      -9.173  10.460  66.105  1.00  0.00    -0.168 C  
HETATM   37  C   UNL     1     -12.165  12.018  68.594  1.00  0.00     0.120 A  
HETATM   38  C   UNL     1     -10.350  10.997  66.775  1.00  0.00    -0.284 A  
HETATM   39  O   UNL     1     -10.145  13.157  65.781  1.00  0.00    -0.286 OA 
HETATM   40  C   UNL     1     -11.601  12.866  67.647  1.00  0.00    -0.406 A  
HETATM   41  O   UNL     1     -12.967  12.600  69.533  1.00  0.00     0.772 OA 
HETATM   42  H   UNL     1     -13.134  13.536  69.544  1.00  0.00     0.000 HD 
HETATM   43  C   UNL     1     -10.687  12.356  66.738  1.00  0.00    -0.234 A  
BRANCH  31  44
HETATM   44  C   UNL     1      -9.836   6.791  66.577  1.00  0.00    -0.167 A  
HETATM   45  O   UNL     1      -9.626   2.734  65.730  1.00  0.00    -0.364 OA 
HETATM   46  H   UNL     1     -11.905   2.862  66.378  1.00  0.00     0.000 HD 
HETATM   47  C   UNL     1      -8.617   6.205  66.182  1.00  0.00    -0.141 A  
HETATM   48  H   UNL     1      -8.808   2.352  65.436  1.00  0.00     0.000 HD 
HETATM   49  O   UNL     1     -11.965   3.790  66.571  1.00  0.00     6.455 OA 
HETATM   50  C   UNL     1      -9.680   4.061  66.056  1.00  0.00    -0.187 A  
HETATM   51  C   UNL     1     -10.880   4.622  66.487  1.00  0.00     0.468 A  
HETATM   52  C   UNL     1     -10.967   5.983  66.771  1.00  0.00    -0.305 A  
HETATM   53  C   UNL     1      -8.540   4.837  65.917  1.00  0.00    -0.119 A  
ENDBRANCH  31  44
ENDBRANCH  28  29
ENDBRANCH  17  28
ENDBRANCH  15  16
ENDBRANCH  14  15
ENDBRANCH   4  14
TORSDOF 6
ENDMDL
MODEL      254
REMARK 921   NORMALIZED FREE ENERGY PREDICTED BY IDOCK:   70.82 KCAL/MOL
REMARK 922        TOTAL FREE ENERGY PREDICTED BY IDOCK:   94.18 KCAL/MOL
REMARK 923 INTER-LIGAND FREE ENERGY PREDICTED BY IDOCK:   64.03 KCAL/MOL
REMARK 924 INTRA-LIGAND FREE ENERGY PREDICTED BY IDOCK:   30.15 KCAL/MOL
REMARK 927      BINDING AFFINITY PREDICTED BY RF-SCORE:    0.00 PKD
ROOT
HETATM    1  C   UNL     1      -6.723   6.342  65.890  1.00  0.00    -0.049 C  
HETATM    2  C   UNL     1      -6.963   7.345  67.023  1.00  0.00    -0.082 C  
HETATM    3  O   UNL     1      -5.672   7.897  67.281  1.00  0.00    -0.035 OA 
HETATM    4  C   UNL     1      -5.396   8.539  68.518  1.00  0.00    -0.033 C  
HETATM    5  H   UNL     1      -9.111   6.836  70.400  1.00  0.00     0.000 HD 
HETATM    6  C   UNL     1      -6.065   7.876  69.731  1.00  0.00    -0.026 C  
HETATM    7  C   UNL     1      -7.546   7.592  69.440  1.00  0.00    -0.095 C  
HETATM    8  O   UNL     1      -8.995   6.319  67.891  1.00  0.00    -0.116 OA 
HETATM    9  O   UNL     1      -5.397   6.641  70.057  1.00  0.00    -0.014 OA 
HETATM   10  H   UNL     1      -5.811   6.231  70.807  1.00  0.00     0.000 HD 
HETATM   11  H   UNL     1      -9.412   5.895  68.632  1.00  0.00     0.000 HD 
HETATM   12  O   UNL     1      -8.195   7.011  70.580  1.00  0.00    -0.116 OA 
HETATM   13  C   UNL     1      -7.640   6.657  68.224  1.00  0.00    -0.104 C  
ENDROOT
BRANCH   4  14
HETATM   14  O   UNL     1      -5.652   9.945  68.548  1.00  0.00    -0.039 OA 
BRANCH  14  15
HETATM   15  C   UNL     1      -6.570  10.377  67.527  1.00  0.00    -0.066 C  
BRANCH  15  16
HETATM   16  C   UNL     1      -7.410  11.534  68.081  1.00  0.00    -0.094 C  
HETATM   17  C   UNL     1      -9.519  10.516  68.861  1.00  0.00    -0.193 C  
HETATM   18  O   UNL     1      -8.827  11.308  67.874  1.00  0.00    -0.134 OA 
HETATM   19  H   UNL     1      -6.288   9.981  71.046  1.00  0.00     0.000 HD 
HETATM   20  C   UNL     1      -9.290  11.219  70.219  1.00  0.00     2.597 C  
HETATM   21  H   UNL     1      -6.849  13.648  70.482  1.00  0.00     0.000 HD 
HETATM   22  O   UNL     1      -9.777  12.584  70.176  1.00  0.00     2.051 OA 
HETATM   23  C   UNL     1      -7.797  11.247  70.587  1.00  0.00     3.407 C  
HETATM   24  H   UNL     1      -9.636  13.016  71.010  1.00  0.00     0.000 HD 
HETATM   25  O   UNL     1      -7.111  13.386  69.607  1.00  0.00     0.113 OA 
HETATM   26  O   UNL     1      -7.210   9.964  70.818  1.00  0.00    -0.305 OA 
HETATM   27  C   UNL     1      -6.986  11.957  69.501  1.00  0.00     0.058 C  
BRANCH  17  28
HETATM   28  O   UNL     1      -9.142   9.133  68.776  1.00  0.00    -0.135 OA 
BRANCH  28  29
HETATM   29  C   UNL     1      -9.874   8.322  67.908  1.00  0.00    -0.169 C  
HETATM   30  O   UNL     1     -10.097   7.156  65.769  1.00  0.00     0.586 OA 
HETATM   31  C   UNL     1      -9.571   8.150  66.597  1.00  0.00    -0.229 C  
HETATM   32  C   UNL     1     -11.108   6.362  66.249  1.00  0.00     0.720 A  
HETATM   33  O   UNL     1     -10.754   7.050  69.663  1.00  0.00    -0.226 OA 
HETATM   34  H   UNL     1     -12.984   6.834  69.704  1.00  0.00     0.000 HD 
HETATM   35  C   UNL     1     -11.635   5.353  65.445  1.00  0.00     1.845 A  
HETATM   36  C   UNL     1     -10.800   7.315  68.468  1.00  0.00    -0.060 C  
HETATM   37  C   UNL     1     -12.717   4.598  65.914  1.00  0.00     8.796 A  
HETATM   38  C   UNL     1     -11.626   6.545  67.547  1.00  0.00     0.514 A  
HETATM   39  O   UNL     1     -13.360   6.167  69.141  1.00  0.00     6.537 OA 
HETATM   40  C   UNL     1     -13.321   4.879  67.135  1.00  0.00    20.118 A  
HETATM   41  O   UNL     1     -13.234   3.553  65.204  1.00  0.00     8.817 OA 
HETATM   42  H   UNL     1     -13.968   3.040  65.523  1.00  0.00     0.000 HD 
HETATM   43  C   UNL     1     -12.771   5.851  67.957  1.00  0.00     9.513 A  
BRANCH  31  44
HETATM   44  C   UNL     1      -8.532   8.990  65.984  1.00  0.00    -0.138 A  
HETATM   45  O   UNL     1      -6.128  11.588  63.818  1.00  0.00     0.565 OA 
HETATM   46  H   UNL     1      -5.575   9.562  62.715  1.00  0.00     0.000 HD 
HETATM   47  C   UNL     1      -8.479  10.359  66.315  1.00  0.00    -0.145 A  
HETATM   48  H   UNL     1      -6.119  12.514  64.028  1.00  0.00     0.000 HD 
HETATM   49  O   UNL     1      -6.125   8.959  63.202  1.00  0.00    -0.088 OA 
HETATM   50  C   UNL     1      -6.883  10.727  64.565  1.00  0.00     0.347 A  
HETATM   51  C   UNL     1      -6.895   9.368  64.258  1.00  0.00    -0.095 A  
HETATM   52  C   UNL     1      -7.700   8.485  64.972  1.00  0.00    -0.102 A  
HETATM   53  C   UNL     1      -7.654  11.230  65.601  1.00  0.00     0.336 A  
ENDBRANCH  31  44
ENDBRANCH  28  29
ENDBRANCH  17  28
ENDBRANCH  15  16
ENDBRANCH  14  15
ENDBRANCH   4  14
TORSDOF 6
ENDMDL
MODEL      255
REMARK 921   NORMALIZED FREE ENERGY PREDICTED BY IDOCK:   71.11 KCAL/MOL
REMARK 922        TOTAL FREE ENERGY PREDICTED BY IDOCK:   94.58 KCAL/MOL
REMARK 923 INTER-LIGAND FREE ENERGY PREDICTED BY IDOCK:   22.45 KCAL/MOL
REMARK 924 INTRA-LIGAND FREE ENERGY PREDICTED BY IDOCK:   72.12 KCAL/MOL
REMARK 927      BINDING AFFINITY PREDICTED BY RF-SCORE:    0.00 PKD
ROOT
HETATM    1  C   UNL     1     -12.344   9.242  66.934  1.00  0.00     8.259 C  
HETATM    2  C   UNL     1     -11.537   7.955  67.134  1.00  0.00     2.115 C  
HETATM    3  O   UNL     1     -10.435   8.356  67.950  1.00  0.00    -0.219 OA 
HETATM    4  C   UNL     1      -9.255   7.568  68.006  1.00  0.00    -0.137 C  
HETATM    5  H   UNL     1     -10.473   5.216  64.370  1.00  0.00     0.000 HD 
HETATM    6  C   UNL     1      -8.861   6.931  66.665  1.00  0.00    -0.135 C  
HETATM    7  C   UNL     1     -10.080   6.265  66.009  1.00  0.00     0.300 C  
HETATM    8  O   UNL     1     -12.335   6.801  65.143  1.00  0.00     6.801 OA 
HETATM    9  O   UNL     1      -8.326   7.930  65.775  1.00  0.00    -0.122 OA 
HETATM   10  H   UNL     1      -8.084   7.536  64.945  1.00  0.00     0.000 HD 
HETATM   11  H   UNL     1     -12.103   6.417  64.305  1.00  0.00     0.000 HD 
HETATM   12  O   UNL     1      -9.720   5.628  64.775  1.00  0.00     0.574 OA 
HETATM   13  C   UNL     1     -11.160   7.333  65.776  1.00  0.00     3.900 C  
ENDROOT
BRANCH   4  14
HETATM   14  O   UNL     1      -9.235   6.569  69.027  1.00  0.00    -0.131 OA 
BRANCH  14  15
HETATM   15  C   UNL     1     -10.049   6.904  70.165  1.00  0.00    -0.182 C  
BRANCH  15  16
HETATM   16  C   UNL     1      -9.146   7.005  71.401  1.00  0.00    -0.147 C  
HETATM   17  C   UNL     1      -7.316   8.536  70.772  1.00  0.00    -0.066 C  
HETATM   18  O   UNL     1      -7.757   7.187  71.032  1.00  0.00    -0.088 OA 
HETATM   19  H   UNL     1     -10.857  10.091  71.511  1.00  0.00     0.000 HD 
HETATM   20  C   UNL     1      -7.634   9.349  72.049  1.00  0.00     0.879 C  
HETATM   21  H   UNL     1      -9.746   8.011  74.430  1.00  0.00     0.000 HD 
HETATM   22  O   UNL     1      -6.969   8.770  73.201  1.00  0.00    -0.321 OA 
HETATM   23  C   UNL     1      -9.146   9.383  72.325  1.00  0.00     1.497 C  
HETATM   24  H   UNL     1      -7.165   9.270  73.985  1.00  0.00     0.000 HD 
HETATM   25  O   UNL     1      -9.404   7.420  73.770  1.00  0.00    -0.227 OA 
HETATM   26  O   UNL     1      -9.922  10.069  71.340  1.00  0.00     0.399 OA 
HETATM   27  C   UNL     1      -9.701   7.964  72.472  1.00  0.00    -0.227 C  
BRANCH  17  28
HETATM   28  O   UNL     1      -7.857   9.031  69.537  1.00  0.00    -0.088 OA 
BRANCH  28  29
HETATM   29  C   UNL     1      -7.891   8.152  68.454  1.00  0.00    -0.118 C  
HETATM   30  O   UNL     1      -7.828   7.746  66.043  1.00  0.00    -0.092 OA 
HETATM   31  C   UNL     1      -8.056   8.544  67.167  1.00  0.00    -0.104 C  
HETATM   32  C   UNL     1      -7.551   6.414  66.223  1.00  0.00    -0.090 A  
HETATM   33  O   UNL     1      -6.729   6.492  69.624  1.00  0.00    -0.046 OA 
HETATM   34  H   UNL     1      -7.680   4.464  69.666  1.00  0.00     0.000 HD 
HETATM   35  C   UNL     1      -7.303   5.605  65.115  1.00  0.00    -0.075 A  
HETATM   36  C   UNL     1      -7.376   6.777  68.624  1.00  0.00    -0.090 C  
HETATM   37  C   UNL     1      -7.097   4.233  65.302  1.00  0.00    -0.063 A  
HETATM   38  C   UNL     1      -7.509   5.846  67.511  1.00  0.00    -0.078 A  
HETATM   39  O   UNL     1      -7.542   3.910  68.906  1.00  0.00    -0.054 OA 
HETATM   40  C   UNL     1      -7.202   3.650  66.561  1.00  0.00    -0.067 A  
HETATM   41  O   UNL     1      -6.782   3.399  64.268  1.00  0.00    -0.037 OA 
HETATM   42  H   UNL     1      -6.642   2.468  64.395  1.00  0.00     0.000 HD 
HETATM   43  C   UNL     1      -7.403   4.458  67.669  1.00  0.00    -0.069 A  
BRANCH  31  44
HETATM   44  C   UNL     1      -8.401   9.944  66.881  1.00  0.00    -0.124 A  
HETATM   45  O   UNL     1      -9.264  13.717  65.382  1.00  0.00    -0.261 OA 
HETATM   46  H   UNL     1      -7.015  14.083  66.042  1.00  0.00     0.000 HD 
HETATM   47  C   UNL     1      -9.689  10.243  66.396  1.00  0.00    -0.252 A  
HETATM   48  H   UNL     1     -10.126  13.903  65.030  1.00  0.00     0.000 HD 
HETATM   49  O   UNL     1      -6.805  13.222  66.384  1.00  0.00     1.202 OA 
HETATM   50  C   UNL     1      -8.997  12.489  65.921  1.00  0.00     0.258 A  
HETATM   51  C   UNL     1      -7.733  12.216  66.438  1.00  0.00     0.378 A  
HETATM   52  C   UNL     1      -7.427  10.953  66.940  1.00  0.00    -0.128 A  
HETATM   53  C   UNL     1      -9.988  11.518  65.911  1.00  0.00    -0.267 A  
ENDBRANCH  31  44
ENDBRANCH  28  29
ENDBRANCH  17  28
ENDBRANCH  15  16
ENDBRANCH  14  15
ENDBRANCH   4  14
TORSDOF 6
ENDMDL
MODEL      256
REMARK 921   NORMALIZED FREE ENERGY PREDICTED BY IDOCK:   74.16 KCAL/MOL
REMARK 922        TOTAL FREE ENERGY PREDICTED BY IDOCK:   98.69 KCAL/MOL
REMARK 923 INTER-LIGAND FREE ENERGY PREDICTED BY IDOCK:   42.57 KCAL/MOL
REMARK 924 INTRA-LIGAND FREE ENERGY PREDICTED BY IDOCK:   56.13 KCAL/MOL
REMARK 927      BINDING AFFINITY PREDICTED BY RF-SCORE:    0.00 PKD
ROOT
HETATM    1  C   UNL     1     -11.761   4.830  70.606  1.00  0.00     3.765 C  
HETATM    2  C   UNL     1     -11.771   6.335  70.891  1.00  0.00    -0.222 C  
HETATM    3  O   UNL     1     -10.392   6.673  71.035  1.00  0.00    -0.204 OA 
HETATM    4  C   UNL     1     -10.007   7.862  71.710  1.00  0.00    -0.177 C  
HETATM    5  H   UNL     1     -14.122   8.378  73.455  1.00  0.00     0.000 HD 
HETATM    6  C   UNL     1     -10.882   8.204  72.926  1.00  0.00    -0.240 C  
HETATM    7  C   UNL     1     -12.371   8.091  72.565  1.00  0.00    -0.194 C  
HETATM    8  O   UNL     1     -14.040   6.447  71.771  1.00  0.00    -0.045 OA 
HETATM    9  O   UNL     1     -10.587   7.315  74.020  1.00  0.00    -0.478 OA 
HETATM   10  H   UNL     1     -11.128   7.526  74.771  1.00  0.00     0.000 HD 
HETATM   11  H   UNL     1     -14.588   6.643  72.522  1.00  0.00     0.000 HD 
HETATM   12  O   UNL     1     -13.202   8.449  73.679  1.00  0.00     1.065 OA 
HETATM   13  C   UNL     1     -12.660   6.652  72.109  1.00  0.00    -0.126 C  
ENDROOT
BRANCH   4  14
HETATM   14  O   UNL     1      -9.876   9.020  70.882  1.00  0.00    -0.218 OA 
BRANCH  14  15
HETATM   15  C   UNL     1     -10.865   9.088  69.840  1.00  0.00    -0.218 C  
BRANCH  15  16
HETATM   16  C   UNL     1     -10.653   7.907  68.885  1.00  0.00    -0.145 C  
HETATM   17  C   UNL     1     -11.743   8.555  66.767  1.00  0.00     4.014 C  
HETATM   18  O   UNL     1     -11.767   7.758  67.970  1.00  0.00     1.219 OA 
HETATM   19  H   UNL     1      -8.302  10.243  67.669  1.00  0.00     0.000 HD 
HETATM   20  C   UNL     1     -10.418   8.213  66.047  1.00  0.00     1.141 C  
HETATM   21  H   UNL     1      -7.949   6.508  67.756  1.00  0.00     0.000 HD 
HETATM   22  O   UNL     1     -10.344   6.794  65.761  1.00  0.00     0.179 OA 
HETATM   23  C   UNL     1      -9.202   8.601  66.904  1.00  0.00    -0.159 C  
HETATM   24  H   UNL     1      -9.530   6.584  65.319  1.00  0.00     0.000 HD 
HETATM   25  O   UNL     1      -8.816   6.520  68.142  1.00  0.00    -0.117 OA 
HETATM   26  O   UNL     1      -9.054  10.003  67.140  1.00  0.00    -0.137 OA 
HETATM   27  C   UNL     1      -9.246   7.888  68.258  1.00  0.00    -0.137 C  
BRANCH  17  28
HETATM   28  O   UNL     1     -11.984   9.941  67.057  1.00  0.00     1.590 OA 
BRANCH  28  29
HETATM   29  C   UNL     1     -11.561  10.418  68.298  1.00  0.00    -0.021 C  
HETATM   30  O   UNL     1      -9.843  11.435  69.711  1.00  0.00     0.501 OA 
HETATM   31  C   UNL     1     -10.271  10.709  68.597  1.00  0.00    -0.182 C  
HETATM   32  C   UNL     1     -10.761  11.771  70.674  1.00  0.00     2.458 A  
HETATM   33  O   UNL     1     -13.689  11.231  68.834  1.00  0.00     3.518 OA 
HETATM   34  H   UNL     1     -14.531  10.570  70.802  1.00  0.00     0.000 HD 
HETATM   35  C   UNL     1     -10.357  12.510  71.785  1.00  0.00    11.006 A  
HETATM   36  C   UNL     1     -12.557  10.983  69.233  1.00  0.00     0.273 C  
HETATM   37  C   UNL     1     -11.283  12.783  72.799  1.00  0.00     8.690 A  
HETATM   38  C   UNL     1     -12.111  11.387  70.560  1.00  0.00    -0.487 A  
HETATM   39  O   UNL     1     -14.245  11.047  71.572  1.00  0.00     1.055 OA 
HETATM   40  C   UNL     1     -12.578  12.276  72.753  1.00  0.00     2.304 A  
HETATM   41  O   UNL     1     -10.969  13.558  73.878  1.00  0.00     4.530 OA 
HETATM   42  H   UNL     1     -11.598  13.743  74.566  1.00  0.00     0.000 HD 
HETATM   43  C   UNL     1     -12.995  11.581  71.628  1.00  0.00    -0.394 A  
BRANCH  31  44
HETATM   44  C   UNL     1      -9.213  10.343  67.644  1.00  0.00    -0.157 A  
HETATM   45  O   UNL     1      -5.922   9.934  65.150  1.00  0.00    -0.079 OA 
HETATM   46  H   UNL     1      -7.490  10.747  63.567  1.00  0.00     0.000 HD 
HETATM   47  C   UNL     1      -8.000   9.824  68.140  1.00  0.00    -0.100 A  
HETATM   48  H   UNL     1      -5.099   9.610  65.497  1.00  0.00     0.000 HD 
HETATM   49  O   UNL     1      -8.249  10.847  64.130  1.00  0.00     0.041 OA 
HETATM   50  C   UNL     1      -7.018  10.020  65.962  1.00  0.00    -0.110 A  
HETATM   51  C   UNL     1      -8.225  10.494  65.453  1.00  0.00    -0.152 A  
HETATM   52  C   UNL     1      -9.336  10.641  66.278  1.00  0.00    -0.199 A  
HETATM   53  C   UNL     1      -6.898   9.665  67.297  1.00  0.00    -0.083 A  
ENDBRANCH  31  44
ENDBRANCH  28  29
ENDBRANCH  17  28
ENDBRANCH  15  16
ENDBRANCH  14  15
ENDBRANCH   4  14
TORSDOF 6
ENDMDL
MODEL      257
REMARK 921   NORMALIZED FREE ENERGY PREDICTED BY IDOCK:   74.99 KCAL/MOL
REMARK 922        TOTAL FREE ENERGY PREDICTED BY IDOCK:   99.82 KCAL/MOL
REMARK 923 INTER-LIGAND FREE ENERGY PREDICTED BY IDOCK:   21.77 KCAL/MOL
REMARK 924 INTRA-LIGAND FREE ENERGY PREDICTED BY IDOCK:   78.04 KCAL/MOL
REMARK 927      BINDING AFFINITY PREDICTED BY RF-SCORE:    0.00 PKD
ROOT
HETATM    1  C   UNL     1      -6.218  11.684  71.297  1.00  0.00     1.279 C  
HETATM    2  C   UNL     1      -7.075  10.517  70.800  1.00  0.00     0.774 C  
HETATM    3  O   UNL     1      -8.285  10.626  71.551  1.00  0.00     3.458 OA 
HETATM    4  C   UNL     1      -9.151   9.509  71.691  1.00  0.00     0.838 C  
HETATM    5  H   UNL     1      -5.979   6.678  70.219  1.00  0.00     0.000 HD 
HETATM    6  C   UNL     1      -8.422   8.165  71.840  1.00  0.00    -0.150 C  
HETATM    7  C   UNL     1      -7.322   8.030  70.777  1.00  0.00    -0.057 C  
HETATM    8  O   UNL     1      -5.239   9.124  70.010  1.00  0.00    -0.028 OA 
HETATM    9  O   UNL     1      -7.834   8.057  73.151  1.00  0.00    -0.133 OA 
HETATM   10  H   UNL     1      -7.383   7.227  73.243  1.00  0.00     0.000 HD 
HETATM   11  H   UNL     1      -4.773   8.301  70.105  1.00  0.00     0.000 HD 
HETATM   12  O   UNL     1      -6.659   6.761  70.876  1.00  0.00    -0.050 OA 
HETATM   13  C   UNL     1      -6.320   9.182  70.954  1.00  0.00    -0.070 C  
ENDROOT
BRANCH   4  14
HETATM   14  O   UNL     1     -10.161   9.389  70.687  1.00  0.00    -0.250 OA 
BRANCH  14  15
HETATM   15  C   UNL     1      -9.998   8.228  69.853  1.00  0.00    -0.190 C  
BRANCH  15  16
HETATM   16  C   UNL     1      -8.620   8.295  69.183  1.00  0.00    -0.138 C  
HETATM   17  C   UNL     1      -9.003   9.309  66.965  1.00  0.00    -0.126 C  
HETATM   18  O   UNL     1      -8.720   8.129  67.747  1.00  0.00    -0.130 OA 
HETATM   19  H   UNL     1      -9.123  11.660  70.121  1.00  0.00     0.000 HD 
HETATM   20  C   UNL     1      -7.891  10.329  67.304  1.00  0.00    -0.103 C  
HETATM   21  H   UNL     1      -5.871   9.790  70.052  1.00  0.00     0.000 HD 
HETATM   22  O   UNL     1      -6.584   9.778  67.004  1.00  0.00    -0.069 OA 
HETATM   23  C   UNL     1      -7.926  10.719  68.791  1.00  0.00    -0.136 C  
HETATM   24  H   UNL     1      -5.901  10.405  67.213  1.00  0.00     0.000 HD 
HETATM   25  O   UNL     1      -6.396   9.059  69.748  1.00  0.00    -0.037 OA 
HETATM   26  O   UNL     1      -9.102  11.419  69.202  1.00  0.00     0.006 OA 
HETATM   27  C   UNL     1      -7.770   9.480  69.677  1.00  0.00    -0.112 C  
BRANCH  17  28
HETATM   28  O   UNL     1     -10.359   9.743  67.152  1.00  0.00    -0.222 OA 
BRANCH  28  29
HETATM   29  C   UNL     1     -10.632  10.530  68.271  1.00  0.00    -0.206 C  
HETATM   30  O   UNL     1     -10.692  12.714  69.369  1.00  0.00    -0.006 OA 
HETATM   31  C   UNL     1     -10.222  11.815  68.410  1.00  0.00    -0.206 C  
HETATM   32  C   UNL     1     -11.530  12.254  70.353  1.00  0.00     0.353 A  
HETATM   33  O   UNL     1     -12.477   9.226  68.875  1.00  0.00     2.064 OA 
HETATM   34  H   UNL     1     -12.504   8.468  70.983  1.00  0.00     0.000 HD 
HETATM   35  C   UNL     1     -12.025  13.139  71.310  1.00  0.00     0.388 A  
HETATM   36  C   UNL     1     -11.702  10.115  69.203  1.00  0.00     0.042 C  
HETATM   37  C   UNL     1     -12.818  12.646  72.354  1.00  0.00     0.169 A  
HETATM   38  C   UNL     1     -11.906  10.897  70.415  1.00  0.00    -0.449 A  
HETATM   39  O   UNL     1     -12.814   9.069  71.651  1.00  0.00    -0.325 OA 
HETATM   40  C   UNL     1     -13.065  11.285  72.495  1.00  0.00     0.734 A  
HETATM   41  O   UNL     1     -13.387  13.469  73.282  1.00  0.00    -0.366 OA 
HETATM   42  H   UNL     1     -13.925  13.134  73.990  1.00  0.00     0.000 HD 
HETATM   43  C   UNL     1     -12.613  10.408  71.520  1.00  0.00    -0.439 A  
BRANCH  31  44
HETATM   44  C   UNL     1      -9.285  12.381  67.428  1.00  0.00    -0.184 A  
HETATM   45  O   UNL     1      -6.181  14.013  65.210  1.00  0.00     9.774 OA 
HETATM   46  H   UNL     1      -7.424  15.991  65.624  1.00  0.00     0.000 HD 
HETATM   47  C   UNL     1      -8.277  11.555  66.893  1.00  0.00    -0.167 A  
HETATM   48  H   UNL     1      -5.489  13.454  64.877  1.00  0.00     0.000 HD 
HETATM   49  O   UNL     1      -8.137  15.629  66.135  1.00  0.00    -0.024 OA 
HETATM   50  C   UNL     1      -7.228  13.466  65.898  1.00  0.00     4.711 A  
HETATM   51  C   UNL     1      -8.243  14.286  66.386  1.00  0.00     0.766 A  
HETATM   52  C   UNL     1      -9.289  13.754  67.135  1.00  0.00    -0.240 A  
HETATM   53  C   UNL     1      -7.244  12.099  66.128  1.00  0.00     1.032 A  
ENDBRANCH  31  44
ENDBRANCH  28  29
ENDBRANCH  17  28
ENDBRANCH  15  16
ENDBRANCH  14  15
ENDBRANCH   4  14
TORSDOF 6
ENDMDL
MODEL      258
REMARK 921   NORMALIZED FREE ENERGY PREDICTED BY IDOCK:   77.27 KCAL/MOL
REMARK 922        TOTAL FREE ENERGY PREDICTED BY IDOCK:  102.90 KCAL/MOL
REMARK 923 INTER-LIGAND FREE ENERGY PREDICTED BY IDOCK:   27.37 KCAL/MOL
REMARK 924 INTRA-LIGAND FREE ENERGY PREDICTED BY IDOCK:   75.53 KCAL/MOL
REMARK 927      BINDING AFFINITY PREDICTED BY RF-SCORE:    0.00 PKD
ROOT
HETATM    1  C   UNL     1      -6.987  10.340  63.609  1.00  0.00    -0.070 C  
HETATM    2  C   UNL     1      -7.860  11.104  64.610  1.00  0.00     0.677 C  
HETATM    3  O   UNL     1      -7.005  12.138  65.100  1.00  0.00     2.586 OA 
HETATM    4  C   UNL     1      -7.293  12.788  66.330  1.00  0.00     1.341 C  
HETATM    5  H   UNL     1     -10.258   9.609  67.488  1.00  0.00     0.000 HD 
HETATM    6  C   UNL     1      -7.862  11.859  67.413  1.00  0.00    -0.158 C  
HETATM    7  C   UNL     1      -8.990  10.990  66.835  1.00  0.00    -0.157 C  
HETATM    8  O   UNL     1      -9.408   9.287  65.091  1.00  0.00    -0.354 OA 
HETATM    9  O   UNL     1      -6.825  11.008  67.937  1.00  0.00    -0.066 OA 
HETATM   10  H   UNL     1      -7.177  10.433  68.606  1.00  0.00     0.000 HD 
HETATM   11  H   UNL     1      -9.756   8.698  65.751  1.00  0.00     0.000 HD 
HETATM   12  O   UNL     1      -9.561  10.146  67.845  1.00  0.00    -0.147 OA 
HETATM   13  C   UNL     1      -8.424  10.150  65.680  1.00  0.00    -0.153 C  
ENDROOT
BRANCH   4  14
HETATM   14  O   UNL     1      -8.113  13.953  66.229  1.00  0.00     0.788 OA 
BRANCH  14  15
HETATM   15  C   UNL     1      -9.475  13.659  65.873  1.00  0.00    -0.032 C  
BRANCH  15  16
HETATM   16  C   UNL     1     -10.123  12.871  67.018  1.00  0.00    -0.245 C  
HETATM   17  C   UNL     1      -9.168  13.802  69.095  1.00  0.00     0.408 C  
HETATM   18  O   UNL     1      -9.217  12.722  68.139  1.00  0.00    -0.204 OA 
HETATM   19  H   UNL     1     -11.867  15.936  67.181  1.00  0.00     0.000 HD 
HETATM   20  C   UNL     1     -10.615  13.993  69.607  1.00  0.00     0.186 C  
HETATM   21  H   UNL     1     -13.228  12.514  67.901  1.00  0.00     0.000 HD 
HETATM   22  O   UNL     1     -11.115  12.766  70.196  1.00  0.00    -0.319 OA 
HETATM   23  C   UNL     1     -11.560  14.405  68.466  1.00  0.00    -0.314 C  
HETATM   24  H   UNL     1     -12.004  12.883  70.510  1.00  0.00     0.000 HD 
HETATM   25  O   UNL     1     -12.350  12.215  67.696  1.00  0.00    -0.325 OA 
HETATM   26  O   UNL     1     -11.283  15.681  67.886  1.00  0.00    -0.336 OA 
HETATM   27  C   UNL     1     -11.547  13.357  67.349  1.00  0.00    -0.354 C  
BRANCH  17  28
HETATM   28  O   UNL     1      -8.519  14.957  68.542  1.00  0.00    -0.149 OA 
BRANCH  28  29
HETATM   29  C   UNL     1      -9.293  15.813  67.757  1.00  0.00    -0.206 C  
HETATM   30  O   UNL     1     -11.264  17.232  67.470  1.00  0.00    -0.074 OA 
HETATM   31  C   UNL     1     -10.560  16.183  68.066  1.00  0.00    -0.304 C  
HETATM   32  C   UNL     1     -10.713  17.865  66.384  1.00  0.00    -0.109 A  
HETATM   33  O   UNL     1      -7.412  16.758  66.738  1.00  0.00    -0.191 OA 
HETATM   34  H   UNL     1      -7.407  16.777  64.497  1.00  0.00     0.000 HD 
HETATM   35  C   UNL     1     -11.392  18.925  65.785  1.00  0.00     1.030 A  
HETATM   36  C   UNL     1      -8.632  16.653  66.736  1.00  0.00    -0.236 C  
HETATM   37  C   UNL     1     -10.859  19.516  64.633  1.00  0.00     2.505 A  
HETATM   38  C   UNL     1      -9.467  17.467  65.863  1.00  0.00    -0.022 A  
HETATM   39  O   UNL     1      -7.888  17.479  64.074  1.00  0.00     7.952 OA 
HETATM   40  C   UNL     1      -9.704  19.024  64.035  1.00  0.00     9.928 A  
HETATM   41  O   UNL     1     -11.439  20.600  64.039  1.00  0.00     0.485 OA 
HETATM   42  H   UNL     1     -11.077  21.000  63.257  1.00  0.00     0.000 HD 
HETATM   43  C   UNL     1      -9.002  18.000  64.654  1.00  0.00     5.795 A  
BRANCH  31  44
HETATM   44  C   UNL     1     -11.248  15.524  69.186  1.00  0.00    -0.300 A  
HETATM   45  O   UNL     1     -13.711  14.153  72.232  1.00  0.00    -0.435 OA 
HETATM   46  H   UNL     1     -12.222  15.475  73.522  1.00  0.00     0.000 HD 
HETATM   47  C   UNL     1     -12.299  14.628  68.907  1.00  0.00    -0.069 A  
HETATM   48  H   UNL     1     -14.435  13.572  72.033  1.00  0.00     0.000 HD 
HETATM   49  O   UNL     1     -11.655  15.798  72.833  1.00  0.00    -0.413 OA 
HETATM   50  C   UNL     1     -12.871  14.564  71.234  1.00  0.00    -0.332 A  
HETATM   51  C   UNL     1     -11.809  15.416  71.526  1.00  0.00    -0.387 A  
HETATM   52  C   UNL     1     -10.977  15.888  70.514  1.00  0.00    -0.346 A  
HETATM   53  C   UNL     1     -13.115  14.149  69.934  1.00  0.00     0.496 A  
ENDBRANCH  31  44
ENDBRANCH  28  29
ENDBRANCH  17  28
ENDBRANCH  15  16
ENDBRANCH  14  15
ENDBRANCH   4  14
TORSDOF 6
ENDMDL
MODEL      259
REMARK 921   NORMALIZED FREE ENERGY PREDICTED BY IDOCK:   85.80 KCAL/MOL
REMARK 922        TOTAL FREE ENERGY PREDICTED BY IDOCK:  114.41 KCAL/MOL
REMARK 923 INTER-LIGAND FREE ENERGY PREDICTED BY IDOCK:   -2.81 KCAL/MOL
REMARK 924 INTRA-LIGAND FREE ENERGY PREDICTED BY IDOCK:  117.23 KCAL/MOL
REMARK 927      BINDING AFFINITY PREDICTED BY RF-SCORE:    0.00 PKD
ROOT
HETATM    1  C   UNL     1      -5.536  11.813  66.089  1.00  0.00     0.447 C  
HETATM    2  C   UNL     1      -6.101  10.589  65.362  1.00  0.00    -0.122 C  
HETATM    3  O   UNL     1      -5.752  10.803  63.994  1.00  0.00    -0.084 OA 
HETATM    4  C   UNL     1      -6.446  10.123  62.958  1.00  0.00    -0.136 C  
HETATM    5  H   UNL     1      -9.743   8.901  65.765  1.00  0.00     0.000 HD 
HETATM    6  C   UNL     1      -7.951   9.952  63.217  1.00  0.00    -0.151 C  
HETATM    7  C   UNL     1      -8.193   9.430  64.641  1.00  0.00    -0.148 C  
HETATM    8  O   UNL     1      -7.810  10.037  67.008  1.00  0.00    -0.101 OA 
HETATM    9  O   UNL     1      -8.633  11.210  63.048  1.00  0.00    -0.414 OA 
HETATM   10  H   UNL     1      -9.563  11.105  63.209  1.00  0.00     0.000 HD 
HETATM   11  H   UNL     1      -8.739   9.943  67.182  1.00  0.00     0.000 HD 
HETATM   12  O   UNL     1      -9.593   9.224  64.885  1.00  0.00    -0.117 OA 
HETATM   13  C   UNL     1      -7.608  10.436  65.643  1.00  0.00    -0.150 C  
ENDROOT
BRANCH   4  14
HETATM   14  O   UNL     1      -5.888   8.866  62.571  1.00  0.00    -0.089 OA 
BRANCH  14  15
HETATM   15  C   UNL     1      -6.782   7.759  62.782  1.00  0.00    -0.076 C  
BRANCH  15  16
HETATM   16  C   UNL     1      -6.301   6.965  64.003  1.00  0.00    -0.039 C  
HETATM   17  C   UNL     1      -6.692   8.429  65.951  1.00  0.00    -0.053 C  
HETATM   18  O   UNL     1      -5.757   7.838  65.024  1.00  0.00    -0.037 OA 
HETATM   19  H   UNL     1      -9.806   6.677  64.299  1.00  0.00     0.000 HD 
HETATM   20  C   UNL     1      -7.450   7.253  66.610  1.00  0.00    -0.088 C  
HETATM   21  H   UNL     1      -7.236   4.102  65.216  1.00  0.00     0.000 HD 
HETATM   22  O   UNL     1      -6.523   6.354  67.269  1.00  0.00    -0.048 OA 
HETATM   23  C   UNL     1      -8.249   6.452  65.569  1.00  0.00    -0.142 C  
HETATM   24  H   UNL     1      -6.989   5.632  67.674  1.00  0.00     0.000 HD 
HETATM   25  O   UNL     1      -6.606   4.750  64.925  1.00  0.00    -0.041 OA 
HETATM   26  O   UNL     1      -9.312   7.172  64.942  1.00  0.00     0.831 OA 
HETATM   27  C   UNL     1      -7.323   5.914  64.475  1.00  0.00    -0.067 C  
BRANCH  17  28
HETATM   28  O   UNL     1      -7.489   9.438  65.313  1.00  0.00    -0.096 OA 
BRANCH  28  29
HETATM   29  C   UNL     1      -8.068  10.410  66.130  1.00  0.00    -0.139 C  
HETATM   30  O   UNL     1      -8.121  11.664  68.229  1.00  0.00    -0.135 OA 
HETATM   31  C   UNL     1      -7.783  10.557  67.447  1.00  0.00    -0.102 C  
HETATM   32  C   UNL     1      -8.928  12.633  67.689  1.00  0.00    -0.186 A  
HETATM   33  O   UNL     1      -8.604  11.779  64.310  1.00  0.00     0.673 OA 
HETATM   34  H   UNL     1     -10.738  12.447  64.172  1.00  0.00     0.000 HD 
HETATM   35  C   UNL     1      -9.263  13.754  68.447  1.00  0.00    -0.182 A  
HETATM   36  C   UNL     1      -8.746  11.567  65.509  1.00  0.00     0.105 C  
HETATM   37  C   UNL     1     -10.149  14.700  67.916  1.00  0.00    -0.225 A  
HETATM   38  C   UNL     1      -9.426  12.519  66.376  1.00  0.00    -0.233 A  
HETATM   39  O   UNL     1     -10.988  13.195  64.703  1.00  0.00    -0.320 OA 
HETATM   40  C   UNL     1     -10.754  14.511  66.678  1.00  0.00    -0.305 A  
HETATM   41  O   UNL     1     -10.463  15.852  68.578  1.00  0.00    -0.227 OA 
HETATM   42  H   UNL     1     -11.064  16.493  68.217  1.00  0.00     0.000 HD 
HETATM   43  C   UNL     1     -10.388  13.420  65.903  1.00  0.00    -0.290 A  
BRANCH  31  44
HETATM   44  C   UNL     1      -6.962   9.541  68.123  1.00  0.00    -0.078 A  
HETATM   45  O   UNL     1      -5.128   6.204  69.773  1.00  0.00    -0.011 OA 
HETATM   46  H   UNL     1      -6.313   6.962  71.684  1.00  0.00     0.000 HD 
HETATM   47  C   UNL     1      -6.079   8.757  67.354  1.00  0.00    -0.051 A  
HETATM   48  H   UNL     1      -4.557   5.664  69.240  1.00  0.00     0.000 HD 
HETATM   49  O   UNL     1      -6.740   7.726  71.315  1.00  0.00    -0.044 OA 
HETATM   50  C   UNL     1      -5.691   7.331  69.241  1.00  0.00    -0.019 A  
HETATM   51  C   UNL     1      -6.529   8.124  70.022  1.00  0.00    -0.032 A  
HETATM   52  C   UNL     1      -7.155   9.244  69.481  1.00  0.00    -0.060 A  
HETATM   53  C   UNL     1      -5.444   7.647  67.914  1.00  0.00    -0.031 A  
ENDBRANCH  31  44
ENDBRANCH  28  29
ENDBRANCH  17  28
ENDBRANCH  15  16
ENDBRANCH  14  15
ENDBRANCH   4  14
TORSDOF 6
ENDMDL
MODEL      260
REMARK 921   NORMALIZED FREE ENERGY PREDICTED BY IDOCK:   89.29 KCAL/MOL
REMARK 922        TOTAL FREE ENERGY PREDICTED BY IDOCK:  119.14 KCAL/MOL
REMARK 923 INTER-LIGAND FREE ENERGY PREDICTED BY IDOCK:   62.23 KCAL/MOL
REMARK 924 INTRA-LIGAND FREE ENERGY PREDICTED BY IDOCK:   56.90 KCAL/MOL
REMARK 927      BINDING AFFINITY PREDICTED BY RF-SCORE:    0.00 PKD
ROOT
HETATM    1  C   UNL     1      -5.781  11.274  73.567  1.00  0.00     1.676 C  
HETATM    2  C   UNL     1      -6.869  12.036  72.803  1.00  0.00     8.212 C  
HETATM    3  O   UNL     1      -6.758  11.554  71.463  1.00  0.00     1.917 OA 
HETATM    4  C   UNL     1      -7.292  12.304  70.381  1.00  0.00     2.571 C  
HETATM    5  H   UNL     1      -7.730  15.975  72.944  1.00  0.00     0.000 HD 
HETATM    6  C   UNL     1      -7.132  13.824  70.531  1.00  0.00     1.114 C  
HETATM    7  C   UNL     1      -7.566  14.273  71.934  1.00  0.00     4.779 C  
HETATM    8  O   UNL     1      -7.013  13.936  74.322  1.00  0.00     1.048 OA 
HETATM    9  O   UNL     1      -5.761  14.206  70.310  1.00  0.00    -0.113 OA 
HETATM   10  H   UNL     1      -5.661  15.146  70.403  1.00  0.00     0.000 HD 
HETATM   11  H   UNL     1      -6.903  14.873  74.428  1.00  0.00     0.000 HD 
HETATM   12  O   UNL     1      -7.462  15.697  72.076  1.00  0.00     4.438 OA 
HETATM   13  C   UNL     1      -6.690  13.557  72.975  1.00  0.00     3.817 C  
ENDROOT
BRANCH   4  14
HETATM   14  O   UNL     1      -8.646  12.003  70.039  1.00  0.00     2.129 OA 
BRANCH  14  15
HETATM   15  C   UNL     1      -9.246  11.021  70.902  1.00  0.00     4.803 C  
BRANCH  15  16
HETATM   16  C   UNL     1     -10.739  11.340  71.046  1.00  0.00     2.716 C  
HETATM   17  C   UNL     1     -11.583  11.649  68.747  1.00  0.00    -0.313 C  
HETATM   18  O   UNL     1     -11.193  12.240  70.005  1.00  0.00    -0.014 OA 
HETATM   19  H   UNL     1     -10.826   7.982  69.963  1.00  0.00     0.000 HD 
HETATM   20  C   UNL     1     -12.690  10.621  69.077  1.00  0.00     1.078 C  
HETATM   21  H   UNL     1     -13.186   9.652  72.353  1.00  0.00     0.000 HD 
HETATM   22  O   UNL     1     -13.804  11.266  69.744  1.00  0.00     2.008 OA 
HETATM   23  C   UNL     1     -12.158   9.502  69.988  1.00  0.00     0.273 C  
HETATM   24  H   UNL     1     -14.484  10.635  69.946  1.00  0.00     0.000 HD 
HETATM   25  O   UNL     1     -12.656  10.426  72.204  1.00  0.00    -0.281 OA 
HETATM   26  O   UNL     1     -11.154   8.673  69.400  1.00  0.00    -0.086 OA 
HETATM   27  C   UNL     1     -11.599  10.085  71.288  1.00  0.00    -0.350 C  
BRANCH  17  28
HETATM   28  O   UNL     1     -10.440  11.162  68.025  1.00  0.00    -0.176 OA 
BRANCH  28  29
HETATM   29  C   UNL     1      -9.564  10.317  68.707  1.00  0.00    -0.175 C  
HETATM   30  O   UNL     1      -7.289   9.659  69.316  1.00  0.00    -0.071 OA 
HETATM   31  C   UNL     1      -8.227  10.277  68.486  1.00  0.00    -0.111 C  
HETATM   32  C   UNL     1      -7.734   8.903  70.370  1.00  0.00    -0.098 A  
HETATM   33  O   UNL     1     -11.029  10.076  70.515  1.00  0.00    -0.290 OA 
HETATM   34  H   UNL     1     -11.509   7.974  71.124  1.00  0.00     0.000 HD 
HETATM   35  C   UNL     1      -6.814   8.292  71.221  1.00  0.00    -0.059 A  
HETATM   36  C   UNL     1     -10.004   9.686  69.969  1.00  0.00    -0.247 C  
HETATM   37  C   UNL     1      -7.277   7.462  72.248  1.00  0.00    -0.068 A  
HETATM   38  C   UNL     1      -9.111   8.733  70.615  1.00  0.00    -0.221 A  
HETATM   39  O   UNL     1     -10.878   7.535  71.683  1.00  0.00    -0.219 OA 
HETATM   40  C   UNL     1      -8.630   7.178  72.395  1.00  0.00    -0.133 A  
HETATM   41  O   UNL     1      -6.432   6.889  73.155  1.00  0.00    -0.062 OA 
HETATM   42  H   UNL     1      -6.746   6.326  73.852  1.00  0.00     0.000 HD 
HETATM   43  C   UNL     1      -9.551   7.819  71.580  1.00  0.00    -0.155 A  
BRANCH  31  44
HETATM   44  C   UNL     1      -7.664  11.020  67.349  1.00  0.00    -0.114 A  
HETATM   45  O   UNL     1      -6.749  13.357  64.044  1.00  0.00    14.416 OA 
HETATM   46  H   UNL     1      -6.943  11.251  62.969  1.00  0.00     0.000 HD 
HETATM   47  C   UNL     1      -7.400  12.396  67.497  1.00  0.00    -0.146 A  
HETATM   48  H   UNL     1      -6.601  14.289  64.147  1.00  0.00     0.000 HD 
HETATM   49  O   UNL     1      -7.156  10.708  63.718  1.00  0.00     0.049 OA 
HETATM   50  C   UNL     1      -7.001  12.581  65.141  1.00  0.00     5.972 A  
HETATM   51  C   UNL     1      -7.218  11.213  64.990  1.00  0.00     0.717 A  
HETATM   52  C   UNL     1      -7.531  10.417  66.088  1.00  0.00    -0.131 A  
HETATM   53  C   UNL     1      -7.071  13.180  66.390  1.00  0.00     2.129 A  
ENDBRANCH  31  44
ENDBRANCH  28  29
ENDBRANCH  17  28
ENDBRANCH  15  16
ENDBRANCH  14  15
ENDBRANCH   4  14
TORSDOF 6
ENDMDL
MODEL      261
REMARK 921   NORMALIZED FREE ENERGY PREDICTED BY IDOCK:   92.10 KCAL/MOL
REMARK 922        TOTAL FREE ENERGY PREDICTED BY IDOCK:  122.93 KCAL/MOL
REMARK 923 INTER-LIGAND FREE ENERGY PREDICTED BY IDOCK:   13.29 KCAL/MOL
REMARK 924 INTRA-LIGAND FREE ENERGY PREDICTED BY IDOCK:  109.64 KCAL/MOL
REMARK 927      BINDING AFFINITY PREDICTED BY RF-SCORE:    0.00 PKD
ROOT
HETATM    1  C   UNL     1      -6.723   6.342  65.890  1.00  0.00    -0.049 C  
HETATM    2  C   UNL     1      -6.963   7.345  67.023  1.00  0.00    -0.082 C  
HETATM    3  O   UNL     1      -5.672   7.897  67.281  1.00  0.00    -0.035 OA 
HETATM    4  C   UNL     1      -5.396   8.539  68.518  1.00  0.00    -0.033 C  
HETATM    5  H   UNL     1      -9.111   6.836  70.400  1.00  0.00     0.000 HD 
HETATM    6  C   UNL     1      -6.065   7.876  69.731  1.00  0.00    -0.026 C  
HETATM    7  C   UNL     1      -7.546   7.592  69.440  1.00  0.00    -0.095 C  
HETATM    8  O   UNL     1      -8.995   6.319  67.891  1.00  0.00    -0.116 OA 
HETATM    9  O   UNL     1      -5.397   6.641  70.057  1.00  0.00    -0.014 OA 
HETATM   10  H   UNL     1      -5.811   6.231  70.807  1.00  0.00     0.000 HD 
HETATM   11  H   UNL     1      -9.412   5.895  68.632  1.00  0.00     0.000 HD 
HETATM   12  O   UNL     1      -8.195   7.011  70.580  1.00  0.00    -0.116 OA 
HETATM   13  C   UNL     1      -7.640   6.657  68.224  1.00  0.00    -0.104 C  
ENDROOT
BRANCH   4  14
HETATM   14  O   UNL     1      -5.652   9.945  68.548  1.00  0.00    -0.039 OA 
BRANCH  14  15
HETATM   15  C   UNL     1      -6.570  10.377  67.527  1.00  0.00    -0.066 C  
BRANCH  15  16
HETATM   16  C   UNL     1      -7.410  11.534  68.081  1.00  0.00    -0.094 C  
HETATM   17  C   UNL     1      -8.576  10.628  70.059  1.00  0.00     0.663 C  
HETATM   18  O   UNL     1      -8.640  11.057  68.683  1.00  0.00    -0.147 OA 
HETATM   19  H   UNL     1      -4.735  11.428  70.381  1.00  0.00     0.000 HD 
HETATM   20  C   UNL     1      -8.026  11.829  70.862  1.00  0.00     6.377 C  
HETATM   21  H   UNL     1      -6.572  14.472  69.182  1.00  0.00     0.000 HD 
HETATM   22  O   UNL     1      -8.878  12.990  70.692  1.00  0.00     4.917 OA 
HETATM   23  C   UNL     1      -6.604  12.199  70.409  1.00  0.00     0.687 C  
HETATM   24  H   UNL     1      -8.540  13.728  71.186  1.00  0.00     0.000 HD 
HETATM   25  O   UNL     1      -7.082  13.857  68.668  1.00  0.00    -0.097 OA 
HETATM   26  O   UNL     1      -5.614  11.200  70.661  1.00  0.00    -0.116 OA 
HETATM   27  C   UNL     1      -6.583  12.530  68.915  1.00  0.00    -0.095 C  
BRANCH  17  28
HETATM   28  O   UNL     1      -7.867   9.385  70.184  1.00  0.00    -0.104 OA 
BRANCH  28  29
HETATM   29  C   UNL     1      -8.608   8.209  70.064  1.00  0.00    -0.129 C  
HETATM   30  O   UNL     1      -9.338   6.283  68.746  1.00  0.00    -0.125 OA 
HETATM   31  C   UNL     1      -8.845   7.582  68.886  1.00  0.00    -0.135 C  
HETATM   32  C   UNL     1      -9.759   5.611  69.866  1.00  0.00    -0.168 A  
HETATM   33  O   UNL     1      -8.237   7.618  72.297  1.00  0.00    -0.099 OA 
HETATM   34  H   UNL     1     -10.060   7.137  73.507  1.00  0.00     0.000 HD 
HETATM   35  C   UNL     1     -10.238   4.307  69.751  1.00  0.00     0.188 A  
HETATM   36  C   UNL     1      -8.858   7.387  71.267  1.00  0.00    -0.137 C  
HETATM   37  C   UNL     1     -10.735   3.657  70.887  1.00  0.00     1.607 A  
HETATM   38  C   UNL     1      -9.714   6.215  71.138  1.00  0.00    -0.199 A  
HETATM   39  O   UNL     1     -10.414   6.260  73.419  1.00  0.00    -0.221 OA 
HETATM   40  C   UNL     1     -10.826   4.309  72.112  1.00  0.00     0.134 A  
HETATM   41  O   UNL     1     -11.155   2.359  70.854  1.00  0.00     2.556 OA 
HETATM   42  H   UNL     1     -11.493   1.918  71.625  1.00  0.00     0.000 HD 
HETATM   43  C   UNL     1     -10.309   5.589  72.240  1.00  0.00    -0.210 A  
BRANCH  31  44
HETATM   44  C   UNL     1      -8.470   8.248  67.630  1.00  0.00    -0.130 A  
HETATM   45  O   UNL     1      -8.115  10.091  63.929  1.00  0.00    -0.141 OA 
HETATM   46  H   UNL     1      -7.485   7.889  63.310  1.00  0.00     0.000 HD 
HETATM   47  C   UNL     1      -8.704   9.630  67.494  1.00  0.00    -0.126 A  
HETATM   48  H   UNL     1      -8.303  11.018  63.839  1.00  0.00     0.000 HD 
HETATM   49  O   UNL     1      -7.567   7.457  64.152  1.00  0.00    -0.095 OA 
HETATM   50  C   UNL     1      -8.185   9.497  65.158  1.00  0.00    -0.133 A  
HETATM   51  C   UNL     1      -7.909   8.138  65.289  1.00  0.00    -0.115 A  
HETATM   52  C   UNL     1      -8.028   7.504  66.524  1.00  0.00    -0.107 A  
HETATM   53  C   UNL     1      -8.564  10.256  66.254  1.00  0.00    -0.144 A  
ENDBRANCH  31  44
ENDBRANCH  28  29
ENDBRANCH  17  28
ENDBRANCH  15  16
ENDBRANCH  14  15
ENDBRANCH   4  14
TORSDOF 6
ENDMDL
MODEL      262
REMARK 921   NORMALIZED FREE ENERGY PREDICTED BY IDOCK:  119.70 KCAL/MOL
REMARK 922        TOTAL FREE ENERGY PREDICTED BY IDOCK:  160.20 KCAL/MOL
REMARK 923 INTER-LIGAND FREE ENERGY PREDICTED BY IDOCK:  107.38 KCAL/MOL
REMARK 924 INTRA-LIGAND FREE ENERGY PREDICTED BY IDOCK:   52.83 KCAL/MOL
REMARK 927      BINDING AFFINITY PREDICTED BY RF-SCORE:    0.00 PKD
ROOT
HETATM    1  C   UNL     1     -13.485  16.462  64.932  1.00  0.00     5.086 C  
HETATM    2  C   UNL     1     -12.171  15.707  65.156  1.00  0.00     0.612 C  
HETATM    3  O   UNL     1     -11.993  15.728  66.573  1.00  0.00     0.539 OA 
HETATM    4  C   UNL     1     -10.710  15.509  67.142  1.00  0.00    -0.315 C  
HETATM    5  H   UNL     1      -8.683  16.113  63.171  1.00  0.00     0.000 HD 
HETATM    6  C   UNL     1      -9.555  16.129  66.340  1.00  0.00    -0.287 C  
HETATM    7  C   UNL     1      -9.693  15.788  64.849  1.00  0.00     0.751 C  
HETATM    8  O   UNL     1     -11.236  16.088  62.939  1.00  0.00     1.767 OA 
HETATM    9  O   UNL     1      -9.544  17.560  66.504  1.00  0.00    -0.266 OA 
HETATM   10  H   UNL     1      -8.830  17.943  66.008  1.00  0.00     0.000 HD 
HETATM   11  H   UNL     1     -10.533  16.479  62.434  1.00  0.00     0.000 HD 
HETATM   12  O   UNL     1      -8.597  16.324  64.093  1.00  0.00     6.543 OA 
HETATM   13  C   UNL     1     -11.031  16.343  64.338  1.00  0.00     0.202 C  
ENDROOT
BRANCH   4  14
HETATM   14  O   UNL     1     -10.398  14.148  67.443  1.00  0.00    -0.253 OA 
BRANCH  14  15
HETATM   15  C   UNL     1     -11.563  13.339  67.686  1.00  0.00    -0.346 C  
BRANCH  15  16
HETATM   16  C   UNL     1     -11.612  12.986  69.178  1.00  0.00    -0.316 C  
HETATM   17  C   UNL     1      -9.261  12.905  69.926  1.00  0.00     2.944 C  
HETATM   18  O   UNL     1     -10.466  12.193  69.574  1.00  0.00     0.171 OA 
HETATM   19  H   UNL     1     -10.879  16.437  69.284  1.00  0.00     0.000 HD 
HETATM   20  C   UNL     1      -9.650  13.878  71.064  1.00  0.00     5.489 C  
HETATM   21  H   UNL     1     -12.986  14.494  71.705  1.00  0.00     0.000 HD 
HETATM   22  O   UNL     1     -10.201  13.151  72.190  1.00  0.00     8.568 OA 
HETATM   23  C   UNL     1     -10.693  14.903  70.589  1.00  0.00     0.069 C  
HETATM   24  H   UNL     1     -10.440  13.748  72.889  1.00  0.00     0.000 HD 
HETATM   25  O   UNL     1     -12.780  13.748  71.155  1.00  0.00    -0.337 OA 
HETATM   26  O   UNL     1     -10.235  15.803  69.577  1.00  0.00    -0.234 OA 
HETATM   27  C   UNL     1     -11.948  14.197  70.070  1.00  0.00    -0.340 C  
BRANCH  17  28
HETATM   28  O   UNL     1      -8.641  13.480  68.765  1.00  0.00    -0.059 OA 
BRANCH  28  29
HETATM   29  C   UNL     1      -8.055  14.738  68.909  1.00  0.00    -0.160 C  
HETATM   30  O   UNL     1      -7.437  16.914  67.979  1.00  0.00    -0.165 OA 
HETATM   31  C   UNL     1      -7.764  15.560  67.871  1.00  0.00    -0.130 C  
HETATM   32  C   UNL     1      -7.247  17.451  69.227  1.00  0.00    -0.102 A  
HETATM   33  O   UNL     1      -8.766  14.937  71.129  1.00  0.00     2.198 OA 
HETATM   34  H   UNL     1      -7.181  15.434  72.633  1.00  0.00     0.000 HD 
HETATM   35  C   UNL     1      -6.937  18.804  69.357  1.00  0.00    -0.180 A  
HETATM   36  C   UNL     1      -8.063  15.392  70.235  1.00  0.00     0.803 C  
HETATM   37  C   UNL     1      -6.670  19.327  70.628  1.00  0.00     0.570 A  
HETATM   38  C   UNL     1      -7.363  16.660  70.386  1.00  0.00     1.965 A  
HETATM   39  O   UNL     1      -6.940  16.350  72.715  1.00  0.00     6.735 OA 
HETATM   40  C   UNL     1      -6.640  18.511  71.754  1.00  0.00     2.951 A  
HETATM   41  O   UNL     1      -6.427  20.655  70.830  1.00  0.00    -0.412 OA 
HETATM   42  H   UNL     1      -6.246  21.009  71.693  1.00  0.00     0.000 HD 
HETATM   43  C   UNL     1      -6.993  17.176  71.635  1.00  0.00     5.828 A  
BRANCH  31  44
HETATM   44  C   UNL     1      -7.894  15.055  66.496  1.00  0.00     0.498 A  
HETATM   45  O   UNL     1      -8.377  12.989  62.930  1.00  0.00     4.215 OA 
HETATM   46  H   UNL     1      -6.007  13.030  63.019  1.00  0.00     0.000 HD 
HETATM   47  C   UNL     1      -9.182  14.818  65.976  1.00  0.00    -0.175 A  
HETATM   48  H   UNL     1      -9.249  12.808  62.600  1.00  0.00     0.000 HD 
HETATM   49  O   UNL     1      -5.885  13.498  63.836  1.00  0.00    14.344 OA 
HETATM   50  C   UNL     1      -8.220  13.713  64.079  1.00  0.00    10.284 A  
HETATM   51  C   UNL     1      -6.941  13.981  64.563  1.00  0.00    19.173 A  
HETATM   52  C   UNL     1      -6.763  14.669  65.760  1.00  0.00     7.629 A  
HETATM   53  C   UNL     1      -9.345  14.142  64.766  1.00  0.00     1.518 A  
ENDBRANCH  31  44
ENDBRANCH  28  29
ENDBRANCH  17  28
ENDBRANCH  15  16
ENDBRANCH  14  15
ENDBRANCH   4  14
TORSDOF 6
ENDMDL
MODEL      263
REMARK 921   NORMALIZED FREE ENERGY PREDICTED BY IDOCK:  123.67 KCAL/MOL
REMARK 922        TOTAL FREE ENERGY PREDICTED BY IDOCK:  165.57 KCAL/MOL
REMARK 923 INTER-LIGAND FREE ENERGY PREDICTED BY IDOCK:   79.99 KCAL/MOL
REMARK 924 INTRA-LIGAND FREE ENERGY PREDICTED BY IDOCK:   85.58 KCAL/MOL
REMARK 927      BINDING AFFINITY PREDICTED BY RF-SCORE:    0.00 PKD
ROOT
HETATM    1  C   UNL     1      -7.910  14.616  65.230  1.00  0.00     6.916 C  
HETATM    2  C   UNL     1      -8.225  14.912  66.699  1.00  0.00     0.072 C  
HETATM    3  O   UNL     1      -7.314  15.954  67.050  1.00  0.00    -0.207 OA 
HETATM    4  C   UNL     1      -7.000  16.211  68.411  1.00  0.00    -0.129 C  
HETATM    5  H   UNL     1      -8.779  12.290  69.715  1.00  0.00     0.000 HD 
HETATM    6  C   UNL     1      -6.895  14.949  69.280  1.00  0.00    -0.148 C  
HETATM    7  C   UNL     1      -8.098  14.026  69.032  1.00  0.00     0.087 C  
HETATM    8  O   UNL     1      -9.204  12.745  67.228  1.00  0.00    -0.189 OA 
HETATM    9  O   UNL     1      -5.678  14.237  68.982  1.00  0.00    -0.086 OA 
HETATM   10  H   UNL     1      -5.613  13.456  69.519  1.00  0.00     0.000 HD 
HETATM   11  H   UNL     1      -9.139  11.954  67.751  1.00  0.00     0.000 HD 
HETATM   12  O   UNL     1      -8.036  12.861  69.868  1.00  0.00     1.457 OA 
HETATM   13  C   UNL     1      -8.119  13.630  67.548  1.00  0.00    -0.184 C  
ENDROOT
BRANCH   4  14
HETATM   14  O   UNL     1      -7.843  17.164  69.063  1.00  0.00    -0.234 OA 
BRANCH  14  15
HETATM   15  C   UNL     1      -8.045  18.362  68.294  1.00  0.00    -0.298 C  
BRANCH  15  16
HETATM   16  C   UNL     1      -8.502  19.481  69.239  1.00  0.00     0.026 C  
HETATM   17  C   UNL     1     -10.956  19.598  69.002  1.00  0.00     1.303 C  
HETATM   18  O   UNL     1      -9.663  20.174  68.719  1.00  0.00    -0.212 OA 
HETATM   19  H   UNL     1      -9.436  16.594  71.042  1.00  0.00     0.000 HD 
HETATM   20  C   UNL     1     -11.052  19.486  70.541  1.00  0.00     3.859 C  
HETATM   21  H   UNL     1      -8.199  19.844  72.451  1.00  0.00     0.000 HD 
HETATM   22  O   UNL     1     -10.889  20.787  71.159  1.00  0.00     1.713 OA 
HETATM   23  C   UNL     1      -9.974  18.542  71.099  1.00  0.00     3.739 C  
HETATM   24  H   UNL     1     -10.948  20.718  72.105  1.00  0.00     0.000 HD 
HETATM   25  O   UNL     1      -8.153  20.122  71.545  1.00  0.00     1.269 OA 
HETATM   26  O   UNL     1     -10.102  17.177  70.697  1.00  0.00     1.360 OA 
HETATM   27  C   UNL     1      -8.576  19.029  70.710  1.00  0.00     3.570 C  
BRANCH  17  28
HETATM   28  O   UNL     1     -11.163  18.393  68.250  1.00  0.00     0.250 OA 
BRANCH  28  29
HETATM   29  C   UNL     1     -10.717  17.199  68.817  1.00  0.00    -0.289 C  
HETATM   30  O   UNL     1      -9.898  14.907  68.575  1.00  0.00    -0.205 OA 
HETATM   31  C   UNL     1     -10.587  16.037  68.130  1.00  0.00    -0.286 C  
HETATM   32  C   UNL     1      -9.425  14.885  69.863  1.00  0.00     0.265 A  
HETATM   33  O   UNL     1      -9.627  18.309  70.564  1.00  0.00     2.128 OA 
HETATM   34  H   UNL     1     -10.129  17.622  72.636  1.00  0.00     0.000 HD 
HETATM   35  C   UNL     1      -8.720  13.774  70.322  1.00  0.00     3.145 A  
HETATM   36  C   UNL     1     -10.009  17.235  70.114  1.00  0.00     1.076 C  
HETATM   37  C   UNL     1      -8.307  13.729  71.659  1.00  0.00     9.069 A  
HETATM   38  C   UNL     1      -9.636  15.972  70.735  1.00  0.00     1.842 A  
HETATM   39  O   UNL     1      -9.676  16.850  72.954  1.00  0.00     8.774 OA 
HETATM   40  C   UNL     1      -8.645  14.737  72.556  1.00  0.00     7.600 A  
HETATM   41  O   UNL     1      -7.556  12.701  72.152  1.00  0.00     8.566 OA 
HETATM   42  H   UNL     1      -7.276  12.670  73.059  1.00  0.00     0.000 HD 
HETATM   43  C   UNL     1      -9.306  15.864  72.092  1.00  0.00     7.119 A  
BRANCH  31  44
HETATM   44  C   UNL     1     -11.108  15.952  66.757  1.00  0.00    -0.064 A  
HETATM   45  O   UNL     1     -12.228  15.080  62.858  1.00  0.00     0.605 OA 
HETATM   46  H   UNL     1     -10.410  16.535  62.407  1.00  0.00     0.000 HD 
HETATM   47  C   UNL     1     -12.221  15.128  66.501  1.00  0.00     0.428 A  
HETATM   48  H   UNL     1     -12.962  14.500  62.693  1.00  0.00     0.000 HD 
HETATM   49  O   UNL     1     -10.143  16.739  63.295  1.00  0.00     6.333 OA 
HETATM   50  C   UNL     1     -11.892  15.405  64.143  1.00  0.00    -0.104 A  
HETATM   51  C   UNL     1     -10.816  16.256  64.385  1.00  0.00     0.324 A  
HETATM   52  C   UNL     1     -10.425  16.554  65.688  1.00  0.00    -0.341 A  
HETATM   53  C   UNL     1     -12.613  14.851  65.189  1.00  0.00     0.073 A  
ENDBRANCH  31  44
ENDBRANCH  28  29
ENDBRANCH  17  28
ENDBRANCH  15  16
ENDBRANCH  14  15
ENDBRANCH   4  14
TORSDOF 6
ENDMDL
