MODEL        1
REMARK 921   NORMALIZED FREE ENERGY PREDICTED BY IDOCK:   -7.76 KCAL/MOL
REMARK 922        TOTAL FREE ENERGY PREDICTED BY IDOCK:   -9.98 KCAL/MOL
REMARK 923 INTER-LIGAND FREE ENERGY PREDICTED BY IDOCK:   -9.57 KCAL/MOL
REMARK 924 INTRA-LIGAND FREE ENERGY PREDICTED BY IDOCK:   -0.41 KCAL/MOL
REMARK 927      BINDING AFFINITY PREDICTED BY RF-SCORE:    0.00 PKD
ROOT
HETATM    1  N   UNL     1     -11.851   9.379  71.782  1.00  0.00    -0.384 NA 
HETATM    2  C   UNL     1     -12.413  10.379  71.618  1.00  0.00    -0.370 C  
HETATM    3  C   UNL     1     -13.136  11.632  71.347  1.00  0.00    -0.342 C  
ENDROOT
BRANCH   3   4
HETATM    4  C   UNL     1     -12.198  12.761  70.844  1.00  0.00    -0.191 C  
BRANCH   4   5
HETATM    5  C   UNL     1     -12.736  14.179  71.233  1.00  0.00    -0.434 C  
HETATM    6  C   UNL     1     -11.709  15.126  71.884  1.00  0.00    -0.490 C  
HETATM    7  C   UNL     1     -12.460  16.017  72.865  1.00  0.00    -0.596 C  
HETATM    8  C   UNL     1     -13.849  14.146  72.293  1.00  0.00    -0.643 C  
HETATM    9  C   UNL     1     -13.909  15.575  72.806  1.00  0.00    -0.606 C  
ENDBRANCH   4   5
BRANCH   4  10
HETATM   10  N   UNL     1     -11.878  12.571  69.419  1.00  0.00    -0.316 NA 
HETATM   11  C   UNL     1     -11.744  12.723  67.219  1.00  0.00    -0.440 A  
HETATM   12  C   UNL     1     -12.206  13.351  68.354  1.00  0.00    -0.092 A  
HETATM   13  C   UNL     1     -11.033  11.619  67.720  1.00  0.00    -0.233 A  
HETATM   14  N   UNL     1     -11.077  11.542  69.054  1.00  0.00    -0.229 NA 
BRANCH  11  15
HETATM   15  C   UNL     1     -12.029  13.210  65.891  1.00  0.00    -0.427 A  
HETATM   16  C   UNL     1     -11.642  14.484  65.470  1.00  0.00    -0.350 A  
HETATM   17  C   UNL     1     -10.997  15.628  66.019  1.00  0.00    -0.213 A  
HETATM   18  C   UNL     1     -10.874  16.566  65.015  1.00  0.00    -0.229 A  
HETATM   19  N   UNL     1     -11.415  16.030  63.875  1.00  0.00    -1.258 NA 
HETATM   20  C   UNL     1     -11.877  14.769  64.131  1.00  0.00    -0.214 A  
HETATM   21  H   UNL     1     -11.466  16.501  62.972  1.00  0.00     0.000 HD 
HETATM   22  N   UNL     1     -12.437  13.965  63.216  1.00  0.00    -0.731 NA 
HETATM   23  C   UNL     1     -12.762  12.770  63.736  1.00  0.00    -0.180 A  
HETATM   24  N   UNL     1     -12.589  12.347  65.001  1.00  0.00    -0.604 NA 
ENDBRANCH  11  15
ENDBRANCH   4  10
ENDBRANCH   3   4
TORSDOF 4
ENDMDL
MODEL        2
REMARK 921   NORMALIZED FREE ENERGY PREDICTED BY IDOCK:   -7.70 KCAL/MOL
REMARK 922        TOTAL FREE ENERGY PREDICTED BY IDOCK:   -9.91 KCAL/MOL
REMARK 923 INTER-LIGAND FREE ENERGY PREDICTED BY IDOCK:   -9.12 KCAL/MOL
REMARK 924 INTRA-LIGAND FREE ENERGY PREDICTED BY IDOCK:   -0.79 KCAL/MOL
REMARK 927      BINDING AFFINITY PREDICTED BY RF-SCORE:    0.00 PKD
ROOT
HETATM    1  N   UNL     1     -11.373  17.024  64.336  1.00  0.00    -1.052 NA 
HETATM    2  C   UNL     1     -11.571  15.890  64.469  1.00  0.00    -0.232 C  
HETATM    3  C   UNL     1     -11.850  14.464  64.696  1.00  0.00    -0.460 C  
ENDROOT
BRANCH   3   4
HETATM    4  C   UNL     1     -10.713  13.753  65.475  1.00  0.00    -0.302 C  
BRANCH   4   5
HETATM    5  C   UNL     1     -10.614  12.235  65.103  1.00  0.00    -0.320 C  
HETATM    6  C   UNL     1      -9.449  11.464  65.753  1.00  0.00    -0.256 C  
HETATM    7  C   UNL     1      -9.009  10.382  64.774  1.00  0.00    -0.228 C  
HETATM    8  C   UNL     1     -10.362  11.983  63.608  1.00  0.00    -0.482 C  
HETATM    9  C   UNL     1      -9.894  10.538  63.553  1.00  0.00    -0.339 C  
ENDBRANCH   4   5
BRANCH   4  10
HETATM   10  N   UNL     1     -10.808  14.050  66.915  1.00  0.00    -0.288 NA 
HETATM   11  C   UNL     1     -11.464  14.273  69.013  1.00  0.00    -0.318 A  
HETATM   12  C   UNL     1     -11.783  13.707  67.799  1.00  0.00    -0.362 A  
HETATM   13  C   UNL     1     -10.198  14.841  68.788  1.00  0.00    -0.239 A  
HETATM   14  N   UNL     1      -9.778  14.677  67.529  1.00  0.00    -0.209 NA 
BRANCH  11  15
HETATM   15  C   UNL     1     -12.347  14.219  70.153  1.00  0.00    -0.353 A  
HETATM   16  C   UNL     1     -12.605  13.028  70.834  1.00  0.00    -0.364 A  
HETATM   17  C   UNL     1     -12.254  11.652  70.728  1.00  0.00    -0.443 A  
HETATM   18  C   UNL     1     -12.827  10.987  71.792  1.00  0.00    -0.391 A  
HETATM   19  N   UNL     1     -13.508  11.910  72.543  1.00  0.00    -0.479 NA 
HETATM   20  C   UNL     1     -13.377  13.150  71.982  1.00  0.00    -0.493 A  
HETATM   21  H   UNL     1     -14.034  11.703  73.393  1.00  0.00     0.000 HD 
HETATM   22  N   UNL     1     -13.903  14.273  72.492  1.00  0.00    -0.570 NA 
HETATM   23  C   UNL     1     -13.584  15.350  71.755  1.00  0.00    -0.498 A  
HETATM   24  N   UNL     1     -12.842  15.391  70.633  1.00  0.00    -0.445 NA 
ENDBRANCH  11  15
ENDBRANCH   4  10
ENDBRANCH   3   4
TORSDOF 4
ENDMDL
MODEL        3
REMARK 921   NORMALIZED FREE ENERGY PREDICTED BY IDOCK:   -7.67 KCAL/MOL
REMARK 922        TOTAL FREE ENERGY PREDICTED BY IDOCK:   -9.87 KCAL/MOL
REMARK 923 INTER-LIGAND FREE ENERGY PREDICTED BY IDOCK:   -9.17 KCAL/MOL
REMARK 924 INTRA-LIGAND FREE ENERGY PREDICTED BY IDOCK:   -0.70 KCAL/MOL
REMARK 927      BINDING AFFINITY PREDICTED BY RF-SCORE:    0.00 PKD
ROOT
HETATM    1  N   UNL     1     -10.493  17.685  68.405  1.00  0.00    -0.372 NA 
HETATM    2  C   UNL     1     -10.467  16.788  69.139  1.00  0.00    -0.343 C  
HETATM    3  C   UNL     1     -10.416  15.612  70.022  1.00  0.00    -0.333 C  
ENDROOT
BRANCH   3   4
HETATM    4  C   UNL     1     -11.754  14.828  70.043  1.00  0.00    -0.295 C  
BRANCH   4   5
HETATM    5  C   UNL     1     -12.345  14.729  71.490  1.00  0.00    -0.404 C  
HETATM    6  C   UNL     1     -13.778  15.268  71.663  1.00  0.00    -0.600 C  
HETATM    7  C   UNL     1     -13.891  15.835  73.073  1.00  0.00    -0.499 C  
HETATM    8  C   UNL     1     -11.571  15.555  72.529  1.00  0.00    -0.531 C  
HETATM    9  C   UNL     1     -12.526  15.651  73.708  1.00  0.00    -0.736 C  
ENDBRANCH   4   5
BRANCH   4  10
HETATM   10  N   UNL     1     -11.617  13.550  69.323  1.00  0.00    -0.297 NA 
HETATM   11  C   UNL     1     -11.202  11.965  67.841  1.00  0.00    -0.325 A  
HETATM   12  C   UNL     1     -11.003  13.295  68.137  1.00  0.00    -0.255 A  
HETATM   13  C   UNL     1     -11.849  11.468  68.986  1.00  0.00    -0.343 A  
HETATM   14  N   UNL     1     -12.070  12.414  69.904  1.00  0.00    -0.281 NA 
BRANCH  11  15
HETATM   15  C   UNL     1     -10.793  11.377  66.589  1.00  0.00    -0.289 A  
HETATM   16  C   UNL     1     -11.361  11.756  65.372  1.00  0.00    -0.284 A  
HETATM   17  C   UNL     1     -12.381  12.636  64.909  1.00  0.00    -0.563 A  
HETATM   18  C   UNL     1     -12.402  12.571  63.532  1.00  0.00    -0.525 A  
HETATM   19  N   UNL     1     -11.429  11.689  63.141  1.00  0.00    -0.841 NA 
HETATM   20  C   UNL     1     -10.785  11.193  64.241  1.00  0.00    -0.333 A  
HETATM   21  H   UNL     1     -11.216  11.439  62.174  1.00  0.00     0.000 HD 
HETATM   22  N   UNL     1      -9.762  10.327  64.195  1.00  0.00    -0.310 NA 
HETATM   23  C   UNL     1      -9.298  10.042  65.423  1.00  0.00    -0.229 A  
HETATM   24  N   UNL     1      -9.743  10.513  66.603  1.00  0.00    -0.183 NA 
ENDBRANCH  11  15
ENDBRANCH   4  10
ENDBRANCH   3   4
TORSDOF 4
ENDMDL
MODEL        4
REMARK 921   NORMALIZED FREE ENERGY PREDICTED BY IDOCK:   -7.65 KCAL/MOL
REMARK 922        TOTAL FREE ENERGY PREDICTED BY IDOCK:   -9.85 KCAL/MOL
REMARK 923 INTER-LIGAND FREE ENERGY PREDICTED BY IDOCK:   -9.10 KCAL/MOL
REMARK 924 INTRA-LIGAND FREE ENERGY PREDICTED BY IDOCK:   -0.75 KCAL/MOL
REMARK 927      BINDING AFFINITY PREDICTED BY RF-SCORE:    0.00 PKD
ROOT
HETATM    1  N   UNL     1     -12.446  14.794  64.065  1.00  0.00    -0.809 NA 
HETATM    2  C   UNL     1     -11.557  15.324  64.586  1.00  0.00    -0.333 C  
HETATM    3  C   UNL     1     -10.416  15.942  65.280  1.00  0.00    -0.403 C  
ENDROOT
BRANCH   3   4
HETATM    4  C   UNL     1     -10.820  16.578  66.636  1.00  0.00    -0.053 C  
BRANCH   4   5
HETATM    5  C   UNL     1     -10.005  17.883  66.930  1.00  0.00    -0.335 C  
HETATM    6  C   UNL     1     -10.046  18.379  68.388  1.00  0.00    -0.418 C  
HETATM    7  C   UNL     1      -9.954  19.900  68.361  1.00  0.00    -0.531 C  
HETATM    8  C   UNL     1     -10.516  19.114  66.164  1.00  0.00    -0.558 C  
HETATM    9  C   UNL     1      -9.886  20.288  66.896  1.00  0.00    -0.597 C  
ENDBRANCH   4   5
BRANCH   4  10
HETATM   10  N   UNL     1     -10.810  15.567  67.706  1.00  0.00    -0.301 NA 
HETATM   11  C   UNL     1     -11.267  14.311  69.467  1.00  0.00    -0.286 A  
HETATM   12  C   UNL     1     -11.763  15.291  68.637  1.00  0.00    -0.346 A  
HETATM   13  C   UNL     1     -10.039  13.969  68.872  1.00  0.00    -0.126 A  
HETATM   14  N   UNL     1      -9.774  14.699  67.784  1.00  0.00    -0.213 NA 
BRANCH  11  15
HETATM   15  C   UNL     1     -11.965  13.863  70.646  1.00  0.00    -0.292 A  
HETATM   16  C   UNL     1     -12.161  14.695  71.751  1.00  0.00    -0.409 A  
HETATM   17  C   UNL     1     -11.815  16.015  72.155  1.00  0.00    -0.623 A  
HETATM   18  C   UNL     1     -12.388  16.242  73.389  1.00  0.00    -0.530 A  
HETATM   19  N   UNL     1     -13.073  15.111  73.746  1.00  0.00    -0.614 NA 
HETATM   20  C   UNL     1     -12.953  14.168  72.763  1.00  0.00    -0.422 A  
HETATM   21  H   UNL     1     -13.595  14.989  74.615  1.00  0.00     0.000 HD 
HETATM   22  N   UNL     1     -13.532  12.959  72.796  1.00  0.00    -0.422 NA 
HETATM   23  C   UNL     1     -13.276  12.255  71.681  1.00  0.00    -0.257 A  
HETATM   24  N   UNL     1     -12.541  12.632  70.619  1.00  0.00    -0.218 NA 
ENDBRANCH  11  15
ENDBRANCH   4  10
ENDBRANCH   3   4
TORSDOF 4
ENDMDL
MODEL        5
REMARK 921   NORMALIZED FREE ENERGY PREDICTED BY IDOCK:   -7.63 KCAL/MOL
REMARK 922        TOTAL FREE ENERGY PREDICTED BY IDOCK:   -9.82 KCAL/MOL
REMARK 923 INTER-LIGAND FREE ENERGY PREDICTED BY IDOCK:   -9.15 KCAL/MOL
REMARK 924 INTRA-LIGAND FREE ENERGY PREDICTED BY IDOCK:   -0.67 KCAL/MOL
REMARK 927      BINDING AFFINITY PREDICTED BY RF-SCORE:    0.00 PKD
ROOT
HETATM    1  N   UNL     1     -12.423  14.778  64.080  1.00  0.00    -0.809 NA 
HETATM    2  C   UNL     1     -11.559  15.331  64.620  1.00  0.00    -0.333 C  
HETATM    3  C   UNL     1     -10.449  15.978  65.336  1.00  0.00    -0.415 C  
ENDROOT
BRANCH   3   4
HETATM    4  C   UNL     1     -10.893  16.585  66.693  1.00  0.00    -0.053 C  
BRANCH   4   5
HETATM    5  C   UNL     1     -10.033  17.837  67.078  1.00  0.00    -0.322 C  
HETATM    6  C   UNL     1     -10.150  18.300  68.543  1.00  0.00    -0.419 C  
HETATM    7  C   UNL     1      -9.978  19.814  68.563  1.00  0.00    -0.538 C  
HETATM    8  C   UNL     1     -10.425  19.111  66.313  1.00  0.00    -0.551 C  
HETATM    9  C   UNL     1      -9.788  20.232  67.118  1.00  0.00    -0.606 C  
ENDBRANCH   4   5
BRANCH   4  10
HETATM   10  N   UNL     1     -10.986  15.537  67.724  1.00  0.00    -0.309 NA 
HETATM   11  C   UNL     1     -11.601  14.234  69.399  1.00  0.00    -0.354 A  
HETATM   12  C   UNL     1     -12.011  15.257  68.574  1.00  0.00    -0.201 A  
HETATM   13  C   UNL     1     -10.345  13.876  68.880  1.00  0.00    -0.155 A  
HETATM   14  N   UNL     1      -9.983  14.636  67.841  1.00  0.00    -0.219 NA 
BRANCH  11  15
HETATM   15  C   UNL     1     -12.394  13.766  70.510  1.00  0.00    -0.359 A  
HETATM   16  C   UNL     1     -12.531  12.408  70.802  1.00  0.00    -0.356 A  
HETATM   17  C   UNL     1     -12.107  11.162  70.259  1.00  0.00    -0.462 A  
HETATM   18  C   UNL     1     -12.561  10.162  71.093  1.00  0.00    -0.386 A  
HETATM   19  N   UNL     1     -13.239  10.755  72.126  1.00  0.00    -0.591 NA 
HETATM   20  C   UNL     1     -13.223  12.113  71.969  1.00  0.00    -0.391 A  
HETATM   21  H   UNL     1     -13.688  10.258  72.896  1.00  0.00     0.000 HD 
HETATM   22  N   UNL     1     -13.776  12.983  72.827  1.00  0.00    -0.510 NA 
HETATM   23  C   UNL     1     -13.576  14.254  72.444  1.00  0.00    -0.500 A  
HETATM   24  N   UNL     1     -12.921  14.693  71.353  1.00  0.00    -0.314 NA 
ENDBRANCH  11  15
ENDBRANCH   4  10
ENDBRANCH   3   4
TORSDOF 4
ENDMDL
MODEL        6
REMARK 921   NORMALIZED FREE ENERGY PREDICTED BY IDOCK:   -7.43 KCAL/MOL
REMARK 922        TOTAL FREE ENERGY PREDICTED BY IDOCK:   -9.58 KCAL/MOL
REMARK 923 INTER-LIGAND FREE ENERGY PREDICTED BY IDOCK:   -9.00 KCAL/MOL
REMARK 924 INTRA-LIGAND FREE ENERGY PREDICTED BY IDOCK:   -0.58 KCAL/MOL
REMARK 927      BINDING AFFINITY PREDICTED BY RF-SCORE:    0.00 PKD
ROOT
HETATM    1  N   UNL     1     -10.373  17.872  67.813  1.00  0.00    -0.370 NA 
HETATM    2  C   UNL     1     -10.466  17.141  68.707  1.00  0.00    -0.351 C  
HETATM    3  C   UNL     1     -10.559  16.167  69.805  1.00  0.00    -0.312 C  
ENDROOT
BRANCH   3   4
HETATM    4  C   UNL     1     -11.895  15.377  69.786  1.00  0.00    -0.347 C  
BRANCH   4   5
HETATM    5  C   UNL     1     -12.406  15.065  71.233  1.00  0.00    -0.387 C  
HETATM    6  C   UNL     1     -13.936  15.041  71.408  1.00  0.00    -0.565 C  
HETATM    7  C   UNL     1     -14.247  15.525  72.820  1.00  0.00    -0.249 C  
HETATM    8  C   UNL     1     -11.987  16.116  72.273  1.00  0.00    -0.637 C  
HETATM    9  C   UNL     1     -12.909  15.852  73.453  1.00  0.00    -0.688 C  
ENDBRANCH   4   5
BRANCH   4  10
HETATM   10  N   UNL     1     -11.798  14.218  68.882  1.00  0.00    -0.325 NA 
HETATM   11  C   UNL     1     -11.698  12.874  67.131  1.00  0.00    -0.437 A  
HETATM   12  C   UNL     1     -11.681  14.192  67.527  1.00  0.00    -0.386 A  
HETATM   13  C   UNL     1     -11.702  12.167  68.346  1.00  0.00    -0.332 A  
HETATM   14  N   UNL     1     -11.724  12.974  69.411  1.00  0.00    -0.312 NA 
BRANCH  11  15
HETATM   15  C   UNL     1     -11.720  12.479  65.744  1.00  0.00    -0.426 A  
HETATM   16  C   UNL     1     -10.738  11.653  65.193  1.00  0.00    -0.351 A  
HETATM   17  C   UNL     1      -9.537  11.014  65.613  1.00  0.00    -0.265 A  
HETATM   18  C   UNL     1      -9.059  10.275  64.551  1.00  0.00    -0.234 A  
HETATM   19  N   UNL     1      -9.930  10.436  63.505  1.00  0.00    -0.446 NA 
HETATM   20  C   UNL     1     -10.955  11.260  63.879  1.00  0.00    -0.305 A  
HETATM   21  H   UNL     1      -9.829  10.005  62.585  1.00  0.00     0.000 HD 
HETATM   22  N   UNL     1     -11.987  11.593  63.091  1.00  0.00    -0.183 NA 
HETATM   23  C   UNL     1     -12.864  12.384  63.730  1.00  0.00    -0.266 A  
HETATM   24  N   UNL     1     -12.797  12.837  64.995  1.00  0.00    -0.821 NA 
ENDBRANCH  11  15
ENDBRANCH   4  10
ENDBRANCH   3   4
TORSDOF 4
ENDMDL
MODEL        7
REMARK 921   NORMALIZED FREE ENERGY PREDICTED BY IDOCK:   -7.33 KCAL/MOL
REMARK 922        TOTAL FREE ENERGY PREDICTED BY IDOCK:   -9.45 KCAL/MOL
REMARK 923 INTER-LIGAND FREE ENERGY PREDICTED BY IDOCK:   -8.67 KCAL/MOL
REMARK 924 INTRA-LIGAND FREE ENERGY PREDICTED BY IDOCK:   -0.77 KCAL/MOL
REMARK 927      BINDING AFFINITY PREDICTED BY RF-SCORE:    0.00 PKD
ROOT
HETATM    1  N   UNL     1      -6.216  14.410  67.419  1.00  0.00    -0.313 NA 
HETATM    2  C   UNL     1      -7.028  15.213  67.618  1.00  0.00    -0.182 C  
HETATM    3  C   UNL     1      -8.090  16.190  67.907  1.00  0.00    -0.152 C  
ENDROOT
BRANCH   3   4
HETATM    4  C   UNL     1      -9.273  16.093  66.908  1.00  0.00    -0.225 C  
BRANCH   4   5
HETATM    5  C   UNL     1      -9.757  17.508  66.443  1.00  0.00    -0.299 C  
HETATM    6  C   UNL     1      -8.646  18.549  66.211  1.00  0.00    -0.223 C  
HETATM    7  C   UNL     1      -9.217  19.918  66.561  1.00  0.00    -0.483 C  
HETATM    8  C   UNL     1     -10.648  18.222  67.472  1.00  0.00    -0.432 C  
HETATM    9  C   UNL     1     -10.641  19.672  67.018  1.00  0.00    -0.602 C  
ENDBRANCH   4   5
BRANCH   4  10
HETATM   10  N   UNL     1     -10.322  15.202  67.433  1.00  0.00    -0.241 NA 
HETATM   11  C   UNL     1     -11.631  13.960  68.709  1.00  0.00    -0.370 A  
HETATM   12  C   UNL     1     -10.614  14.888  68.724  1.00  0.00    -0.247 A  
HETATM   13  C   UNL     1     -11.972  13.871  67.348  1.00  0.00    -0.401 A  
HETATM   14  N   UNL     1     -11.209  14.649  66.574  1.00  0.00    -0.341 NA 
BRANCH  11  15
HETATM   15  C   UNL     1     -12.109  13.309  69.904  1.00  0.00    -0.308 A  
HETATM   16  C   UNL     1     -12.784  14.006  70.907  1.00  0.00    -0.420 A  
HETATM   17  C   UNL     1     -13.177  15.347  71.183  1.00  0.00    -0.583 A  
HETATM   18  C   UNL     1     -13.886  15.344  72.366  1.00  0.00    -0.562 A  
HETATM   19  N   UNL     1     -13.944  14.051  72.815  1.00  0.00    -0.644 NA 
HETATM   20  C   UNL     1     -13.289  13.228  71.941  1.00  0.00    -0.451 A  
HETATM   21  H   UNL     1     -14.406  13.747  73.672  1.00  0.00     0.000 HD 
HETATM   22  N   UNL     1     -13.190  11.898  72.080  1.00  0.00    -0.456 NA 
HETATM   23  C   UNL     1     -12.526  11.340  71.054  1.00  0.00    -0.400 A  
HETATM   24  N   UNL     1     -11.991  11.957  69.985  1.00  0.00    -0.339 NA 
ENDBRANCH  11  15
ENDBRANCH   4  10
ENDBRANCH   3   4
TORSDOF 4
ENDMDL
MODEL        8
REMARK 921   NORMALIZED FREE ENERGY PREDICTED BY IDOCK:   -7.27 KCAL/MOL
REMARK 922        TOTAL FREE ENERGY PREDICTED BY IDOCK:   -9.38 KCAL/MOL
REMARK 923 INTER-LIGAND FREE ENERGY PREDICTED BY IDOCK:   -9.03 KCAL/MOL
REMARK 924 INTRA-LIGAND FREE ENERGY PREDICTED BY IDOCK:   -0.34 KCAL/MOL
REMARK 927      BINDING AFFINITY PREDICTED BY RF-SCORE:    0.00 PKD
ROOT
HETATM    1  N   UNL     1     -11.749   8.708  72.156  1.00  0.00    -0.364 NA 
HETATM    2  C   UNL     1     -12.350   9.611  71.747  1.00  0.00    -0.392 C  
HETATM    3  C   UNL     1     -13.104  10.734  71.168  1.00  0.00    -0.381 C  
ENDROOT
BRANCH   3   4
HETATM    4  C   UNL     1     -12.189  11.924  70.778  1.00  0.00    -0.303 C  
BRANCH   4   5
HETATM    5  C   UNL     1     -12.897  13.302  71.013  1.00  0.00    -0.311 C  
HETATM    6  C   UNL     1     -11.959  14.509  71.204  1.00  0.00    -0.401 C  
HETATM    7  C   UNL     1     -12.648  15.483  72.153  1.00  0.00    -0.479 C  
HETATM    8  C   UNL     1     -13.738  13.350  72.298  1.00  0.00    -0.705 C  
HETATM    9  C   UNL     1     -13.965  14.835  72.532  1.00  0.00    -0.527 C  
ENDBRANCH   4   5
BRANCH   4  10
HETATM   10  N   UNL     1     -11.621  11.722  69.435  1.00  0.00    -0.297 NA 
HETATM   11  C   UNL     1     -11.165  11.789  67.273  1.00  0.00    -0.364 A  
HETATM   12  C   UNL     1     -11.892  12.386  68.279  1.00  0.00    -0.309 A  
HETATM   13  C   UNL     1     -10.380  10.842  67.954  1.00  0.00    -0.185 A  
HETATM   14  N   UNL     1     -10.624  10.822  69.269  1.00  0.00    -0.221 NA 
BRANCH  11  15
HETATM   15  C   UNL     1     -11.306  12.159  65.886  1.00  0.00    -0.356 A  
HETATM   16  C   UNL     1     -10.644  11.473  64.866  1.00  0.00    -0.360 A  
HETATM   17  C   UNL     1      -9.720  10.397  64.742  1.00  0.00    -0.383 A  
HETATM   18  C   UNL     1      -9.504  10.180  63.397  1.00  0.00    -0.261 A  
HETATM   19  N   UNL     1     -10.268  11.080  62.701  1.00  0.00    -0.726 NA 
HETATM   20  C   UNL     1     -10.970  11.864  63.574  1.00  0.00    -0.432 A  
HETATM   21  H   UNL     1     -10.307  11.153  61.684  1.00  0.00     0.000 HD 
HETATM   22  N   UNL     1     -11.831  12.824  63.207  1.00  0.00    -0.505 NA 
HETATM   23  C   UNL     1     -12.406  13.407  64.272  1.00  0.00    -0.335 A  
HETATM   24  N   UNL     1     -12.202  13.132  65.573  1.00  0.00    -0.437 NA 
ENDBRANCH  11  15
ENDBRANCH   4  10
ENDBRANCH   3   4
TORSDOF 4
ENDMDL
MODEL        9
REMARK 921   NORMALIZED FREE ENERGY PREDICTED BY IDOCK:   -7.23 KCAL/MOL
REMARK 922        TOTAL FREE ENERGY PREDICTED BY IDOCK:   -9.33 KCAL/MOL
REMARK 923 INTER-LIGAND FREE ENERGY PREDICTED BY IDOCK:   -8.71 KCAL/MOL
REMARK 924 INTRA-LIGAND FREE ENERGY PREDICTED BY IDOCK:   -0.62 KCAL/MOL
REMARK 927      BINDING AFFINITY PREDICTED BY RF-SCORE:    0.00 PKD
ROOT
HETATM    1  N   UNL     1      -5.649  15.128  67.539  1.00  0.00    -0.341 NA 
HETATM    2  C   UNL     1      -6.563  15.619  68.055  1.00  0.00    -0.139 C  
HETATM    3  C   UNL     1      -7.749  16.183  68.718  1.00  0.00    -0.200 C  
ENDROOT
BRANCH   3   4
HETATM    4  C   UNL     1      -8.897  16.489  67.720  1.00  0.00    -0.197 C  
BRANCH   4   5
HETATM    5  C   UNL     1      -9.059  18.027  67.475  1.00  0.00    -0.253 C  
HETATM    6  C   UNL     1      -9.243  18.887  68.740  1.00  0.00    -0.359 C  
HETATM    7  C   UNL     1     -10.133  20.068  68.370  1.00  0.00    -0.513 C  
HETATM    8  C   UNL     1     -10.311  18.392  66.662  1.00  0.00    -0.422 C  
HETATM    9  C   UNL     1     -10.486  19.882  66.908  1.00  0.00    -0.577 C  
ENDBRANCH   4   5
BRANCH   4  10
HETATM   10  N   UNL     1     -10.125  15.774  68.110  1.00  0.00    -0.218 NA 
HETATM   11  C   UNL     1     -11.799  14.841  69.211  1.00  0.00    -0.352 A  
HETATM   12  C   UNL     1     -10.708  15.672  69.334  1.00  0.00    -0.252 A  
HETATM   13  C   UNL     1     -11.864  14.589  67.829  1.00  0.00    -0.357 A  
HETATM   14  N   UNL     1     -10.876  15.182  67.151  1.00  0.00    -0.315 NA 
BRANCH  11  15
HETATM   15  C   UNL     1     -12.580  14.409  70.344  1.00  0.00    -0.345 A  
HETATM   16  C   UNL     1     -12.643  13.070  70.732  1.00  0.00    -0.321 A  
HETATM   17  C   UNL     1     -12.141  11.815  70.286  1.00  0.00    -0.426 A  
HETATM   18  C   UNL     1     -12.550  10.853  71.186  1.00  0.00    -0.428 A  
HETATM   19  N   UNL     1     -13.277  11.478  72.165  1.00  0.00    -0.559 NA 
HETATM   20  C   UNL     1     -13.336  12.821  71.910  1.00  0.00    -0.413 A  
HETATM   21  H   UNL     1     -13.708  11.013  72.964  1.00  0.00     0.000 HD 
HETATM   22  N   UNL     1     -13.951  13.716  72.696  1.00  0.00    -0.745 NA 
HETATM   23  C   UNL     1     -13.818  14.966  72.224  1.00  0.00    -0.483 A  
HETATM   24  N   UNL     1     -13.173  15.363  71.111  1.00  0.00    -0.494 NA 
ENDBRANCH  11  15
ENDBRANCH   4  10
ENDBRANCH   3   4
TORSDOF 4
ENDMDL
MODEL       10
REMARK 921   NORMALIZED FREE ENERGY PREDICTED BY IDOCK:   -7.14 KCAL/MOL
REMARK 922        TOTAL FREE ENERGY PREDICTED BY IDOCK:   -9.21 KCAL/MOL
REMARK 923 INTER-LIGAND FREE ENERGY PREDICTED BY IDOCK:   -8.72 KCAL/MOL
REMARK 924 INTRA-LIGAND FREE ENERGY PREDICTED BY IDOCK:   -0.49 KCAL/MOL
REMARK 927      BINDING AFFINITY PREDICTED BY RF-SCORE:    0.00 PKD
ROOT
HETATM    1  N   UNL     1     -12.361  14.273  64.144  1.00  0.00    -0.674 NA 
HETATM    2  C   UNL     1     -11.567  14.977  64.609  1.00  0.00    -0.386 C  
HETATM    3  C   UNL     1     -10.525  15.819  65.219  1.00  0.00    -0.427 C  
ENDROOT
BRANCH   3   4
HETATM    4  C   UNL     1     -10.822  16.142  66.707  1.00  0.00    -0.162 C  
BRANCH   4   5
HETATM    5  C   UNL     1      -9.968  17.352  67.219  1.00  0.00    -0.302 C  
HETATM    6  C   UNL     1     -10.655  18.729  67.145  1.00  0.00    -0.491 C  
HETATM    7  C   UNL     1      -9.573  19.771  66.887  1.00  0.00    -0.494 C  
HETATM    8  C   UNL     1      -8.690  17.593  66.401  1.00  0.00    -0.263 C  
HETATM    9  C   UNL     1      -8.269  19.003  66.785  1.00  0.00    -0.288 C  
ENDBRANCH   4   5
BRANCH   4  10
HETATM   10  N   UNL     1     -10.748  14.921  67.527  1.00  0.00    -0.271 NA 
HETATM   11  C   UNL     1     -11.125  13.281  68.960  1.00  0.00    -0.291 A  
HETATM   12  C   UNL     1     -11.681  14.390  68.363  1.00  0.00    -0.332 A  
HETATM   13  C   UNL     1      -9.881  13.152  68.317  1.00  0.00    -0.227 A  
HETATM   14  N   UNL     1      -9.663  14.119  67.420  1.00  0.00    -0.228 NA 
BRANCH  11  15
HETATM   15  C   UNL     1     -11.792  12.543  70.004  1.00  0.00    -0.289 A  
HETATM   16  C   UNL     1     -12.572  13.174  70.975  1.00  0.00    -0.397 A  
HETATM   17  C   UNL     1     -12.943  14.500  71.335  1.00  0.00    -0.403 A  
HETATM   18  C   UNL     1     -13.811  14.420  72.404  1.00  0.00    -0.494 A  
HETATM   19  N   UNL     1     -13.985  13.093  72.702  1.00  0.00    -0.743 NA 
HETATM   20  C   UNL     1     -13.248  12.326  71.842  1.00  0.00    -0.376 A  
HETATM   21  H   UNL     1     -14.575  12.733  73.452  1.00  0.00     0.000 HD 
HETATM   22  N   UNL     1     -13.224  10.985  71.852  1.00  0.00    -0.463 NA 
HETATM   23  C   UNL     1     -12.447  10.496  70.873  1.00  0.00    -0.390 A  
HETATM   24  N   UNL     1     -11.742  11.185  69.957  1.00  0.00    -0.327 NA 
ENDBRANCH  11  15
ENDBRANCH   4  10
ENDBRANCH   3   4
TORSDOF 4
ENDMDL
MODEL       11
REMARK 921   NORMALIZED FREE ENERGY PREDICTED BY IDOCK:   -7.13 KCAL/MOL
REMARK 922        TOTAL FREE ENERGY PREDICTED BY IDOCK:   -9.21 KCAL/MOL
REMARK 923 INTER-LIGAND FREE ENERGY PREDICTED BY IDOCK:   -8.58 KCAL/MOL
REMARK 924 INTRA-LIGAND FREE ENERGY PREDICTED BY IDOCK:   -0.63 KCAL/MOL
REMARK 927      BINDING AFFINITY PREDICTED BY RF-SCORE:    0.00 PKD
ROOT
HETATM    1  N   UNL     1     -12.190  15.932  63.910  1.00  0.00    -0.750 NA 
HETATM    2  C   UNL     1     -12.209  14.819  64.232  1.00  0.00    -0.379 C  
HETATM    3  C   UNL     1     -12.256  13.424  64.698  1.00  0.00    -0.456 C  
ENDROOT
BRANCH   3   4
HETATM    4  C   UNL     1     -10.940  12.988  65.395  1.00  0.00    -0.275 C  
BRANCH   4   5
HETATM    5  C   UNL     1     -10.551  11.516  65.031  1.00  0.00    -0.354 C  
HETATM    6  C   UNL     1      -9.288  10.969  65.724  1.00  0.00    -0.236 C  
HETATM    7  C   UNL     1      -8.621   9.990  64.765  1.00  0.00    -0.188 C  
HETATM    8  C   UNL     1     -10.203  11.321  63.546  1.00  0.00    -0.456 C  
HETATM    9  C   UNL     1      -9.475   9.987  63.512  1.00  0.00    -0.241 C  
ENDBRANCH   4   5
BRANCH   4  10
HETATM   10  N   UNL     1     -10.991  13.294  66.835  1.00  0.00    -0.280 NA 
HETATM   11  C   UNL     1     -11.433  13.327  69.000  1.00  0.00    -0.350 A  
HETATM   12  C   UNL     1     -11.606  12.610  67.837  1.00  0.00    -0.349 A  
HETATM   13  C   UNL     1     -10.582  14.377  68.614  1.00  0.00    -0.252 A  
HETATM   14  N   UNL     1     -10.280  14.343  67.312  1.00  0.00    -0.251 NA 
BRANCH  11  15
HETATM   15  C   UNL     1     -12.064  12.957  70.243  1.00  0.00    -0.302 A  
HETATM   16  C   UNL     1     -12.651  13.903  71.086  1.00  0.00    -0.446 A  
HETATM   17  C   UNL     1     -12.820  15.315  71.134  1.00  0.00    -0.494 A  
HETATM   18  C   UNL     1     -13.568  15.613  72.254  1.00  0.00    -0.496 A  
HETATM   19  N   UNL     1     -13.865  14.432  72.884  1.00  0.00    -0.557 NA 
HETATM   20  C   UNL     1     -13.324  13.388  72.186  1.00  0.00    -0.520 A  
HETATM   21  H   UNL     1     -14.407  14.345  73.744  1.00  0.00     0.000 HD 
HETATM   22  N   UNL     1     -13.459  12.097  72.526  1.00  0.00    -0.173 NA 
HETATM   23  C   UNL     1     -12.859  11.286  71.640  1.00  0.00    -0.405 A  
HETATM   24  N   UNL     1     -12.182  11.633  70.530  1.00  0.00    -0.369 NA 
ENDBRANCH  11  15
ENDBRANCH   4  10
ENDBRANCH   3   4
TORSDOF 4
ENDMDL
MODEL       12
REMARK 921   NORMALIZED FREE ENERGY PREDICTED BY IDOCK:   -7.13 KCAL/MOL
REMARK 922        TOTAL FREE ENERGY PREDICTED BY IDOCK:   -9.21 KCAL/MOL
REMARK 923 INTER-LIGAND FREE ENERGY PREDICTED BY IDOCK:   -8.58 KCAL/MOL
REMARK 924 INTRA-LIGAND FREE ENERGY PREDICTED BY IDOCK:   -0.63 KCAL/MOL
REMARK 927      BINDING AFFINITY PREDICTED BY RF-SCORE:    0.00 PKD
ROOT
HETATM    1  N   UNL     1     -12.567  12.992  63.655  1.00  0.00    -0.731 NA 
HETATM    2  C   UNL     1     -11.741  13.672  64.101  1.00  0.00    -0.386 C  
HETATM    3  C   UNL     1     -10.669  14.484  64.697  1.00  0.00    -0.332 C  
ENDROOT
BRANCH   3   4
HETATM    4  C   UNL     1     -11.056  15.046  66.090  1.00  0.00    -0.329 C  
BRANCH   4   5
HETATM    5  C   UNL     1     -10.341  16.408  66.385  1.00  0.00    -0.319 C  
HETATM    6  C   UNL     1     -10.688  17.064  67.735  1.00  0.00    -0.318 C  
HETATM    7  C   UNL     1     -10.620  18.575  67.546  1.00  0.00    -0.461 C  
HETATM    8  C   UNL     1     -10.706  17.522  65.391  1.00  0.00    -0.008 C  
HETATM    9  C   UNL     1     -10.261  18.797  66.090  1.00  0.00    -0.462 C  
ENDBRANCH   4   5
BRANCH   4  10
HETATM   10  N   UNL     1     -10.904  14.011  67.127  1.00  0.00    -0.283 NA 
HETATM   11  C   UNL     1     -11.186  12.636  68.834  1.00  0.00    -0.329 A  
HETATM   12  C   UNL     1     -11.817  13.555  68.026  1.00  0.00    -0.365 A  
HETATM   13  C   UNL     1      -9.911  12.513  68.255  1.00  0.00    -0.227 A  
HETATM   14  N   UNL     1      -9.746  13.314  67.198  1.00  0.00    -0.230 NA 
BRANCH  11  15
HETATM   15  C   UNL     1     -11.825  12.042  69.983  1.00  0.00    -0.314 A  
HETATM   16  C   UNL     1     -12.528  12.806  70.917  1.00  0.00    -0.373 A  
HETATM   17  C   UNL     1     -12.829  14.178  71.149  1.00  0.00    -0.431 A  
HETATM   18  C   UNL     1     -13.642  14.249  72.261  1.00  0.00    -0.478 A  
HETATM   19  N   UNL     1     -13.850  12.970  72.708  1.00  0.00    -0.688 NA 
HETATM   20  C   UNL     1     -13.189  12.085  71.902  1.00  0.00    -0.364 A  
HETATM   21  H   UNL     1     -14.413  12.717  73.521  1.00  0.00     0.000 HD 
HETATM   22  N   UNL     1     -13.215  10.753  72.056  1.00  0.00    -0.455 NA 
HETATM   23  C   UNL     1     -12.510  10.129  71.099  1.00  0.00    -0.387 A  
HETATM   24  N   UNL     1     -11.829  10.686  70.081  1.00  0.00    -0.308 NA 
ENDBRANCH  11  15
ENDBRANCH   4  10
ENDBRANCH   3   4
TORSDOF 4
ENDMDL
MODEL       13
REMARK 921   NORMALIZED FREE ENERGY PREDICTED BY IDOCK:   -7.06 KCAL/MOL
REMARK 922        TOTAL FREE ENERGY PREDICTED BY IDOCK:   -9.12 KCAL/MOL
REMARK 923 INTER-LIGAND FREE ENERGY PREDICTED BY IDOCK:   -8.54 KCAL/MOL
REMARK 924 INTRA-LIGAND FREE ENERGY PREDICTED BY IDOCK:   -0.57 KCAL/MOL
REMARK 927      BINDING AFFINITY PREDICTED BY RF-SCORE:    0.00 PKD
ROOT
HETATM    1  N   UNL     1     -14.277  13.563  72.365  1.00  0.00    -0.681 NA 
HETATM    2  C   UNL     1     -13.371  13.059  71.845  1.00  0.00    -0.446 C  
HETATM    3  C   UNL     1     -12.225  12.466  71.139  1.00  0.00    -0.092 C  
ENDROOT
BRANCH   3   4
HETATM    4  C   UNL     1     -12.660  11.423  70.075  1.00  0.00    -0.059 C  
BRANCH   4   5
HETATM    5  C   UNL     1     -12.249   9.969  70.487  1.00  0.00    -0.308 C  
HETATM    6  C   UNL     1     -12.927   9.420  71.757  1.00  0.00    -0.484 C  
HETATM    7  C   UNL     1     -11.938   8.481  72.439  1.00  0.00    -0.434 C  
HETATM    8  C   UNL     1     -10.760   9.825  70.838  1.00  0.00    -0.375 C  
HETATM    9  C   UNL     1     -10.685   8.504  71.585  1.00  0.00    -0.351 C  
ENDBRANCH   4   5
BRANCH   4  10
HETATM   10  N   UNL     1     -12.233  11.847  68.731  1.00  0.00    -0.289 NA 
HETATM   11  C   UNL     1     -11.775  12.985  66.892  1.00  0.00    -0.441 A  
HETATM   12  C   UNL     1     -12.159  13.101  68.209  1.00  0.00    -0.179 A  
HETATM   13  C   UNL     1     -11.517  11.610  66.747  1.00  0.00    -0.225 A  
HETATM   14  N   UNL     1     -11.756  10.921  67.867  1.00  0.00    -0.574 NA 
BRANCH  11  15
HETATM   15  C   UNL     1     -11.718  14.113  65.996  1.00  0.00    -0.382 A  
HETATM   16  C   UNL     1     -10.816  15.163  66.183  1.00  0.00    -0.330 A  
HETATM   17  C   UNL     1      -9.820  15.546  67.125  1.00  0.00    -0.236 A  
HETATM   18  C   UNL     1      -9.240  16.713  66.675  1.00  0.00    -0.253 A  
HETATM   19  N   UNL     1      -9.843  17.050  65.491  1.00  0.00    -0.544 NA 
HETATM   20  C   UNL     1     -10.793  16.118  65.175  1.00  0.00    -0.361 A  
HETATM   21  H   UNL     1      -9.617  17.872  64.930  1.00  0.00     0.000 HD 
HETATM   22  N   UNL     1     -11.542  16.145  64.063  1.00  0.00    -0.889 NA 
HETATM   23  C   UNL     1     -12.364  15.086  63.993  1.00  0.00    -0.023 A  
HETATM   24  N   UNL     1     -12.492  14.080  64.878  1.00  0.00    -0.588 NA 
ENDBRANCH  11  15
ENDBRANCH   4  10
ENDBRANCH   3   4
TORSDOF 4
ENDMDL
MODEL       14
REMARK 921   NORMALIZED FREE ENERGY PREDICTED BY IDOCK:   -7.02 KCAL/MOL
REMARK 922        TOTAL FREE ENERGY PREDICTED BY IDOCK:   -9.07 KCAL/MOL
REMARK 923 INTER-LIGAND FREE ENERGY PREDICTED BY IDOCK:   -8.54 KCAL/MOL
REMARK 924 INTRA-LIGAND FREE ENERGY PREDICTED BY IDOCK:   -0.53 KCAL/MOL
REMARK 927      BINDING AFFINITY PREDICTED BY RF-SCORE:    0.00 PKD
ROOT
HETATM    1  N   UNL     1      -7.180  10.379  70.101  1.00  0.00    -0.198 NA 
HETATM    2  C   UNL     1      -8.250  10.079  69.769  1.00  0.00    -0.178 C  
HETATM    3  C   UNL     1      -9.605   9.746  69.303  1.00  0.00    -0.204 C  
ENDROOT
BRANCH   3   4
HETATM    4  C   UNL     1     -10.701  10.566  70.034  1.00  0.00    -0.224 C  
BRANCH   4   5
HETATM    5  C   UNL     1     -11.845   9.647  70.581  1.00  0.00    -0.331 C  
HETATM    6  C   UNL     1     -13.053  10.381  71.195  1.00  0.00    -0.474 C  
HETATM    7  C   UNL     1     -13.607   9.505  72.312  1.00  0.00    -0.494 C  
HETATM    8  C   UNL     1     -11.404   8.742  71.742  1.00  0.00    -0.409 C  
HETATM    9  C   UNL     1     -12.713   8.281  72.365  1.00  0.00    -0.287 C  
ENDBRANCH   4   5
BRANCH   4  10
HETATM   10  N   UNL     1     -11.139  11.700  69.202  1.00  0.00    -0.241 NA 
HETATM   11  C   UNL     1     -11.753  13.023  67.542  1.00  0.00    -0.421 A  
HETATM   12  C   UNL     1     -11.484  11.718  67.887  1.00  0.00    -0.317 A  
HETATM   13  C   UNL     1     -11.662  13.710  68.765  1.00  0.00    -0.348 A  
HETATM   14  N   UNL     1     -11.329  12.909  69.782  1.00  0.00    -0.111 NA 
BRANCH  11  15
HETATM   15  C   UNL     1     -12.029  13.429  66.186  1.00  0.00    -0.413 A  
HETATM   16  C   UNL     1     -11.610  14.662  65.682  1.00  0.00    -0.328 A  
HETATM   17  C   UNL     1     -10.934  15.823  66.153  1.00  0.00    -0.169 A  
HETATM   18  C   UNL     1     -10.790  16.689  65.090  1.00  0.00    -0.186 A  
HETATM   19  N   UNL     1     -11.348  16.094  63.988  1.00  0.00    -1.347 NA 
HETATM   20  C   UNL     1     -11.842  14.865  64.327  1.00  0.00    -0.297 A  
HETATM   21  H   UNL     1     -11.390  16.506  63.056  1.00  0.00     0.000 HD 
HETATM   22  N   UNL     1     -12.426  14.018  63.467  1.00  0.00    -0.799 NA 
HETATM   23  C   UNL     1     -12.780  12.869  64.065  1.00  0.00    -0.145 A  
HETATM   24  N   UNL     1     -12.614  12.525  65.355  1.00  0.00    -0.615 NA 
ENDBRANCH  11  15
ENDBRANCH   4  10
ENDBRANCH   3   4
TORSDOF 4
ENDMDL
MODEL       15
REMARK 921   NORMALIZED FREE ENERGY PREDICTED BY IDOCK:   -7.00 KCAL/MOL
REMARK 922        TOTAL FREE ENERGY PREDICTED BY IDOCK:   -9.04 KCAL/MOL
REMARK 923 INTER-LIGAND FREE ENERGY PREDICTED BY IDOCK:   -8.47 KCAL/MOL
REMARK 924 INTRA-LIGAND FREE ENERGY PREDICTED BY IDOCK:   -0.57 KCAL/MOL
REMARK 927      BINDING AFFINITY PREDICTED BY RF-SCORE:    0.00 PKD
ROOT
HETATM    1  N   UNL     1     -10.625  18.121  67.378  1.00  0.00    -0.405 NA 
HETATM    2  C   UNL     1     -10.620  17.359  68.252  1.00  0.00    -0.366 C  
HETATM    3  C   UNL     1     -10.590  16.348  69.320  1.00  0.00    -0.311 C  
ENDROOT
BRANCH   3   4
HETATM    4  C   UNL     1     -11.895  15.511  69.381  1.00  0.00    -0.374 C  
BRANCH   4   5
HETATM    5  C   UNL     1     -12.286  15.153  70.855  1.00  0.00    -0.412 C  
HETATM    6  C   UNL     1     -13.798  15.088  71.146  1.00  0.00    -0.468 C  
HETATM    7  C   UNL     1     -14.010  15.529  72.589  1.00  0.00    -0.617 C  
HETATM    8  C   UNL     1     -11.812  16.188  71.887  1.00  0.00    -0.605 C  
HETATM    9  C   UNL     1     -12.634  15.874  73.126  1.00  0.00    -0.622 C  
ENDBRANCH   4   5
BRANCH   4  10
HETATM   10  N   UNL     1     -11.825  14.374  68.447  1.00  0.00    -0.326 NA 
HETATM   11  C   UNL     1     -11.474  12.417  67.484  1.00  0.00    -0.410 A  
HETATM   12  C   UNL     1     -11.442  13.091  68.684  1.00  0.00    -0.307 A  
HETATM   13  C   UNL     1     -12.016  13.359  66.593  1.00  0.00    -0.399 A  
HETATM   14  N   UNL     1     -12.266  14.535  67.178  1.00  0.00    -0.277 NA 
BRANCH  11  15
HETATM   15  C   UNL     1     -11.006  11.060  67.342  1.00  0.00    -0.291 A  
HETATM   16  C   UNL     1     -10.435  10.594  66.156  1.00  0.00    -0.260 A  
HETATM   17  C   UNL     1     -10.158  11.090  64.850  1.00  0.00    -0.359 A  
HETATM   18  C   UNL     1      -9.508  10.095  64.150  1.00  0.00    -0.293 A  
HETATM   19  N   UNL     1      -9.374   9.016  64.985  1.00  0.00    -0.443 NA 
HETATM   20  C   UNL     1      -9.922   9.305  66.205  1.00  0.00    -0.277 A  
HETATM   21  H   UNL     1      -8.931   8.132  64.735  1.00  0.00     0.000 HD 
HETATM   22  N   UNL     1      -9.927   8.467  67.252  1.00  0.00    -0.203 NA 
HETATM   23  C   UNL     1     -10.497   9.026  68.331  1.00  0.00    -0.192 A  
HETATM   24  N   UNL     1     -11.026  10.259  68.440  1.00  0.00    -0.254 NA 
ENDBRANCH  11  15
ENDBRANCH   4  10
ENDBRANCH   3   4
TORSDOF 4
ENDMDL
MODEL       16
REMARK 921   NORMALIZED FREE ENERGY PREDICTED BY IDOCK:   -6.98 KCAL/MOL
REMARK 922        TOTAL FREE ENERGY PREDICTED BY IDOCK:   -9.03 KCAL/MOL
REMARK 923 INTER-LIGAND FREE ENERGY PREDICTED BY IDOCK:   -8.38 KCAL/MOL
REMARK 924 INTRA-LIGAND FREE ENERGY PREDICTED BY IDOCK:   -0.64 KCAL/MOL
REMARK 927      BINDING AFFINITY PREDICTED BY RF-SCORE:    0.00 PKD
ROOT
HETATM    1  N   UNL     1      -9.714  16.308  65.755  1.00  0.00    -0.472 NA 
HETATM    2  C   UNL     1     -10.558  15.598  66.111  1.00  0.00    -0.320 C  
HETATM    3  C   UNL     1     -11.614  14.711  66.624  1.00  0.00    -0.359 C  
ENDROOT
BRANCH   3   4
HETATM    4  C   UNL     1     -11.111  13.260  66.849  1.00  0.00    -0.289 C  
BRANCH   4   5
HETATM    5  C   UNL     1     -11.545  12.308  65.684  1.00  0.00    -0.433 C  
HETATM    6  C   UNL     1     -10.428  11.902  64.704  1.00  0.00    -0.340 C  
HETATM    7  C   UNL     1     -11.062  11.718  63.331  1.00  0.00    -0.448 C  
HETATM    8  C   UNL     1     -12.584  12.928  64.737  1.00  0.00    -0.493 C  
HETATM    9  C   UNL     1     -12.534  12.039  63.505  1.00  0.00    -0.654 C  
ENDBRANCH   4   5
BRANCH   4  10
HETATM   10  N   UNL     1     -11.450  12.800  68.207  1.00  0.00    -0.290 NA 
HETATM   11  C   UNL     1     -11.908  11.603  70.007  1.00  0.00    -0.435 A  
HETATM   12  C   UNL     1     -11.447  11.537  68.711  1.00  0.00    -0.287 A  
HETATM   13  C   UNL     1     -12.046  12.984  70.236  1.00  0.00    -0.314 A  
HETATM   14  N   UNL     1     -11.734  13.716  69.162  1.00  0.00    -0.307 NA 
BRANCH  11  15
HETATM   15  C   UNL     1     -12.155  10.428  70.806  1.00  0.00    -0.364 A  
HETATM   16  C   UNL     1     -11.138   9.530  71.137  1.00  0.00    -0.450 A  
HETATM   17  C   UNL     1      -9.749   9.362  70.874  1.00  0.00    -0.320 A  
HETATM   18  C   UNL     1      -9.318   8.254  71.574  1.00  0.00    -0.180 A  
HETATM   19  N   UNL     1     -10.393   7.748  72.257  1.00  0.00    -0.220 NA 
HETATM   20  C   UNL     1     -11.499   8.512  72.010  1.00  0.00    -0.361 A  
HETATM   21  H   UNL     1     -10.371   6.924  72.858  1.00  0.00     0.000 HD 
HETATM   22  N   UNL     1     -12.707   8.297  72.552  1.00  0.00    -0.239 NA 
HETATM   23  C   UNL     1     -13.597   9.224  72.164  1.00  0.00    -0.471 A  
HETATM   24  N   UNL     1     -13.396  10.267  71.338  1.00  0.00    -0.338 NA 
ENDBRANCH  11  15
ENDBRANCH   4  10
ENDBRANCH   3   4
TORSDOF 4
ENDMDL
MODEL       17
REMARK 921   NORMALIZED FREE ENERGY PREDICTED BY IDOCK:   -6.97 KCAL/MOL
REMARK 922        TOTAL FREE ENERGY PREDICTED BY IDOCK:   -9.00 KCAL/MOL
REMARK 923 INTER-LIGAND FREE ENERGY PREDICTED BY IDOCK:   -8.24 KCAL/MOL
REMARK 924 INTRA-LIGAND FREE ENERGY PREDICTED BY IDOCK:   -0.77 KCAL/MOL
REMARK 927      BINDING AFFINITY PREDICTED BY RF-SCORE:    0.00 PKD
ROOT
HETATM    1  N   UNL     1      -6.702   9.094  71.737  1.00  0.00    -0.286 NA 
HETATM    2  C   UNL     1      -7.727   8.596  71.522  1.00  0.00    -0.118 C  
HETATM    3  C   UNL     1      -9.042   8.014  71.210  1.00  0.00    -0.168 C  
ENDROOT
BRANCH   3   4
HETATM    4  C   UNL     1     -10.157   8.526  72.159  1.00  0.00    -0.323 C  
BRANCH   4   5
HETATM    5  C   UNL     1     -10.843   7.352  72.936  1.00  0.00    -0.402 C  
HETATM    6  C   UNL     1     -10.033   6.765  74.107  1.00  0.00    -0.373 C  
HETATM    7  C   UNL     1     -10.372   5.282  74.206  1.00  0.00    -0.308 C  
HETATM    8  C   UNL     1     -11.093   6.106  72.071  1.00  0.00    -0.322 C  
HETATM    9  C   UNL     1     -11.352   5.003  73.084  1.00  0.00    -0.397 C  
ENDBRANCH   4   5
BRANCH   4  10
HETATM   10  N   UNL     1     -11.070   9.434  71.443  1.00  0.00    -0.361 NA 
HETATM   11  C   UNL     1     -11.972  10.925  70.084  1.00  0.00    -0.435 A  
HETATM   12  C   UNL     1     -10.836  10.189  70.335  1.00  0.00    -0.301 A  
HETATM   13  C   UNL     1     -12.891  10.444  71.034  1.00  0.00    -0.401 A  
HETATM   14  N   UNL     1     -12.363   9.514  71.835  1.00  0.00    -0.381 NA 
BRANCH  11  15
HETATM   15  C   UNL     1     -12.034  11.932  69.053  1.00  0.00    -0.262 A  
HETATM   16  C   UNL     1     -12.082  13.295  69.352  1.00  0.00    -0.301 A  
HETATM   17  C   UNL     1     -12.129  14.123  70.509  1.00  0.00    -0.420 A  
HETATM   18  C   UNL     1     -12.106  15.436  70.089  1.00  0.00    -0.369 A  
HETATM   19  N   UNL     1     -12.041  15.436  68.720  1.00  0.00    -0.587 NA 
HETATM   20  C   UNL     1     -12.017  14.149  68.259  1.00  0.00    -0.332 A  
HETATM   21  H   UNL     1     -12.014  16.271  68.134  1.00  0.00     0.000 HD 
HETATM   22  N   UNL     1     -11.927  13.808  66.965  1.00  0.00    -0.408 NA 
HETATM   23  C   UNL     1     -11.885  12.476  66.805  1.00  0.00    -0.346 A  
HETATM   24  N   UNL     1     -11.927  11.528  67.759  1.00  0.00    -0.637 NA 
ENDBRANCH  11  15
ENDBRANCH   4  10
ENDBRANCH   3   4
TORSDOF 4
ENDMDL
MODEL       18
REMARK 921   NORMALIZED FREE ENERGY PREDICTED BY IDOCK:   -6.90 KCAL/MOL
REMARK 922        TOTAL FREE ENERGY PREDICTED BY IDOCK:   -8.92 KCAL/MOL
REMARK 923 INTER-LIGAND FREE ENERGY PREDICTED BY IDOCK:   -8.19 KCAL/MOL
REMARK 924 INTRA-LIGAND FREE ENERGY PREDICTED BY IDOCK:   -0.74 KCAL/MOL
REMARK 927      BINDING AFFINITY PREDICTED BY RF-SCORE:    0.00 PKD
ROOT
HETATM    1  N   UNL     1     -12.889  12.207  63.502  1.00  0.00    -0.796 NA 
HETATM    2  C   UNL     1     -12.446  12.470  64.540  1.00  0.00    -0.459 C  
HETATM    3  C   UNL     1     -11.871  12.865  65.836  1.00  0.00    -0.476 C  
ENDROOT
BRANCH   3   4
HETATM    4  C   UNL     1     -10.334  12.662  65.889  1.00  0.00    -0.276 C  
BRANCH   4   5
HETATM    5  C   UNL     1      -9.950  11.322  66.602  1.00  0.00    -0.242 C  
HETATM    6  C   UNL     1      -9.573  10.155  65.670  1.00  0.00    -0.302 C  
HETATM    7  C   UNL     1     -10.007   8.862  66.350  1.00  0.00    -0.354 C  
HETATM    8  C   UNL     1     -11.097  10.711  67.423  1.00  0.00    -0.341 C  
HETATM    9  C   UNL     1     -10.656   9.275  67.657  1.00  0.00    -0.324 C  
ENDBRANCH   4   5
BRANCH   4  10
HETATM   10  N   UNL     1      -9.670  13.871  66.406  1.00  0.00    -0.291 NA 
HETATM   11  C   UNL     1      -8.817  15.891  66.679  1.00  0.00    -0.316 A  
HETATM   12  C   UNL     1      -9.610  15.117  65.863  1.00  0.00    -0.338 A  
HETATM   13  C   UNL     1      -8.544  15.045  67.769  1.00  0.00    -0.161 A  
HETATM   14  N   UNL     1      -9.089  13.833  67.628  1.00  0.00    -0.186 NA 
BRANCH  11  15
HETATM   15  C   UNL     1      -8.432  17.239  66.339  1.00  0.00    -0.269 A  
HETATM   16  C   UNL     1      -9.262  18.333  66.594  1.00  0.00    -0.299 A  
HETATM   17  C   UNL     1     -10.562  18.573  67.124  1.00  0.00    -0.439 A  
HETATM   18  C   UNL     1     -10.763  19.937  67.146  1.00  0.00    -0.340 A  
HETATM   19  N   UNL     1      -9.631  20.534  66.655  1.00  0.00    -0.650 NA 
HETATM   20  C   UNL     1      -8.711  19.578  66.323  1.00  0.00    -0.359 A  
HETATM   21  H   UNL     1      -9.495  21.540  66.552  1.00  0.00     0.000 HD 
HETATM   22  N   UNL     1      -7.487  19.838  65.841  1.00  0.00    -0.318 NA 
HETATM   23  C   UNL     1      -6.783  18.712  65.641  1.00  0.00    -0.274 A  
HETATM   24  N   UNL     1      -7.175  17.444  65.864  1.00  0.00    -0.374 NA 
ENDBRANCH  11  15
ENDBRANCH   4  10
ENDBRANCH   3   4
TORSDOF 4
ENDMDL
MODEL       19
REMARK 921   NORMALIZED FREE ENERGY PREDICTED BY IDOCK:   -6.90 KCAL/MOL
REMARK 922        TOTAL FREE ENERGY PREDICTED BY IDOCK:   -8.92 KCAL/MOL
REMARK 923 INTER-LIGAND FREE ENERGY PREDICTED BY IDOCK:   -8.31 KCAL/MOL
REMARK 924 INTRA-LIGAND FREE ENERGY PREDICTED BY IDOCK:   -0.61 KCAL/MOL
REMARK 927      BINDING AFFINITY PREDICTED BY RF-SCORE:    0.00 PKD
ROOT
HETATM    1  N   UNL     1     -12.210  15.637  64.013  1.00  0.00    -0.578 NA 
HETATM    2  C   UNL     1     -12.322  14.646  64.603  1.00  0.00    -0.375 C  
HETATM    3  C   UNL     1     -12.526  13.403  65.364  1.00  0.00    -0.543 C  
ENDROOT
BRANCH   3   4
HETATM    4  C   UNL     1     -12.224  13.578  66.876  1.00  0.00    -0.327 C  
BRANCH   4   5
HETATM    5  C   UNL     1     -11.278  14.798  67.141  1.00  0.00    -0.346 C  
HETATM    6  C   UNL     1      -9.826  14.445  67.517  1.00  0.00    -0.220 C  
HETATM    7  C   UNL     1      -9.317  15.526  68.462  1.00  0.00    -0.197 C  
HETATM    8  C   UNL     1     -11.710  15.664  68.336  1.00  0.00    -0.301 C  
HETATM    9  C   UNL     1     -10.474  16.488  68.657  1.00  0.00    -0.304 C  
ENDBRANCH   4   5
BRANCH   4  10
HETATM   10  N   UNL     1     -11.796  12.300  67.470  1.00  0.00    -0.519 NA 
HETATM   11  C   UNL     1     -11.237  10.661  68.842  1.00  0.00    -0.333 A  
HETATM   12  C   UNL     1     -11.795  11.917  68.775  1.00  0.00    -0.313 A  
HETATM   13  C   UNL     1     -11.044  10.316  67.492  1.00  0.00    -0.232 A  
HETATM   14  N   UNL     1     -11.416  11.289  66.655  1.00  0.00    -0.354 NA 
BRANCH  11  15
HETATM   15  C   UNL     1     -10.962   9.997  70.092  1.00  0.00    -0.310 A  
HETATM   16  C   UNL     1     -11.977   9.658  70.989  1.00  0.00    -0.427 A  
HETATM   17  C   UNL     1     -13.389   9.809  71.095  1.00  0.00    -0.360 A  
HETATM   18  C   UNL     1     -13.796   9.176  72.251  1.00  0.00    -0.463 A  
HETATM   19  N   UNL     1     -12.684   8.641  72.847  1.00  0.00    -0.617 NA 
HETATM   20  C   UNL     1     -11.577   8.916  72.093  1.00  0.00    -0.330 A  
HETATM   21  H   UNL     1     -12.682   8.116  73.722  1.00  0.00     0.000 HD 
HETATM   22  N   UNL     1     -10.335   8.507  72.390  1.00  0.00    -0.324 NA 
HETATM   23  C   UNL     1      -9.450   8.888  71.455  1.00  0.00    -0.277 A  
HETATM   24  N   UNL     1      -9.686   9.595  70.335  1.00  0.00    -0.262 NA 
ENDBRANCH  11  15
ENDBRANCH   4  10
ENDBRANCH   3   4
TORSDOF 4
ENDMDL
MODEL       20
REMARK 921   NORMALIZED FREE ENERGY PREDICTED BY IDOCK:   -6.89 KCAL/MOL
REMARK 922        TOTAL FREE ENERGY PREDICTED BY IDOCK:   -8.91 KCAL/MOL
REMARK 923 INTER-LIGAND FREE ENERGY PREDICTED BY IDOCK:   -8.56 KCAL/MOL
REMARK 924 INTRA-LIGAND FREE ENERGY PREDICTED BY IDOCK:   -0.35 KCAL/MOL
REMARK 927      BINDING AFFINITY PREDICTED BY RF-SCORE:    0.00 PKD
ROOT
HETATM    1  N   UNL     1     -10.736  19.629  65.638  1.00  0.00    -0.444 NA 
HETATM    2  C   UNL     1     -10.310  19.756  66.709  1.00  0.00    -0.482 C  
HETATM    3  C   UNL     1      -9.721  19.952  68.043  1.00  0.00    -0.510 C  
ENDROOT
BRANCH   3   4
HETATM    4  C   UNL     1      -8.669  18.866  68.391  1.00  0.00    -0.345 C  
BRANCH   4   5
HETATM    5  C   UNL     1      -7.207  19.399  68.219  1.00  0.00    -0.331 C  
HETATM    6  C   UNL     1      -6.403  19.572  69.522  1.00  0.00    -0.355 C  
HETATM    7  C   UNL     1      -5.452  20.746  69.326  1.00  0.00    -0.408 C  
HETATM    8  C   UNL     1      -7.133  20.811  67.615  1.00  0.00    -0.358 C  
HETATM    9  C   UNL     1      -5.718  21.270  67.928  1.00  0.00    -0.394 C  
ENDBRANCH   4   5
BRANCH   4  10
HETATM   10  N   UNL     1      -8.974  17.606  67.691  1.00  0.00    -0.238 NA 
HETATM   11  C   UNL     1      -9.830  15.678  67.033  1.00  0.00    -0.237 A  
HETATM   12  C   UNL     1     -10.017  16.753  67.873  1.00  0.00    -0.268 A  
HETATM   13  C   UNL     1      -8.696  16.041  66.286  1.00  0.00    -0.336 A  
HETATM   14  N   UNL     1      -8.194  17.224  66.653  1.00  0.00    -0.240 NA 
BRANCH  11  15
HETATM   15  C   UNL     1     -10.684  14.517  67.054  1.00  0.00    -0.291 A  
HETATM   16  C   UNL     1     -11.381  14.089  65.922  1.00  0.00    -0.317 A  
HETATM   17  C   UNL     1     -11.570  14.511  64.575  1.00  0.00    -0.385 A  
HETATM   18  C   UNL     1     -12.367  13.575  63.948  1.00  0.00    -0.334 A  
HETATM   19  N   UNL     1     -12.662  12.598  64.863  1.00  0.00    -0.778 NA 
HETATM   20  C   UNL     1     -12.067  12.889  66.059  1.00  0.00    -0.422 A  
HETATM   21  H   UNL     1     -13.239  11.777  64.679  1.00  0.00     0.000 HD 
HETATM   22  N   UNL     1     -12.140  12.115  67.152  1.00  0.00    -0.532 NA 
HETATM   23  C   UNL     1     -11.429  12.626  68.170  1.00  0.00    -0.313 A  
HETATM   24  N   UNL     1     -10.710  13.763  68.186  1.00  0.00    -0.242 NA 
ENDBRANCH  11  15
ENDBRANCH   4  10
ENDBRANCH   3   4
TORSDOF 4
ENDMDL
MODEL       21
REMARK 921   NORMALIZED FREE ENERGY PREDICTED BY IDOCK:   -6.85 KCAL/MOL
REMARK 922        TOTAL FREE ENERGY PREDICTED BY IDOCK:   -8.86 KCAL/MOL
REMARK 923 INTER-LIGAND FREE ENERGY PREDICTED BY IDOCK:   -8.13 KCAL/MOL
REMARK 924 INTRA-LIGAND FREE ENERGY PREDICTED BY IDOCK:   -0.73 KCAL/MOL
REMARK 927      BINDING AFFINITY PREDICTED BY RF-SCORE:    0.00 PKD
ROOT
HETATM    1  N   UNL     1     -12.967  12.164  63.470  1.00  0.00    -0.784 NA 
HETATM    2  C   UNL     1     -12.535  12.412  64.517  1.00  0.00    -0.435 C  
HETATM    3  C   UNL     1     -11.979  12.787  65.826  1.00  0.00    -0.502 C  
ENDROOT
BRANCH   3   4
HETATM    4  C   UNL     1     -10.434  12.662  65.871  1.00  0.00    -0.274 C  
BRANCH   4   5
HETATM    5  C   UNL     1      -9.979  11.330  66.558  1.00  0.00    -0.247 C  
HETATM    6  C   UNL     1      -9.795  10.124  65.617  1.00  0.00    -0.347 C  
HETATM    7  C   UNL     1     -10.152   8.867  66.402  1.00  0.00    -0.333 C  
HETATM    8  C   UNL     1     -10.995  10.784  67.574  1.00  0.00    -0.372 C  
HETATM    9  C   UNL     1     -10.566   9.340  67.781  1.00  0.00    -0.307 C  
ENDBRANCH   4   5
BRANCH   4  10
HETATM   10  N   UNL     1      -9.830  13.893  66.410  1.00  0.00    -0.287 NA 
HETATM   11  C   UNL     1      -9.347  15.984  66.937  1.00  0.00    -0.246 A  
HETATM   12  C   UNL     1     -10.295  15.170  66.359  1.00  0.00    -0.286 A  
HETATM   13  C   UNL     1      -8.390  15.076  67.425  1.00  0.00    -0.190 A  
HETATM   14  N   UNL     1      -8.695  13.806  67.142  1.00  0.00    -0.223 NA 
BRANCH  11  15
HETATM   15  C   UNL     1      -9.454  17.422  66.942  1.00  0.00    -0.269 A  
HETATM   16  C   UNL     1      -8.439  18.242  66.446  1.00  0.00    -0.266 A  
HETATM   17  C   UNL     1      -7.136  18.093  65.890  1.00  0.00    -0.300 A  
HETATM   18  C   UNL     1      -6.678  19.348  65.547  1.00  0.00    -0.280 A  
HETATM   19  N   UNL     1      -7.657  20.252  65.868  1.00  0.00    -0.507 NA 
HETATM   20  C   UNL     1      -8.732  19.599  66.405  1.00  0.00    -0.368 A  
HETATM   21  H   UNL     1      -7.594  21.261  65.727  1.00  0.00     0.000 HD 
HETATM   22  N   UNL     1      -9.866  20.198  66.797  1.00  0.00    -0.431 NA 
HETATM   23  C   UNL     1     -10.765  19.309  67.250  1.00  0.00    -0.488 A  
HETATM   24  N   UNL     1     -10.632  17.973  67.340  1.00  0.00    -0.386 NA 
ENDBRANCH  11  15
ENDBRANCH   4  10
ENDBRANCH   3   4
TORSDOF 4
ENDMDL
MODEL       22
REMARK 921   NORMALIZED FREE ENERGY PREDICTED BY IDOCK:   -6.83 KCAL/MOL
REMARK 922        TOTAL FREE ENERGY PREDICTED BY IDOCK:   -8.84 KCAL/MOL
REMARK 923 INTER-LIGAND FREE ENERGY PREDICTED BY IDOCK:   -8.17 KCAL/MOL
REMARK 924 INTRA-LIGAND FREE ENERGY PREDICTED BY IDOCK:   -0.67 KCAL/MOL
REMARK 927      BINDING AFFINITY PREDICTED BY RF-SCORE:    0.00 PKD
ROOT
HETATM    1  N   UNL     1     -12.243  11.023  69.677  1.00  0.00    -0.329 NA 
HETATM    2  C   UNL     1     -11.672  11.495  68.786  1.00  0.00    -0.334 C  
HETATM    3  C   UNL     1     -10.924  12.140  67.695  1.00  0.00    -0.289 C  
ENDROOT
BRANCH   3   4
HETATM    4  C   UNL     1     -11.741  13.259  66.997  1.00  0.00    -0.389 C  
BRANCH   4   5
HETATM    5  C   UNL     1     -11.567  13.221  65.441  1.00  0.00    -0.346 C  
HETATM    6  C   UNL     1     -12.775  12.689  64.648  1.00  0.00    -0.458 C  
HETATM    7  C   UNL     1     -12.240  11.985  63.407  1.00  0.00    -0.627 C  
HETATM    8  C   UNL     1     -10.444  12.282  64.970  1.00  0.00    -0.322 C  
HETATM    9  C   UNL     1     -10.729  12.083  63.491  1.00  0.00    -0.513 C  
ENDBRANCH   4   5
BRANCH   4  10
HETATM   10  N   UNL     1     -11.483  14.562  67.634  1.00  0.00    -0.337 NA 
HETATM   11  C   UNL     1     -10.828  16.619  68.106  1.00  0.00    -0.348 A  
HETATM   12  C   UNL     1     -10.924  15.683  67.102  1.00  0.00    -0.270 A  
HETATM   13  C   UNL     1     -11.477  16.004  69.191  1.00  0.00    -0.347 A  
HETATM   14  N   UNL     1     -11.910  14.773  68.901  1.00  0.00    -0.306 NA 
BRANCH  11  15
HETATM   15  C   UNL     1     -10.164  17.887  67.927  1.00  0.00    -0.371 A  
HETATM   16  C   UNL     1      -8.811  18.064  68.223  1.00  0.00    -0.291 A  
HETATM   17  C   UNL     1      -7.735  17.295  68.750  1.00  0.00    -0.261 A  
HETATM   18  C   UNL     1      -6.604  18.084  68.732  1.00  0.00    -0.233 A  
HETATM   19  N   UNL     1      -6.953  19.302  68.207  1.00  0.00    -0.262 NA 
HETATM   20  C   UNL     1      -8.282  19.303  67.887  1.00  0.00    -0.305 A  
HETATM   21  H   UNL     1      -6.317  20.088  68.076  1.00  0.00     0.000 HD 
HETATM   22  N   UNL     1      -8.927  20.337  67.326  1.00  0.00    -0.354 NA 
HETATM   23  C   UNL     1     -10.216  20.047  67.086  1.00  0.00    -0.441 A  
HETATM   24  N   UNL     1     -10.864  18.897  67.344  1.00  0.00    -0.441 NA 
ENDBRANCH  11  15
ENDBRANCH   4  10
ENDBRANCH   3   4
TORSDOF 4
ENDMDL
MODEL       23
REMARK 921   NORMALIZED FREE ENERGY PREDICTED BY IDOCK:   -6.83 KCAL/MOL
REMARK 922        TOTAL FREE ENERGY PREDICTED BY IDOCK:   -8.84 KCAL/MOL
REMARK 923 INTER-LIGAND FREE ENERGY PREDICTED BY IDOCK:   -8.40 KCAL/MOL
REMARK 924 INTRA-LIGAND FREE ENERGY PREDICTED BY IDOCK:   -0.43 KCAL/MOL
REMARK 927      BINDING AFFINITY PREDICTED BY RF-SCORE:    0.00 PKD
ROOT
HETATM    1  N   UNL     1      -7.969   9.569  70.823  1.00  0.00    -0.298 NA 
HETATM    2  C   UNL     1      -8.996   9.590  70.287  1.00  0.00    -0.248 C  
HETATM    3  C   UNL     1     -10.282   9.672  69.577  1.00  0.00    -0.233 C  
ENDROOT
BRANCH   3   4
HETATM    4  C   UNL     1     -11.325  10.534  70.337  1.00  0.00    -0.328 C  
BRANCH   4   5
HETATM    5  C   UNL     1     -12.627   9.722  70.654  1.00  0.00    -0.185 C  
HETATM    6  C   UNL     1     -13.404  10.173  71.906  1.00  0.00    -0.505 C  
HETATM    7  C   UNL     1     -14.064   8.938  72.509  1.00  0.00    -0.441 C  
HETATM    8  C   UNL     1     -12.368   8.239  70.961  1.00  0.00    -0.145 C  
HETATM    9  C   UNL     1     -13.652   7.774  71.629  1.00  0.00    -0.416 C  
ENDBRANCH   4   5
BRANCH   4  10
HETATM   10  N   UNL     1     -11.530  11.822  69.652  1.00  0.00    -0.281 NA 
HETATM   11  C   UNL     1     -11.570  13.492  68.206  1.00  0.00    -0.381 A  
HETATM   12  C   UNL     1     -11.289  12.152  68.355  1.00  0.00    -0.286 A  
HETATM   13  C   UNL     1     -12.099  13.857  69.456  1.00  0.00    -0.342 A  
HETATM   14  N   UNL     1     -12.113  12.841  70.325  1.00  0.00    -0.342 NA 
BRANCH  11  15
HETATM   15  C   UNL     1     -11.306  14.211  66.984  1.00  0.00    -0.332 A  
HETATM   16  C   UNL     1     -11.762  13.758  65.744  1.00  0.00    -0.365 A  
HETATM   17  C   UNL     1     -12.474  12.640  65.224  1.00  0.00    -0.483 A  
HETATM   18  C   UNL     1     -12.644  12.841  63.870  1.00  0.00    -0.289 A  
HETATM   19  N   UNL     1     -12.067  14.043  63.551  1.00  0.00    -0.991 NA 
HETATM   20  C   UNL     1     -11.536  14.614  64.674  1.00  0.00    -0.388 A  
HETATM   21  H   UNL     1     -12.038  14.450  62.616  1.00  0.00     0.000 HD 
HETATM   22  N   UNL     1     -10.925  15.807  64.703  1.00  0.00    -0.497 NA 
HETATM   23  C   UNL     1     -10.537  16.136  65.945  1.00  0.00    -0.312 A  
HETATM   24  N   UNL     1     -10.693  15.422  67.075  1.00  0.00    -0.317 NA 
ENDBRANCH  11  15
ENDBRANCH   4  10
ENDBRANCH   3   4
TORSDOF 4
ENDMDL
MODEL       24
REMARK 921   NORMALIZED FREE ENERGY PREDICTED BY IDOCK:   -6.83 KCAL/MOL
REMARK 922        TOTAL FREE ENERGY PREDICTED BY IDOCK:   -8.83 KCAL/MOL
REMARK 923 INTER-LIGAND FREE ENERGY PREDICTED BY IDOCK:   -8.54 KCAL/MOL
REMARK 924 INTRA-LIGAND FREE ENERGY PREDICTED BY IDOCK:   -0.29 KCAL/MOL
REMARK 927      BINDING AFFINITY PREDICTED BY RF-SCORE:    0.00 PKD
ROOT
HETATM    1  N   UNL     1     -11.334  16.847  64.291  1.00  0.00    -1.103 NA 
HETATM    2  C   UNL     1     -11.070  16.178  65.200  1.00  0.00    -0.249 C  
HETATM    3  C   UNL     1     -10.673  15.347  66.347  1.00  0.00    -0.311 C  
ENDROOT
BRANCH   3   4
HETATM    4  C   UNL     1     -10.211  13.929  65.921  1.00  0.00    -0.315 C  
BRANCH   4   5
HETATM    5  C   UNL     1     -10.951  13.442  64.629  1.00  0.00    -0.388 C  
HETATM    6  C   UNL     1     -12.431  13.058  64.814  1.00  0.00    -0.485 C  
HETATM    7  C   UNL     1     -12.745  11.939  63.828  1.00  0.00    -0.466 C  
HETATM    8  C   UNL     1     -10.364  12.152  64.033  1.00  0.00    -0.412 C  
HETATM    9  C   UNL     1     -11.449  11.656  63.092  1.00  0.00    -0.125 C  
ENDBRANCH   4   5
BRANCH   4  10
HETATM   10  N   UNL     1     -10.257  13.004  67.067  1.00  0.00    -0.243 NA 
HETATM   11  C   UNL     1     -10.828  11.852  68.864  1.00  0.00    -0.261 A  
HETATM   12  C   UNL     1     -11.290  12.726  67.906  1.00  0.00    -0.293 A  
HETATM   13  C   UNL     1      -9.520  11.561  68.438  1.00  0.00    -0.195 A  
HETATM   14  N   UNL     1      -9.180  12.226  67.329  1.00  0.00    -0.179 NA 
BRANCH  11  15
HETATM   15  C   UNL     1     -11.626  11.441  69.993  1.00  0.00    -0.299 A  
HETATM   16  C   UNL     1     -12.336  12.358  70.771  1.00  0.00    -0.377 A  
HETATM   17  C   UNL     1     -12.524  13.768  70.836  1.00  0.00    -0.451 A  
HETATM   18  C   UNL     1     -13.426  14.028  71.845  1.00  0.00    -0.421 A  
HETATM   19  N   UNL     1     -13.799  12.827  72.391  1.00  0.00    -0.550 NA 
HETATM   20  C   UNL     1     -13.155  11.807  71.748  1.00  0.00    -0.375 A  
HETATM   21  H   UNL     1     -14.457  12.712  73.162  1.00  0.00     0.000 HD 
HETATM   22  N   UNL     1     -13.325  10.506  72.027  1.00  0.00    -0.401 NA 
HETATM   23  C   UNL     1     -12.596   9.725  71.213  1.00  0.00    -0.365 A  
HETATM   24  N   UNL     1     -11.772  10.109  70.221  1.00  0.00    -0.277 NA 
ENDBRANCH  11  15
ENDBRANCH   4  10
ENDBRANCH   3   4
TORSDOF 4
ENDMDL
MODEL       25
REMARK 921   NORMALIZED FREE ENERGY PREDICTED BY IDOCK:   -6.83 KCAL/MOL
REMARK 922        TOTAL FREE ENERGY PREDICTED BY IDOCK:   -8.83 KCAL/MOL
REMARK 923 INTER-LIGAND FREE ENERGY PREDICTED BY IDOCK:   -8.26 KCAL/MOL
REMARK 924 INTRA-LIGAND FREE ENERGY PREDICTED BY IDOCK:   -0.57 KCAL/MOL
REMARK 927      BINDING AFFINITY PREDICTED BY RF-SCORE:    0.00 PKD
ROOT
HETATM    1  N   UNL     1     -12.227  13.113  70.686  1.00  0.00    -0.361 NA 
HETATM    2  C   UNL     1     -12.027  12.742  69.606  1.00  0.00    -0.288 C  
HETATM    3  C   UNL     1     -11.711  12.287  68.243  1.00  0.00    -0.392 C  
ENDROOT
BRANCH   3   4
HETATM    4  C   UNL     1     -11.815  13.429  67.198  1.00  0.00    -0.382 C  
BRANCH   4   5
HETATM    5  C   UNL     1     -12.203  12.885  65.781  1.00  0.00    -0.498 C  
HETATM    6  C   UNL     1     -11.343  11.719  65.258  1.00  0.00    -0.284 C  
HETATM    7  C   UNL     1     -11.268  11.845  63.741  1.00  0.00    -0.519 C  
HETATM    8  C   UNL     1     -12.042  13.922  64.659  1.00  0.00    -0.458 C  
HETATM    9  C   UNL     1     -12.056  13.091  63.386  1.00  0.00    -0.591 C  
ENDBRANCH   4   5
BRANCH   4  10
HETATM   10  N   UNL     1     -10.617  14.284  67.245  1.00  0.00    -0.276 NA 
HETATM   11  C   UNL     1      -9.198  15.969  67.422  1.00  0.00    -0.214 A  
HETATM   12  C   UNL     1     -10.507  15.589  67.613  1.00  0.00    -0.279 A  
HETATM   13  C   UNL     1      -8.561  14.772  67.049  1.00  0.00    -0.234 A  
HETATM   14  N   UNL     1      -9.407  13.740  66.976  1.00  0.00    -0.239 NA 
BRANCH  11  15
HETATM   15  C   UNL     1      -8.750  17.329  67.593  1.00  0.00    -0.219 A  
HETATM   16  C   UNL     1      -9.376  18.401  66.954  1.00  0.00    -0.290 A  
HETATM   17  C   UNL     1     -10.443  18.606  66.033  1.00  0.00    -0.456 A  
HETATM   18  C   UNL     1     -10.583  19.966  65.846  1.00  0.00    -0.417 A  
HETATM   19  N   UNL     1      -9.645  20.593  66.624  1.00  0.00    -0.664 NA 
HETATM   20  C   UNL     1      -8.912  19.662  67.306  1.00  0.00    -0.318 A  
HETATM   21  H   UNL     1      -9.513  21.603  66.685  1.00  0.00     0.000 HD 
HETATM   22  N   UNL     1      -7.933  19.954  68.175  1.00  0.00    -0.293 NA 
HETATM   23  C   UNL     1      -7.412  18.846  68.726  1.00  0.00    -0.325 A  
HETATM   24  N   UNL     1      -7.760  17.567  68.495  1.00  0.00    -0.263 NA 
ENDBRANCH  11  15
ENDBRANCH   4  10
ENDBRANCH   3   4
TORSDOF 4
ENDMDL
MODEL       26
REMARK 921   NORMALIZED FREE ENERGY PREDICTED BY IDOCK:   -6.82 KCAL/MOL
REMARK 922        TOTAL FREE ENERGY PREDICTED BY IDOCK:   -8.83 KCAL/MOL
REMARK 923 INTER-LIGAND FREE ENERGY PREDICTED BY IDOCK:   -8.17 KCAL/MOL
REMARK 924 INTRA-LIGAND FREE ENERGY PREDICTED BY IDOCK:   -0.65 KCAL/MOL
REMARK 927      BINDING AFFINITY PREDICTED BY RF-SCORE:    0.00 PKD
ROOT
HETATM    1  N   UNL     1      -8.053   8.696  72.645  1.00  0.00    -0.394 NA 
HETATM    2  C   UNL     1      -8.875   8.492  71.854  1.00  0.00    -0.216 C  
HETATM    3  C   UNL     1      -9.881   8.260  70.806  1.00  0.00    -0.205 C  
ENDROOT
BRANCH   3   4
HETATM    4  C   UNL     1     -10.832   9.472  70.618  1.00  0.00    -0.306 C  
BRANCH   4   5
HETATM    5  C   UNL     1     -12.336   9.054  70.744  1.00  0.00    -0.064 C  
HETATM    6  C   UNL     1     -13.137   9.772  71.847  1.00  0.00    -0.544 C  
HETATM    7  C   UNL     1     -14.186   8.796  72.366  1.00  0.00    -0.464 C  
HETATM    8  C   UNL     1     -12.535   7.578  71.122  1.00  0.00    -0.306 C  
HETATM    9  C   UNL     1     -13.980   7.511  71.589  1.00  0.00    -0.523 C  
ENDBRANCH   4   5
BRANCH   4  10
HETATM   10  N   UNL     1     -10.480  10.222  69.400  1.00  0.00    -0.221 NA 
HETATM   11  C   UNL     1     -10.489  11.247  67.442  1.00  0.00    -0.247 A  
HETATM   12  C   UNL     1     -11.288  10.657  68.396  1.00  0.00    -0.283 A  
HETATM   13  C   UNL     1      -9.211  11.228  68.028  1.00  0.00    -0.160 A  
HETATM   14  N   UNL     1      -9.205  10.643  69.230  1.00  0.00    -0.150 NA 
BRANCH  11  15
HETATM   15  C   UNL     1     -11.002  11.709  66.176  1.00  0.00    -0.288 A  
HETATM   16  C   UNL     1     -10.474  11.272  64.959  1.00  0.00    -0.359 A  
HETATM   17  C   UNL     1      -9.423  10.425  64.506  1.00  0.00    -0.342 A  
HETATM   18  C   UNL     1      -9.479  10.385  63.128  1.00  0.00    -0.327 A  
HETATM   19  N   UNL     1     -10.528  11.171  62.729  1.00  0.00    -0.759 NA 
HETATM   20  C   UNL     1     -11.145  11.709  63.824  1.00  0.00    -0.420 A  
HETATM   21  H   UNL     1     -10.807  11.331  61.761  1.00  0.00     0.000 HD 
HETATM   22  N   UNL     1     -12.225  12.503  63.774  1.00  0.00    -0.509 NA 
HETATM   23  C   UNL     1     -12.641  12.853  65.001  1.00  0.00    -0.472 A  
HETATM   24  N   UNL     1     -12.105  12.504  66.185  1.00  0.00    -0.615 NA 
ENDBRANCH  11  15
ENDBRANCH   4  10
ENDBRANCH   3   4
TORSDOF 4
ENDMDL
MODEL       27
REMARK 921   NORMALIZED FREE ENERGY PREDICTED BY IDOCK:   -6.82 KCAL/MOL
REMARK 922        TOTAL FREE ENERGY PREDICTED BY IDOCK:   -8.83 KCAL/MOL
REMARK 923 INTER-LIGAND FREE ENERGY PREDICTED BY IDOCK:   -8.16 KCAL/MOL
REMARK 924 INTRA-LIGAND FREE ENERGY PREDICTED BY IDOCK:   -0.66 KCAL/MOL
REMARK 927      BINDING AFFINITY PREDICTED BY RF-SCORE:    0.00 PKD
ROOT
HETATM    1  N   UNL     1     -10.602  19.839  65.824  1.00  0.00    -0.498 NA 
HETATM    2  C   UNL     1      -9.946  18.926  66.110  1.00  0.00    -0.356 C  
HETATM    3  C   UNL     1      -9.167  17.731  66.467  1.00  0.00    -0.280 C  
ENDROOT
BRANCH   3   4
HETATM    4  C   UNL     1      -9.186  17.444  67.991  1.00  0.00    -0.266 C  
BRANCH   4   5
HETATM    5  C   UNL     1      -7.756  17.116  68.539  1.00  0.00    -0.248 C  
HETATM    6  C   UNL     1      -6.998  18.299  69.171  1.00  0.00    -0.230 C  
HETATM    7  C   UNL     1      -5.511  18.088  68.908  1.00  0.00    -0.187 C  
HETATM    8  C   UNL     1      -6.771  16.657  67.451  1.00  0.00    -0.199 C  
HETATM    9  C   UNL     1      -5.407  16.806  68.105  1.00  0.00    -0.117 C  
ENDBRANCH   4   5
BRANCH   4  10
HETATM   10  N   UNL     1     -10.233  16.460  68.319  1.00  0.00    -0.245 NA 
HETATM   11  C   UNL     1     -11.760  15.217  69.321  1.00  0.00    -0.352 A  
HETATM   12  C   UNL     1     -10.955  16.324  69.464  1.00  0.00    -0.339 A  
HETATM   13  C   UNL     1     -11.539  14.820  67.991  1.00  0.00    -0.343 A  
HETATM   14  N   UNL     1     -10.644  15.592  67.366  1.00  0.00    -0.296 NA 
BRANCH  11  15
HETATM   15  C   UNL     1     -12.572  14.701  70.396  1.00  0.00    -0.343 A  
HETATM   16  C   UNL     1     -12.605  13.341  70.713  1.00  0.00    -0.357 A  
HETATM   17  C   UNL     1     -12.042  12.128  70.224  1.00  0.00    -0.385 A  
HETATM   18  C   UNL     1     -12.454  11.107  71.055  1.00  0.00    -0.403 A  
HETATM   19  N   UNL     1     -13.241  11.657  72.034  1.00  0.00    -0.495 NA 
HETATM   20  C   UNL     1     -13.336  13.008  71.846  1.00  0.00    -0.446 A  
HETATM   21  H   UNL     1     -13.688  11.137  72.789  1.00  0.00     0.000 HD 
HETATM   22  N   UNL     1     -14.012  13.841  72.650  1.00  0.00    -0.732 NA 
HETATM   23  C   UNL     1     -13.902  15.118  72.248  1.00  0.00    -0.515 A  
HETATM   24  N   UNL     1     -13.227  15.593  71.186  1.00  0.00    -0.532 NA 
ENDBRANCH  11  15
ENDBRANCH   4  10
ENDBRANCH   3   4
TORSDOF 4
ENDMDL
MODEL       28
REMARK 921   NORMALIZED FREE ENERGY PREDICTED BY IDOCK:   -6.81 KCAL/MOL
REMARK 922        TOTAL FREE ENERGY PREDICTED BY IDOCK:   -8.81 KCAL/MOL
REMARK 923 INTER-LIGAND FREE ENERGY PREDICTED BY IDOCK:   -8.24 KCAL/MOL
REMARK 924 INTRA-LIGAND FREE ENERGY PREDICTED BY IDOCK:   -0.57 KCAL/MOL
REMARK 927      BINDING AFFINITY PREDICTED BY RF-SCORE:    0.00 PKD
ROOT
HETATM    1  N   UNL     1     -10.297   6.935  68.131  1.00  0.00    -0.179 NA 
HETATM    2  C   UNL     1     -10.876   6.885  69.134  1.00  0.00    -0.228 C  
HETATM    3  C   UNL     1     -11.648   6.870  70.386  1.00  0.00    -0.385 C  
ENDROOT
BRANCH   3   4
HETATM    4  C   UNL     1     -11.078   7.848  71.446  1.00  0.00    -0.243 C  
BRANCH   4   5
HETATM    5  C   UNL     1     -10.986   7.181  72.861  1.00  0.00    -0.359 C  
HETATM    6  C   UNL     1      -9.749   7.560  73.697  1.00  0.00    -0.341 C  
HETATM    7  C   UNL     1      -9.385   6.354  74.555  1.00  0.00    -0.239 C  
HETATM    8  C   UNL     1     -10.876   5.648  72.812  1.00  0.00    -0.303 C  
HETATM    9  C   UNL     1     -10.388   5.273  74.202  1.00  0.00    -0.308 C  
ENDBRANCH   4   5
BRANCH   4  10
HETATM   10  N   UNL     1     -11.787   9.137  71.396  1.00  0.00    -0.320 NA 
HETATM   11  C   UNL     1     -12.415  11.219  70.999  1.00  0.00    -0.503 A  
HETATM   12  C   UNL     1     -11.515  10.239  70.646  1.00  0.00    -0.349 A  
HETATM   13  C   UNL     1     -13.280  10.562  71.892  1.00  0.00    -0.420 A  
HETATM   14  N   UNL     1     -12.928   9.291  72.108  1.00  0.00    -0.408 NA 
BRANCH  11  15
HETATM   15  C   UNL     1     -12.339  12.566  70.490  1.00  0.00    -0.262 A  
HETATM   16  C   UNL     1     -12.800  13.662  71.222  1.00  0.00    -0.424 A  
HETATM   17  C   UNL     1     -13.441  13.905  72.469  1.00  0.00    -0.676 A  
HETATM   18  C   UNL     1     -13.574  15.271  72.616  1.00  0.00    -0.515 A  
HETATM   19  N   UNL     1     -13.031  15.864  71.506  1.00  0.00    -0.495 NA 
HETATM   20  C   UNL     1     -12.551  14.906  70.657  1.00  0.00    -0.363 A  
HETATM   21  H   UNL     1     -12.991  16.870  71.339  1.00  0.00     0.000 HD 
HETATM   22  N   UNL     1     -11.934  15.162  69.494  1.00  0.00    -0.323 NA 
HETATM   23  C   UNL     1     -11.534  14.034  68.886  1.00  0.00    -0.294 A  
HETATM   24  N   UNL     1     -11.692  12.767  69.311  1.00  0.00    -0.307 NA 
ENDBRANCH  11  15
ENDBRANCH   4  10
ENDBRANCH   3   4
TORSDOF 4
ENDMDL
MODEL       29
REMARK 921   NORMALIZED FREE ENERGY PREDICTED BY IDOCK:   -6.80 KCAL/MOL
REMARK 922        TOTAL FREE ENERGY PREDICTED BY IDOCK:   -8.80 KCAL/MOL
REMARK 923 INTER-LIGAND FREE ENERGY PREDICTED BY IDOCK:   -8.29 KCAL/MOL
REMARK 924 INTRA-LIGAND FREE ENERGY PREDICTED BY IDOCK:   -0.51 KCAL/MOL
REMARK 927      BINDING AFFINITY PREDICTED BY RF-SCORE:    0.00 PKD
ROOT
HETATM    1  N   UNL     1     -11.851  11.524  68.291  1.00  0.00    -0.542 NA 
HETATM    2  C   UNL     1     -12.010  12.666  68.417  1.00  0.00    -0.221 C  
HETATM    3  C   UNL     1     -12.157  14.124  68.544  1.00  0.00    -0.312 C  
ENDROOT
BRANCH   3   4
HETATM    4  C   UNL     1     -11.453  14.683  69.808  1.00  0.00    -0.282 C  
BRANCH   4   5
HETATM    5  C   UNL     1     -12.462  15.404  70.764  1.00  0.00    -0.476 C  
HETATM    6  C   UNL     1     -11.885  15.867  72.115  1.00  0.00    -0.615 C  
HETATM    7  C   UNL     1     -13.002  15.778  73.149  1.00  0.00    -0.651 C  
HETATM    8  C   UNL     1     -13.632  14.512  71.210  1.00  0.00    -0.423 C  
HETATM    9  C   UNL     1     -14.213  15.243  72.410  1.00  0.00    -0.579 C  
ENDBRANCH   4   5
BRANCH   4  10
HETATM   10  N   UNL     1     -10.262  15.465  69.434  1.00  0.00    -0.246 NA 
HETATM   11  C   UNL     1      -8.860  17.025  68.737  1.00  0.00    -0.244 A  
HETATM   12  C   UNL     1     -10.174  16.769  69.057  1.00  0.00    -0.310 A  
HETATM   13  C   UNL     1      -8.201  15.830  69.079  1.00  0.00    -0.234 A  
HETATM   14  N   UNL     1      -9.039  14.894  69.537  1.00  0.00    -0.048 NA 
BRANCH  11  15
HETATM   15  C   UNL     1      -8.426  18.280  68.175  1.00  0.00    -0.278 A  
HETATM   16  C   UNL     1      -9.150  18.934  67.176  1.00  0.00    -0.305 A  
HETATM   17  C   UNL     1     -10.326  18.711  66.405  1.00  0.00    -0.472 A  
HETATM   18  C   UNL     1     -10.520  19.815  65.602  1.00  0.00    -0.361 A  
HETATM   19  N   UNL     1      -9.508  20.703  65.862  1.00  0.00    -0.445 NA 
HETATM   20  C   UNL     1      -8.676  20.189  66.817  1.00  0.00    -0.307 A  
HETATM   21  H   UNL     1      -9.394  21.611  65.411  1.00  0.00     0.000 HD 
HETATM   22  N   UNL     1      -7.605  20.825  67.313  1.00  0.00    -0.344 NA 
HETATM   23  C   UNL     1      -6.995  20.101  68.266  1.00  0.00    -0.286 A  
HETATM   24  N   UNL     1      -7.339  18.884  68.725  1.00  0.00    -0.313 NA 
ENDBRANCH  11  15
ENDBRANCH   4  10
ENDBRANCH   3   4
TORSDOF 4
ENDMDL
MODEL       30
REMARK 921   NORMALIZED FREE ENERGY PREDICTED BY IDOCK:   -6.79 KCAL/MOL
REMARK 922        TOTAL FREE ENERGY PREDICTED BY IDOCK:   -8.79 KCAL/MOL
REMARK 923 INTER-LIGAND FREE ENERGY PREDICTED BY IDOCK:   -8.45 KCAL/MOL
REMARK 924 INTRA-LIGAND FREE ENERGY PREDICTED BY IDOCK:   -0.34 KCAL/MOL
REMARK 927      BINDING AFFINITY PREDICTED BY RF-SCORE:    0.00 PKD
ROOT
HETATM    1  N   UNL     1     -14.261   8.354  71.777  1.00  0.00    -0.437 NA 
HETATM    2  C   UNL     1     -13.471   9.192  71.652  1.00  0.00    -0.391 C  
HETATM    3  C   UNL     1     -12.514  10.295  71.471  1.00  0.00    -0.524 C  
ENDROOT
BRANCH   3   4
HETATM    4  C   UNL     1     -11.881  10.304  70.055  1.00  0.00    -0.228 C  
BRANCH   4   5
HETATM    5  C   UNL     1     -10.511   9.544  70.027  1.00  0.00    -0.283 C  
HETATM    6  C   UNL     1     -10.555   8.115  69.453  1.00  0.00    -0.206 C  
HETATM    7  C   UNL     1      -9.498   7.292  70.182  1.00  0.00    -0.165 C  
HETATM    8  C   UNL     1      -9.912   9.305  71.422  1.00  0.00    -0.323 C  
HETATM    9  C   UNL     1      -8.863   8.229  71.190  1.00  0.00    -0.182 C  
ENDBRANCH   4   5
BRANCH   4  10
HETATM   10  N   UNL     1     -11.861  11.670  69.505  1.00  0.00    -0.329 NA 
HETATM   11  C   UNL     1     -11.691  13.451  68.208  1.00  0.00    -0.391 A  
HETATM   12  C   UNL     1     -11.720  12.075  68.214  1.00  0.00    -0.334 A  
HETATM   13  C   UNL     1     -11.950  13.791  69.547  1.00  0.00    -0.345 A  
HETATM   14  N   UNL     1     -12.091  12.717  70.332  1.00  0.00    -0.352 NA 
BRANCH  11  15
HETATM   15  C   UNL     1     -11.426  14.218  67.015  1.00  0.00    -0.361 A  
HETATM   16  C   UNL     1     -11.787  13.762  65.746  1.00  0.00    -0.392 A  
HETATM   17  C   UNL     1     -12.386  12.607  65.168  1.00  0.00    -0.547 A  
HETATM   18  C   UNL     1     -12.507  12.828  63.812  1.00  0.00    -0.383 A  
HETATM   19  N   UNL     1     -12.010  14.078  63.547  1.00  0.00    -0.841 NA 
HETATM   20  C   UNL     1     -11.578  14.659  64.706  1.00  0.00    -0.418 A  
HETATM   21  H   UNL     1     -11.969  14.509  62.623  1.00  0.00     0.000 HD 
HETATM   22  N   UNL     1     -11.064  15.895  64.790  1.00  0.00    -0.484 NA 
HETATM   23  C   UNL     1     -10.760  16.221  66.057  1.00  0.00    -0.214 A  
HETATM   24  N   UNL     1     -10.914  15.469  67.162  1.00  0.00    -0.317 NA 
ENDBRANCH  11  15
ENDBRANCH   4  10
ENDBRANCH   3   4
TORSDOF 4
ENDMDL
MODEL       31
REMARK 921   NORMALIZED FREE ENERGY PREDICTED BY IDOCK:   -6.79 KCAL/MOL
REMARK 922        TOTAL FREE ENERGY PREDICTED BY IDOCK:   -8.78 KCAL/MOL
REMARK 923 INTER-LIGAND FREE ENERGY PREDICTED BY IDOCK:   -8.34 KCAL/MOL
REMARK 924 INTRA-LIGAND FREE ENERGY PREDICTED BY IDOCK:   -0.45 KCAL/MOL
REMARK 927      BINDING AFFINITY PREDICTED BY RF-SCORE:    0.00 PKD
ROOT
HETATM    1  N   UNL     1     -11.047  16.845  64.486  1.00  0.00    -1.071 NA 
HETATM    2  C   UNL     1     -10.936  16.282  65.493  1.00  0.00    -0.149 C  
HETATM    3  C   UNL     1     -10.731  15.576  66.768  1.00  0.00    -0.305 C  
ENDROOT
BRANCH   3   4
HETATM    4  C   UNL     1     -10.485  14.057  66.571  1.00  0.00    -0.281 C  
BRANCH   4   5
HETATM    5  C   UNL     1     -11.045  13.552  65.198  1.00  0.00    -0.326 C  
HETATM    6  C   UNL     1     -12.516  13.094  65.207  1.00  0.00    -0.550 C  
HETATM    7  C   UNL     1     -12.657  11.975  64.183  1.00  0.00    -0.413 C  
HETATM    8  C   UNL     1     -10.329  12.301  64.665  1.00  0.00    -0.330 C  
HETATM    9  C   UNL     1     -11.273  11.765  63.600  1.00  0.00    -0.519 C  
ENDBRANCH   4   5
BRANCH   4  10
HETATM   10  N   UNL     1     -10.929  13.303  67.755  1.00  0.00    -0.252 NA 
HETATM   11  C   UNL     1     -11.240  11.787  69.332  1.00  0.00    -0.300 A  
HETATM   12  C   UNL     1     -10.457  12.128  68.252  1.00  0.00    -0.213 A  
HETATM   13  C   UNL     1     -12.089  12.896  69.485  1.00  0.00    -0.214 A  
HETATM   14  N   UNL     1     -11.881  13.835  68.557  1.00  0.00    -0.355 NA 
BRANCH  11  15
HETATM   15  C   UNL     1     -11.101  10.530  70.027  1.00  0.00    -0.308 A  
HETATM   16  C   UNL     1     -12.041  10.094  70.963  1.00  0.00    -0.476 A  
HETATM   17  C   UNL     1     -13.241  10.575  71.560  1.00  0.00    -0.470 A  
HETATM   18  C   UNL     1     -13.718   9.591  72.401  1.00  0.00    -0.336 A  
HETATM   19  N   UNL     1     -12.855   8.529  72.332  1.00  0.00    -0.529 NA 
HETATM   20  C   UNL     1     -11.839   8.814  71.461  1.00  0.00    -0.311 A  
HETATM   21  H   UNL     1     -12.954   7.657  72.852  1.00  0.00     0.000 HD 
HETATM   22  N   UNL     1     -10.846   7.968  71.151  1.00  0.00    -0.234 NA 
HETATM   23  C   UNL     1     -10.012   8.495  70.241  1.00  0.00    -0.183 A  
HETATM   24  N   UNL     1     -10.081   9.708  69.663  1.00  0.00    -0.209 NA 
ENDBRANCH  11  15
ENDBRANCH   4  10
ENDBRANCH   3   4
TORSDOF 4
ENDMDL
MODEL       32
REMARK 921   NORMALIZED FREE ENERGY PREDICTED BY IDOCK:   -6.76 KCAL/MOL
REMARK 922        TOTAL FREE ENERGY PREDICTED BY IDOCK:   -8.75 KCAL/MOL
REMARK 923 INTER-LIGAND FREE ENERGY PREDICTED BY IDOCK:   -8.17 KCAL/MOL
REMARK 924 INTRA-LIGAND FREE ENERGY PREDICTED BY IDOCK:   -0.58 KCAL/MOL
REMARK 927      BINDING AFFINITY PREDICTED BY RF-SCORE:    0.00 PKD
ROOT
HETATM    1  N   UNL     1     -12.509  13.483  63.158  1.00  0.00    -0.712 NA 
HETATM    2  C   UNL     1     -12.315  13.074  64.225  1.00  0.00    -0.366 C  
HETATM    3  C   UNL     1     -12.131  12.568  65.594  1.00  0.00    -0.464 C  
ENDROOT
BRANCH   3   4
HETATM    4  C   UNL     1     -11.735  13.687  66.592  1.00  0.00    -0.388 C  
BRANCH   4   5
HETATM    5  C   UNL     1     -10.367  14.347  66.211  1.00  0.00    -0.300 C  
HETATM    6  C   UNL     1      -9.188  14.028  67.150  1.00  0.00    -0.240 C  
HETATM    7  C   UNL     1      -8.270  15.244  67.170  1.00  0.00    -0.250 C  
HETATM    8  C   UNL     1     -10.392  15.884  66.250  1.00  0.00    -0.324 C  
HETATM    9  C   UNL     1      -8.923  16.274  66.269  1.00  0.00    -0.366 C  
ENDBRANCH   4   5
BRANCH   4  10
HETATM   10  N   UNL     1     -11.844  13.205  67.980  1.00  0.00    -0.362 NA 
HETATM   11  C   UNL     1     -12.009  11.980  69.811  1.00  0.00    -0.370 A  
HETATM   12  C   UNL     1     -11.783  11.932  68.454  1.00  0.00    -0.326 A  
HETATM   13  C   UNL     1     -12.072  13.358  70.084  1.00  0.00    -0.344 A  
HETATM   14  N   UNL     1     -11.934  14.107  68.985  1.00  0.00    -0.341 NA 
BRANCH  11  15
HETATM   15  C   UNL     1     -12.142  10.793  70.620  1.00  0.00    -0.370 A  
HETATM   16  C   UNL     1     -11.099   9.877  70.767  1.00  0.00    -0.417 A  
HETATM   17  C   UNL     1      -9.774   9.696  70.279  1.00  0.00    -0.314 A  
HETATM   18  C   UNL     1      -9.252   8.570  70.881  1.00  0.00    -0.175 A  
HETATM   19  N   UNL     1     -10.210   8.064  71.721  1.00  0.00    -0.192 NA 
HETATM   20  C   UNL     1     -11.330   8.847  71.670  1.00  0.00    -0.337 A  
HETATM   21  H   UNL     1     -10.103   7.229  72.298  1.00  0.00     0.000 HD 
HETATM   22  N   UNL     1     -12.437   8.637  72.398  1.00  0.00    -0.387 NA 
HETATM   23  C   UNL     1     -13.364   9.583  72.175  1.00  0.00    -0.461 A  
HETATM   24  N   UNL     1     -13.282  10.639  71.344  1.00  0.00    -0.363 NA 
ENDBRANCH  11  15
ENDBRANCH   4  10
ENDBRANCH   3   4
TORSDOF 4
ENDMDL
MODEL       33
REMARK 921   NORMALIZED FREE ENERGY PREDICTED BY IDOCK:   -6.76 KCAL/MOL
REMARK 922        TOTAL FREE ENERGY PREDICTED BY IDOCK:   -8.74 KCAL/MOL
REMARK 923 INTER-LIGAND FREE ENERGY PREDICTED BY IDOCK:   -8.08 KCAL/MOL
REMARK 924 INTRA-LIGAND FREE ENERGY PREDICTED BY IDOCK:   -0.67 KCAL/MOL
REMARK 927      BINDING AFFINITY PREDICTED BY RF-SCORE:    0.00 PKD
ROOT
HETATM    1  N   UNL     1     -14.397   8.809  72.435  1.00  0.00    -0.555 NA 
HETATM    2  C   UNL     1     -13.422   9.322  72.074  1.00  0.00    -0.451 C  
HETATM    3  C   UNL     1     -12.219  10.006  71.573  1.00  0.00    -0.496 C  
ENDROOT
BRANCH   3   4
HETATM    4  C   UNL     1     -11.571   9.264  70.375  1.00  0.00    -0.173 C  
BRANCH   4   5
HETATM    5  C   UNL     1     -10.516   8.208  70.848  1.00  0.00    -0.229 C  
HETATM    6  C   UNL     1     -11.017   6.753  70.927  1.00  0.00    -0.303 C  
HETATM    7  C   UNL     1     -10.270   6.068  72.065  1.00  0.00    -0.228 C  
HETATM    8  C   UNL     1     -10.009   8.444  72.280  1.00  0.00    -0.383 C  
HETATM    9  C   UNL     1      -9.359   7.123  72.661  1.00  0.00    -0.165 C  
ENDBRANCH   4   5
BRANCH   4  10
HETATM   10  N   UNL     1     -11.099  10.226  69.364  1.00  0.00    -0.240 NA 
HETATM   11  C   UNL     1     -10.932  11.668  67.698  1.00  0.00    -0.294 A  
HETATM   12  C   UNL     1     -11.822  10.976  68.489  1.00  0.00    -0.216 A  
HETATM   13  C   UNL     1      -9.682  11.360  68.264  1.00  0.00    -0.202 A  
HETATM   14  N   UNL     1      -9.779  10.517  69.297  1.00  0.00    -0.215 NA 
BRANCH  11  15
HETATM   15  C   UNL     1     -11.351  12.468  66.573  1.00  0.00    -0.334 A  
HETATM   16  C   UNL     1     -11.019  12.131  65.260  1.00  0.00    -0.349 A  
HETATM   17  C   UNL     1     -10.266  11.129  64.583  1.00  0.00    -0.376 A  
HETATM   18  C   UNL     1     -10.391  11.351  63.228  1.00  0.00    -0.367 A  
HETATM   19  N   UNL     1     -11.196  12.447  63.057  1.00  0.00    -0.674 NA 
HETATM   20  C   UNL     1     -11.591  12.925  64.275  1.00  0.00    -0.378 A  
HETATM   21  H   UNL     1     -11.461  12.845  62.155  1.00  0.00     0.000 HD 
HETATM   22  N   UNL     1     -12.408  13.974  64.450  1.00  0.00    -0.627 NA 
HETATM   23  C   UNL     1     -12.657  14.198  65.751  1.00  0.00    -0.447 A  
HETATM   24  N   UNL     1     -12.188  13.513  66.810  1.00  0.00    -0.374 NA 
ENDBRANCH  11  15
ENDBRANCH   4  10
ENDBRANCH   3   4
TORSDOF 4
ENDMDL
MODEL       34
REMARK 921   NORMALIZED FREE ENERGY PREDICTED BY IDOCK:   -6.76 KCAL/MOL
REMARK 922        TOTAL FREE ENERGY PREDICTED BY IDOCK:   -8.74 KCAL/MOL
REMARK 923 INTER-LIGAND FREE ENERGY PREDICTED BY IDOCK:   -8.01 KCAL/MOL
REMARK 924 INTRA-LIGAND FREE ENERGY PREDICTED BY IDOCK:   -0.73 KCAL/MOL
REMARK 927      BINDING AFFINITY PREDICTED BY RF-SCORE:    0.00 PKD
ROOT
HETATM    1  N   UNL     1     -10.421  17.997  65.572  1.00  0.00    -0.608 NA 
HETATM    2  C   UNL     1     -10.186  17.251  66.427  1.00  0.00    -0.331 C  
HETATM    3  C   UNL     1      -9.872  16.260  67.468  1.00  0.00    -0.238 C  
ENDROOT
BRANCH   3   4
HETATM    4  C   UNL     1     -11.096  15.381  67.838  1.00  0.00    -0.323 C  
BRANCH   4   5
HETATM    5  C   UNL     1     -11.074  14.961  69.347  1.00  0.00    -0.296 C  
HETATM    6  C   UNL     1     -12.242  14.069  69.808  1.00  0.00    -0.396 C  
HETATM    7  C   UNL     1     -12.534  14.406  71.265  1.00  0.00    -0.423 C  
HETATM    8  C   UNL     1     -11.182  16.148  70.318  1.00  0.00    -0.389 C  
HETATM    9  C   UNL     1     -11.559  15.504  71.643  1.00  0.00    -0.502 C  
ENDBRANCH   4   5
BRANCH   4  10
HETATM   10  N   UNL     1     -11.252  14.279  66.874  1.00  0.00    -0.315 NA 
HETATM   11  C   UNL     1     -10.929  12.592  65.484  1.00  0.00    -0.322 A  
HETATM   12  C   UNL     1     -10.327  13.383  66.436  1.00  0.00    -0.288 A  
HETATM   13  C   UNL     1     -12.270  13.013  65.508  1.00  0.00    -0.469 A  
HETATM   14  N   UNL     1     -12.481  14.009  66.375  1.00  0.00    -0.429 NA 
BRANCH  11  15
HETATM   15  C   UNL     1     -10.203  11.612  64.714  1.00  0.00    -0.275 A  
HETATM   16  C   UNL     1      -9.826  10.379  65.250  1.00  0.00    -0.361 A  
HETATM   17  C   UNL     1      -9.912   9.699  66.498  1.00  0.00    -0.313 A  
HETATM   18  C   UNL     1      -9.369   8.442  66.331  1.00  0.00    -0.214 A  
HETATM   19  N   UNL     1      -8.963   8.332  65.026  1.00  0.00    -0.398 NA 
HETATM   20  C   UNL     1      -9.240   9.492  64.357  1.00  0.00    -0.131 A  
HETATM   21  H   UNL     1      -8.521   7.509  64.616  1.00  0.00     0.000 HD 
HETATM   22  N   UNL     1      -8.990   9.695  63.056  1.00  0.00    -0.248 NA 
HETATM   23  C   UNL     1      -9.399  10.910  62.656  1.00  0.00    -0.314 A  
HETATM   24  N   UNL     1      -9.988  11.867  63.396  1.00  0.00    -0.429 NA 
ENDBRANCH  11  15
ENDBRANCH   4  10
ENDBRANCH   3   4
TORSDOF 4
ENDMDL
MODEL       35
REMARK 921   NORMALIZED FREE ENERGY PREDICTED BY IDOCK:   -6.75 KCAL/MOL
REMARK 922        TOTAL FREE ENERGY PREDICTED BY IDOCK:   -8.74 KCAL/MOL
REMARK 923 INTER-LIGAND FREE ENERGY PREDICTED BY IDOCK:   -8.03 KCAL/MOL
REMARK 924 INTRA-LIGAND FREE ENERGY PREDICTED BY IDOCK:   -0.71 KCAL/MOL
REMARK 927      BINDING AFFINITY PREDICTED BY RF-SCORE:    0.00 PKD
ROOT
HETATM    1  N   UNL     1     -10.684  10.358  69.835  1.00  0.00    -0.281 NA 
HETATM    2  C   UNL     1     -11.344  11.285  69.614  1.00  0.00    -0.287 C  
HETATM    3  C   UNL     1     -12.153  12.466  69.275  1.00  0.00    -0.218 C  
ENDROOT
BRANCH   3   4
HETATM    4  C   UNL     1     -11.463  13.794  69.685  1.00  0.00    -0.237 C  
BRANCH   4   5
HETATM    5  C   UNL     1     -12.320  14.597  70.722  1.00  0.00    -0.398 C  
HETATM    6  C   UNL     1     -11.529  15.522  71.666  1.00  0.00    -0.496 C  
HETATM    7  C   UNL     1     -12.271  15.567  72.996  1.00  0.00    -0.564 C  
HETATM    8  C   UNL     1     -13.077  13.704  71.718  1.00  0.00    -0.468 C  
HETATM    9  C   UNL     1     -13.471  14.654  72.836  1.00  0.00    -0.528 C  
ENDBRANCH   4   5
BRANCH   4  10
HETATM   10  N   UNL     1     -11.039  14.547  68.492  1.00  0.00    -0.246 NA 
HETATM   11  C   UNL     1     -10.079  15.945  67.076  1.00  0.00    -0.268 A  
HETATM   12  C   UNL     1     -10.045  15.467  68.366  1.00  0.00    -0.214 A  
HETATM   13  C   UNL     1     -11.061  15.151  66.458  1.00  0.00    -0.305 A  
HETATM   14  N   UNL     1     -11.619  14.276  67.300  1.00  0.00    -0.358 NA 
BRANCH  11  15
HETATM   15  C   UNL     1      -9.243  17.031  66.626  1.00  0.00    -0.256 A  
HETATM   16  C   UNL     1      -9.631  18.366  66.753  1.00  0.00    -0.308 A  
HETATM   17  C   UNL     1     -10.758  19.100  67.219  1.00  0.00    -0.585 A  
HETATM   18  C   UNL     1     -10.462  20.443  67.110  1.00  0.00    -0.048 A  
HETATM   19  N   UNL     1      -9.194  20.551  66.601  1.00  0.00    -0.607 NA 
HETATM   20  C   UNL     1      -8.674  19.304  66.387  1.00  0.00    -0.348 A  
HETATM   21  H   UNL     1      -8.711  21.429  66.411  1.00  0.00     0.000 HD 
HETATM   22  N   UNL     1      -7.440  19.067  65.921  1.00  0.00    -0.411 NA 
HETATM   23  C   UNL     1      -7.182  17.751  65.846  1.00  0.00    -0.225 A  
HETATM   24  N   UNL     1      -7.997  16.731  66.172  1.00  0.00    -0.372 NA 
ENDBRANCH  11  15
ENDBRANCH   4  10
ENDBRANCH   3   4
TORSDOF 4
ENDMDL
MODEL       36
REMARK 921   NORMALIZED FREE ENERGY PREDICTED BY IDOCK:   -6.75 KCAL/MOL
REMARK 922        TOTAL FREE ENERGY PREDICTED BY IDOCK:   -8.74 KCAL/MOL
REMARK 923 INTER-LIGAND FREE ENERGY PREDICTED BY IDOCK:   -8.15 KCAL/MOL
REMARK 924 INTRA-LIGAND FREE ENERGY PREDICTED BY IDOCK:   -0.59 KCAL/MOL
REMARK 927      BINDING AFFINITY PREDICTED BY RF-SCORE:    0.00 PKD
ROOT
HETATM    1  N   UNL     1     -10.829   6.110  68.177  1.00  0.00    -0.295 NA 
HETATM    2  C   UNL     1     -11.178   6.352  69.256  1.00  0.00    -0.375 C  
HETATM    3  C   UNL     1     -11.661   6.701  70.601  1.00  0.00    -0.452 C  
ENDROOT
BRANCH   3   4
HETATM    4  C   UNL     1     -10.878   7.887  71.222  1.00  0.00    -0.235 C  
BRANCH   4   5
HETATM    5  C   UNL     1     -10.624   7.676  72.753  1.00  0.00    -0.381 C  
HETATM    6  C   UNL     1      -9.204   8.016  73.246  1.00  0.00    -0.347 C  
HETATM    7  C   UNL     1      -8.879   7.078  74.402  1.00  0.00    -0.235 C  
HETATM    8  C   UNL     1     -10.771   6.214  73.205  1.00  0.00    -0.282 C  
HETATM    9  C   UNL     1     -10.090   6.180  74.564  1.00  0.00    -0.345 C  
ENDBRANCH   4   5
BRANCH   4  10
HETATM   10  N   UNL     1     -11.501   9.170  70.853  1.00  0.00    -0.282 NA 
HETATM   11  C   UNL     1     -12.080  11.059  69.864  1.00  0.00    -0.435 A  
HETATM   12  C   UNL     1     -11.349   9.902  69.717  1.00  0.00    -0.193 A  
HETATM   13  C   UNL     1     -12.746  10.872  71.088  1.00  0.00    -0.429 A  
HETATM   14  N   UNL     1     -12.429   9.713  71.674  1.00  0.00    -0.379 NA 
BRANCH  11  15
HETATM   15  C   UNL     1     -12.045  12.130  68.898  1.00  0.00    -0.133 A  
HETATM   16  C   UNL     1     -12.003  13.472  69.281  1.00  0.00    -0.378 A  
HETATM   17  C   UNL     1     -12.019  14.228  70.487  1.00  0.00    -0.402 A  
HETATM   18  C   UNL     1     -11.893  15.560  70.152  1.00  0.00    -0.356 A  
HETATM   19  N   UNL     1     -11.795  15.640  68.787  1.00  0.00    -0.499 NA 
HETATM   20  C   UNL     1     -11.852  14.385  68.246  1.00  0.00    -0.326 A  
HETATM   21  H   UNL     1     -11.695  16.504  68.255  1.00  0.00     0.000 HD 
HETATM   22  N   UNL     1     -11.755  14.119  66.935  1.00  0.00    -0.393 NA 
HETATM   23  C   UNL     1     -11.804  12.799  66.692  1.00  0.00    -0.393 A  
HETATM   24  N   UNL     1     -11.936  11.800  67.584  1.00  0.00    -0.606 NA 
ENDBRANCH  11  15
ENDBRANCH   4  10
ENDBRANCH   3   4
TORSDOF 4
ENDMDL
MODEL       37
REMARK 921   NORMALIZED FREE ENERGY PREDICTED BY IDOCK:   -6.70 KCAL/MOL
REMARK 922        TOTAL FREE ENERGY PREDICTED BY IDOCK:   -8.68 KCAL/MOL
REMARK 923 INTER-LIGAND FREE ENERGY PREDICTED BY IDOCK:   -8.57 KCAL/MOL
REMARK 924 INTRA-LIGAND FREE ENERGY PREDICTED BY IDOCK:   -0.11 KCAL/MOL
REMARK 927      BINDING AFFINITY PREDICTED BY RF-SCORE:    0.00 PKD
ROOT
HETATM    1  N   UNL     1      -8.316  16.975  65.926  1.00  0.00    -0.512 NA 
HETATM    2  C   UNL     1      -9.173  16.270  65.588  1.00  0.00     0.047 C  
HETATM    3  C   UNL     1     -10.299  15.407  65.200  1.00  0.00    -0.405 C  
ENDROOT
BRANCH   3   4
HETATM    4  C   UNL     1     -10.448  14.173  66.128  1.00  0.00    -0.296 C  
BRANCH   4   5
HETATM    5  C   UNL     1     -11.221  13.007  65.424  1.00  0.00    -0.317 C  
HETATM    6  C   UNL     1     -10.346  11.994  64.661  1.00  0.00    -0.325 C  
HETATM    7  C   UNL     1     -11.154  11.489  63.472  1.00  0.00    -0.434 C  
HETATM    8  C   UNL     1     -12.183  13.482  64.324  1.00  0.00    -0.450 C  
HETATM    9  C   UNL     1     -12.480  12.222  63.527  1.00  0.00    -0.642 C  
ENDBRANCH   4   5
BRANCH   4  10
HETATM   10  N   UNL     1     -10.969  14.576  67.446  1.00  0.00    -0.295 NA 
HETATM   11  C   UNL     1     -11.773  14.626  69.504  1.00  0.00    -0.366 A  
HETATM   12  C   UNL     1     -11.232  13.808  68.537  1.00  0.00    -0.275 A  
HETATM   13  C   UNL     1     -11.678  15.910  68.937  1.00  0.00    -0.370 A  
HETATM   14  N   UNL     1     -11.158  15.891  67.706  1.00  0.00    -0.315 NA 
BRANCH  11  15
HETATM   15  C   UNL     1     -12.288  14.120  70.752  1.00  0.00    -0.369 A  
HETATM   16  C   UNL     1     -12.362  14.913  71.899  1.00  0.00    -0.415 A  
HETATM   17  C   UNL     1     -12.010  16.235  72.295  1.00  0.00    -0.605 A  
HETATM   18  C   UNL     1     -12.417  16.406  73.602  1.00  0.00    -0.480 A  
HETATM   19  N   UNL     1     -13.008  15.239  74.011  1.00  0.00    -0.623 NA 
HETATM   20  C   UNL     1     -12.990  14.329  72.991  1.00  0.00    -0.410 A  
HETATM   21  H   UNL     1     -13.402  15.074  74.938  1.00  0.00     0.000 HD 
HETATM   22  N   UNL     1     -13.517  13.098  73.063  1.00  0.00    -0.241 NA 
HETATM   23  C   UNL     1     -13.390  12.435  71.902  1.00  0.00    -0.349 A  
HETATM   24  N   UNL     1     -12.820  12.868  70.763  1.00  0.00    -0.122 NA 
ENDBRANCH  11  15
ENDBRANCH   4  10
ENDBRANCH   3   4
TORSDOF 4
ENDMDL
MODEL       38
REMARK 921   NORMALIZED FREE ENERGY PREDICTED BY IDOCK:   -6.70 KCAL/MOL
REMARK 922        TOTAL FREE ENERGY PREDICTED BY IDOCK:   -8.67 KCAL/MOL
REMARK 923 INTER-LIGAND FREE ENERGY PREDICTED BY IDOCK:   -8.26 KCAL/MOL
REMARK 924 INTRA-LIGAND FREE ENERGY PREDICTED BY IDOCK:   -0.41 KCAL/MOL
REMARK 927      BINDING AFFINITY PREDICTED BY RF-SCORE:    0.00 PKD
ROOT
HETATM    1  N   UNL     1      -8.285   8.476  73.242  1.00  0.00    -0.403 NA 
HETATM    2  C   UNL     1      -9.328   7.987  73.379  1.00  0.00    -0.254 C  
HETATM    3  C   UNL     1     -10.624   7.310  73.538  1.00  0.00    -0.408 C  
ENDROOT
BRANCH   3   4
HETATM    4  C   UNL     1     -11.414   7.222  72.206  1.00  0.00    -0.278 C  
BRANCH   4   5
HETATM    5  C   UNL     1     -10.536   6.637  71.048  1.00  0.00    -0.263 C  
HETATM    6  C   UNL     1     -11.171   6.678  69.645  1.00  0.00    -0.397 C  
HETATM    7  C   UNL     1     -10.661   5.468  68.872  1.00  0.00    -0.258 C  
HETATM    8  C   UNL     1     -10.224   5.140  71.209  1.00  0.00    -0.292 C  
HETATM    9  C   UNL     1      -9.756   4.714  69.827  1.00  0.00    -0.280 C  
ENDBRANCH   4   5
BRANCH   4  10
HETATM   10  N   UNL     1     -12.081   8.503  71.914  1.00  0.00    -0.324 NA 
HETATM   11  C   UNL     1     -12.590  10.541  71.228  1.00  0.00    -0.531 A  
HETATM   12  C   UNL     1     -11.657   9.533  71.134  1.00  0.00    -0.367 A  
HETATM   13  C   UNL     1     -13.615   9.967  72.001  1.00  0.00    -0.306 A  
HETATM   14  N   UNL     1     -13.330   8.719  72.388  1.00  0.00    -0.407 NA 
BRANCH  11  15
HETATM   15  C   UNL     1     -12.398  11.837  70.627  1.00  0.00    -0.328 A  
HETATM   16  C   UNL     1     -12.903  13.004  71.205  1.00  0.00    -0.331 A  
HETATM   17  C   UNL     1     -13.683  13.371  72.338  1.00  0.00    -0.698 A  
HETATM   18  C   UNL     1     -13.779  14.746  72.357  1.00  0.00    -0.471 A  
HETATM   19  N   UNL     1     -13.081  15.228  71.281  1.00  0.00    -0.431 NA 
HETATM   20  C   UNL     1     -12.538  14.188  70.578  1.00  0.00    -0.342 A  
HETATM   21  H   UNL     1     -12.981  16.215  71.040  1.00  0.00     0.000 HD 
HETATM   22  N   UNL     1     -11.773  14.328  69.486  1.00  0.00    -0.295 NA 
HETATM   23  C   UNL     1     -11.345  13.141  69.025  1.00  0.00    -0.282 A  
HETATM   24  N   UNL     1     -11.604  11.920  69.526  1.00  0.00    -0.312 NA 
ENDBRANCH  11  15
ENDBRANCH   4  10
ENDBRANCH   3   4
TORSDOF 4
ENDMDL
MODEL       39
REMARK 921   NORMALIZED FREE ENERGY PREDICTED BY IDOCK:   -6.69 KCAL/MOL
REMARK 922        TOTAL FREE ENERGY PREDICTED BY IDOCK:   -8.66 KCAL/MOL
REMARK 923 INTER-LIGAND FREE ENERGY PREDICTED BY IDOCK:   -7.95 KCAL/MOL
REMARK 924 INTRA-LIGAND FREE ENERGY PREDICTED BY IDOCK:   -0.72 KCAL/MOL
REMARK 927      BINDING AFFINITY PREDICTED BY RF-SCORE:    0.00 PKD
ROOT
HETATM    1  N   UNL     1     -11.891  11.679  67.335  1.00  0.00    -0.630 NA 
HETATM    2  C   UNL     1     -11.670  12.034  68.416  1.00  0.00    -0.332 C  
HETATM    3  C   UNL     1     -11.373  12.424  69.803  1.00  0.00    -0.125 C  
ENDROOT
BRANCH   3   4
HETATM    4  C   UNL     1     -12.598  12.258  70.741  1.00  0.00    -0.213 C  
BRANCH   4   5
HETATM    5  C   UNL     1     -12.704  13.434  71.770  1.00  0.00    -0.321 C  
HETATM    6  C   UNL     1     -14.127  13.962  72.033  1.00  0.00    -0.568 C  
HETATM    7  C   UNL     1     -14.019  15.452  72.335  1.00  0.00    -0.657 C  
HETATM    8  C   UNL     1     -11.973  14.711  71.323  1.00  0.00    -0.401 C  
HETATM    9  C   UNL     1     -12.546  15.794  72.222  1.00  0.00    -0.528 C  
ENDBRANCH   4   5
BRANCH   4  10
HETATM   10  N   UNL     1     -12.629  10.904  71.318  1.00  0.00    -0.407 NA 
HETATM   11  C   UNL     1     -12.145   8.856  71.995  1.00  0.00    -0.442 A  
HETATM   12  C   UNL     1     -11.612  10.014  71.474  1.00  0.00    -0.224 A  
HETATM   13  C   UNL     1     -13.488   9.195  72.238  1.00  0.00    -0.486 A  
HETATM   14  N   UNL     1     -13.779  10.446  71.865  1.00  0.00    -0.137 NA 
BRANCH  11  15
HETATM   15  C   UNL     1     -11.370   7.653  72.173  1.00  0.00    -0.293 A  
HETATM   16  C   UNL     1     -11.071   6.801  71.108  1.00  0.00    -0.313 A  
HETATM   17  C   UNL     1     -11.354   6.709  69.715  1.00  0.00    -0.412 A  
HETATM   18  C   UNL     1     -10.684   5.610  69.220  1.00  0.00    -0.280 A  
HETATM   19  N   UNL     1     -10.000   5.035  70.259  1.00  0.00    -0.235 NA 
HETATM   20  C   UNL     1     -10.217   5.748  71.406  1.00  0.00    -0.216 A  
HETATM   21  H   UNL     1      -9.417   4.201  70.188  1.00  0.00     0.000 HD 
HETATM   22  N   UNL     1      -9.666   5.460  72.594  1.00  0.00    -0.150 NA 
HETATM   23  C   UNL     1     -10.022   6.349  73.535  1.00  0.00    -0.204 A  
HETATM   24  N   UNL     1     -10.827   7.418  73.397  1.00  0.00    -0.373 NA 
ENDBRANCH  11  15
ENDBRANCH   4  10
ENDBRANCH   3   4
TORSDOF 4
ENDMDL
MODEL       40
REMARK 921   NORMALIZED FREE ENERGY PREDICTED BY IDOCK:   -6.68 KCAL/MOL
REMARK 922        TOTAL FREE ENERGY PREDICTED BY IDOCK:   -8.65 KCAL/MOL
REMARK 923 INTER-LIGAND FREE ENERGY PREDICTED BY IDOCK:   -8.02 KCAL/MOL
REMARK 924 INTRA-LIGAND FREE ENERGY PREDICTED BY IDOCK:   -0.63 KCAL/MOL
REMARK 927      BINDING AFFINITY PREDICTED BY RF-SCORE:    0.00 PKD
ROOT
HETATM    1  N   UNL     1     -11.949  11.665  68.708  1.00  0.00    -0.408 NA 
HETATM    2  C   UNL     1     -12.008  12.822  68.697  1.00  0.00    -0.233 C  
HETATM    3  C   UNL     1     -12.024  14.293  68.653  1.00  0.00    -0.348 C  
ENDROOT
BRANCH   3   4
HETATM    4  C   UNL     1     -11.336  14.931  69.888  1.00  0.00    -0.277 C  
BRANCH   4   5
HETATM    5  C   UNL     1     -12.364  15.675  70.806  1.00  0.00    -0.466 C  
HETATM    6  C   UNL     1     -11.869  16.009  72.226  1.00  0.00    -0.628 C  
HETATM    7  C   UNL     1     -13.072  15.951  73.160  1.00  0.00    -0.673 C  
HETATM    8  C   UNL     1     -13.632  14.856  71.099  1.00  0.00    -0.467 C  
HETATM    9  C   UNL     1     -14.254  15.561  72.294  1.00  0.00    -0.617 C  
ENDBRANCH   4   5
BRANCH   4  10
HETATM   10  N   UNL     1     -10.163  15.721  69.477  1.00  0.00    -0.253 NA 
HETATM   11  C   UNL     1      -8.797  17.261  68.674  1.00  0.00    -0.261 A  
HETATM   12  C   UNL     1     -10.111  16.984  68.976  1.00  0.00    -0.290 A  
HETATM   13  C   UNL     1      -8.107  16.134  69.152  1.00  0.00    -0.230 A  
HETATM   14  N   UNL     1      -8.924  15.213  69.674  1.00  0.00    -0.135 NA 
BRANCH  11  15
HETATM   15  C   UNL     1      -8.391  18.473  68.005  1.00  0.00    -0.276 A  
HETATM   16  C   UNL     1      -7.397  19.306  68.520  1.00  0.00    -0.355 A  
HETATM   17  C   UNL     1      -6.563  19.370  69.673  1.00  0.00    -0.307 A  
HETATM   18  C   UNL     1      -5.735  20.464  69.534  1.00  0.00    -0.338 A  
HETATM   19  N   UNL     1      -6.031  21.063  68.337  1.00  0.00    -0.338 NA 
HETATM   20  C   UNL     1      -7.028  20.371  67.708  1.00  0.00    -0.311 A  
HETATM   21  H   UNL     1      -5.575  21.899  67.971  1.00  0.00     0.000 HD 
HETATM   22  N   UNL     1      -7.526  20.684  66.503  1.00  0.00    -0.174 NA 
HETATM   23  C   UNL     1      -8.469  19.811  66.113  1.00  0.00    -0.341 A  
HETATM   24  N   UNL     1      -8.922  18.734  66.780  1.00  0.00    -0.298 NA 
ENDBRANCH  11  15
ENDBRANCH   4  10
ENDBRANCH   3   4
TORSDOF 4
ENDMDL
MODEL       41
REMARK 921   NORMALIZED FREE ENERGY PREDICTED BY IDOCK:   -6.68 KCAL/MOL
REMARK 922        TOTAL FREE ENERGY PREDICTED BY IDOCK:   -8.64 KCAL/MOL
REMARK 923 INTER-LIGAND FREE ENERGY PREDICTED BY IDOCK:   -7.91 KCAL/MOL
REMARK 924 INTRA-LIGAND FREE ENERGY PREDICTED BY IDOCK:   -0.73 KCAL/MOL
REMARK 927      BINDING AFFINITY PREDICTED BY RF-SCORE:    0.00 PKD
ROOT
HETATM    1  N   UNL     1     -13.784   9.248  72.560  1.00  0.00    -0.457 NA 
HETATM    2  C   UNL     1     -12.704   9.277  72.141  1.00  0.00    -0.390 C  
HETATM    3  C   UNL     1     -11.345   9.372  71.585  1.00  0.00    -0.452 C  
ENDROOT
BRANCH   3   4
HETATM    4  C   UNL     1     -11.273   8.895  70.111  1.00  0.00    -0.160 C  
BRANCH   4   5
HETATM    5  C   UNL     1     -10.423   7.587  69.965  1.00  0.00    -0.231 C  
HETATM    6  C   UNL     1     -10.295   7.033  68.533  1.00  0.00    -0.204 C  
HETATM    7  C   UNL     1     -10.200   5.515  68.633  1.00  0.00    -0.261 C  
HETATM    8  C   UNL     1     -11.013   6.383  70.717  1.00  0.00    -0.346 C  
HETATM    9  C   UNL     1     -10.299   5.187  70.110  1.00  0.00    -0.340 C  
ENDBRANCH   4   5
BRANCH   4  10
HETATM   10  N   UNL     1     -10.885  10.007  69.226  1.00  0.00    -0.221 NA 
HETATM   11  C   UNL     1     -10.826  11.608  67.704  1.00  0.00    -0.273 A  
HETATM   12  C   UNL     1     -11.651  10.721  68.358  1.00  0.00    -0.239 A  
HETATM   13  C   UNL     1      -9.586  11.436  68.345  1.00  0.00    -0.197 A  
HETATM   14  N   UNL     1      -9.624  10.495  69.293  1.00  0.00    -0.204 NA 
BRANCH  11  15
HETATM   15  C   UNL     1     -11.283  12.440  66.618  1.00  0.00    -0.315 A  
HETATM   16  C   UNL     1     -10.988  12.146  65.285  1.00  0.00    -0.349 A  
HETATM   17  C   UNL     1     -10.251  11.171  64.555  1.00  0.00    -0.383 A  
HETATM   18  C   UNL     1     -10.417  11.435  63.212  1.00  0.00    -0.334 A  
HETATM   19  N   UNL     1     -11.234  12.529  63.099  1.00  0.00    -0.738 NA 
HETATM   20  C   UNL     1     -11.595  12.967  64.343  1.00  0.00    -0.369 A  
HETATM   21  H   UNL     1     -11.529  12.954  62.219  1.00  0.00     0.000 HD 
HETATM   22  N   UNL     1     -12.413  14.004  64.575  1.00  0.00    -0.646 NA 
HETATM   23  C   UNL     1     -12.623  14.185  65.889  1.00  0.00    -0.417 A  
HETATM   24  N   UNL     1     -12.119  13.471  66.912  1.00  0.00    -0.387 NA 
ENDBRANCH  11  15
ENDBRANCH   4  10
ENDBRANCH   3   4
TORSDOF 4
ENDMDL
MODEL       42
REMARK 921   NORMALIZED FREE ENERGY PREDICTED BY IDOCK:   -6.67 KCAL/MOL
REMARK 922        TOTAL FREE ENERGY PREDICTED BY IDOCK:   -8.64 KCAL/MOL
REMARK 923 INTER-LIGAND FREE ENERGY PREDICTED BY IDOCK:   -8.11 KCAL/MOL
REMARK 924 INTRA-LIGAND FREE ENERGY PREDICTED BY IDOCK:   -0.53 KCAL/MOL
REMARK 927      BINDING AFFINITY PREDICTED BY RF-SCORE:    0.00 PKD
ROOT
HETATM    1  N   UNL     1     -13.022  12.412  63.333  1.00  0.00    -0.690 NA 
HETATM    2  C   UNL     1     -12.286  12.231  64.210  1.00  0.00    -0.427 C  
HETATM    3  C   UNL     1     -11.401  11.978  65.358  1.00  0.00    -0.375 C  
ENDROOT
BRANCH   3   4
HETATM    4  C   UNL     1     -11.349  13.177  66.341  1.00  0.00    -0.315 C  
BRANCH   4   5
HETATM    5  C   UNL     1     -10.150  14.134  66.025  1.00  0.00    -0.330 C  
HETATM    6  C   UNL     1      -8.948  14.035  66.984  1.00  0.00    -0.248 C  
HETATM    7  C   UNL     1      -8.318  15.419  67.078  1.00  0.00    -0.268 C  
HETATM    8  C   UNL     1     -10.510  15.625  66.126  1.00  0.00    -0.327 C  
HETATM    9  C   UNL     1      -9.162  16.323  66.202  1.00  0.00    -0.376 C  
ENDBRANCH   4   5
BRANCH   4  10
HETATM   10  N   UNL     1     -11.438  12.708  67.735  1.00  0.00    -0.300 NA 
HETATM   11  C   UNL     1     -11.337  11.542  69.609  1.00  0.00    -0.329 A  
HETATM   12  C   UNL     1     -10.932  11.576  68.294  1.00  0.00    -0.224 A  
HETATM   13  C   UNL     1     -11.987  12.776  69.784  1.00  0.00    -0.292 A  
HETATM   14  N   UNL     1     -12.018  13.504  68.663  1.00  0.00    -0.358 NA 
BRANCH  11  15
HETATM   15  C   UNL     1     -11.085  10.413  70.472  1.00  0.00    -0.265 A  
HETATM   16  C   UNL     1     -12.060   9.910  71.335  1.00  0.00    -0.501 A  
HETATM   17  C   UNL     1     -13.398  10.217  71.714  1.00  0.00    -0.485 A  
HETATM   18  C   UNL     1     -13.813   9.255  72.611  1.00  0.00    -0.308 A  
HETATM   19  N   UNL     1     -12.780   8.372  72.786  1.00  0.00    -0.623 NA 
HETATM   20  C   UNL     1     -11.715   8.749  72.015  1.00  0.00    -0.372 A  
HETATM   21  H   UNL     1     -12.801   7.556  73.398  1.00  0.00     0.000 HD 
HETATM   22  N   UNL     1     -10.557   8.077  71.939  1.00  0.00    -0.231 NA 
HETATM   23  C   UNL     1      -9.704   8.653  71.077  1.00  0.00    -0.210 A  
HETATM   24  N   UNL     1      -9.898   9.764  70.343  1.00  0.00    -0.252 NA 
ENDBRANCH  11  15
ENDBRANCH   4  10
ENDBRANCH   3   4
TORSDOF 4
ENDMDL
MODEL       43
REMARK 921   NORMALIZED FREE ENERGY PREDICTED BY IDOCK:   -6.66 KCAL/MOL
REMARK 922        TOTAL FREE ENERGY PREDICTED BY IDOCK:   -8.63 KCAL/MOL
REMARK 923 INTER-LIGAND FREE ENERGY PREDICTED BY IDOCK:   -8.39 KCAL/MOL
REMARK 924 INTRA-LIGAND FREE ENERGY PREDICTED BY IDOCK:   -0.24 KCAL/MOL
REMARK 927      BINDING AFFINITY PREDICTED BY RF-SCORE:    0.00 PKD
ROOT
HETATM    1  N   UNL     1     -10.577  18.228  65.356  1.00  0.00    -0.523 NA 
HETATM    2  C   UNL     1     -10.587  18.745  66.394  1.00  0.00    -0.368 C  
HETATM    3  C   UNL     1     -10.558  19.444  67.688  1.00  0.00    -0.575 C  
ENDROOT
BRANCH   3   4
HETATM    4  C   UNL     1      -9.444  18.908  68.626  1.00  0.00    -0.378 C  
BRANCH   4   5
HETATM    5  C   UNL     1      -8.015  19.247  68.082  1.00  0.00    -0.343 C  
HETATM    6  C   UNL     1      -6.969  19.625  69.147  1.00  0.00    -0.386 C  
HETATM    7  C   UNL     1      -6.011  20.630  68.519  1.00  0.00    -0.376 C  
HETATM    8  C   UNL     1      -7.983  20.476  67.160  1.00  0.00    -0.361 C  
HETATM    9  C   UNL     1      -6.512  20.855  67.105  1.00  0.00    -0.385 C  
ENDBRANCH   4   5
BRANCH   4  10
HETATM   10  N   UNL     1      -9.680  17.491  68.953  1.00  0.00    -0.286 NA 
HETATM   11  C   UNL     1     -10.462  15.580  69.740  1.00  0.00    -0.308 A  
HETATM   12  C   UNL     1     -10.724  16.926  69.617  1.00  0.00    -0.151 A  
HETATM   13  C   UNL     1      -9.280  15.408  68.999  1.00  0.00    -0.235 A  
HETATM   14  N   UNL     1      -8.821  16.555  68.488  1.00  0.00    -0.219 NA 
BRANCH  11  15
HETATM   15  C   UNL     1     -11.302  14.691  70.504  1.00  0.00    -0.160 A  
HETATM   16  C   UNL     1     -11.894  15.081  71.707  1.00  0.00    -0.455 A  
HETATM   17  C   UNL     1     -11.909  16.225  72.556  1.00  0.00    -0.608 A  
HETATM   18  C   UNL     1     -12.771  15.964  73.600  1.00  0.00    -0.604 A  
HETATM   19  N   UNL     1     -13.285  14.707  73.413  1.00  0.00    -0.546 NA 
HETATM   20  C   UNL     1     -12.771  14.163  72.268  1.00  0.00    -0.275 A  
HETATM   21  H   UNL     1     -13.951  14.246  74.034  1.00  0.00     0.000 HD 
HETATM   22  N   UNL     1     -13.097  12.953  71.790  1.00  0.00    -0.394 NA 
HETATM   23  C   UNL     1     -12.470  12.692  70.632  1.00  0.00    -0.239 A  
HETATM   24  N   UNL     1     -11.607  13.480  69.965  1.00  0.00    -0.214 NA 
ENDBRANCH  11  15
ENDBRANCH   4  10
ENDBRANCH   3   4
TORSDOF 4
ENDMDL
MODEL       44
REMARK 921   NORMALIZED FREE ENERGY PREDICTED BY IDOCK:   -6.65 KCAL/MOL
REMARK 922        TOTAL FREE ENERGY PREDICTED BY IDOCK:   -8.61 KCAL/MOL
REMARK 923 INTER-LIGAND FREE ENERGY PREDICTED BY IDOCK:   -8.10 KCAL/MOL
REMARK 924 INTRA-LIGAND FREE ENERGY PREDICTED BY IDOCK:   -0.51 KCAL/MOL
REMARK 927      BINDING AFFINITY PREDICTED BY RF-SCORE:    0.00 PKD
ROOT
HETATM    1  N   UNL     1     -14.151   9.035  72.354  1.00  0.00    -0.466 NA 
HETATM    2  C   UNL     1     -13.264   9.634  71.909  1.00  0.00    -0.446 C  
HETATM    3  C   UNL     1     -12.178  10.420  71.303  1.00  0.00    -0.491 C  
ENDROOT
BRANCH   3   4
HETATM    4  C   UNL     1     -11.510   9.687  70.110  1.00  0.00    -0.189 C  
BRANCH   4   5
HETATM    5  C   UNL     1     -10.389   8.702  70.588  1.00  0.00    -0.241 C  
HETATM    6  C   UNL     1     -10.764   7.208  70.572  1.00  0.00    -0.259 C  
HETATM    7  C   UNL     1     -10.015   6.532  71.714  1.00  0.00    -0.192 C  
HETATM    8  C   UNL     1      -9.975   8.907  72.054  1.00  0.00    -0.338 C  
HETATM    9  C   UNL     1      -9.230   7.629  72.406  1.00  0.00    -0.201 C  
ENDBRANCH   4   5
BRANCH   4  10
HETATM   10  N   UNL     1     -11.109  10.650  69.070  1.00  0.00    -0.235 NA 
HETATM   11  C   UNL     1     -11.054  12.070  67.377  1.00  0.00    -0.337 A  
HETATM   12  C   UNL     1     -11.889  11.357  68.209  1.00  0.00    -0.249 A  
HETATM   13  C   UNL     1      -9.775  11.818  67.904  1.00  0.00    -0.185 A  
HETATM   14  N   UNL     1      -9.804  10.989  68.953  1.00  0.00    -0.194 NA 
BRANCH  11  15
HETATM   15  C   UNL     1     -11.540  12.835  66.256  1.00  0.00    -0.379 A  
HETATM   16  C   UNL     1     -11.076  14.123  65.982  1.00  0.00    -0.314 A  
HETATM   17  C   UNL     1     -10.176  15.067  66.553  1.00  0.00    -0.281 A  
HETATM   18  C   UNL     1     -10.137  16.168  65.724  1.00  0.00    -0.363 A  
HETATM   19  N   UNL     1     -10.975  15.925  64.667  1.00  0.00    -0.811 NA 
HETATM   20  C   UNL     1     -11.545  14.690  64.804  1.00  0.00    -0.418 A  
HETATM   21  H   UNL     1     -11.148  16.570  63.895  1.00  0.00     0.000 HD 
HETATM   22  N   UNL     1     -12.392  14.143  63.920  1.00  0.00    -0.739 NA 
HETATM   23  C   UNL     1     -12.764  12.907  64.289  1.00  0.00    -0.205 A  
HETATM   24  N   UNL     1     -12.390  12.226  65.387  1.00  0.00    -0.563 NA 
ENDBRANCH  11  15
ENDBRANCH   4  10
ENDBRANCH   3   4
TORSDOF 4
ENDMDL
MODEL       45
REMARK 921   NORMALIZED FREE ENERGY PREDICTED BY IDOCK:   -6.64 KCAL/MOL
REMARK 922        TOTAL FREE ENERGY PREDICTED BY IDOCK:   -8.60 KCAL/MOL
REMARK 923 INTER-LIGAND FREE ENERGY PREDICTED BY IDOCK:   -8.04 KCAL/MOL
REMARK 924 INTRA-LIGAND FREE ENERGY PREDICTED BY IDOCK:   -0.56 KCAL/MOL
REMARK 927      BINDING AFFINITY PREDICTED BY RF-SCORE:    0.00 PKD
ROOT
HETATM    1  N   UNL     1     -13.004  11.720  63.131  1.00  0.00    -0.464 NA 
HETATM    2  C   UNL     1     -12.441  12.587  63.654  1.00  0.00    -0.470 C  
HETATM    3  C   UNL     1     -11.678  13.681  64.276  1.00  0.00    -0.438 C  
ENDROOT
BRANCH   3   4
HETATM    4  C   UNL     1     -10.724  13.178  65.392  1.00  0.00    -0.294 C  
BRANCH   4   5
HETATM    5  C   UNL     1     -11.428  12.144  66.334  1.00  0.00    -0.430 C  
HETATM    6  C   UNL     1     -11.747  12.647  67.755  1.00  0.00    -0.412 C  
HETATM    7  C   UNL     1     -11.645  11.456  68.700  1.00  0.00    -0.384 C  
HETATM    8  C   UNL     1     -10.577  10.898  66.625  1.00  0.00    -0.305 C  
HETATM    9  C   UNL     1     -11.245  10.273  67.840  1.00  0.00    -0.290 C  
ENDBRANCH   4   5
BRANCH   4  10
HETATM   10  N   UNL     1     -10.074  14.314  66.067  1.00  0.00    -0.305 NA 
HETATM   11  C   UNL     1      -9.483  16.314  66.799  1.00  0.00    -0.253 A  
HETATM   12  C   UNL     1     -10.446  15.622  66.100  1.00  0.00    -0.317 A  
HETATM   13  C   UNL     1      -8.623  15.302  67.260  1.00  0.00    -0.190 A  
HETATM   14  N   UNL     1      -8.995  14.084  66.853  1.00  0.00    -0.239 NA 
BRANCH  11  15
HETATM   15  C   UNL     1      -9.492  17.751  66.920  1.00  0.00    -0.271 A  
HETATM   16  C   UNL     1      -8.410  18.535  66.517  1.00  0.00    -0.297 A  
HETATM   17  C   UNL     1      -7.105  18.341  65.980  1.00  0.00    -0.307 A  
HETATM   18  C   UNL     1      -6.554  19.585  65.752  1.00  0.00    -0.242 A  
HETATM   19  N   UNL     1      -7.477  20.526  66.125  1.00  0.00    -0.502 NA 
HETATM   20  C   UNL     1      -8.608  19.908  66.582  1.00  0.00    -0.337 A  
HETATM   21  H   UNL     1      -7.342  21.536  66.070  1.00  0.00     0.000 HD 
HETATM   22  N   UNL     1      -9.710  20.551  66.997  1.00  0.00    -0.438 NA 
HETATM   23  C   UNL     1     -10.680  19.694  67.354  1.00  0.00    -0.435 A  
HETATM   24  N   UNL     1     -10.640  18.349  67.336  1.00  0.00    -0.420 NA 
ENDBRANCH  11  15
ENDBRANCH   4  10
ENDBRANCH   3   4
TORSDOF 4
ENDMDL
MODEL       46
REMARK 921   NORMALIZED FREE ENERGY PREDICTED BY IDOCK:   -6.61 KCAL/MOL
REMARK 922        TOTAL FREE ENERGY PREDICTED BY IDOCK:   -8.56 KCAL/MOL
REMARK 923 INTER-LIGAND FREE ENERGY PREDICTED BY IDOCK:   -8.15 KCAL/MOL
REMARK 924 INTRA-LIGAND FREE ENERGY PREDICTED BY IDOCK:   -0.41 KCAL/MOL
REMARK 927      BINDING AFFINITY PREDICTED BY RF-SCORE:    0.00 PKD
ROOT
HETATM    1  N   UNL     1     -14.229   8.030  71.584  1.00  0.00    -0.438 NA 
HETATM    2  C   UNL     1     -13.513   8.942  71.586  1.00  0.00    -0.378 C  
HETATM    3  C   UNL     1     -12.647  10.130  71.551  1.00  0.00    -0.537 C  
ENDROOT
BRANCH   3   4
HETATM    4  C   UNL     1     -11.667  10.114  70.348  1.00  0.00    -0.308 C  
BRANCH   4   5
HETATM    5  C   UNL     1     -10.206   9.767  70.794  1.00  0.00    -0.251 C  
HETATM    6  C   UNL     1      -9.289   9.206  69.691  1.00  0.00    -0.177 C  
HETATM    7  C   UNL     1      -8.316   8.235  70.350  1.00  0.00    -0.120 C  
HETATM    8  C   UNL     1     -10.134   8.660  71.857  1.00  0.00    -0.398 C  
HETATM    9  C   UNL     1      -8.682   8.211  71.821  1.00  0.00    -0.199 C  
ENDBRANCH   4   5
BRANCH   4  10
HETATM   10  N   UNL     1     -11.813  11.341  69.546  1.00  0.00    -0.326 NA 
HETATM   11  C   UNL     1     -12.015  12.817  67.914  1.00  0.00    -0.320 A  
HETATM   12  C   UNL     1     -12.018  11.472  68.207  1.00  0.00    -0.169 A  
HETATM   13  C   UNL     1     -11.925  13.428  69.177  1.00  0.00    -0.317 A  
HETATM   14  N   UNL     1     -11.840  12.540  70.173  1.00  0.00    -0.303 NA 
BRANCH  11  15
HETATM   15  C   UNL     1     -12.080  13.319  66.563  1.00  0.00    -0.375 A  
HETATM   16  C   UNL     1     -11.505  14.538  66.197  1.00  0.00    -0.357 A  
HETATM   17  C   UNL     1     -10.807  15.608  66.825  1.00  0.00    -0.277 A  
HETATM   18  C   UNL     1     -10.459  16.516  65.847  1.00  0.00    -0.323 A  
HETATM   19  N   UNL     1     -10.914  16.033  64.648  1.00  0.00    -0.842 NA 
HETATM   20  C   UNL     1     -11.542  14.834  64.841  1.00  0.00    -0.401 A  
HETATM   21  H   UNL     1     -10.801  16.498  63.747  1.00  0.00     0.000 HD 
HETATM   22  N   UNL     1     -12.073  14.088  63.861  1.00  0.00    -0.507 NA 
HETATM   23  C   UNL     1     -12.590  12.943  64.333  1.00  0.00    -0.317 A  
HETATM   24  N   UNL     1     -12.620  12.515  65.609  1.00  0.00    -0.517 NA 
ENDBRANCH  11  15
ENDBRANCH   4  10
ENDBRANCH   3   4
TORSDOF 4
ENDMDL
MODEL       47
REMARK 921   NORMALIZED FREE ENERGY PREDICTED BY IDOCK:   -6.59 KCAL/MOL
REMARK 922        TOTAL FREE ENERGY PREDICTED BY IDOCK:   -8.54 KCAL/MOL
REMARK 923 INTER-LIGAND FREE ENERGY PREDICTED BY IDOCK:   -7.81 KCAL/MOL
REMARK 924 INTRA-LIGAND FREE ENERGY PREDICTED BY IDOCK:   -0.73 KCAL/MOL
REMARK 927      BINDING AFFINITY PREDICTED BY RF-SCORE:    0.00 PKD
ROOT
HETATM    1  N   UNL     1     -12.685  12.744  63.831  1.00  0.00    -0.715 NA 
HETATM    2  C   UNL     1     -11.864  13.461  64.226  1.00  0.00    -0.423 C  
HETATM    3  C   UNL     1     -10.795  14.321  64.757  1.00  0.00    -0.420 C  
ENDROOT
BRANCH   3   4
HETATM    4  C   UNL     1     -11.129  14.881  66.165  1.00  0.00    -0.335 C  
BRANCH   4   5
HETATM    5  C   UNL     1     -10.385  16.231  66.443  1.00  0.00    -0.319 C  
HETATM    6  C   UNL     1     -10.666  16.876  67.814  1.00  0.00    -0.315 C  
HETATM    7  C   UNL     1     -10.586  18.388  67.638  1.00  0.00    -0.437 C  
HETATM    8  C   UNL     1     -10.778  17.361  65.478  1.00  0.00    -0.081 C  
HETATM    9  C   UNL     1     -10.287  18.622  66.170  1.00  0.00    -0.481 C  
ENDBRANCH   4   5
BRANCH   4  10
HETATM   10  N   UNL     1     -10.960  13.839  67.191  1.00  0.00    -0.286 NA 
HETATM   11  C   UNL     1     -11.243  12.398  68.843  1.00  0.00    -0.330 A  
HETATM   12  C   UNL     1     -11.894  13.272  68.002  1.00  0.00    -0.355 A  
HETATM   13  C   UNL     1      -9.918  12.415  68.371  1.00  0.00    -0.210 A  
HETATM   14  N   UNL     1      -9.748  13.257  67.346  1.00  0.00    -0.216 NA 
BRANCH  11  15
HETATM   15  C   UNL     1     -11.910  11.714  69.923  1.00  0.00    -0.358 A  
HETATM   16  C   UNL     1     -11.713  10.355  70.173  1.00  0.00    -0.394 A  
HETATM   17  C   UNL     1     -10.990   9.269  69.603  1.00  0.00    -0.192 A  
HETATM   18  C   UNL     1     -11.195   8.161  70.398  1.00  0.00    -0.221 A  
HETATM   19  N   UNL     1     -12.012   8.536  71.433  1.00  0.00    -0.292 NA 
HETATM   20  C   UNL     1     -12.328   9.861  71.316  1.00  0.00    -0.381 A  
HETATM   21  H   UNL     1     -12.335   7.919  72.179  1.00  0.00     0.000 HD 
HETATM   22  N   UNL     1     -13.088  10.540  72.188  1.00  0.00    -0.414 NA 
HETATM   23  C   UNL     1     -13.201  11.834  71.845  1.00  0.00    -0.362 A  
HETATM   24  N   UNL     1     -12.660  12.456  70.782  1.00  0.00    -0.266 NA 
ENDBRANCH  11  15
ENDBRANCH   4  10
ENDBRANCH   3   4
TORSDOF 4
ENDMDL
MODEL       48
REMARK 921   NORMALIZED FREE ENERGY PREDICTED BY IDOCK:   -6.58 KCAL/MOL
REMARK 922        TOTAL FREE ENERGY PREDICTED BY IDOCK:   -8.52 KCAL/MOL
REMARK 923 INTER-LIGAND FREE ENERGY PREDICTED BY IDOCK:   -7.86 KCAL/MOL
REMARK 924 INTRA-LIGAND FREE ENERGY PREDICTED BY IDOCK:   -0.66 KCAL/MOL
REMARK 927      BINDING AFFINITY PREDICTED BY RF-SCORE:    0.00 PKD
ROOT
HETATM    1  N   UNL     1     -13.147  11.260  71.580  1.00  0.00    -0.454 NA 
HETATM    2  C   UNL     1     -12.279  10.571  71.240  1.00  0.00    -0.368 C  
HETATM    3  C   UNL     1     -11.142   9.749  70.798  1.00  0.00    -0.415 C  
ENDROOT
BRANCH   3   4
HETATM    4  C   UNL     1     -11.134   9.524  69.263  1.00  0.00    -0.082 C  
BRANCH   4   5
HETATM    5  C   UNL     1     -10.502   8.143  68.882  1.00  0.00    -0.202 C  
HETATM    6  C   UNL     1     -10.646   7.729  67.405  1.00  0.00    -0.345 C  
HETATM    7  C   UNL     1     -10.750   6.209  67.359  1.00  0.00    -0.403 C  
HETATM    8  C   UNL     1     -11.147   6.950  69.607  1.00  0.00    -0.302 C  
HETATM    9  C   UNL     1     -10.694   5.743  68.801  1.00  0.00    -0.318 C  
ENDBRANCH   4   5
BRANCH   4  10
HETATM   10  N   UNL     1     -10.568  10.695  68.571  1.00  0.00    -0.187 NA 
HETATM   11  C   UNL     1     -10.233  12.477  67.308  1.00  0.00    -0.222 A  
HETATM   12  C   UNL     1     -11.193  11.615  67.788  1.00  0.00    -0.268 A  
HETATM   13  C   UNL     1      -9.062  12.063  67.967  1.00  0.00    -0.188 A  
HETATM   14  N   UNL     1      -9.265  11.008  68.763  1.00  0.00    -0.178 NA 
BRANCH  11  15
HETATM   15  C   UNL     1     -10.525  13.506  66.341  1.00  0.00    -0.287 A  
HETATM   16  C   UNL     1     -11.221  13.238  65.161  1.00  0.00    -0.322 A  
HETATM   17  C   UNL     1     -11.783  12.110  64.498  1.00  0.00    -0.410 A  
HETATM   18  C   UNL     1     -12.399  12.559  63.349  1.00  0.00    -0.477 A  
HETATM   19  N   UNL     1     -12.236  13.919  63.292  1.00  0.00    -1.111 NA 
HETATM   20  C   UNL     1     -11.533  14.346  64.385  1.00  0.00    -0.288 A  
HETATM   21  H   UNL     1     -12.587  14.522  62.548  1.00  0.00     0.000 HD 
HETATM   22  N   UNL     1     -11.232  15.628  64.639  1.00  0.00    -0.419 NA 
HETATM   23  C   UNL     1     -10.569  15.760  65.800  1.00  0.00    -0.355 A  
HETATM   24  N   UNL     1     -10.206  14.790  66.658  1.00  0.00    -0.264 NA 
ENDBRANCH  11  15
ENDBRANCH   4  10
ENDBRANCH   3   4
TORSDOF 4
ENDMDL
MODEL       49
REMARK 921   NORMALIZED FREE ENERGY PREDICTED BY IDOCK:   -6.57 KCAL/MOL
REMARK 922        TOTAL FREE ENERGY PREDICTED BY IDOCK:   -8.52 KCAL/MOL
REMARK 923 INTER-LIGAND FREE ENERGY PREDICTED BY IDOCK:   -7.82 KCAL/MOL
REMARK 924 INTRA-LIGAND FREE ENERGY PREDICTED BY IDOCK:   -0.70 KCAL/MOL
REMARK 927      BINDING AFFINITY PREDICTED BY RF-SCORE:    0.00 PKD
ROOT
HETATM    1  N   UNL     1      -8.271   8.816  72.818  1.00  0.00    -0.397 NA 
HETATM    2  C   UNL     1      -8.980   8.719  71.906  1.00  0.00    -0.183 C  
HETATM    3  C   UNL     1      -9.837   8.629  70.714  1.00  0.00    -0.236 C  
ENDROOT
BRANCH   3   4
HETATM    4  C   UNL     1     -10.820   9.824  70.599  1.00  0.00    -0.329 C  
BRANCH   4   5
HETATM    5  C   UNL     1     -12.311   9.364  70.740  1.00  0.00    -0.185 C  
HETATM    6  C   UNL     1     -13.083   9.964  71.930  1.00  0.00    -0.559 C  
HETATM    7  C   UNL     1     -14.094   8.923  72.396  1.00  0.00    -0.493 C  
HETATM    8  C   UNL     1     -12.468   7.855  70.991  1.00  0.00    -0.143 C  
HETATM    9  C   UNL     1     -13.894   7.716  71.501  1.00  0.00    -0.466 C  
ENDBRANCH   4   5
BRANCH   4  10
HETATM   10  N   UNL     1     -10.514  10.633  69.408  1.00  0.00    -0.228 NA 
HETATM   11  C   UNL     1     -10.608  11.947  67.633  1.00  0.00    -0.241 A  
HETATM   12  C   UNL     1     -11.324  11.475  68.710  1.00  0.00    -0.265 A  
HETATM   13  C   UNL     1      -9.320  11.423  67.841  1.00  0.00    -0.164 A  
HETATM   14  N   UNL     1      -9.246  10.657  68.934  1.00  0.00    -0.179 NA 
BRANCH  11  15
HETATM   15  C   UNL     1     -11.199  12.768  66.606  1.00  0.00    -0.301 A  
HETATM   16  C   UNL     1     -10.703  14.036  66.294  1.00  0.00    -0.289 A  
HETATM   17  C   UNL     1      -9.679  14.913  66.752  1.00  0.00    -0.263 A  
HETATM   18  C   UNL     1      -9.691  16.032  65.947  1.00  0.00    -0.343 A  
HETATM   19  N   UNL     1     -10.680  15.865  65.013  1.00  0.00    -0.543 NA 
HETATM   20  C   UNL     1     -11.297  14.659  65.204  1.00  0.00    -0.375 A  
HETATM   21  H   UNL     1     -10.920  16.538  64.285  1.00  0.00     0.000 HD 
HETATM   22  N   UNL     1     -12.289  14.184  64.437  1.00  0.00    -0.636 NA 
HETATM   23  C   UNL     1     -12.678  12.961  64.830  1.00  0.00    -0.403 A  
HETATM   24  N   UNL     1     -12.195  12.230  65.852  1.00  0.00    -0.600 NA 
ENDBRANCH  11  15
ENDBRANCH   4  10
ENDBRANCH   3   4
TORSDOF 4
ENDMDL
MODEL       50
REMARK 921   NORMALIZED FREE ENERGY PREDICTED BY IDOCK:   -6.56 KCAL/MOL
REMARK 922        TOTAL FREE ENERGY PREDICTED BY IDOCK:   -8.50 KCAL/MOL
REMARK 923 INTER-LIGAND FREE ENERGY PREDICTED BY IDOCK:   -7.82 KCAL/MOL
REMARK 924 INTRA-LIGAND FREE ENERGY PREDICTED BY IDOCK:   -0.68 KCAL/MOL
REMARK 927      BINDING AFFINITY PREDICTED BY RF-SCORE:    0.00 PKD
ROOT
HETATM    1  N   UNL     1     -12.663  12.378  63.989  1.00  0.00    -0.723 NA 
HETATM    2  C   UNL     1     -12.559  12.759  65.079  1.00  0.00    -0.468 C  
HETATM    3  C   UNL     1     -12.404  13.299  66.439  1.00  0.00    -0.347 C  
ENDROOT
BRANCH   3   4
HETATM    4  C   UNL     1     -10.981  13.066  67.011  1.00  0.00    -0.265 C  
BRANCH   4   5
HETATM    5  C   UNL     1     -11.028  12.406  68.431  1.00  0.00    -0.272 C  
HETATM    6  C   UNL     1     -11.524  10.948  68.472  1.00  0.00    -0.380 C  
HETATM    7  C   UNL     1     -12.247  10.743  69.798  1.00  0.00    -0.359 C  
HETATM    8  C   UNL     1     -12.002  13.097  69.399  1.00  0.00    -0.347 C  
HETATM    9  C   UNL     1     -12.195  12.079  70.512  1.00  0.00    -0.414 C  
ENDBRANCH   4   5
BRANCH   4  10
HETATM   10  N   UNL     1     -10.174  14.293  66.907  1.00  0.00    -0.263 NA 
HETATM   11  C   UNL     1      -9.467  16.382  66.766  1.00  0.00    -0.265 A  
HETATM   12  C   UNL     1     -10.568  15.591  67.004  1.00  0.00    -0.311 A  
HETATM   13  C   UNL     1      -8.416  15.455  66.657  1.00  0.00    -0.260 A  
HETATM   14  N   UNL     1      -8.830  14.190  66.779  1.00  0.00    -0.207 NA 
BRANCH  11  15
HETATM   15  C   UNL     1      -9.548  17.819  66.665  1.00  0.00    -0.307 A  
HETATM   16  C   UNL     1      -8.565  18.655  67.199  1.00  0.00    -0.277 A  
HETATM   17  C   UNL     1      -7.358  18.527  67.943  1.00  0.00    -0.247 A  
HETATM   18  C   UNL     1      -6.827  19.790  68.105  1.00  0.00    -0.284 A  
HETATM   19  N   UNL     1      -7.663  20.678  67.481  1.00  0.00    -0.309 NA 
HETATM   20  C   UNL     1      -8.715  20.007  66.920  1.00  0.00    -0.341 A  
HETATM   21  H   UNL     1      -7.522  21.688  67.440  1.00  0.00     0.000 HD 
HETATM   22  N   UNL     1      -9.695  20.588  66.213  1.00  0.00    -0.212 NA 
HETATM   23  C   UNL     1     -10.574  19.685  65.750  1.00  0.00    -0.438 A  
HETATM   24  N   UNL     1     -10.557  18.351  65.926  1.00  0.00    -0.528 NA 
ENDBRANCH  11  15
ENDBRANCH   4  10
ENDBRANCH   3   4
TORSDOF 4
ENDMDL
MODEL       51
REMARK 921   NORMALIZED FREE ENERGY PREDICTED BY IDOCK:   -6.54 KCAL/MOL
REMARK 922        TOTAL FREE ENERGY PREDICTED BY IDOCK:   -8.48 KCAL/MOL
REMARK 923 INTER-LIGAND FREE ENERGY PREDICTED BY IDOCK:   -8.00 KCAL/MOL
REMARK 924 INTRA-LIGAND FREE ENERGY PREDICTED BY IDOCK:   -0.48 KCAL/MOL
REMARK 927      BINDING AFFINITY PREDICTED BY RF-SCORE:    0.00 PKD
ROOT
HETATM    1  N   UNL     1     -14.386   8.416  71.758  1.00  0.00    -0.460 NA 
HETATM    2  C   UNL     1     -13.608   9.268  71.648  1.00  0.00    -0.381 C  
HETATM    3  C   UNL     1     -12.660  10.378  71.465  1.00  0.00    -0.544 C  
ENDROOT
BRANCH   3   4
HETATM    4  C   UNL     1     -11.674  10.129  70.293  1.00  0.00    -0.282 C  
BRANCH   4   5
HETATM    5  C   UNL     1     -10.256   9.709  70.807  1.00  0.00    -0.330 C  
HETATM    6  C   UNL     1      -9.117   9.807  69.774  1.00  0.00    -0.246 C  
HETATM    7  C   UNL     1      -8.111   8.706  70.089  1.00  0.00    -0.113 C  
HETATM    8  C   UNL     1     -10.167   8.235  71.233  1.00  0.00    -0.253 C  
HETATM    9  C   UNL     1      -8.674   7.956  71.281  1.00  0.00    -0.149 C  
ENDBRANCH   4   5
BRANCH   4  10
HETATM   10  N   UNL     1     -11.699  11.258  69.347  1.00  0.00    -0.308 NA 
HETATM   11  C   UNL     1     -11.761  12.539  67.548  1.00  0.00    -0.439 A  
HETATM   12  C   UNL     1     -11.901  11.247  68.002  1.00  0.00    -0.170 A  
HETATM   13  C   UNL     1     -11.597  13.285  68.728  1.00  0.00    -0.312 A  
HETATM   14  N   UNL     1     -11.597  12.521  69.824  1.00  0.00    -0.258 NA 
BRANCH  11  15
HETATM   15  C   UNL     1     -11.786  12.878  66.146  1.00  0.00    -0.396 A  
HETATM   16  C   UNL     1     -11.154  12.089  65.182  1.00  0.00    -0.369 A  
HETATM   17  C   UNL     1     -10.354  10.912  65.138  1.00  0.00    -0.344 A  
HETATM   18  C   UNL     1     -10.093  10.629  63.814  1.00  0.00    -0.270 A  
HETATM   19  N   UNL     1     -10.711  11.587  63.052  1.00  0.00    -0.722 NA 
HETATM   20  C   UNL     1     -11.363  12.473  63.864  1.00  0.00    -0.438 A  
HETATM   21  H   UNL     1     -10.688  11.632  62.033  1.00  0.00     0.000 HD 
HETATM   22  N   UNL     1     -12.089  13.512  63.426  1.00  0.00    -0.546 NA 
HETATM   23  C   UNL     1     -12.648  14.190  64.441  1.00  0.00    -0.164 A  
HETATM   24  N   UNL     1     -12.547  13.936  65.758  1.00  0.00    -0.504 NA 
ENDBRANCH  11  15
ENDBRANCH   4  10
ENDBRANCH   3   4
TORSDOF 4
ENDMDL
MODEL       52
REMARK 921   NORMALIZED FREE ENERGY PREDICTED BY IDOCK:   -6.53 KCAL/MOL
REMARK 922        TOTAL FREE ENERGY PREDICTED BY IDOCK:   -8.47 KCAL/MOL
REMARK 923 INTER-LIGAND FREE ENERGY PREDICTED BY IDOCK:   -8.29 KCAL/MOL
REMARK 924 INTRA-LIGAND FREE ENERGY PREDICTED BY IDOCK:   -0.18 KCAL/MOL
REMARK 927      BINDING AFFINITY PREDICTED BY RF-SCORE:    0.00 PKD
ROOT
HETATM    1  N   UNL     1     -10.013  17.474  67.131  1.00  0.00    -0.303 NA 
HETATM    2  C   UNL     1     -10.185  16.984  68.167  1.00  0.00    -0.322 C  
HETATM    3  C   UNL     1     -10.383  16.306  69.457  1.00  0.00    -0.284 C  
ENDROOT
BRANCH   3   4
HETATM    4  C   UNL     1     -11.795  15.674  69.584  1.00  0.00    -0.362 C  
BRANCH   4   5
HETATM    5  C   UNL     1     -12.416  15.922  71.001  1.00  0.00    -0.387 C  
HETATM    6  C   UNL     1     -11.549  15.478  72.195  1.00  0.00    -0.552 C  
HETATM    7  C   UNL     1     -12.490  15.033  73.308  1.00  0.00    -0.570 C  
HETATM    8  C   UNL     1     -13.715  15.139  71.248  1.00  0.00    -0.555 C  
HETATM    9  C   UNL     1     -13.893  15.191  72.757  1.00  0.00    -0.508 C  
ENDBRANCH   4   5
BRANCH   4  10
HETATM   10  N   UNL     1     -11.776  14.272  69.134  1.00  0.00    -0.299 NA 
HETATM   11  C   UNL     1     -11.630  12.071  68.999  1.00  0.00    -0.370 A  
HETATM   12  C   UNL     1     -11.675  13.134  69.872  1.00  0.00    -0.257 A  
HETATM   13  C   UNL     1     -11.838  12.670  67.743  1.00  0.00    -0.323 A  
HETATM   14  N   UNL     1     -11.965  13.998  67.822  1.00  0.00    -0.375 NA 
BRANCH  11  15
HETATM   15  C   UNL     1     -11.396  10.716  69.434  1.00  0.00    -0.284 A  
HETATM   16  C   UNL     1     -12.064  10.164  70.528  1.00  0.00    -0.380 A  
HETATM   17  C   UNL     1     -13.009  10.579  71.510  1.00  0.00    -0.565 A  
HETATM   18  C   UNL     1     -13.302   9.488  72.301  1.00  0.00    -0.441 A  
HETATM   19  N   UNL     1     -12.576   8.425  71.832  1.00  0.00    -0.332 NA 
HETATM   20  C   UNL     1     -11.828   8.815  70.755  1.00  0.00    -0.178 A  
HETATM   21  H   UNL     1     -12.590   7.484  72.226  1.00  0.00     0.000 HD 
HETATM   22  N   UNL     1     -11.028   8.000  70.051  1.00  0.00    -0.235 NA 
HETATM   23  C   UNL     1     -10.446   8.641  69.025  1.00  0.00    -0.199 A  
HETATM   24  N   UNL     1     -10.584   9.933  68.674  1.00  0.00    -0.209 NA 
ENDBRANCH  11  15
ENDBRANCH   4  10
ENDBRANCH   3   4
TORSDOF 4
ENDMDL
MODEL       53
REMARK 921   NORMALIZED FREE ENERGY PREDICTED BY IDOCK:   -6.52 KCAL/MOL
REMARK 922        TOTAL FREE ENERGY PREDICTED BY IDOCK:   -8.45 KCAL/MOL
REMARK 923 INTER-LIGAND FREE ENERGY PREDICTED BY IDOCK:   -8.25 KCAL/MOL
REMARK 924 INTRA-LIGAND FREE ENERGY PREDICTED BY IDOCK:   -0.20 KCAL/MOL
REMARK 927      BINDING AFFINITY PREDICTED BY RF-SCORE:    0.00 PKD
ROOT
HETATM    1  N   UNL     1      -6.495  16.521  66.862  1.00  0.00    -0.226 NA 
HETATM    2  C   UNL     1      -7.576  16.384  66.465  1.00  0.00    -0.223 C  
HETATM    3  C   UNL     1      -8.969  16.239  66.015  1.00  0.00    -0.325 C  
ENDROOT
BRANCH   3   4
HETATM    4  C   UNL     1      -9.623  14.928  66.524  1.00  0.00    -0.276 C  
BRANCH   4   5
HETATM    5  C   UNL     1     -10.334  14.147  65.368  1.00  0.00    -0.384 C  
HETATM    6  C   UNL     1     -11.864  14.316  65.292  1.00  0.00    -0.374 C  
HETATM    7  C   UNL     1     -12.446  13.014  64.756  1.00  0.00    -0.485 C  
HETATM    8  C   UNL     1     -10.192  12.620  65.478  1.00  0.00    -0.298 C  
HETATM    9  C   UNL     1     -11.267  12.084  64.546  1.00  0.00    -0.390 C  
ENDBRANCH   4   5
BRANCH   4  10
HETATM   10  N   UNL     1     -10.448  15.190  67.716  1.00  0.00    -0.244 NA 
HETATM   11  C   UNL     1     -11.755  15.026  69.490  1.00  0.00    -0.350 A  
HETATM   12  C   UNL     1     -11.021  14.305  68.575  1.00  0.00    -0.252 A  
HETATM   13  C   UNL     1     -11.456  16.362  69.170  1.00  0.00    -0.188 A  
HETATM   14  N   UNL     1     -10.636  16.468  68.120  1.00  0.00    -0.315 NA 
BRANCH  11  15
HETATM   15  C   UNL     1     -12.600  14.400  70.477  1.00  0.00    -0.353 A  
HETATM   16  C   UNL     1     -12.519  13.035  70.762  1.00  0.00    -0.384 A  
HETATM   17  C   UNL     1     -11.793  11.900  70.303  1.00  0.00    -0.368 A  
HETATM   18  C   UNL     1     -12.168  10.819  71.073  1.00  0.00    -0.380 A  
HETATM   19  N   UNL     1     -13.090  11.258  71.987  1.00  0.00    -0.496 NA 
HETATM   20  C   UNL     1     -13.308  12.597  71.818  1.00  0.00    -0.310 A  
HETATM   21  H   UNL     1     -13.546  10.673  72.688  1.00  0.00     0.000 HD 
HETATM   22  N   UNL     1     -14.135  13.333  72.574  1.00  0.00    -0.701 NA 
HETATM   23  C   UNL     1     -14.124  14.625  72.209  1.00  0.00    -0.491 A  
HETATM   24  N   UNL     1     -13.411  15.197  71.222  1.00  0.00    -0.442 NA 
ENDBRANCH  11  15
ENDBRANCH   4  10
ENDBRANCH   3   4
TORSDOF 4
ENDMDL
MODEL       54
REMARK 921   NORMALIZED FREE ENERGY PREDICTED BY IDOCK:   -6.48 KCAL/MOL
REMARK 922        TOTAL FREE ENERGY PREDICTED BY IDOCK:   -8.41 KCAL/MOL
REMARK 923 INTER-LIGAND FREE ENERGY PREDICTED BY IDOCK:   -7.72 KCAL/MOL
REMARK 924 INTRA-LIGAND FREE ENERGY PREDICTED BY IDOCK:   -0.69 KCAL/MOL
REMARK 927      BINDING AFFINITY PREDICTED BY RF-SCORE:    0.00 PKD
ROOT
HETATM    1  N   UNL     1     -13.092  10.593  71.954  1.00  0.00    -0.487 NA 
HETATM    2  C   UNL     1     -12.114  10.232  71.448  1.00  0.00    -0.362 C  
HETATM    3  C   UNL     1     -10.865   9.834  70.780  1.00  0.00    -0.403 C  
ENDROOT
BRANCH   3   4
HETATM    4  C   UNL     1     -11.104   9.314  69.338  1.00  0.00    -0.043 C  
BRANCH   4   5
HETATM    5  C   UNL     1     -10.406   7.932  69.097  1.00  0.00    -0.225 C  
HETATM    6  C   UNL     1     -10.418   7.425  67.642  1.00  0.00    -0.310 C  
HETATM    7  C   UNL     1     -10.478   5.903  67.684  1.00  0.00    -0.301 C  
HETATM    8  C   UNL     1     -11.076   6.766  69.841  1.00  0.00    -0.374 C  
HETATM    9  C   UNL     1     -10.527   5.528  69.152  1.00  0.00    -0.315 C  
ENDBRANCH   4   5
BRANCH   4  10
HETATM   10  N   UNL     1     -10.795  10.363  68.351  1.00  0.00    -0.227 NA 
HETATM   11  C   UNL     1     -10.877  11.883  66.749  1.00  0.00    -0.307 A  
HETATM   12  C   UNL     1     -11.641  11.066  67.552  1.00  0.00    -0.080 A  
HETATM   13  C   UNL     1      -9.571  11.688  67.233  1.00  0.00    -0.174 A  
HETATM   14  N   UNL     1      -9.519  10.798  68.228  1.00  0.00    -0.158 NA 
BRANCH  11  15
HETATM   15  C   UNL     1     -11.442  12.680  65.688  1.00  0.00    -0.350 A  
HETATM   16  C   UNL     1     -11.147  14.037  65.544  1.00  0.00    -0.309 A  
HETATM   17  C   UNL     1     -10.388  15.032  66.223  1.00  0.00    -0.304 A  
HETATM   18  C   UNL     1     -10.481  16.202  65.498  1.00  0.00    -0.386 A  
HETATM   19  N   UNL     1     -11.263  15.951  64.400  1.00  0.00    -0.869 NA 
HETATM   20  C   UNL     1     -11.667  14.645  64.409  1.00  0.00    -0.346 A  
HETATM   21  H   UNL     1     -11.506  16.636  63.684  1.00  0.00     0.000 HD 
HETATM   22  N   UNL     1     -12.420  14.077  63.455  1.00  0.00    -0.799 NA 
HETATM   23  C   UNL     1     -12.632  12.774  63.701  1.00  0.00    -0.286 A  
HETATM   24  N   UNL     1     -12.189  12.049  64.744  1.00  0.00    -0.308 NA 
ENDBRANCH  11  15
ENDBRANCH   4  10
ENDBRANCH   3   4
TORSDOF 4
ENDMDL
MODEL       55
REMARK 921   NORMALIZED FREE ENERGY PREDICTED BY IDOCK:   -6.48 KCAL/MOL
REMARK 922        TOTAL FREE ENERGY PREDICTED BY IDOCK:   -8.40 KCAL/MOL
REMARK 923 INTER-LIGAND FREE ENERGY PREDICTED BY IDOCK:   -7.63 KCAL/MOL
REMARK 924 INTRA-LIGAND FREE ENERGY PREDICTED BY IDOCK:   -0.78 KCAL/MOL
REMARK 927      BINDING AFFINITY PREDICTED BY RF-SCORE:    0.00 PKD
ROOT
HETATM    1  N   UNL     1     -11.309  15.464  71.845  1.00  0.00    -0.419 NA 
HETATM    2  C   UNL     1     -11.460  15.817  70.751  1.00  0.00    -0.393 C  
HETATM    3  C   UNL     1     -11.676  16.206  69.348  1.00  0.00    -0.213 C  
ENDROOT
BRANCH   3   4
HETATM    4  C   UNL     1     -10.468  15.851  68.442  1.00  0.00    -0.254 C  
BRANCH   4   5
HETATM    5  C   UNL     1      -9.844  17.126  67.781  1.00  0.00    -0.274 C  
HETATM    6  C   UNL     1      -9.996  18.433  68.582  1.00  0.00    -0.415 C  
HETATM    7  C   UNL     1     -10.107  19.578  67.582  1.00  0.00    -0.526 C  
HETATM    8  C   UNL     1     -10.490  17.503  66.439  1.00  0.00    -0.277 C  
HETATM    9  C   UNL     1     -10.045  18.938  66.208  1.00  0.00    -0.460 C  
ENDBRANCH   4   5
BRANCH   4  10
HETATM   10  N   UNL     1     -10.820  14.762  67.514  1.00  0.00    -0.280 NA 
HETATM   11  C   UNL     1     -10.789  13.089  66.071  1.00  0.00    -0.290 A  
HETATM   12  C   UNL     1     -10.006  13.863  66.897  1.00  0.00    -0.264 A  
HETATM   13  C   UNL     1     -12.096  13.521  66.358  1.00  0.00    -0.417 A  
HETATM   14  N   UNL     1     -12.125  14.508  67.260  1.00  0.00    -0.347 NA 
BRANCH  11  15
HETATM   15  C   UNL     1     -10.236  12.112  65.165  1.00  0.00    -0.278 A  
HETATM   16  C   UNL     1      -9.945  10.808  65.569  1.00  0.00    -0.321 A  
HETATM   17  C   UNL     1      -9.995  10.035  66.764  1.00  0.00    -0.267 A  
HETATM   18  C   UNL     1      -9.601   8.751  66.453  1.00  0.00    -0.249 A  
HETATM   19  N   UNL     1      -9.321   8.714  65.112  1.00  0.00    -0.408 NA 
HETATM   20  C   UNL     1      -9.531   9.948  64.561  1.00  0.00    -0.264 A  
HETATM   21  H   UNL     1      -9.002   7.889  64.601  1.00  0.00     0.000 HD 
HETATM   22  N   UNL     1      -9.373  10.235  63.261  1.00  0.00    -0.288 NA 
HETATM   23  C   UNL     1      -9.686  11.514  62.994  1.00  0.00    -0.359 A  
HETATM   24  N   UNL     1     -10.108  12.457  63.856  1.00  0.00    -0.367 NA 
ENDBRANCH  11  15
ENDBRANCH   4  10
ENDBRANCH   3   4
TORSDOF 4
ENDMDL
MODEL       56
REMARK 921   NORMALIZED FREE ENERGY PREDICTED BY IDOCK:   -6.48 KCAL/MOL
REMARK 922        TOTAL FREE ENERGY PREDICTED BY IDOCK:   -8.40 KCAL/MOL
REMARK 923 INTER-LIGAND FREE ENERGY PREDICTED BY IDOCK:   -7.70 KCAL/MOL
REMARK 924 INTRA-LIGAND FREE ENERGY PREDICTED BY IDOCK:   -0.70 KCAL/MOL
REMARK 927      BINDING AFFINITY PREDICTED BY RF-SCORE:    0.00 PKD
ROOT
HETATM    1  N   UNL     1      -6.742   9.430  71.611  1.00  0.00    -0.310 NA 
HETATM    2  C   UNL     1      -7.696   9.158  71.012  1.00  0.00    -0.100 C  
HETATM    3  C   UNL     1      -8.878   8.832  70.198  1.00  0.00    -0.160 C  
ENDROOT
BRANCH   3   4
HETATM    4  C   UNL     1      -9.836  10.041  70.035  1.00  0.00    -0.197 C  
BRANCH   4   5
HETATM    5  C   UNL     1     -11.315   9.660  70.386  1.00  0.00    -0.337 C  
HETATM    6  C   UNL     1     -12.159  10.783  71.018  1.00  0.00    -0.452 C  
HETATM    7  C   UNL     1     -13.152  10.132  71.973  1.00  0.00    -0.538 C  
HETATM    8  C   UNL     1     -11.430   8.548  71.440  1.00  0.00    -0.344 C  
HETATM    9  C   UNL     1     -12.871   8.643  71.916  1.00  0.00    -0.411 C  
ENDBRANCH   4   5
BRANCH   4  10
HETATM   10  N   UNL     1      -9.639  10.684  68.725  1.00  0.00    -0.179 NA 
HETATM   11  C   UNL     1      -9.692  12.033  66.975  1.00  0.00    -0.204 A  
HETATM   12  C   UNL     1     -10.052  11.908  68.298  1.00  0.00    -0.203 A  
HETATM   13  C   UNL     1      -8.946  10.867  66.727  1.00  0.00    -0.150 A  
HETATM   14  N   UNL     1      -8.878  10.064  67.793  1.00  0.00    -0.125 NA 
BRANCH  11  15
HETATM   15  C   UNL     1     -10.085  13.160  66.165  1.00  0.00    -0.291 A  
HETATM   16  C   UNL     1     -10.941  13.021  65.070  1.00  0.00    -0.320 A  
HETATM   17  C   UNL     1     -11.616  11.974  64.381  1.00  0.00    -0.411 A  
HETATM   18  C   UNL     1     -12.369  12.546  63.377  1.00  0.00    -0.477 A  
HETATM   19  N   UNL     1     -12.181  13.903  63.436  1.00  0.00    -1.102 NA 
HETATM   20  C   UNL     1     -11.326  14.207  64.459  1.00  0.00    -0.348 A  
HETATM   21  H   UNL     1     -12.614  14.583  62.810  1.00  0.00     0.000 HD 
HETATM   22  N   UNL     1     -10.961  15.452  64.797  1.00  0.00    -0.420 NA 
HETATM   23  C   UNL     1     -10.144  15.457  65.863  1.00  0.00    -0.345 A  
HETATM   24  N   UNL     1      -9.694  14.400  66.562  1.00  0.00    -0.279 NA 
ENDBRANCH  11  15
ENDBRANCH   4  10
ENDBRANCH   3   4
TORSDOF 4
ENDMDL
MODEL       57
REMARK 921   NORMALIZED FREE ENERGY PREDICTED BY IDOCK:   -6.47 KCAL/MOL
REMARK 922        TOTAL FREE ENERGY PREDICTED BY IDOCK:   -8.39 KCAL/MOL
REMARK 923 INTER-LIGAND FREE ENERGY PREDICTED BY IDOCK:   -7.97 KCAL/MOL
REMARK 924 INTRA-LIGAND FREE ENERGY PREDICTED BY IDOCK:   -0.42 KCAL/MOL
REMARK 927      BINDING AFFINITY PREDICTED BY RF-SCORE:    0.00 PKD
ROOT
HETATM    1  N   UNL     1     -11.470  15.620  72.072  1.00  0.00    -0.422 NA 
HETATM    2  C   UNL     1     -11.621  15.836  70.943  1.00  0.00    -0.405 C  
HETATM    3  C   UNL     1     -11.792  16.050  69.498  1.00  0.00    -0.243 C  
ENDROOT
BRANCH   3   4
HETATM    4  C   UNL     1     -10.508  16.606  68.826  1.00  0.00    -0.324 C  
BRANCH   4   5
HETATM    5  C   UNL     1     -10.766  17.988  68.136  1.00  0.00    -0.267 C  
HETATM    6  C   UNL     1     -10.432  18.056  66.634  1.00  0.00    -0.332 C  
HETATM    7  C   UNL     1      -9.965  19.474  66.328  1.00  0.00    -0.538 C  
HETATM    8  C   UNL     1      -9.905  19.128  68.702  1.00  0.00    -0.485 C  
HETATM    9  C   UNL     1     -10.003  20.219  67.648  1.00  0.00    -0.551 C  
ENDBRANCH   4   5
BRANCH   4  10
HETATM   10  N   UNL     1      -9.883  15.578  67.975  1.00  0.00    -0.212 NA 
HETATM   11  C   UNL     1      -9.469  13.833  66.684  1.00  0.00    -0.289 A  
HETATM   12  C   UNL     1     -10.471  14.582  67.260  1.00  0.00    -0.266 A  
HETATM   13  C   UNL     1      -8.300  14.542  67.014  1.00  0.00    -0.167 A  
HETATM   14  N   UNL     1      -8.547  15.620  67.764  1.00  0.00    -0.160 NA 
BRANCH  11  15
HETATM   15  C   UNL     1      -9.728  12.617  65.954  1.00  0.00    -0.207 A  
HETATM   16  C   UNL     1     -10.664  12.558  64.919  1.00  0.00    -0.327 A  
HETATM   17  C   UNL     1     -11.597  13.428  64.288  1.00  0.00    -0.442 A  
HETATM   18  C   UNL     1     -12.194  12.731  63.258  1.00  0.00    -0.410 A  
HETATM   19  N   UNL     1     -11.652  11.472  63.237  1.00  0.00    -0.863 NA 
HETATM   20  C   UNL     1     -10.719  11.354  64.230  1.00  0.00    -0.356 A  
HETATM   21  H   UNL     1     -11.906  10.734  62.579  1.00  0.00     0.000 HD 
HETATM   22  N   UNL     1      -9.988  10.253  64.457  1.00  0.00    -0.330 NA 
HETATM   23  C   UNL     1      -9.124  10.431  65.470  1.00  0.00    -0.177 A  
HETATM   24  N   UNL     1      -8.948  11.535  66.220  1.00  0.00    -0.197 NA 
ENDBRANCH  11  15
ENDBRANCH   4  10
ENDBRANCH   3   4
TORSDOF 4
ENDMDL
MODEL       58
REMARK 921   NORMALIZED FREE ENERGY PREDICTED BY IDOCK:   -6.46 KCAL/MOL
REMARK 922        TOTAL FREE ENERGY PREDICTED BY IDOCK:   -8.38 KCAL/MOL
REMARK 923 INTER-LIGAND FREE ENERGY PREDICTED BY IDOCK:   -7.70 KCAL/MOL
REMARK 924 INTRA-LIGAND FREE ENERGY PREDICTED BY IDOCK:   -0.68 KCAL/MOL
REMARK 927      BINDING AFFINITY PREDICTED BY RF-SCORE:    0.00 PKD
ROOT
HETATM    1  N   UNL     1     -10.009  20.366  67.496  1.00  0.00    -0.420 NA 
HETATM    2  C   UNL     1      -9.511  19.336  67.308  1.00  0.00    -0.314 C  
HETATM    3  C   UNL     1      -8.937  18.004  67.062  1.00  0.00    -0.261 C  
ENDROOT
BRANCH   3   4
HETATM    4  C   UNL     1      -8.823  17.158  68.358  1.00  0.00    -0.255 C  
BRANCH   4   5
HETATM    5  C   UNL     1      -7.475  16.362  68.415  1.00  0.00    -0.171 C  
HETATM    6  C   UNL     1      -7.191  15.448  67.208  1.00  0.00    -0.229 C  
HETATM    7  C   UNL     1      -6.399  14.248  67.714  1.00  0.00    -0.168 C  
HETATM    8  C   UNL     1      -7.396  15.371  69.586  1.00  0.00    -0.177 C  
HETATM    9  C   UNL     1      -6.246  14.450  69.209  1.00  0.00    -0.110 C  
ENDBRANCH   4   5
BRANCH   4  10
HETATM   10  N   UNL     1     -10.043  16.359  68.563  1.00  0.00    -0.238 NA 
HETATM   11  C   UNL     1     -11.736  15.220  69.412  1.00  0.00    -0.361 A  
HETATM   12  C   UNL     1     -10.683  16.051  69.723  1.00  0.00    -0.331 A  
HETATM   13  C   UNL     1     -11.723  15.187  68.007  1.00  0.00    -0.285 A  
HETATM   14  N   UNL     1     -10.723  15.905  67.484  1.00  0.00    -0.315 NA 
BRANCH  11  15
HETATM   15  C   UNL     1     -12.557  14.595  70.419  1.00  0.00    -0.343 A  
HETATM   16  C   UNL     1     -12.505  13.222  70.671  1.00  0.00    -0.373 A  
HETATM   17  C   UNL     1     -11.831  12.078  70.157  1.00  0.00    -0.383 A  
HETATM   18  C   UNL     1     -12.205  10.991  70.918  1.00  0.00    -0.367 A  
HETATM   19  N   UNL     1     -13.077  11.434  71.879  1.00  0.00    -0.473 NA 
HETATM   20  C   UNL     1     -13.262  12.782  71.748  1.00  0.00    -0.374 A  
HETATM   21  H   UNL     1     -13.520  10.846  72.585  1.00  0.00     0.000 HD 
HETATM   22  N   UNL     1     -14.037  13.523  72.554  1.00  0.00    -0.758 NA 
HETATM   23  C   UNL     1     -14.003  14.823  72.217  1.00  0.00    -0.496 A  
HETATM   24  N   UNL     1     -13.315  15.397  71.214  1.00  0.00    -0.498 NA 
ENDBRANCH  11  15
ENDBRANCH   4  10
ENDBRANCH   3   4
TORSDOF 4
ENDMDL
MODEL       59
REMARK 921   NORMALIZED FREE ENERGY PREDICTED BY IDOCK:   -6.46 KCAL/MOL
REMARK 922        TOTAL FREE ENERGY PREDICTED BY IDOCK:   -8.37 KCAL/MOL
REMARK 923 INTER-LIGAND FREE ENERGY PREDICTED BY IDOCK:   -7.65 KCAL/MOL
REMARK 924 INTRA-LIGAND FREE ENERGY PREDICTED BY IDOCK:   -0.72 KCAL/MOL
REMARK 927      BINDING AFFINITY PREDICTED BY RF-SCORE:    0.00 PKD
ROOT
HETATM    1  N   UNL     1     -11.825  16.001  72.798  1.00  0.00    -0.490 NA 
HETATM    2  C   UNL     1     -11.781  16.074  71.642  1.00  0.00    -0.506 C  
HETATM    3  C   UNL     1     -11.754  16.109  70.172  1.00  0.00    -0.193 C  
ENDROOT
BRANCH   3   4
HETATM    4  C   UNL     1     -10.470  15.463  69.587  1.00  0.00    -0.280 C  
BRANCH   4   5
HETATM    5  C   UNL     1      -9.679  16.465  68.679  1.00  0.00    -0.239 C  
HETATM    6  C   UNL     1      -8.207  16.698  69.070  1.00  0.00    -0.190 C  
HETATM    7  C   UNL     1      -7.853  18.134  68.703  1.00  0.00    -0.307 C  
HETATM    8  C   UNL     1     -10.241  17.895  68.705  1.00  0.00    -0.362 C  
HETATM    9  C   UNL     1      -9.118  18.741  68.127  1.00  0.00    -0.338 C  
ENDBRANCH   4   5
BRANCH   4  10
HETATM   10  N   UNL     1     -10.778  14.159  68.977  1.00  0.00    -0.246 NA 
HETATM   11  C   UNL     1     -10.884  12.383  67.666  1.00  0.00    -0.258 A  
HETATM   12  C   UNL     1     -10.212  13.563  67.893  1.00  0.00    -0.247 A  
HETATM   13  C   UNL     1     -11.768  12.295  68.756  1.00  0.00    -0.340 A  
HETATM   14  N   UNL     1     -11.682  13.348  69.574  1.00  0.00    -0.310 NA 
BRANCH  11  15
HETATM   15  C   UNL     1     -10.630  11.551  66.515  1.00  0.00    -0.258 A  
HETATM   16  C   UNL     1     -11.198  11.819  65.268  1.00  0.00    -0.315 A  
HETATM   17  C   UNL     1     -12.100  12.761  64.698  1.00  0.00    -0.483 A  
HETATM   18  C   UNL     1     -12.201  12.486  63.350  1.00  0.00    -0.517 A  
HETATM   19  N   UNL     1     -11.388  11.415  63.080  1.00  0.00    -0.864 NA 
HETATM   20  C   UNL     1     -10.769  11.005  64.228  1.00  0.00    -0.278 A  
HETATM   21  H   UNL     1     -11.265  10.989  62.162  1.00  0.00     0.000 HD 
HETATM   22  N   UNL     1      -9.887   9.997  64.296  1.00  0.00    -0.207 NA 
HETATM   23  C   UNL     1      -9.408   9.839  65.540  1.00  0.00    -0.240 A  
HETATM   24  N   UNL     1      -9.718  10.550  66.640  1.00  0.00    -0.183 NA 
ENDBRANCH  11  15
ENDBRANCH   4  10
ENDBRANCH   3   4
TORSDOF 4
ENDMDL
MODEL       60
REMARK 921   NORMALIZED FREE ENERGY PREDICTED BY IDOCK:   -6.45 KCAL/MOL
REMARK 922        TOTAL FREE ENERGY PREDICTED BY IDOCK:   -8.37 KCAL/MOL
REMARK 923 INTER-LIGAND FREE ENERGY PREDICTED BY IDOCK:   -7.81 KCAL/MOL
REMARK 924 INTRA-LIGAND FREE ENERGY PREDICTED BY IDOCK:   -0.56 KCAL/MOL
REMARK 927      BINDING AFFINITY PREDICTED BY RF-SCORE:    0.00 PKD
ROOT
HETATM    1  N   UNL     1     -10.155   6.344  68.575  1.00  0.00    -0.145 NA 
HETATM    2  C   UNL     1     -10.833   6.404  69.513  1.00  0.00    -0.321 C  
HETATM    3  C   UNL     1     -11.727   6.527  70.675  1.00  0.00    -0.436 C  
ENDROOT
BRANCH   3   4
HETATM    4  C   UNL     1     -11.228   7.581  71.698  1.00  0.00    -0.243 C  
BRANCH   4   5
HETATM    5  C   UNL     1     -10.952   6.943  73.101  1.00  0.00    -0.297 C  
HETATM    6  C   UNL     1      -9.557   7.219  73.695  1.00  0.00    -0.315 C  
HETATM    7  C   UNL     1      -9.161   6.005  74.526  1.00  0.00    -0.149 C  
HETATM    8  C   UNL     1     -10.994   5.407  73.098  1.00  0.00    -0.353 C  
HETATM    9  C   UNL     1     -10.305   5.019  74.396  1.00  0.00    -0.321 C  
ENDBRANCH   4   5
BRANCH   4  10
HETATM   10  N   UNL     1     -12.112   8.760  71.698  1.00  0.00    -0.316 NA 
HETATM   11  C   UNL     1     -12.951  10.803  71.640  1.00  0.00    -0.581 A  
HETATM   12  C   UNL     1     -11.807  10.062  71.450  1.00  0.00    -0.363 A  
HETATM   13  C   UNL     1     -13.936   9.829  71.882  1.00  0.00    -0.050 A  
HETATM   14  N   UNL     1     -13.442   8.587  71.881  1.00  0.00    -0.365 NA 
BRANCH  11  15
HETATM   15  C   UNL     1     -12.963  12.245  71.585  1.00  0.00    -0.311 A  
HETATM   16  C   UNL     1     -12.478  12.948  70.480  1.00  0.00    -0.294 A  
HETATM   17  C   UNL     1     -11.859  12.658  69.231  1.00  0.00    -0.358 A  
HETATM   18  C   UNL     1     -11.677  13.851  68.564  1.00  0.00    -0.355 A  
HETATM   19  N   UNL     1     -12.169  14.854  69.359  1.00  0.00    -0.519 NA 
HETATM   20  C   UNL     1     -12.664  14.323  70.518  1.00  0.00    -0.328 A  
HETATM   21  H   UNL     1     -12.166  15.846  69.122  1.00  0.00     0.000 HD 
HETATM   22  N   UNL     1     -13.242  15.039  71.494  1.00  0.00    -0.368 NA 
HETATM   23  C   UNL     1     -13.670  14.255  72.497  1.00  0.00    -0.505 A  
HETATM   24  N   UNL     1     -13.572  12.917  72.598  1.00  0.00    -0.516 NA 
ENDBRANCH  11  15
ENDBRANCH   4  10
ENDBRANCH   3   4
TORSDOF 4
ENDMDL
MODEL       61
REMARK 921   NORMALIZED FREE ENERGY PREDICTED BY IDOCK:   -6.44 KCAL/MOL
REMARK 922        TOTAL FREE ENERGY PREDICTED BY IDOCK:   -8.35 KCAL/MOL
REMARK 923 INTER-LIGAND FREE ENERGY PREDICTED BY IDOCK:   -7.69 KCAL/MOL
REMARK 924 INTRA-LIGAND FREE ENERGY PREDICTED BY IDOCK:   -0.67 KCAL/MOL
REMARK 927      BINDING AFFINITY PREDICTED BY RF-SCORE:    0.00 PKD
ROOT
HETATM    1  N   UNL     1      -7.698   8.141  67.418  1.00  0.00    -0.100 NA 
HETATM    2  C   UNL     1      -8.763   8.174  67.874  1.00  0.00    -0.128 C  
HETATM    3  C   UNL     1     -10.132   8.258  68.406  1.00  0.00    -0.227 C  
ENDROOT
BRANCH   3   4
HETATM    4  C   UNL     1     -10.295   9.401  69.443  1.00  0.00    -0.212 C  
BRANCH   4   5
HETATM    5  C   UNL     1     -10.974   8.895  70.761  1.00  0.00    -0.305 C  
HETATM    6  C   UNL     1     -10.098   8.959  72.027  1.00  0.00    -0.351 C  
HETATM    7  C   UNL     1     -10.506   7.800  72.929  1.00  0.00    -0.412 C  
HETATM    8  C   UNL     1     -11.363   7.409  70.722  1.00  0.00    -0.303 C  
HETATM    9  C   UNL     1     -11.593   7.052  72.182  1.00  0.00    -0.320 C  
ENDBRANCH   4   5
BRANCH   4  10
HETATM   10  N   UNL     1     -10.919  10.581  68.819  1.00  0.00    -0.235 NA 
HETATM   11  C   UNL     1     -11.633  12.131  67.416  1.00  0.00    -0.410 A  
HETATM   12  C   UNL     1     -11.041  10.891  67.501  1.00  0.00    -0.310 A  
HETATM   13  C   UNL     1     -11.948  12.436  68.752  1.00  0.00    -0.229 A  
HETATM   14  N   UNL     1     -11.552  11.484  69.603  1.00  0.00    -0.309 NA 
BRANCH  11  15
HETATM   15  C   UNL     1     -11.802  12.828  66.165  1.00  0.00    -0.425 A  
HETATM   16  C   UNL     1     -11.325  14.126  65.970  1.00  0.00    -0.330 A  
HETATM   17  C   UNL     1     -10.662  15.133  66.727  1.00  0.00    -0.311 A  
HETATM   18  C   UNL     1     -10.424  16.203  65.889  1.00  0.00    -0.352 A  
HETATM   19  N   UNL     1     -10.913  15.879  64.650  1.00  0.00    -0.811 NA 
HETATM   20  C   UNL     1     -11.453  14.624  64.680  1.00  0.00    -0.388 A  
HETATM   21  H   UNL     1     -10.878  16.484  63.829  1.00  0.00     0.000 HD 
HETATM   22  N   UNL     1     -11.990  14.003  63.619  1.00  0.00    -0.325 NA 
HETATM   23  C   UNL     1     -12.408  12.765  63.928  1.00  0.00    -0.426 A  
HETATM   24  N   UNL     1     -12.343  12.145  65.121  1.00  0.00    -0.469 NA 
ENDBRANCH  11  15
ENDBRANCH   4  10
ENDBRANCH   3   4
TORSDOF 4
ENDMDL
MODEL       62
REMARK 921   NORMALIZED FREE ENERGY PREDICTED BY IDOCK:   -6.44 KCAL/MOL
REMARK 922        TOTAL FREE ENERGY PREDICTED BY IDOCK:   -8.35 KCAL/MOL
REMARK 923 INTER-LIGAND FREE ENERGY PREDICTED BY IDOCK:   -7.83 KCAL/MOL
REMARK 924 INTRA-LIGAND FREE ENERGY PREDICTED BY IDOCK:   -0.52 KCAL/MOL
REMARK 927      BINDING AFFINITY PREDICTED BY RF-SCORE:    0.00 PKD
ROOT
HETATM    1  N   UNL     1     -12.068  15.983  63.979  1.00  0.00    -0.793 NA 
HETATM    2  C   UNL     1     -11.304  16.126  64.839  1.00  0.00    -0.198 C  
HETATM    3  C   UNL     1     -10.345  16.246  65.948  1.00  0.00    -0.381 C  
ENDROOT
BRANCH   3   4
HETATM    4  C   UNL     1     -11.023  16.687  67.273  1.00  0.00    -0.064 C  
BRANCH   4   5
HETATM    5  C   UNL     1     -10.284  17.904  67.925  1.00  0.00    -0.375 C  
HETATM    6  C   UNL     1     -10.794  19.296  67.504  1.00  0.00    -0.524 C  
HETATM    7  C   UNL     1      -9.604  20.249  67.523  1.00  0.00    -0.562 C  
HETATM    8  C   UNL     1      -8.795  17.990  67.556  1.00  0.00    -0.252 C  
HETATM    9  C   UNL     1      -8.406  19.412  67.928  1.00  0.00    -0.343 C  
ENDBRANCH   4   5
BRANCH   4  10
HETATM   10  N   UNL     1     -11.239  15.527  68.155  1.00  0.00    -0.330 NA 
HETATM   11  C   UNL     1     -11.293  13.515  69.066  1.00  0.00    -0.336 A  
HETATM   12  C   UNL     1     -10.758  14.260  68.040  1.00  0.00    -0.238 A  
HETATM   13  C   UNL     1     -11.995  14.465  69.830  1.00  0.00    -0.332 A  
HETATM   14  N   UNL     1     -11.934  15.693  69.304  1.00  0.00    -0.360 NA 
BRANCH  11  15
HETATM   15  C   UNL     1     -11.097  12.091  69.179  1.00  0.00    -0.215 A  
HETATM   16  C   UNL     1     -11.803  11.316  70.102  1.00  0.00    -0.449 A  
HETATM   17  C   UNL     1     -12.763  11.515  71.134  1.00  0.00    -0.458 A  
HETATM   18  C   UNL     1     -13.097  10.278  71.643  1.00  0.00    -0.449 A  
HETATM   19  N   UNL     1     -12.380   9.335  70.955  1.00  0.00    -0.459 NA 
HETATM   20  C   UNL     1     -11.598   9.946  70.014  1.00  0.00    -0.175 A  
HETATM   21  H   UNL     1     -12.422   8.329  71.119  1.00  0.00     0.000 HD 
HETATM   22  N   UNL     1     -10.797   9.297  69.155  1.00  0.00    -0.181 NA 
HETATM   23  C   UNL     1     -10.177  10.144  68.318  1.00  0.00    -0.166 A  
HETATM   24  N   UNL     1     -10.282  11.485  68.275  1.00  0.00    -0.190 NA 
ENDBRANCH  11  15
ENDBRANCH   4  10
ENDBRANCH   3   4
TORSDOF 4
ENDMDL
MODEL       63
REMARK 921   NORMALIZED FREE ENERGY PREDICTED BY IDOCK:   -6.44 KCAL/MOL
REMARK 922        TOTAL FREE ENERGY PREDICTED BY IDOCK:   -8.35 KCAL/MOL
REMARK 923 INTER-LIGAND FREE ENERGY PREDICTED BY IDOCK:   -7.69 KCAL/MOL
REMARK 924 INTRA-LIGAND FREE ENERGY PREDICTED BY IDOCK:   -0.66 KCAL/MOL
REMARK 927      BINDING AFFINITY PREDICTED BY RF-SCORE:    0.00 PKD
ROOT
HETATM    1  N   UNL     1     -10.744  16.136  68.502  1.00  0.00    -0.283 NA 
HETATM    2  C   UNL     1     -11.261  15.128  68.256  1.00  0.00    -0.308 C  
HETATM    3  C   UNL     1     -11.892  13.824  67.999  1.00  0.00    -0.408 C  
ENDROOT
BRANCH   3   4
HETATM    4  C   UNL     1     -10.966  12.863  67.207  1.00  0.00    -0.261 C  
BRANCH   4   5
HETATM    5  C   UNL     1     -11.617  12.413  65.855  1.00  0.00    -0.449 C  
HETATM    6  C   UNL     1     -10.689  11.648  64.892  1.00  0.00    -0.352 C  
HETATM    7  C   UNL     1     -11.121  11.986  63.470  1.00  0.00    -0.519 C  
HETATM    8  C   UNL     1     -12.085  13.585  64.978  1.00  0.00    -0.428 C  
HETATM    9  C   UNL     1     -12.274  12.961  63.605  1.00  0.00    -0.581 C  
ENDBRANCH   4   5
BRANCH   4  10
HETATM   10  N   UNL     1     -10.486  11.775  68.076  1.00  0.00    -0.193 NA 
HETATM   11  C   UNL     1     -10.310   9.999  69.380  1.00  0.00    -0.245 A  
HETATM   12  C   UNL     1     -11.163  10.695  68.552  1.00  0.00    -0.282 A  
HETATM   13  C   UNL     1      -9.088  10.679  69.237  1.00  0.00    -0.100 A  
HETATM   14  N   UNL     1      -9.178  11.733  68.419  1.00  0.00    -0.186 NA 
BRANCH  11  15
HETATM   15  C   UNL     1     -10.737   8.863  70.159  1.00  0.00    -0.225 A  
HETATM   16  C   UNL     1     -11.784   8.947  71.079  1.00  0.00    -0.340 A  
HETATM   17  C   UNL     1     -12.665   9.942  71.590  1.00  0.00    -0.527 A  
HETATM   18  C   UNL     1     -13.531   9.327  72.471  1.00  0.00    -0.404 A  
HETATM   19  N   UNL     1     -13.211   7.995  72.509  1.00  0.00    -0.540 NA 
HETATM   20  C   UNL     1     -12.162   7.747  71.667  1.00  0.00    -0.313 A  
HETATM   21  H   UNL     1     -13.684   7.294  73.079  1.00  0.00     0.000 HD 
HETATM   22  N   UNL     1     -11.629   6.535  71.455  1.00  0.00    -0.302 NA 
HETATM   23  C   UNL     1     -10.637   6.580  70.551  1.00  0.00    -0.234 A  
HETATM   24  N   UNL     1     -10.169   7.657  69.894  1.00  0.00    -0.210 NA 
ENDBRANCH  11  15
ENDBRANCH   4  10
ENDBRANCH   3   4
TORSDOF 4
ENDMDL
MODEL       64
REMARK 921   NORMALIZED FREE ENERGY PREDICTED BY IDOCK:   -6.41 KCAL/MOL
REMARK 922        TOTAL FREE ENERGY PREDICTED BY IDOCK:   -8.32 KCAL/MOL
REMARK 923 INTER-LIGAND FREE ENERGY PREDICTED BY IDOCK:   -7.60 KCAL/MOL
REMARK 924 INTRA-LIGAND FREE ENERGY PREDICTED BY IDOCK:   -0.73 KCAL/MOL
REMARK 927      BINDING AFFINITY PREDICTED BY RF-SCORE:    0.00 PKD
ROOT
HETATM    1  N   UNL     1     -10.837  19.789  66.825  1.00  0.00    -0.423 NA 
HETATM    2  C   UNL     1     -10.149  18.874  66.640  1.00  0.00    -0.388 C  
HETATM    3  C   UNL     1      -9.329  17.677  66.399  1.00  0.00    -0.265 C  
ENDROOT
BRANCH   3   4
HETATM    4  C   UNL     1      -9.017  16.899  67.705  1.00  0.00    -0.219 C  
BRANCH   4   5
HETATM    5  C   UNL     1      -7.543  16.371  67.727  1.00  0.00    -0.160 C  
HETATM    6  C   UNL     1      -7.362  14.884  67.370  1.00  0.00    -0.222 C  
HETATM    7  C   UNL     1      -6.171  14.360  68.163  1.00  0.00    -0.142 C  
HETATM    8  C   UNL     1      -6.885  16.443  69.115  1.00  0.00    -0.210 C  
HETATM    9  C   UNL     1      -5.678  15.527  68.996  1.00  0.00    -0.103 C  
ENDBRANCH   4   5
BRANCH   4  10
HETATM   10  N   UNL     1     -10.058  15.890  67.967  1.00  0.00    -0.228 NA 
HETATM   11  C   UNL     1     -11.409  14.400  68.882  1.00  0.00    -0.300 A  
HETATM   12  C   UNL     1     -10.455  15.354  69.153  1.00  0.00    -0.239 A  
HETATM   13  C   UNL     1     -11.612  14.524  67.496  1.00  0.00    -0.381 A  
HETATM   14  N   UNL     1     -10.824  15.451  66.942  1.00  0.00    -0.316 NA 
BRANCH  11  15
HETATM   15  C   UNL     1     -11.960  13.540  69.900  1.00  0.00    -0.348 A  
HETATM   16  C   UNL     1     -12.835  14.017  70.879  1.00  0.00    -0.389 A  
HETATM   17  C   UNL     1     -13.409  15.260  71.268  1.00  0.00    -0.586 A  
HETATM   18  C   UNL     1     -14.261  15.019  72.325  1.00  0.00    -0.497 A  
HETATM   19  N   UNL     1     -14.230  13.674  72.588  1.00  0.00    -0.683 NA 
HETATM   20  C   UNL     1     -13.378  13.053  71.717  1.00  0.00    -0.378 A  
HETATM   21  H   UNL     1     -14.761  13.207  73.323  1.00  0.00     0.000 HD 
HETATM   22  N   UNL     1     -13.147  11.732  71.694  1.00  0.00    -0.415 NA 
HETATM   23  C   UNL     1     -12.297  11.394  70.711  1.00  0.00    -0.386 A  
HETATM   24  N   UNL     1     -11.701  12.208  69.820  1.00  0.00    -0.320 NA 
ENDBRANCH  11  15
ENDBRANCH   4  10
ENDBRANCH   3   4
TORSDOF 4
ENDMDL
MODEL       65
REMARK 921   NORMALIZED FREE ENERGY PREDICTED BY IDOCK:   -6.41 KCAL/MOL
REMARK 922        TOTAL FREE ENERGY PREDICTED BY IDOCK:   -8.32 KCAL/MOL
REMARK 923 INTER-LIGAND FREE ENERGY PREDICTED BY IDOCK:   -8.14 KCAL/MOL
REMARK 924 INTRA-LIGAND FREE ENERGY PREDICTED BY IDOCK:   -0.18 KCAL/MOL
REMARK 927      BINDING AFFINITY PREDICTED BY RF-SCORE:    0.00 PKD
ROOT
HETATM    1  N   UNL     1     -10.740   7.045  68.615  1.00  0.00    -0.209 NA 
HETATM    2  C   UNL     1     -10.079   7.920  68.991  1.00  0.00    -0.200 C  
HETATM    3  C   UNL     1      -9.259   9.017  69.528  1.00  0.00    -0.152 C  
ENDROOT
BRANCH   3   4
HETATM    4  C   UNL     1     -10.043  10.354  69.617  1.00  0.00    -0.190 C  
BRANCH   4   5
HETATM    5  C   UNL     1     -11.483  10.144  70.197  1.00  0.00    -0.368 C  
HETATM    6  C   UNL     1     -12.177  11.412  70.731  1.00  0.00    -0.475 C  
HETATM    7  C   UNL     1     -13.074  10.993  71.890  1.00  0.00    -0.525 C  
HETATM    8  C   UNL     1     -11.524   9.222  71.426  1.00  0.00    -0.439 C  
HETATM    9  C   UNL     1     -12.884   9.497  72.046  1.00  0.00    -0.499 C  
ENDBRANCH   4   5
BRANCH   4  10
HETATM   10  N   UNL     1      -9.971  11.082  68.339  1.00  0.00    -0.179 NA 
HETATM   11  C   UNL     1     -10.415  12.239  66.510  1.00  0.00    -0.254 A  
HETATM   12  C   UNL     1     -10.933  11.812  67.712  1.00  0.00    -0.225 A  
HETATM   13  C   UNL     1      -9.076  11.815  66.560  1.00  0.00    -0.203 A  
HETATM   14  N   UNL     1      -8.790  11.146  67.682  1.00  0.00    -0.135 NA 
BRANCH  11  15
HETATM   15  C   UNL     1     -11.207  12.936  65.526  1.00  0.00    -0.288 A  
HETATM   16  C   UNL     1     -11.040  14.299  65.272  1.00  0.00    -0.335 A  
HETATM   17  C   UNL     1     -10.253  15.378  65.765  1.00  0.00    -0.378 A  
HETATM   18  C   UNL     1     -10.551  16.496  65.014  1.00  0.00    -0.144 A  
HETATM   19  N   UNL     1     -11.485  16.133  64.079  1.00  0.00    -1.425 NA 
HETATM   20  C   UNL     1     -11.786  14.807  64.216  1.00  0.00    -0.319 A  
HETATM   21  H   UNL     1     -11.895  16.760  63.385  1.00  0.00     0.000 HD 
HETATM   22  N   UNL     1     -12.646  14.138  63.433  1.00  0.00    -0.687 NA 
HETATM   23  C   UNL     1     -12.718  12.841  63.770  1.00  0.00    -0.180 A  
HETATM   24  N   UNL     1     -12.055  12.206  64.754  1.00  0.00    -0.335 NA 
ENDBRANCH  11  15
ENDBRANCH   4  10
ENDBRANCH   3   4
TORSDOF 4
ENDMDL
MODEL       66
REMARK 921   NORMALIZED FREE ENERGY PREDICTED BY IDOCK:   -6.40 KCAL/MOL
REMARK 922        TOTAL FREE ENERGY PREDICTED BY IDOCK:   -8.31 KCAL/MOL
REMARK 923 INTER-LIGAND FREE ENERGY PREDICTED BY IDOCK:   -7.75 KCAL/MOL
REMARK 924 INTRA-LIGAND FREE ENERGY PREDICTED BY IDOCK:   -0.56 KCAL/MOL
REMARK 927      BINDING AFFINITY PREDICTED BY RF-SCORE:    0.00 PKD
ROOT
HETATM    1  N   UNL     1     -10.920  15.348  69.589  1.00  0.00    -0.263 NA 
HETATM    2  C   UNL     1     -11.396  14.821  68.673  1.00  0.00    -0.285 C  
HETATM    3  C   UNL     1     -12.028  14.110  67.550  1.00  0.00    -0.419 C  
ENDROOT
BRANCH   3   4
HETATM    4  C   UNL     1     -11.165  12.928  67.035  1.00  0.00    -0.288 C  
BRANCH   4   5
HETATM    5  C   UNL     1     -11.695  12.374  65.670  1.00  0.00    -0.468 C  
HETATM    6  C   UNL     1     -10.674  11.582  64.831  1.00  0.00    -0.357 C  
HETATM    7  C   UNL     1     -11.002  11.817  63.361  1.00  0.00    -0.458 C  
HETATM    8  C   UNL     1     -12.125  13.474  64.685  1.00  0.00    -0.450 C  
HETATM    9  C   UNL     1     -12.189  12.760  63.344  1.00  0.00    -0.594 C  
ENDBRANCH   4   5
BRANCH   4  10
HETATM   10  N   UNL     1     -10.976  11.925  68.098  1.00  0.00    -0.213 NA 
HETATM   11  C   UNL     1     -11.245  10.490  69.756  1.00  0.00    -0.361 A  
HETATM   12  C   UNL     1     -11.910  11.277  68.843  1.00  0.00    -0.345 A  
HETATM   13  C   UNL     1      -9.895  10.638  69.393  1.00  0.00    -0.139 A  
HETATM   14  N   UNL     1      -9.727  11.476  68.366  1.00  0.00    -0.197 NA 
BRANCH  11  15
HETATM   15  C   UNL     1     -11.927   9.757  70.794  1.00  0.00    -0.299 A  
HETATM   16  C   UNL     1     -11.292   8.756  71.533  1.00  0.00    -0.375 A  
HETATM   17  C   UNL     1     -10.021   8.116  71.573  1.00  0.00    -0.237 A  
HETATM   18  C   UNL     1     -10.035   7.214  72.617  1.00  0.00    -0.177 A  
HETATM   19  N   UNL     1     -11.265   7.289  73.216  1.00  0.00    -0.587 NA 
HETATM   20  C   UNL     1     -12.035   8.222  72.578  1.00  0.00    -0.356 A  
HETATM   21  H   UNL     1     -11.562   6.731  74.017  1.00  0.00     0.000 HD 
HETATM   22  N   UNL     1     -13.283   8.553  72.940  1.00  0.00    -0.133 NA 
HETATM   23  C   UNL     1     -13.784   9.525  72.162  1.00  0.00    -0.372 A  
HETATM   24  N   UNL     1     -13.187  10.143  71.127  1.00  0.00    -0.379 NA 
ENDBRANCH  11  15
ENDBRANCH   4  10
ENDBRANCH   3   4
TORSDOF 4
ENDMDL
MODEL       67
REMARK 921   NORMALIZED FREE ENERGY PREDICTED BY IDOCK:   -6.40 KCAL/MOL
REMARK 922        TOTAL FREE ENERGY PREDICTED BY IDOCK:   -8.30 KCAL/MOL
REMARK 923 INTER-LIGAND FREE ENERGY PREDICTED BY IDOCK:   -7.67 KCAL/MOL
REMARK 924 INTRA-LIGAND FREE ENERGY PREDICTED BY IDOCK:   -0.63 KCAL/MOL
REMARK 927      BINDING AFFINITY PREDICTED BY RF-SCORE:    0.00 PKD
ROOT
HETATM    1  N   UNL     1     -14.255  15.461  71.961  1.00  0.00    -0.543 NA 
HETATM    2  C   UNL     1     -13.380  14.791  71.602  1.00  0.00    -0.360 C  
HETATM    3  C   UNL     1     -12.239  13.994  71.126  1.00  0.00    -0.417 C  
ENDROOT
BRANCH   3   4
HETATM    4  C   UNL     1     -12.374  13.598  69.632  1.00  0.00    -0.203 C  
BRANCH   4   5
HETATM    5  C   UNL     1     -12.092  12.074  69.407  1.00  0.00    -0.261 C  
HETATM    6  C   UNL     1     -12.206  11.184  70.659  1.00  0.00    -0.492 C  
HETATM    7  C   UNL     1     -11.205  10.045  70.510  1.00  0.00    -0.408 C  
HETATM    8  C   UNL     1     -10.659  11.775  68.939  1.00  0.00    -0.211 C  
HETATM    9  C   UNL     1     -10.494  10.286  69.192  1.00  0.00    -0.246 C  
ENDBRANCH   4   5
BRANCH   4  10
HETATM   10  N   UNL     1     -11.601  14.520  68.781  1.00  0.00    -0.294 NA 
HETATM   11  C   UNL     1     -10.233  16.069  67.998  1.00  0.00    -0.245 A  
HETATM   12  C   UNL     1     -10.587  15.359  69.123  1.00  0.00    -0.248 A  
HETATM   13  C   UNL     1     -11.018  15.489  66.985  1.00  0.00    -0.283 A  
HETATM   14  N   UNL     1     -11.821  14.524  67.445  1.00  0.00    -0.401 NA 
BRANCH  11  15
HETATM   15  C   UNL     1      -9.272  17.143  68.026  1.00  0.00    -0.250 A  
HETATM   16  C   UNL     1      -9.537  18.390  67.456  1.00  0.00    -0.293 A  
HETATM   17  C   UNL     1     -10.586  19.017  66.725  1.00  0.00    -0.508 A  
HETATM   18  C   UNL     1     -10.220  20.328  66.503  1.00  0.00    -0.349 A  
HETATM   19  N   UNL     1      -8.991  20.522  67.078  1.00  0.00    -0.545 NA 
HETATM   20  C   UNL     1      -8.567  19.362  67.665  1.00  0.00    -0.305 A  
HETATM   21  H   UNL     1      -8.471  21.399  67.068  1.00  0.00     0.000 HD 
HETATM   22  N   UNL     1      -7.415  19.228  68.337  1.00  0.00    -0.297 NA 
HETATM   23  C   UNL     1      -7.274  17.992  68.840  1.00  0.00    -0.259 A  
HETATM   24  N   UNL     1      -8.125  16.955  68.732  1.00  0.00    -0.253 NA 
ENDBRANCH  11  15
ENDBRANCH   4  10
ENDBRANCH   3   4
TORSDOF 4
ENDMDL
MODEL       68
REMARK 921   NORMALIZED FREE ENERGY PREDICTED BY IDOCK:   -6.39 KCAL/MOL
REMARK 922        TOTAL FREE ENERGY PREDICTED BY IDOCK:   -8.30 KCAL/MOL
REMARK 923 INTER-LIGAND FREE ENERGY PREDICTED BY IDOCK:   -7.75 KCAL/MOL
REMARK 924 INTRA-LIGAND FREE ENERGY PREDICTED BY IDOCK:   -0.54 KCAL/MOL
REMARK 927      BINDING AFFINITY PREDICTED BY RF-SCORE:    0.00 PKD
ROOT
HETATM    1  N   UNL     1     -10.630   8.770  66.768  1.00  0.00    -0.217 NA 
HETATM    2  C   UNL     1     -10.201   9.067  67.803  1.00  0.00    -0.230 C  
HETATM    3  C   UNL     1      -9.711   9.421  69.144  1.00  0.00    -0.165 C  
ENDROOT
BRANCH   3   4
HETATM    4  C   UNL     1     -10.160  10.840  69.584  1.00  0.00    -0.011 C  
BRANCH   4   5
HETATM    5  C   UNL     1     -11.639  10.846  70.100  1.00  0.00    -0.425 C  
HETATM    6  C   UNL     1     -12.144  12.189  70.659  1.00  0.00    -0.344 C  
HETATM    7  C   UNL     1     -13.147  11.882  71.765  1.00  0.00    -0.465 C  
HETATM    8  C   UNL     1     -11.881   9.900  71.287  1.00  0.00    -0.479 C  
HETATM    9  C   UNL     1     -13.206  10.370  71.866  1.00  0.00    -0.535 C  
ENDBRANCH   4   5
BRANCH   4  10
HETATM   10  N   UNL     1      -9.847  11.829  68.539  1.00  0.00    -0.204 NA 
HETATM   11  C   UNL     1      -9.935  13.313  66.904  1.00  0.00    -0.250 A  
HETATM   12  C   UNL     1     -10.694  12.597  67.802  1.00  0.00    -0.220 A  
HETATM   13  C   UNL     1      -8.614  12.998  67.267  1.00  0.00    -0.206 A  
HETATM   14  N   UNL     1      -8.553  12.129  68.282  1.00  0.00    -0.178 NA 
BRANCH  11  15
HETATM   15  C   UNL     1     -10.519  14.139  65.876  1.00  0.00    -0.306 A  
HETATM   16  C   UNL     1     -11.237  13.597  64.809  1.00  0.00    -0.367 A  
HETATM   17  C   UNL     1     -11.599  12.308  64.324  1.00  0.00    -0.442 A  
HETATM   18  C   UNL     1     -12.389  12.483  63.208  1.00  0.00    -0.371 A  
HETATM   19  N   UNL     1     -12.526  13.831  63.001  1.00  0.00    -1.000 NA 
HETATM   20  C   UNL     1     -11.842  14.518  63.964  1.00  0.00    -0.152 A  
HETATM   21  H   UNL     1     -13.058  14.257  62.241  1.00  0.00     0.000 HD 
HETATM   22  N   UNL     1     -11.801  15.856  64.058  1.00  0.00    -0.671 NA 
HETATM   23  C   UNL     1     -11.088  16.257  65.123  1.00  0.00    -0.212 A  
HETATM   24  N   UNL     1     -10.457  15.489  66.030  1.00  0.00    -0.307 NA 
ENDBRANCH  11  15
ENDBRANCH   4  10
ENDBRANCH   3   4
TORSDOF 4
ENDMDL
MODEL       69
REMARK 921   NORMALIZED FREE ENERGY PREDICTED BY IDOCK:   -6.39 KCAL/MOL
REMARK 922        TOTAL FREE ENERGY PREDICTED BY IDOCK:   -8.29 KCAL/MOL
REMARK 923 INTER-LIGAND FREE ENERGY PREDICTED BY IDOCK:   -8.35 KCAL/MOL
REMARK 924 INTRA-LIGAND FREE ENERGY PREDICTED BY IDOCK:    0.06 KCAL/MOL
REMARK 927      BINDING AFFINITY PREDICTED BY RF-SCORE:    0.00 PKD
ROOT
HETATM    1  N   UNL     1      -8.822  15.219  69.645  1.00  0.00    -0.190 NA 
HETATM    2  C   UNL     1      -9.883  15.480  69.258  1.00  0.00    -0.270 C  
HETATM    3  C   UNL     1     -11.232  15.858  68.811  1.00  0.00    -0.359 C  
ENDROOT
BRANCH   3   4
HETATM    4  C   UNL     1     -12.347  15.132  69.609  1.00  0.00    -0.207 C  
BRANCH   4   5
HETATM    5  C   UNL     1     -12.519  15.734  71.044  1.00  0.00    -0.473 C  
HETATM    6  C   UNL     1     -11.529  15.219  72.106  1.00  0.00    -0.499 C  
HETATM    7  C   UNL     1     -12.251  15.218  73.448  1.00  0.00    -0.595 C  
HETATM    8  C   UNL     1     -13.874  15.404  71.691  1.00  0.00    -0.606 C  
HETATM    9  C   UNL     1     -13.659  15.705  73.165  1.00  0.00    -0.560 C  
ENDBRANCH   4   5
BRANCH   4  10
HETATM   10  N   UNL     1     -12.157  13.672  69.550  1.00  0.00    -0.326 NA 
HETATM   11  C   UNL     1     -11.942  11.523  70.018  1.00  0.00    -0.435 A  
HETATM   12  C   UNL     1     -12.297  12.748  70.538  1.00  0.00    -0.275 A  
HETATM   13  C   UNL     1     -11.721  11.797  68.657  1.00  0.00    -0.330 A  
HETATM   14  N   UNL     1     -11.886  13.089  68.359  1.00  0.00    -0.340 NA 
BRANCH  11  15
HETATM   15  C   UNL     1     -11.852  10.332  70.826  1.00  0.00    -0.365 A  
HETATM   16  C   UNL     1     -10.671   9.593  70.927  1.00  0.00    -0.402 A  
HETATM   17  C   UNL     1      -9.354   9.625  70.385  1.00  0.00    -0.268 A  
HETATM   18  C   UNL     1      -8.636   8.598  70.960  1.00  0.00    -0.173 A  
HETATM   19  N   UNL     1      -9.467   7.947  71.835  1.00  0.00    -0.159 NA 
HETATM   20  C   UNL     1     -10.698   8.542  71.833  1.00  0.00    -0.324 A  
HETATM   21  H   UNL     1      -9.205   7.141  72.403  1.00  0.00     0.000 HD 
HETATM   22  N   UNL     1     -11.727   8.159  72.603  1.00  0.00    -0.398 NA 
HETATM   23  C   UNL     1     -12.801   8.944  72.422  1.00  0.00    -0.380 A  
HETATM   24  N   UNL     1     -12.923   9.998  71.595  1.00  0.00    -0.413 NA 
ENDBRANCH  11  15
ENDBRANCH   4  10
ENDBRANCH   3   4
TORSDOF 4
ENDMDL
MODEL       70
REMARK 921   NORMALIZED FREE ENERGY PREDICTED BY IDOCK:   -6.35 KCAL/MOL
REMARK 922        TOTAL FREE ENERGY PREDICTED BY IDOCK:   -8.25 KCAL/MOL
REMARK 923 INTER-LIGAND FREE ENERGY PREDICTED BY IDOCK:   -7.84 KCAL/MOL
REMARK 924 INTRA-LIGAND FREE ENERGY PREDICTED BY IDOCK:   -0.41 KCAL/MOL
REMARK 927      BINDING AFFINITY PREDICTED BY RF-SCORE:    0.00 PKD
ROOT
HETATM    1  N   UNL     1      -9.254   8.330  67.122  1.00  0.00    -0.140 NA 
HETATM    2  C   UNL     1      -9.139   8.875  68.139  1.00  0.00    -0.140 C  
HETATM    3  C   UNL     1      -9.022   9.516  69.458  1.00  0.00    -0.187 C  
ENDROOT
BRANCH   3   4
HETATM    4  C   UNL     1     -10.273  10.359  69.820  1.00  0.00    -0.184 C  
BRANCH   4   5
HETATM    5  C   UNL     1     -11.444   9.463  70.348  1.00  0.00    -0.272 C  
HETATM    6  C   UNL     1     -12.427  10.151  71.313  1.00  0.00    -0.510 C  
HETATM    7  C   UNL     1     -12.930   9.095  72.291  1.00  0.00    -0.492 C  
HETATM    8  C   UNL     1     -10.971   8.262  71.183  1.00  0.00    -0.286 C  
HETATM    9  C   UNL     1     -12.225   7.808  71.913  1.00  0.00    -0.341 C  
ENDBRANCH   4   5
BRANCH   4  10
HETATM   10  N   UNL     1     -10.619  11.273  68.718  1.00  0.00    -0.196 NA 
HETATM   11  C   UNL     1     -10.692  12.927  67.254  1.00  0.00    -0.260 A  
HETATM   12  C   UNL     1      -9.934  12.349  68.247  1.00  0.00    -0.224 A  
HETATM   13  C   UNL     1     -11.775  12.041  67.112  1.00  0.00    -0.273 A  
HETATM   14  N   UNL     1     -11.718  11.017  67.969  1.00  0.00    -0.582 NA 
BRANCH  11  15
HETATM   15  C   UNL     1     -10.327  14.169  66.618  1.00  0.00    -0.277 A  
HETATM   16  C   UNL     1     -11.046  14.689  65.540  1.00  0.00    -0.345 A  
HETATM   17  C   UNL     1     -12.158  14.317  64.733  1.00  0.00    -0.457 A  
HETATM   18  C   UNL     1     -12.393  15.341  63.840  1.00  0.00     0.227 A  
HETATM   19  N   UNL     1     -11.468  16.324  64.079  1.00  0.00    -1.521 NA 
HETATM   20  C   UNL     1     -10.651  15.948  65.109  1.00  0.00    -0.397 A  
HETATM   21  H   UNL     1     -11.400  17.203  63.566  1.00  0.00     0.000 HD 
HETATM   22  N   UNL     1      -9.659  16.703  65.605  1.00  0.00    -0.519 NA 
HETATM   23  C   UNL     1      -9.046  16.101  66.638  1.00  0.00    -0.252 A  
HETATM   24  N   UNL     1      -9.320  14.897  67.171  1.00  0.00    -0.210 NA 
ENDBRANCH  11  15
ENDBRANCH   4  10
ENDBRANCH   3   4
TORSDOF 4
ENDMDL
MODEL       71
REMARK 921   NORMALIZED FREE ENERGY PREDICTED BY IDOCK:   -6.35 KCAL/MOL
REMARK 922        TOTAL FREE ENERGY PREDICTED BY IDOCK:   -8.24 KCAL/MOL
REMARK 923 INTER-LIGAND FREE ENERGY PREDICTED BY IDOCK:   -7.75 KCAL/MOL
REMARK 924 INTRA-LIGAND FREE ENERGY PREDICTED BY IDOCK:   -0.50 KCAL/MOL
REMARK 927      BINDING AFFINITY PREDICTED BY RF-SCORE:    0.00 PKD
ROOT
HETATM    1  N   UNL     1      -9.651  17.382  67.288  1.00  0.00    -0.253 NA 
HETATM    2  C   UNL     1      -9.918  16.870  68.293  1.00  0.00    -0.282 C  
HETATM    3  C   UNL     1     -10.233  16.165  69.545  1.00  0.00    -0.261 C  
ENDROOT
BRANCH   3   4
HETATM    4  C   UNL     1     -11.629  15.489  69.511  1.00  0.00    -0.350 C  
BRANCH   4   5
HETATM    5  C   UNL     1     -12.158  15.178  70.952  1.00  0.00    -0.388 C  
HETATM    6  C   UNL     1     -13.691  15.154  71.107  1.00  0.00    -0.510 C  
HETATM    7  C   UNL     1     -14.020  15.638  72.514  1.00  0.00    -0.615 C  
HETATM    8  C   UNL     1     -11.753  16.230  71.997  1.00  0.00    -0.528 C  
HETATM    9  C   UNL     1     -12.691  15.966  73.164  1.00  0.00    -0.631 C  
ENDBRANCH   4   5
BRANCH   4  10
HETATM   10  N   UNL     1     -11.630  14.353  68.574  1.00  0.00    -0.297 NA 
HETATM   11  C   UNL     1     -11.326  12.407  67.572  1.00  0.00    -0.375 A  
HETATM   12  C   UNL     1     -11.172  13.086  68.760  1.00  0.00    -0.282 A  
HETATM   13  C   UNL     1     -12.009  13.325  66.756  1.00  0.00    -0.382 A  
HETATM   14  N   UNL     1     -12.230  14.493  67.369  1.00  0.00    -0.256 NA 
BRANCH  11  15
HETATM   15  C   UNL     1     -10.828  11.068  67.371  1.00  0.00    -0.274 A  
HETATM   16  C   UNL     1     -10.890  10.096  68.371  1.00  0.00    -0.284 A  
HETATM   17  C   UNL     1     -11.317   9.999  69.726  1.00  0.00    -0.281 A  
HETATM   18  C   UNL     1     -11.145   8.692  70.130  1.00  0.00    -0.192 A  
HETATM   19  N   UNL     1     -10.635   7.990  69.068  1.00  0.00    -0.336 NA 
HETATM   20  C   UNL     1     -10.483   8.823  67.994  1.00  0.00    -0.204 A  
HETATM   21  H   UNL     1     -10.404   6.996  69.078  1.00  0.00     0.000 HD 
HETATM   22  N   UNL     1     -10.032   8.436  66.792  1.00  0.00    -0.259 NA 
HETATM   23  C   UNL     1     -10.022   9.454  65.915  1.00  0.00    -0.256 A  
HETATM   24  N   UNL     1     -10.393  10.729  66.128  1.00  0.00    -0.248 NA 
ENDBRANCH  11  15
ENDBRANCH   4  10
ENDBRANCH   3   4
TORSDOF 4
ENDMDL
MODEL       72
REMARK 921   NORMALIZED FREE ENERGY PREDICTED BY IDOCK:   -6.33 KCAL/MOL
REMARK 922        TOTAL FREE ENERGY PREDICTED BY IDOCK:   -8.22 KCAL/MOL
REMARK 923 INTER-LIGAND FREE ENERGY PREDICTED BY IDOCK:   -7.64 KCAL/MOL
REMARK 924 INTRA-LIGAND FREE ENERGY PREDICTED BY IDOCK:   -0.58 KCAL/MOL
REMARK 927      BINDING AFFINITY PREDICTED BY RF-SCORE:    0.00 PKD
ROOT
HETATM    1  N   UNL     1     -10.788  17.466  68.087  1.00  0.00    -0.341 NA 
HETATM    2  C   UNL     1     -10.720  16.572  68.822  1.00  0.00    -0.339 C  
HETATM    3  C   UNL     1     -10.618  15.400  69.706  1.00  0.00    -0.304 C  
ENDROOT
BRANCH   3   4
HETATM    4  C   UNL     1     -11.950  14.609  69.797  1.00  0.00    -0.329 C  
BRANCH   4   5
HETATM    5  C   UNL     1     -12.505  14.575  71.262  1.00  0.00    -0.416 C  
HETATM    6  C   UNL     1     -13.882  15.233  71.467  1.00  0.00    -0.617 C  
HETATM    7  C   UNL     1     -13.908  15.823  72.872  1.00  0.00    -0.565 C  
HETATM    8  C   UNL     1     -11.635  15.347  72.267  1.00  0.00    -0.554 C  
HETATM    9  C   UNL     1     -12.545  15.534  73.470  1.00  0.00    -0.672 C  
ENDBRANCH   4   5
BRANCH   4  10
HETATM   10  N   UNL     1     -11.820  13.299  69.136  1.00  0.00    -0.321 NA 
HETATM   11  C   UNL     1     -11.496  11.165  68.664  1.00  0.00    -0.363 A  
HETATM   12  C   UNL     1     -11.622  12.073  69.691  1.00  0.00    -0.301 A  
HETATM   13  C   UNL     1     -11.760  11.931  67.515  1.00  0.00    -0.265 A  
HETATM   14  N   UNL     1     -11.994  13.217  67.796  1.00  0.00    -0.339 NA 
BRANCH  11  15
HETATM   15  C   UNL     1     -11.150   9.783  68.886  1.00  0.00    -0.099 A  
HETATM   16  C   UNL     1     -10.489   9.020  67.921  1.00  0.00    -0.291 A  
HETATM   17  C   UNL     1     -10.010   9.183  66.590  1.00  0.00    -0.343 A  
HETATM   18  C   UNL     1      -9.382   8.012  66.221  1.00  0.00    -0.184 A  
HETATM   19  N   UNL     1      -9.456   7.147  67.281  1.00  0.00    -0.135 NA 
HETATM   20  C   UNL     1     -10.116   7.743  68.319  1.00  0.00    -0.192 A  
HETATM   21  H   UNL     1      -9.077   6.200  67.293  1.00  0.00     0.000 HD 
HETATM   22  N   UNL     1     -10.329   7.169  69.513  1.00  0.00    -0.209 NA 
HETATM   23  C   UNL     1     -10.966   7.999  70.355  1.00  0.00    -0.248 A  
HETATM   24  N   UNL     1     -11.380   9.257  70.119  1.00  0.00    -0.210 NA 
ENDBRANCH  11  15
ENDBRANCH   4  10
ENDBRANCH   3   4
TORSDOF 4
ENDMDL
MODEL       73
REMARK 921   NORMALIZED FREE ENERGY PREDICTED BY IDOCK:   -6.31 KCAL/MOL
REMARK 922        TOTAL FREE ENERGY PREDICTED BY IDOCK:   -8.20 KCAL/MOL
REMARK 923 INTER-LIGAND FREE ENERGY PREDICTED BY IDOCK:   -7.66 KCAL/MOL
REMARK 924 INTRA-LIGAND FREE ENERGY PREDICTED BY IDOCK:   -0.53 KCAL/MOL
REMARK 927      BINDING AFFINITY PREDICTED BY RF-SCORE:    0.00 PKD
ROOT
HETATM    1  N   UNL     1     -13.109  12.487  64.392  1.00  0.00    -0.807 NA 
HETATM    2  C   UNL     1     -11.953  12.493  64.477  1.00  0.00    -0.404 C  
HETATM    3  C   UNL     1     -10.487  12.437  64.587  1.00  0.00    -0.338 C  
ENDROOT
BRANCH   3   4
HETATM    4  C   UNL     1     -10.003  12.445  66.062  1.00  0.00    -0.255 C  
BRANCH   4   5
HETATM    5  C   UNL     1     -10.609  11.253  66.877  1.00  0.00    -0.300 C  
HETATM    6  C   UNL     1     -10.175  11.168  68.353  1.00  0.00    -0.200 C  
HETATM    7  C   UNL     1     -10.140   9.694  68.739  1.00  0.00    -0.193 C  
HETATM    8  C   UNL     1     -10.194   9.871  66.347  1.00  0.00    -0.292 C  
HETATM    9  C   UNL     1     -10.525   8.926  67.490  1.00  0.00    -0.337 C  
ENDBRANCH   4   5
BRANCH   4  10
HETATM   10  N   UNL     1     -10.183  13.780  66.658  1.00  0.00    -0.271 NA 
HETATM   11  C   UNL     1      -9.929  15.858  67.365  1.00  0.00    -0.239 A  
HETATM   12  C   UNL     1      -9.371  14.869  66.587  1.00  0.00    -0.268 A  
HETATM   13  C   UNL     1     -11.157  15.305  67.768  1.00  0.00    -0.318 A  
HETATM   14  N   UNL     1     -11.335  14.061  67.312  1.00  0.00    -0.315 NA 
BRANCH  11  15
HETATM   15  C   UNL     1      -9.266  17.113  67.621  1.00  0.00    -0.238 A  
HETATM   16  C   UNL     1      -9.664  18.301  67.003  1.00  0.00    -0.305 A  
HETATM   17  C   UNL     1     -10.626  18.722  66.042  1.00  0.00    -0.442 A  
HETATM   18  C   UNL     1     -10.522  20.091  65.912  1.00  0.00    -0.406 A  
HETATM   19  N   UNL     1      -9.537  20.517  66.764  1.00  0.00    -0.637 NA 
HETATM   20  C   UNL     1      -9.013  19.448  67.437  1.00  0.00    -0.300 A  
HETATM   21  H   UNL     1      -9.239  21.486  66.879  1.00  0.00     0.000 HD 
HETATM   22  N   UNL     1      -8.049  19.534  68.365  1.00  0.00    -0.338 NA 
HETATM   23  C   UNL     1      -7.756  18.333  68.889  1.00  0.00    -0.205 A  
HETATM   24  N   UNL     1      -8.304  17.143  68.581  1.00  0.00    -0.258 NA 
ENDBRANCH  11  15
ENDBRANCH   4  10
ENDBRANCH   3   4
TORSDOF 4
ENDMDL
MODEL       74
REMARK 921   NORMALIZED FREE ENERGY PREDICTED BY IDOCK:   -6.29 KCAL/MOL
REMARK 922        TOTAL FREE ENERGY PREDICTED BY IDOCK:   -8.17 KCAL/MOL
REMARK 923 INTER-LIGAND FREE ENERGY PREDICTED BY IDOCK:   -7.57 KCAL/MOL
REMARK 924 INTRA-LIGAND FREE ENERGY PREDICTED BY IDOCK:   -0.60 KCAL/MOL
REMARK 927      BINDING AFFINITY PREDICTED BY RF-SCORE:    0.00 PKD
ROOT
HETATM    1  N   UNL     1     -12.091  14.465  66.624  1.00  0.00    -0.407 NA 
HETATM    2  C   UNL     1     -11.756  14.381  67.731  1.00  0.00    -0.376 C  
HETATM    3  C   UNL     1     -11.301  14.219  69.120  1.00  0.00    -0.312 C  
ENDROOT
BRANCH   3   4
HETATM    4  C   UNL     1     -12.272  13.355  69.966  1.00  0.00    -0.298 C  
BRANCH   4   5
HETATM    5  C   UNL     1     -12.542  13.992  71.371  1.00  0.00    -0.451 C  
HETATM    6  C   UNL     1     -14.011  14.344  71.672  1.00  0.00    -0.506 C  
HETATM    7  C   UNL     1     -14.016  15.573  72.574  1.00  0.00    -0.646 C  
HETATM    8  C   UNL     1     -11.845  15.347  71.577  1.00  0.00    -0.450 C  
HETATM    9  C   UNL     1     -12.561  15.949  72.775  1.00  0.00    -0.567 C  
ENDBRANCH   4   5
BRANCH   4  10
HETATM   10  N   UNL     1     -11.836  11.948  69.979  1.00  0.00    -0.337 NA 
HETATM   11  C   UNL     1     -11.545   9.803  70.425  1.00  0.00    -0.327 A  
HETATM   12  C   UNL     1     -12.325  10.904  70.700  1.00  0.00    -0.376 A  
HETATM   13  C   UNL     1     -10.677  10.261  69.418  1.00  0.00    -0.241 A  
HETATM   14  N   UNL     1     -10.873  11.548  69.116  1.00  0.00    -0.214 NA 
BRANCH  11  15
HETATM   15  C   UNL     1     -11.701   8.547  71.115  1.00  0.00    -0.281 A  
HETATM   16  C   UNL     1     -10.746   8.073  72.017  1.00  0.00    -0.319 A  
HETATM   17  C   UNL     1      -9.475   8.473  72.518  1.00  0.00    -0.328 A  
HETATM   18  C   UNL     1      -9.082   7.546  73.460  1.00  0.00    -0.235 A  
HETATM   19  N   UNL     1     -10.070   6.601  73.554  1.00  0.00    -0.221 NA 
HETATM   20  C   UNL     1     -11.088   6.910  72.694  1.00  0.00    -0.270 A  
HETATM   21  H   UNL     1     -10.051   5.790  74.173  1.00  0.00     0.000 HD 
HETATM   22  N   UNL     1     -12.217   6.197  72.568  1.00  0.00    -0.104 NA 
HETATM   23  C   UNL     1     -13.056   6.752  71.678  1.00  0.00    -0.195 A  
HETATM   24  N   UNL     1     -12.872   7.873  70.957  1.00  0.00    -0.106 NA 
ENDBRANCH  11  15
ENDBRANCH   4  10
ENDBRANCH   3   4
TORSDOF 4
ENDMDL
MODEL       75
REMARK 921   NORMALIZED FREE ENERGY PREDICTED BY IDOCK:   -6.26 KCAL/MOL
REMARK 922        TOTAL FREE ENERGY PREDICTED BY IDOCK:   -8.14 KCAL/MOL
REMARK 923 INTER-LIGAND FREE ENERGY PREDICTED BY IDOCK:   -7.43 KCAL/MOL
REMARK 924 INTRA-LIGAND FREE ENERGY PREDICTED BY IDOCK:   -0.71 KCAL/MOL
REMARK 927      BINDING AFFINITY PREDICTED BY RF-SCORE:    0.00 PKD
ROOT
HETATM    1  N   UNL     1     -10.686  19.068  65.391  1.00  0.00    -0.487 NA 
HETATM    2  C   UNL     1     -10.614  19.021  66.547  1.00  0.00    -0.410 C  
HETATM    3  C   UNL     1     -10.470  18.998  68.011  1.00  0.00    -0.436 C  
ENDROOT
BRANCH   3   4
HETATM    4  C   UNL     1      -9.563  17.839  68.499  1.00  0.00    -0.322 C  
BRANCH   4   5
HETATM    5  C   UNL     1      -8.065  18.066  68.099  1.00  0.00    -0.276 C  
HETATM    6  C   UNL     1      -7.022  17.415  69.028  1.00  0.00    -0.238 C  
HETATM    7  C   UNL     1      -5.787  18.308  69.031  1.00  0.00    -0.212 C  
HETATM    8  C   UNL     1      -7.637  19.542  68.130  1.00  0.00    -0.338 C  
HETATM    9  C   UNL     1      -6.118  19.482  68.132  1.00  0.00    -0.245 C  
ENDBRANCH   4   5
BRANCH   4  10
HETATM   10  N   UNL     1     -10.133  16.537  68.112  1.00  0.00    -0.247 NA 
HETATM   11  C   UNL     1     -10.521  14.550  67.225  1.00  0.00    -0.266 A  
HETATM   12  C   UNL     1      -9.572  15.536  67.382  1.00  0.00    -0.213 A  
HETATM   13  C   UNL     1     -11.594  15.000  68.014  1.00  0.00    -0.338 A  
HETATM   14  N   UNL     1     -11.352  16.185  68.585  1.00  0.00    -0.370 NA 
BRANCH  11  15
HETATM   15  C   UNL     1     -10.308  13.392  66.393  1.00  0.00    -0.288 A  
HETATM   16  C   UNL     1     -11.058  13.163  65.237  1.00  0.00    -0.304 A  
HETATM   17  C   UNL     1     -12.137  13.774  64.538  1.00  0.00    -0.463 A  
HETATM   18  C   UNL     1     -12.369  13.039  63.394  1.00  0.00    -0.394 A  
HETATM   19  N   UNL     1     -11.467  12.008  63.371  1.00  0.00    -0.654 NA 
HETATM   20  C   UNL     1     -10.661  12.072  64.474  1.00  0.00    -0.312 A  
HETATM   21  H   UNL     1     -11.406  11.298  62.640  1.00  0.00     0.000 HD 
HETATM   22  N   UNL     1      -9.657  11.222  64.731  1.00  0.00    -0.240 NA 
HETATM   23  C   UNL     1      -9.010  11.546  65.862  1.00  0.00    -0.147 A  
HETATM   24  N   UNL     1      -9.268  12.570  66.696  1.00  0.00    -0.227 NA 
ENDBRANCH  11  15
ENDBRANCH   4  10
ENDBRANCH   3   4
TORSDOF 4
ENDMDL
MODEL       76
REMARK 921   NORMALIZED FREE ENERGY PREDICTED BY IDOCK:   -6.25 KCAL/MOL
REMARK 922        TOTAL FREE ENERGY PREDICTED BY IDOCK:   -8.12 KCAL/MOL
REMARK 923 INTER-LIGAND FREE ENERGY PREDICTED BY IDOCK:   -7.41 KCAL/MOL
REMARK 924 INTRA-LIGAND FREE ENERGY PREDICTED BY IDOCK:   -0.71 KCAL/MOL
REMARK 927      BINDING AFFINITY PREDICTED BY RF-SCORE:    0.00 PKD
ROOT
HETATM    1  N   UNL     1     -10.859  19.335  65.325  1.00  0.00    -0.414 NA 
HETATM    2  C   UNL     1     -10.781  19.261  66.479  1.00  0.00    -0.393 C  
HETATM    3  C   UNL     1     -10.625  19.198  67.941  1.00  0.00    -0.459 C  
ENDROOT
BRANCH   3   4
HETATM    4  C   UNL     1      -9.842  17.940  68.400  1.00  0.00    -0.355 C  
BRANCH   4   5
HETATM    5  C   UNL     1      -8.311  18.064  68.091  1.00  0.00    -0.273 C  
HETATM    6  C   UNL     1      -7.403  17.047  68.808  1.00  0.00    -0.236 C  
HETATM    7  C   UNL     1      -6.065  17.728  69.070  1.00  0.00    -0.211 C  
HETATM    8  C   UNL     1      -7.700  19.402  68.537  1.00  0.00    -0.380 C  
HETATM    9  C   UNL     1      -6.203  19.140  68.533  1.00  0.00    -0.258 C  
ENDBRANCH   4   5
BRANCH   4  10
HETATM   10  N   UNL     1     -10.494  16.716  67.904  1.00  0.00    -0.310 NA 
HETATM   11  C   UNL     1     -11.118  14.952  66.729  1.00  0.00    -0.335 A  
HETATM   12  C   UNL     1     -10.175  15.950  66.826  1.00  0.00    -0.282 A  
HETATM   13  C   UNL     1     -11.903  15.129  67.882  1.00  0.00    -0.170 A  
HETATM   14  N   UNL     1     -11.507  16.172  68.618  1.00  0.00    -0.375 NA 
BRANCH  11  15
HETATM   15  C   UNL     1     -11.162  14.027  65.622  1.00  0.00    -0.310 A  
HETATM   16  C   UNL     1     -10.455  12.823  65.635  1.00  0.00    -0.297 A  
HETATM   17  C   UNL     1      -9.553  12.136  66.495  1.00  0.00    -0.235 A  
HETATM   18  C   UNL     1      -9.257  10.921  65.913  1.00  0.00    -0.191 A  
HETATM   19  N   UNL     1      -9.952  10.843  64.735  1.00  0.00    -0.281 NA 
HETATM   20  C   UNL     1     -10.687  11.982  64.555  1.00  0.00    -0.312 A  
HETATM   21  H   UNL     1      -9.925  10.054  64.088  1.00  0.00     0.000 HD 
HETATM   22  N   UNL     1     -11.499  12.204  63.511  1.00  0.00    -0.449 NA 
HETATM   23  C   UNL     1     -12.125  13.388  63.613  1.00  0.00    -0.450 A  
HETATM   24  N   UNL     1     -12.011  14.300  64.596  1.00  0.00    -0.432 NA 
ENDBRANCH  11  15
ENDBRANCH   4  10
ENDBRANCH   3   4
TORSDOF 4
ENDMDL
MODEL       77
REMARK 921   NORMALIZED FREE ENERGY PREDICTED BY IDOCK:   -6.23 KCAL/MOL
REMARK 922        TOTAL FREE ENERGY PREDICTED BY IDOCK:   -8.09 KCAL/MOL
REMARK 923 INTER-LIGAND FREE ENERGY PREDICTED BY IDOCK:   -7.27 KCAL/MOL
REMARK 924 INTRA-LIGAND FREE ENERGY PREDICTED BY IDOCK:   -0.82 KCAL/MOL
REMARK 927      BINDING AFFINITY PREDICTED BY RF-SCORE:    0.00 PKD
ROOT
HETATM    1  N   UNL     1      -8.028   7.661  64.177  1.00  0.00    -0.129 NA 
HETATM    2  C   UNL     1      -8.233   8.774  64.428  1.00  0.00    -0.168 C  
HETATM    3  C   UNL     1      -8.473  10.175  64.805  1.00  0.00    -0.180 C  
ENDROOT
BRANCH   3   4
HETATM    4  C   UNL     1      -9.877  10.390  65.428  1.00  0.00    -0.283 C  
BRANCH   4   5
HETATM    5  C   UNL     1     -10.498  11.763  65.001  1.00  0.00    -0.332 C  
HETATM    6  C   UNL     1     -11.735  12.213  65.801  1.00  0.00    -0.391 C  
HETATM    7  C   UNL     1     -12.630  13.009  64.858  1.00  0.00    -0.490 C  
HETATM    8  C   UNL     1     -11.033  11.775  63.560  1.00  0.00    -0.499 C  
HETATM    9  C   UNL     1     -11.931  13.001  63.513  1.00  0.00    -0.615 C  
ENDBRANCH   4   5
BRANCH   4  10
HETATM   10  N   UNL     1      -9.846  10.130  66.878  1.00  0.00    -0.187 NA 
HETATM   11  C   UNL     1     -10.239   9.414  68.931  1.00  0.00    -0.215 A  
HETATM   12  C   UNL     1     -10.566   9.235  67.605  1.00  0.00    -0.261 A  
HETATM   13  C   UNL     1      -9.207  10.368  68.888  1.00  0.00    -0.177 A  
HETATM   14  N   UNL     1      -8.937  10.778  67.644  1.00  0.00    -0.139 NA 
BRANCH  11  15
HETATM   15  C   UNL     1     -10.911   8.715  69.999  1.00  0.00    -0.221 A  
HETATM   16  C   UNL     1     -11.825   9.352  70.840  1.00  0.00    -0.365 A  
HETATM   17  C   UNL     1     -12.355  10.660  71.029  1.00  0.00    -0.507 A  
HETATM   18  C   UNL     1     -13.294  10.593  72.038  1.00  0.00    -0.304 A  
HETATM   19  N   UNL     1     -13.358   9.292  72.463  1.00  0.00    -0.579 NA 
HETATM   20  C   UNL     1     -12.481   8.527  71.744  1.00  0.00    -0.342 A  
HETATM   21  H   UNL     1     -13.967   8.946  73.205  1.00  0.00     0.000 HD 
HETATM   22  N   UNL     1     -12.324   7.204  71.900  1.00  0.00    -0.323 NA 
HETATM   23  C   UNL     1     -11.425   6.706  71.035  1.00  0.00    -0.330 A  
HETATM   24  N   UNL     1     -10.722   7.373  70.102  1.00  0.00    -0.238 NA 
ENDBRANCH  11  15
ENDBRANCH   4  10
ENDBRANCH   3   4
TORSDOF 4
ENDMDL
MODEL       78
REMARK 921   NORMALIZED FREE ENERGY PREDICTED BY IDOCK:   -6.21 KCAL/MOL
REMARK 922        TOTAL FREE ENERGY PREDICTED BY IDOCK:   -8.07 KCAL/MOL
REMARK 923 INTER-LIGAND FREE ENERGY PREDICTED BY IDOCK:   -7.37 KCAL/MOL
REMARK 924 INTRA-LIGAND FREE ENERGY PREDICTED BY IDOCK:   -0.70 KCAL/MOL
REMARK 927      BINDING AFFINITY PREDICTED BY RF-SCORE:    0.00 PKD
ROOT
HETATM    1  N   UNL     1     -11.173  11.127  69.927  1.00  0.00    -0.248 NA 
HETATM    2  C   UNL     1     -11.763  12.115  69.790  1.00  0.00    -0.310 C  
HETATM    3  C   UNL     1     -12.485  13.375  69.557  1.00  0.00    -0.018 C  
ENDROOT
BRANCH   3   4
HETATM    4  C   UNL     1     -11.658  14.619  69.976  1.00  0.00    -0.284 C  
BRANCH   4   5
HETATM    5  C   UNL     1     -12.451  15.534  70.970  1.00  0.00    -0.492 C  
HETATM    6  C   UNL     1     -11.704  15.918  72.262  1.00  0.00    -0.586 C  
HETATM    7  C   UNL     1     -12.741  16.058  73.370  1.00  0.00    -0.668 C  
HETATM    8  C   UNL     1     -13.726  14.880  71.526  1.00  0.00    -0.532 C  
HETATM    9  C   UNL     1     -14.078  15.733  72.734  1.00  0.00    -0.425 C  
ENDBRANCH   4   5
BRANCH   4  10
HETATM   10  N   UNL     1     -11.105  15.297  68.791  1.00  0.00    -0.255 NA 
HETATM   11  C   UNL     1     -10.086  16.676  67.398  1.00  0.00    -0.274 A  
HETATM   12  C   UNL     1     -10.260  16.361  68.727  1.00  0.00    -0.258 A  
HETATM   13  C   UNL     1     -10.777  15.653  66.725  1.00  0.00    -0.300 A  
HETATM   14  N   UNL     1     -11.365  14.793  67.562  1.00  0.00    -0.332 NA 
BRANCH  11  15
HETATM   15  C   UNL     1      -9.348  17.837  66.964  1.00  0.00    -0.259 A  
HETATM   16  C   UNL     1      -7.984  17.780  66.669  1.00  0.00    -0.283 A  
HETATM   17  C   UNL     1      -6.936  16.816  66.696  1.00  0.00    -0.268 A  
HETATM   18  C   UNL     1      -5.795  17.421  66.211  1.00  0.00    -0.189 A  
HETATM   19  N   UNL     1      -6.113  18.714  65.886  1.00  0.00    -0.182 NA 
HETATM   20  C   UNL     1      -7.435  18.945  66.149  1.00  0.00    -0.266 A  
HETATM   21  H   UNL     1      -5.462  19.401  65.505  1.00  0.00     0.000 HD 
HETATM   22  N   UNL     1      -8.064  20.105  65.914  1.00  0.00    -0.231 NA 
HETATM   23  C   UNL     1      -9.367  20.037  66.232  1.00  0.00    -0.359 A  
HETATM   24  N   UNL     1     -10.040  18.984  66.732  1.00  0.00    -0.351 NA 
ENDBRANCH  11  15
ENDBRANCH   4  10
ENDBRANCH   3   4
TORSDOF 4
ENDMDL
MODEL       79
REMARK 921   NORMALIZED FREE ENERGY PREDICTED BY IDOCK:   -6.20 KCAL/MOL
REMARK 922        TOTAL FREE ENERGY PREDICTED BY IDOCK:   -8.06 KCAL/MOL
REMARK 923 INTER-LIGAND FREE ENERGY PREDICTED BY IDOCK:   -7.53 KCAL/MOL
REMARK 924 INTRA-LIGAND FREE ENERGY PREDICTED BY IDOCK:   -0.53 KCAL/MOL
REMARK 927      BINDING AFFINITY PREDICTED BY RF-SCORE:    0.00 PKD
ROOT
HETATM    1  N   UNL     1     -11.155  19.435  65.026  1.00  0.00    -0.146 NA 
HETATM    2  C   UNL     1     -10.511  19.588  65.977  1.00  0.00    -0.516 C  
HETATM    3  C   UNL     1      -9.644  19.802  67.147  1.00  0.00    -0.483 C  
ENDROOT
BRANCH   3   4
HETATM    4  C   UNL     1      -8.786  18.554  67.485  1.00  0.00    -0.265 C  
BRANCH   4   5
HETATM    5  C   UNL     1      -7.791  18.203  66.327  1.00  0.00    -0.280 C  
HETATM    6  C   UNL     1      -6.592  17.322  66.724  1.00  0.00    -0.247 C  
HETATM    7  C   UNL     1      -5.414  17.722  65.843  1.00  0.00    -0.222 C  
HETATM    8  C   UNL     1      -7.093  19.432  65.722  1.00  0.00    -0.313 C  
HETATM    9  C   UNL     1      -5.917  18.845  64.958  1.00  0.00    -0.313 C  
ENDBRANCH   4   5
BRANCH   4  10
HETATM   10  N   UNL     1      -9.641  17.447  67.946  1.00  0.00    -0.261 NA 
HETATM   11  C   UNL     1     -10.731  15.538  68.172  1.00  0.00    -0.282 A  
HETATM   12  C   UNL     1      -9.748  16.183  67.456  1.00  0.00    -0.233 A  
HETATM   13  C   UNL     1     -11.075  16.469  69.168  1.00  0.00    -0.270 A  
HETATM   14  N   UNL     1     -10.392  17.613  69.060  1.00  0.00    -0.342 NA 
BRANCH  11  15
HETATM   15  C   UNL     1     -11.198  14.215  67.837  1.00  0.00    -0.279 A  
HETATM   16  C   UNL     1     -11.612  13.881  66.546  1.00  0.00    -0.385 A  
HETATM   17  C   UNL     1     -11.777  14.528  65.288  1.00  0.00    -0.361 A  
HETATM   18  C   UNL     1     -12.188  13.578  64.376  1.00  0.00    -0.390 A  
HETATM   19  N   UNL     1     -12.273  12.378  65.033  1.00  0.00    -0.469 NA 
HETATM   20  C   UNL     1     -11.921  12.543  66.344  1.00  0.00    -0.318 A  
HETATM   21  H   UNL     1     -12.557  11.495  64.608  1.00  0.00     0.000 HD 
HETATM   22  N   UNL     1     -11.874  11.552  67.247  1.00  0.00    -0.604 NA 
HETATM   23  C   UNL     1     -11.458  11.993  68.446  1.00  0.00    -0.301 A  
HETATM   24  N   UNL     1     -11.116  13.248  68.790  1.00  0.00    -0.256 NA 
ENDBRANCH  11  15
ENDBRANCH   4  10
ENDBRANCH   3   4
TORSDOF 4
ENDMDL
MODEL       80
REMARK 921   NORMALIZED FREE ENERGY PREDICTED BY IDOCK:   -6.15 KCAL/MOL
REMARK 922        TOTAL FREE ENERGY PREDICTED BY IDOCK:   -7.99 KCAL/MOL
REMARK 923 INTER-LIGAND FREE ENERGY PREDICTED BY IDOCK:   -7.93 KCAL/MOL
REMARK 924 INTRA-LIGAND FREE ENERGY PREDICTED BY IDOCK:   -0.06 KCAL/MOL
REMARK 927      BINDING AFFINITY PREDICTED BY RF-SCORE:    0.00 PKD
ROOT
HETATM    1  N   UNL     1     -12.570  10.680  69.231  1.00  0.00    -0.154 NA 
HETATM    2  C   UNL     1     -11.831  11.515  68.913  1.00  0.00    -0.341 C  
HETATM    3  C   UNL     1     -10.924  12.614  68.548  1.00  0.00    -0.292 C  
ENDROOT
BRANCH   3   4
HETATM    4  C   UNL     1     -11.454  13.448  67.352  1.00  0.00    -0.333 C  
BRANCH   4   5
HETATM    5  C   UNL     1     -11.798  12.542  66.120  1.00  0.00    -0.459 C  
HETATM    6  C   UNL     1     -10.607  11.795  65.491  1.00  0.00    -0.323 C  
HETATM    7  C   UNL     1     -10.881  11.664  63.998  1.00  0.00    -0.455 C  
HETATM    8  C   UNL     1     -12.350  13.323  64.917  1.00  0.00    -0.476 C  
HETATM    9  C   UNL     1     -12.209  12.354  63.755  1.00  0.00    -0.626 C  
ENDBRANCH   4   5
BRANCH   4  10
HETATM   10  N   UNL     1     -10.559  14.584  67.075  1.00  0.00    -0.276 NA 
HETATM   11  C   UNL     1      -9.618  16.578  66.924  1.00  0.00    -0.253 A  
HETATM   12  C   UNL     1     -10.647  15.872  67.505  1.00  0.00    -0.315 A  
HETATM   13  C   UNL     1      -8.880  15.588  66.251  1.00  0.00    -0.303 A  
HETATM   14  N   UNL     1      -9.423  14.372  66.370  1.00  0.00    -0.290 NA 
BRANCH  11  15
HETATM   15  C   UNL     1      -9.481  18.007  67.060  1.00  0.00    -0.273 A  
HETATM   16  C   UNL     1      -8.370  18.695  66.570  1.00  0.00    -0.304 A  
HETATM   17  C   UNL     1      -7.141  18.390  65.918  1.00  0.00    -0.290 A  
HETATM   18  C   UNL     1      -6.497  19.581  65.655  1.00  0.00    -0.240 A  
HETATM   19  N   UNL     1      -7.292  20.597  66.117  1.00  0.00    -0.495 NA 
HETATM   20  C   UNL     1      -8.432  20.079  66.666  1.00  0.00    -0.317 A  
HETATM   21  H   UNL     1      -7.067  21.591  66.060  1.00  0.00     0.000 HD 
HETATM   22  N   UNL     1      -9.428  20.814  67.182  1.00  0.00    -0.373 NA 
HETATM   23  C   UNL     1     -10.439  20.044  67.615  1.00  0.00    -0.335 A  
HETATM   24  N   UNL     1     -10.528  18.702  67.581  1.00  0.00    -0.410 NA 
ENDBRANCH  11  15
ENDBRANCH   4  10
ENDBRANCH   3   4
TORSDOF 4
ENDMDL
MODEL       81
REMARK 921   NORMALIZED FREE ENERGY PREDICTED BY IDOCK:   -6.08 KCAL/MOL
REMARK 922        TOTAL FREE ENERGY PREDICTED BY IDOCK:   -7.90 KCAL/MOL
REMARK 923 INTER-LIGAND FREE ENERGY PREDICTED BY IDOCK:   -7.14 KCAL/MOL
REMARK 924 INTRA-LIGAND FREE ENERGY PREDICTED BY IDOCK:   -0.76 KCAL/MOL
REMARK 927      BINDING AFFINITY PREDICTED BY RF-SCORE:    0.00 PKD
ROOT
HETATM    1  N   UNL     1     -13.577  10.054  71.971  1.00  0.00    -0.336 NA 
HETATM    2  C   UNL     1     -12.481   9.718  71.798  1.00  0.00    -0.398 C  
HETATM    3  C   UNL     1     -11.080   9.347  71.546  1.00  0.00    -0.446 C  
ENDROOT
BRANCH   3   4
HETATM    4  C   UNL     1     -10.900   8.588  70.205  1.00  0.00    -0.238 C  
BRANCH   4   5
HETATM    5  C   UNL     1     -10.049   7.285  70.385  1.00  0.00    -0.196 C  
HETATM    6  C   UNL     1     -10.103   6.287  69.213  1.00  0.00    -0.213 C  
HETATM    7  C   UNL     1      -9.962   4.885  69.794  1.00  0.00    -0.314 C  
HETATM    8  C   UNL     1     -10.505   6.411  71.565  1.00  0.00    -0.256 C  
HETATM    9  C   UNL     1      -9.853   5.064  71.296  1.00  0.00    -0.246 C  
ENDBRANCH   4   5
BRANCH   4  10
HETATM   10  N   UNL     1     -10.441   9.506  69.148  1.00  0.00    -0.205 NA 
HETATM   11  C   UNL     1     -10.164  10.637  67.270  1.00  0.00    -0.250 A  
HETATM   12  C   UNL     1     -10.993   9.759  67.931  1.00  0.00    -0.188 A  
HETATM   13  C   UNL     1      -9.190  10.955  68.233  1.00  0.00    -0.161 A  
HETATM   14  N   UNL     1      -9.373  10.303  69.385  1.00  0.00    -0.211 NA 
BRANCH  11  15
HETATM   15  C   UNL     1     -10.378  11.026  65.898  1.00  0.00    -0.257 A  
HETATM   16  C   UNL     1     -11.187  12.110  65.553  1.00  0.00    -0.381 A  
HETATM   17  C   UNL     1     -12.010  13.067  66.212  1.00  0.00    -0.477 A  
HETATM   18  C   UNL     1     -12.506  13.928  65.255  1.00  0.00    -0.478 A  
HETATM   19  N   UNL     1     -12.009  13.532  64.041  1.00  0.00    -0.496 NA 
HETATM   20  C   UNL     1     -11.203  12.440  64.204  1.00  0.00    -0.376 A  
HETATM   21  H   UNL     1     -12.210  13.985  63.149  1.00  0.00     0.000 HD 
HETATM   22  N   UNL     1     -10.542  11.829  63.210  1.00  0.00    -0.388 NA 
HETATM   23  C   UNL     1      -9.797  10.808  63.664  1.00  0.00    -0.350 A  
HETATM   24  N   UNL     1      -9.672  10.378  64.933  1.00  0.00    -0.284 NA 
ENDBRANCH  11  15
ENDBRANCH   4  10
ENDBRANCH   3   4
TORSDOF 4
ENDMDL
MODEL       82
REMARK 921   NORMALIZED FREE ENERGY PREDICTED BY IDOCK:   -6.07 KCAL/MOL
REMARK 922        TOTAL FREE ENERGY PREDICTED BY IDOCK:   -7.90 KCAL/MOL
REMARK 923 INTER-LIGAND FREE ENERGY PREDICTED BY IDOCK:   -7.59 KCAL/MOL
REMARK 924 INTRA-LIGAND FREE ENERGY PREDICTED BY IDOCK:   -0.31 KCAL/MOL
REMARK 927      BINDING AFFINITY PREDICTED BY RF-SCORE:    0.00 PKD
ROOT
HETATM    1  N   UNL     1      -6.588  10.498  70.742  1.00  0.00    -0.341 NA 
HETATM    2  C   UNL     1      -7.441   9.964  70.167  1.00  0.00    -0.170 C  
HETATM    3  C   UNL     1      -8.534   9.341  69.404  1.00  0.00    -0.137 C  
ENDROOT
BRANCH   3   4
HETATM    4  C   UNL     1      -9.921   9.572  70.058  1.00  0.00    -0.237 C  
BRANCH   4   5
HETATM    5  C   UNL     1     -10.703   8.229  70.250  1.00  0.00    -0.237 C  
HETATM    6  C   UNL     1     -10.307   7.398  71.485  1.00  0.00    -0.216 C  
HETATM    7  C   UNL     1     -10.490   5.927  71.131  1.00  0.00    -0.291 C  
HETATM    8  C   UNL     1     -10.485   7.221  69.110  1.00  0.00    -0.222 C  
HETATM    9  C   UNL     1     -10.964   5.901  69.691  1.00  0.00    -0.447 C  
ENDBRANCH   4   5
BRANCH   4  10
HETATM   10  N   UNL     1     -10.654  10.640  69.355  1.00  0.00    -0.231 NA 
HETATM   11  C   UNL     1     -11.495  12.024  67.852  1.00  0.00    -0.396 A  
HETATM   12  C   UNL     1     -10.770  10.865  68.019  1.00  0.00    -0.220 A  
HETATM   13  C   UNL     1     -11.882  12.359  69.161  1.00  0.00    -0.300 A  
HETATM   14  N   UNL     1     -11.409  11.504  70.073  1.00  0.00    -0.202 NA 
BRANCH  11  15
HETATM   15  C   UNL     1     -11.702  12.632  66.561  1.00  0.00    -0.400 A  
HETATM   16  C   UNL     1     -11.174  12.084  65.390  1.00  0.00    -0.374 A  
HETATM   17  C   UNL     1     -10.354  10.982  65.015  1.00  0.00    -0.360 A  
HETATM   18  C   UNL     1     -10.252  10.981  63.639  1.00  0.00    -0.372 A  
HETATM   19  N   UNL     1     -10.986  12.038  63.166  1.00  0.00    -0.692 NA 
HETATM   20  C   UNL     1     -11.556  12.710  64.211  1.00  0.00    -0.374 A  
HETATM   21  H   UNL     1     -11.090  12.286  62.181  1.00  0.00     0.000 HD 
HETATM   22  N   UNL     1     -12.358  13.777  64.080  1.00  0.00    -0.679 NA 
HETATM   23  C   UNL     1     -12.806  14.210  65.270  1.00  0.00    -0.344 A  
HETATM   24  N   UNL     1     -12.534  13.705  66.487  1.00  0.00    -0.346 NA 
ENDBRANCH  11  15
ENDBRANCH   4  10
ENDBRANCH   3   4
TORSDOF 4
ENDMDL
MODEL       83
REMARK 921   NORMALIZED FREE ENERGY PREDICTED BY IDOCK:   -6.03 KCAL/MOL
REMARK 922        TOTAL FREE ENERGY PREDICTED BY IDOCK:   -7.85 KCAL/MOL
REMARK 923 INTER-LIGAND FREE ENERGY PREDICTED BY IDOCK:   -7.22 KCAL/MOL
REMARK 924 INTRA-LIGAND FREE ENERGY PREDICTED BY IDOCK:   -0.63 KCAL/MOL
REMARK 927      BINDING AFFINITY PREDICTED BY RF-SCORE:    0.00 PKD
ROOT
HETATM    1  N   UNL     1      -9.503  17.435  68.593  1.00  0.00    -0.279 NA 
HETATM    2  C   UNL     1      -9.921  16.438  69.011  1.00  0.00    -0.267 C  
HETATM    3  C   UNL     1     -10.427  15.142  69.490  1.00  0.00    -0.268 C  
ENDROOT
BRANCH   3   4
HETATM    4  C   UNL     1     -11.844  14.821  68.946  1.00  0.00    -0.296 C  
BRANCH   4   5
HETATM    5  C   UNL     1     -12.781  14.256  70.067  1.00  0.00    -0.167 C  
HETATM    6  C   UNL     1     -12.880  15.109  71.346  1.00  0.00    -0.457 C  
HETATM    7  C   UNL     1     -13.093  14.159  72.519  1.00  0.00    -0.554 C  
HETATM    8  C   UNL     1     -12.321  12.900  70.628  1.00  0.00    -0.385 C  
HETATM    9  C   UNL     1     -13.092  12.762  71.930  1.00  0.00    -0.474 C  
ENDBRANCH   4   5
BRANCH   4  10
HETATM   10  N   UNL     1     -11.757  14.009  67.721  1.00  0.00    -0.348 NA 
HETATM   11  C   UNL     1     -11.171  12.583  66.138  1.00  0.00    -0.362 A  
HETATM   12  C   UNL     1     -10.922  12.974  67.434  1.00  0.00    -0.260 A  
HETATM   13  C   UNL     1     -12.273  13.372  65.763  1.00  0.00    -0.458 A  
HETATM   14  N   UNL     1     -12.657  14.211  66.730  1.00  0.00    -0.171 NA 
BRANCH  11  15
HETATM   15  C   UNL     1     -10.377  11.588  65.459  1.00  0.00    -0.273 A  
HETATM   16  C   UNL     1     -10.209  10.300  65.970  1.00  0.00    -0.298 A  
HETATM   17  C   UNL     1     -10.598   9.561  67.124  1.00  0.00    -0.295 A  
HETATM   18  C   UNL     1     -10.127   8.273  66.978  1.00  0.00    -0.283 A  
HETATM   19  N   UNL     1      -9.472   8.201  65.776  1.00  0.00    -0.432 NA 
HETATM   20  C   UNL     1      -9.520   9.416  65.150  1.00  0.00    -0.185 A  
HETATM   21  H   UNL     1      -9.018   7.367  65.404  1.00  0.00     0.000 HD 
HETATM   22  N   UNL     1      -8.996   9.669  63.942  1.00  0.00    -0.233 NA 
HETATM   23  C   UNL     1      -9.224  10.935  63.557  1.00  0.00    -0.245 A  
HETATM   24  N   UNL     1      -9.880  11.897  64.232  1.00  0.00    -0.227 NA 
ENDBRANCH  11  15
ENDBRANCH   4  10
ENDBRANCH   3   4
TORSDOF 4
ENDMDL
MODEL       84
REMARK 921   NORMALIZED FREE ENERGY PREDICTED BY IDOCK:   -6.02 KCAL/MOL
REMARK 922        TOTAL FREE ENERGY PREDICTED BY IDOCK:   -7.84 KCAL/MOL
REMARK 923 INTER-LIGAND FREE ENERGY PREDICTED BY IDOCK:   -7.53 KCAL/MOL
REMARK 924 INTRA-LIGAND FREE ENERGY PREDICTED BY IDOCK:   -0.31 KCAL/MOL
REMARK 927      BINDING AFFINITY PREDICTED BY RF-SCORE:    0.00 PKD
ROOT
HETATM    1  N   UNL     1     -13.815  14.694  71.787  1.00  0.00    -0.403 NA 
HETATM    2  C   UNL     1     -13.344  13.636  71.838  1.00  0.00    -0.425 C  
HETATM    3  C   UNL     1     -12.691  12.319  71.881  1.00  0.00    -0.197 C  
ENDROOT
BRANCH   3   4
HETATM    4  C   UNL     1     -12.785  11.565  70.528  1.00  0.00    -0.110 C  
BRANCH   4   5
HETATM    5  C   UNL     1     -12.602  10.020  70.710  1.00  0.00    -0.372 C  
HETATM    6  C   UNL     1     -13.599   9.340  71.668  1.00  0.00    -0.448 C  
HETATM    7  C   UNL     1     -12.876   8.177  72.336  1.00  0.00    -0.199 C  
HETATM    8  C   UNL     1     -11.252   9.630  71.332  1.00  0.00    -0.426 C  
HETATM    9  C   UNL     1     -11.462   8.196  71.791  1.00  0.00    -0.337 C  
ENDBRANCH   4   5
BRANCH   4  10
HETATM   10  N   UNL     1     -11.911  12.195  69.523  1.00  0.00    -0.297 NA 
HETATM   11  C   UNL     1     -11.088  13.332  67.816  1.00  0.00    -0.289 A  
HETATM   12  C   UNL     1     -12.227  13.093  68.552  1.00  0.00    -0.032 A  
HETATM   13  C   UNL     1     -10.095  12.617  68.509  1.00  0.00    -0.178 A  
HETATM   14  N   UNL     1     -10.579  11.957  69.566  1.00  0.00     0.120 NA 
BRANCH  11  15
HETATM   15  C   UNL     1     -11.089  14.142  66.623  1.00  0.00    -0.312 A  
HETATM   16  C   UNL     1     -11.663  13.701  65.429  1.00  0.00    -0.347 A  
HETATM   17  C   UNL     1     -12.308  12.532  64.934  1.00  0.00    -0.539 A  
HETATM   18  C   UNL     1     -12.693  12.782  63.633  1.00  0.00    -0.157 A  
HETATM   19  N   UNL     1     -12.312  14.061  63.323  1.00  0.00    -1.145 NA 
HETATM   20  C   UNL     1     -11.694  14.634  64.400  1.00  0.00    -0.346 A  
HETATM   21  H   UNL     1     -12.465  14.518  62.423  1.00  0.00     0.000 HD 
HETATM   22  N   UNL     1     -11.229  15.891  64.429  1.00  0.00    -0.472 NA 
HETATM   23  C   UNL     1     -10.706  16.200  65.626  1.00  0.00    -0.310 A  
HETATM   24  N   UNL     1     -10.614  15.413  66.714  1.00  0.00    -0.305 NA 
ENDBRANCH  11  15
ENDBRANCH   4  10
ENDBRANCH   3   4
TORSDOF 4
ENDMDL
MODEL       85
REMARK 921   NORMALIZED FREE ENERGY PREDICTED BY IDOCK:   -6.01 KCAL/MOL
REMARK 922        TOTAL FREE ENERGY PREDICTED BY IDOCK:   -7.82 KCAL/MOL
REMARK 923 INTER-LIGAND FREE ENERGY PREDICTED BY IDOCK:   -7.11 KCAL/MOL
REMARK 924 INTRA-LIGAND FREE ENERGY PREDICTED BY IDOCK:   -0.71 KCAL/MOL
REMARK 927      BINDING AFFINITY PREDICTED BY RF-SCORE:    0.00 PKD
ROOT
HETATM    1  N   UNL     1      -6.775  10.451  70.743  1.00  0.00    -0.335 NA 
HETATM    2  C   UNL     1      -7.517  10.061  69.942  1.00  0.00    -0.167 C  
HETATM    3  C   UNL     1      -8.457   9.625  68.898  1.00  0.00    -0.125 C  
ENDROOT
BRANCH   3   4
HETATM    4  C   UNL     1      -9.936   9.888  69.285  1.00  0.00    -0.207 C  
BRANCH   4   5
HETATM    5  C   UNL     1     -10.841   8.643  68.996  1.00  0.00    -0.043 C  
HETATM    6  C   UNL     1     -10.810   7.535  70.066  1.00  0.00    -0.260 C  
HETATM    7  C   UNL     1     -11.017   6.202  69.356  1.00  0.00    -0.454 C  
HETATM    8  C   UNL     1     -10.439   7.870  67.730  1.00  0.00    -0.278 C  
HETATM    9  C   UNL     1     -11.141   6.530  67.881  1.00  0.00    -0.352 C  
ENDBRANCH   4   5
BRANCH   4  10
HETATM   10  N   UNL     1     -10.403  11.161  68.709  1.00  0.00    -0.199 NA 
HETATM   11  C   UNL     1     -10.575  13.096  67.656  1.00  0.00    -0.235 A  
HETATM   12  C   UNL     1      -9.764  12.001  67.850  1.00  0.00    -0.194 A  
HETATM   13  C   UNL     1     -11.750  12.762  68.352  1.00  0.00    -0.339 A  
HETATM   14  N   UNL     1     -11.667  11.574  68.961  1.00  0.00    -0.307 NA 
BRANCH  11  15
HETATM   15  C   UNL     1     -10.156  14.250  66.898  1.00  0.00    -0.264 A  
HETATM   16  C   UNL     1     -10.887  14.724  65.806  1.00  0.00    -0.334 A  
HETATM   17  C   UNL     1     -12.057  14.363  65.080  1.00  0.00    -0.395 A  
HETATM   18  C   UNL     1     -12.263  15.320  64.109  1.00  0.00    -0.114 A  
HETATM   19  N   UNL     1     -11.264  16.252  64.223  1.00  0.00    -1.202 NA 
HETATM   20  C   UNL     1     -10.428  15.910  65.250  1.00  0.00    -0.377 A  
HETATM   21  H   UNL     1     -11.160  17.077  63.631  1.00  0.00     0.000 HD 
HETATM   22  N   UNL     1      -9.367  16.633  65.637  1.00  0.00    -0.476 NA 
HETATM   23  C   UNL     1      -8.750  16.082  66.695  1.00  0.00    -0.274 A  
HETATM   24  N   UNL     1      -9.080  14.950  67.344  1.00  0.00    -0.183 NA 
ENDBRANCH  11  15
ENDBRANCH   4  10
ENDBRANCH   3   4
TORSDOF 4
ENDMDL
MODEL       86
REMARK 921   NORMALIZED FREE ENERGY PREDICTED BY IDOCK:   -5.98 KCAL/MOL
REMARK 922        TOTAL FREE ENERGY PREDICTED BY IDOCK:   -7.79 KCAL/MOL
REMARK 923 INTER-LIGAND FREE ENERGY PREDICTED BY IDOCK:   -7.49 KCAL/MOL
REMARK 924 INTRA-LIGAND FREE ENERGY PREDICTED BY IDOCK:   -0.30 KCAL/MOL
REMARK 927      BINDING AFFINITY PREDICTED BY RF-SCORE:    0.00 PKD
ROOT
HETATM    1  N   UNL     1     -11.247  16.657  64.141  1.00  0.00    -1.039 NA 
HETATM    2  C   UNL     1     -10.907  16.115  65.108  1.00  0.00    -0.361 C  
HETATM    3  C   UNL     1     -10.414  15.439  66.318  1.00  0.00    -0.310 C  
ENDROOT
BRANCH   3   4
HETATM    4  C   UNL     1     -10.168  13.924  66.091  1.00  0.00    -0.301 C  
BRANCH   4   5
HETATM    5  C   UNL     1     -10.714  13.449  64.702  1.00  0.00    -0.425 C  
HETATM    6  C   UNL     1     -12.170  12.946  64.694  1.00  0.00    -0.494 C  
HETATM    7  C   UNL     1     -12.277  11.859  63.632  1.00  0.00    -0.586 C  
HETATM    8  C   UNL     1      -9.960  12.240  64.125  1.00  0.00    -0.261 C  
HETATM    9  C   UNL     1     -10.888  11.712  63.043  1.00  0.00    -0.134 C  
ENDBRANCH   4   5
BRANCH   4  10
HETATM   10  N   UNL     1     -10.627  13.145  67.254  1.00  0.00    -0.246 NA 
HETATM   11  C   UNL     1     -11.005  11.574  68.761  1.00  0.00    -0.271 A  
HETATM   12  C   UNL     1     -10.242  11.907  67.665  1.00  0.00    -0.201 A  
HETATM   13  C   UNL     1     -11.744  12.743  69.014  1.00  0.00    -0.323 A  
HETATM   14  N   UNL     1     -11.492  13.712  68.127  1.00  0.00    -0.292 NA 
BRANCH  11  15
HETATM   15  C   UNL     1     -10.950  10.273  69.381  1.00  0.00    -0.247 A  
HETATM   16  C   UNL     1     -10.683   9.114  68.649  1.00  0.00    -0.156 A  
HETATM   17  C   UNL     1     -10.448   8.751  67.292  1.00  0.00    -0.353 A  
HETATM   18  C   UNL     1     -10.190   7.397  67.256  1.00  0.00    -0.260 A  
HETATM   19  N   UNL     1     -10.254   6.926  68.542  1.00  0.00    -0.169 NA 
HETATM   20  C   UNL     1     -10.543   7.953  69.397  1.00  0.00    -0.205 A  
HETATM   21  H   UNL     1     -10.107   5.955  68.819  1.00  0.00     0.000 HD 
HETATM   22  N   UNL     1     -10.646   7.826  70.728  1.00  0.00    -0.215 NA 
HETATM   23  C   UNL     1     -10.899   9.004  71.321  1.00  0.00    -0.315 A  
HETATM   24  N   UNL     1     -11.050  10.206  70.736  1.00  0.00    -0.330 NA 
ENDBRANCH  11  15
ENDBRANCH   4  10
ENDBRANCH   3   4
TORSDOF 4
ENDMDL
MODEL       87
REMARK 921   NORMALIZED FREE ENERGY PREDICTED BY IDOCK:   -5.95 KCAL/MOL
REMARK 922        TOTAL FREE ENERGY PREDICTED BY IDOCK:   -7.75 KCAL/MOL
REMARK 923 INTER-LIGAND FREE ENERGY PREDICTED BY IDOCK:   -7.26 KCAL/MOL
REMARK 924 INTRA-LIGAND FREE ENERGY PREDICTED BY IDOCK:   -0.49 KCAL/MOL
REMARK 927      BINDING AFFINITY PREDICTED BY RF-SCORE:    0.00 PKD
ROOT
HETATM    1  N   UNL     1      -8.639   9.688  67.322  1.00  0.00    -0.131 NA 
HETATM    2  C   UNL     1      -9.561  10.390  67.285  1.00  0.00    -0.156 C  
HETATM    3  C   UNL     1     -10.696  11.322  67.203  1.00  0.00    -0.297 C  
ENDROOT
BRANCH   3   4
HETATM    4  C   UNL     1     -10.683  12.374  68.344  1.00  0.00    -0.235 C  
BRANCH   4   5
HETATM    5  C   UNL     1     -11.905  12.200  69.308  1.00  0.00    -0.370 C  
HETATM    6  C   UNL     1     -12.159  13.369  70.279  1.00  0.00    -0.419 C  
HETATM    7  C   UNL     1     -12.743  12.786  71.560  1.00  0.00    -0.330 C  
HETATM    8  C   UNL     1     -11.761  11.014  70.275  1.00  0.00    -0.445 C  
HETATM    9  C   UNL     1     -12.805  11.287  71.346  1.00  0.00    -0.515 C  
ENDBRANCH   4   5
BRANCH   4  10
HETATM   10  N   UNL     1     -10.493  13.728  67.796  1.00  0.00    -0.237 NA 
HETATM   11  C   UNL     1      -9.837  15.800  67.396  1.00  0.00    -0.233 A  
HETATM   12  C   UNL     1      -9.570  14.669  68.133  1.00  0.00    -0.213 A  
HETATM   13  C   UNL     1     -10.877  15.396  66.541  1.00  0.00    -0.298 A  
HETATM   14  N   UNL     1     -11.254  14.131  66.752  1.00  0.00    -0.313 NA 
BRANCH  11  15
HETATM   15  C   UNL     1      -9.130  17.042  67.591  1.00  0.00    -0.229 A  
HETATM   16  C   UNL     1      -9.500  18.217  66.933  1.00  0.00    -0.286 A  
HETATM   17  C   UNL     1     -10.465  18.631  65.972  1.00  0.00    -0.456 A  
HETATM   18  C   UNL     1     -10.319  19.990  65.787  1.00  0.00    -0.369 A  
HETATM   19  N   UNL     1      -9.305  20.417  66.605  1.00  0.00    -0.597 NA 
HETATM   20  C   UNL     1      -8.804  19.358  67.311  1.00  0.00    -0.296 A  
HETATM   21  H   UNL     1      -8.974  21.379  66.676  1.00  0.00     0.000 HD 
HETATM   22  N   UNL     1      -7.822  19.448  68.219  1.00  0.00    -0.316 NA 
HETATM   23  C   UNL     1      -7.558  18.259  68.785  1.00  0.00    -0.279 A  
HETATM   24  N   UNL     1      -8.149  17.077  68.533  1.00  0.00    -0.241 NA 
ENDBRANCH  11  15
ENDBRANCH   4  10
ENDBRANCH   3   4
TORSDOF 4
ENDMDL
MODEL       88
REMARK 921   NORMALIZED FREE ENERGY PREDICTED BY IDOCK:   -5.95 KCAL/MOL
REMARK 922        TOTAL FREE ENERGY PREDICTED BY IDOCK:   -7.74 KCAL/MOL
REMARK 923 INTER-LIGAND FREE ENERGY PREDICTED BY IDOCK:   -7.98 KCAL/MOL
REMARK 924 INTRA-LIGAND FREE ENERGY PREDICTED BY IDOCK:    0.24 KCAL/MOL
REMARK 927      BINDING AFFINITY PREDICTED BY RF-SCORE:    0.00 PKD
ROOT
HETATM    1  N   UNL     1     -13.785  16.017  73.155  1.00  0.00    -0.530 NA 
HETATM    2  C   UNL     1     -12.878  15.607  72.562  1.00  0.00    -0.435 C  
HETATM    3  C   UNL     1     -11.725  15.142  71.775  1.00  0.00    -0.480 C  
ENDROOT
BRANCH   3   4
HETATM    4  C   UNL     1     -12.151  14.406  70.478  1.00  0.00    -0.334 C  
BRANCH   4   5
HETATM    5  C   UNL     1     -11.844  12.872  70.552  1.00  0.00    -0.152 C  
HETATM    6  C   UNL     1     -11.751  12.145  69.197  1.00  0.00    -0.384 C  
HETATM    7  C   UNL     1     -12.246  10.719  69.404  1.00  0.00    -0.242 C  
HETATM    8  C   UNL     1     -12.933  12.060  71.271  1.00  0.00    -0.315 C  
HETATM    9  C   UNL     1     -12.649  10.624  70.863  1.00  0.00    -0.503 C  
ENDBRANCH   4   5
BRANCH   4  10
HETATM   10  N   UNL     1     -11.626  15.103  69.291  1.00  0.00    -0.304 NA 
HETATM   11  C   UNL     1     -10.721  16.550  67.887  1.00  0.00    -0.337 A  
HETATM   12  C   UNL     1     -10.928  16.269  69.219  1.00  0.00    -0.317 A  
HETATM   13  C   UNL     1     -11.229  15.416  67.230  1.00  0.00    -0.270 A  
HETATM   14  N   UNL     1     -11.744  14.519  68.076  1.00  0.00    -0.337 NA 
BRANCH  11  15
HETATM   15  C   UNL     1     -10.120  17.781  67.437  1.00  0.00    -0.338 A  
HETATM   16  C   UNL     1      -8.855  17.815  66.846  1.00  0.00    -0.260 A  
HETATM   17  C   UNL     1      -7.809  16.901  66.534  1.00  0.00    -0.330 A  
HETATM   18  C   UNL     1      -6.815  17.603  65.883  1.00  0.00    -0.218 A  
HETATM   19  N   UNL     1      -7.223  18.908  65.783  1.00  0.00    -0.423 NA 
HETATM   20  C   UNL     1      -8.458  19.052  66.354  1.00  0.00    -0.306 A  
HETATM   21  H   UNL     1      -6.686  19.659  65.349  1.00  0.00     0.000 HD 
HETATM   22  N   UNL     1      -9.146  20.202  66.394  1.00  0.00    -0.317 NA 
HETATM   23  C   UNL     1     -10.344  20.043  66.979  1.00  0.00    -0.421 A  
HETATM   24  N   UNL     1     -10.868  18.915  67.492  1.00  0.00    -0.428 NA 
ENDBRANCH  11  15
ENDBRANCH   4  10
ENDBRANCH   3   4
TORSDOF 4
ENDMDL
MODEL       89
REMARK 921   NORMALIZED FREE ENERGY PREDICTED BY IDOCK:   -5.93 KCAL/MOL
REMARK 922        TOTAL FREE ENERGY PREDICTED BY IDOCK:   -7.73 KCAL/MOL
REMARK 923 INTER-LIGAND FREE ENERGY PREDICTED BY IDOCK:   -7.13 KCAL/MOL
REMARK 924 INTRA-LIGAND FREE ENERGY PREDICTED BY IDOCK:   -0.60 KCAL/MOL
REMARK 927      BINDING AFFINITY PREDICTED BY RF-SCORE:    0.00 PKD
ROOT
HETATM    1  N   UNL     1     -10.336  16.866  65.562  1.00  0.00    -0.614 NA 
HETATM    2  C   UNL     1     -10.506  16.748  66.702  1.00  0.00    -0.258 C  
HETATM    3  C   UNL     1     -10.669  16.562  68.152  1.00  0.00    -0.343 C  
ENDROOT
BRANCH   3   4
HETATM    4  C   UNL     1     -11.500  15.299  68.498  1.00  0.00    -0.342 C  
BRANCH   4   5
HETATM    5  C   UNL     1     -12.219  15.439  69.883  1.00  0.00    -0.363 C  
HETATM    6  C   UNL     1     -11.439  16.210  70.964  1.00  0.00    -0.424 C  
HETATM    7  C   UNL     1     -11.806  15.609  72.315  1.00  0.00    -0.578 C  
HETATM    8  C   UNL     1     -12.477  14.094  70.581  1.00  0.00    -0.432 C  
HETATM    9  C   UNL     1     -12.773  14.479  72.021  1.00  0.00    -0.410 C  
ENDBRANCH   4   5
BRANCH   4  10
HETATM   10  N   UNL     1     -10.689  14.082  68.323  1.00  0.00    -0.247 NA 
HETATM   11  C   UNL     1      -9.975  12.019  67.976  1.00  0.00    -0.197 A  
HETATM   12  C   UNL     1     -11.075  12.844  67.912  1.00  0.00    -0.252 A  
HETATM   13  C   UNL     1      -8.930  12.894  68.324  1.00  0.00    -0.175 A  
HETATM   14  N   UNL     1      -9.349  14.151  68.498  1.00  0.00    -0.204 NA 
BRANCH  11  15
HETATM   15  C   UNL     1     -10.051  10.600  67.731  1.00  0.00    -0.174 A  
HETATM   16  C   UNL     1     -10.491   9.702  68.705  1.00  0.00    -0.238 A  
HETATM   17  C   UNL     1     -10.915   9.740  70.064  1.00  0.00    -0.319 A  
HETATM   18  C   UNL     1     -11.276   8.460  70.429  1.00  0.00    -0.213 A  
HETATM   19  N   UNL     1     -11.092   7.648  69.341  1.00  0.00    -0.450 NA 
HETATM   20  C   UNL     1     -10.625   8.385  68.288  1.00  0.00    -0.109 A  
HETATM   21  H   UNL     1     -11.275   6.644  69.320  1.00  0.00     0.000 HD 
HETATM   22  N   UNL     1     -10.370   7.888  67.068  1.00  0.00    -0.316 NA 
HETATM   23  C   UNL     1      -9.959   8.845  66.219  1.00  0.00    -0.266 A  
HETATM   24  N   UNL     1      -9.792  10.155  66.472  1.00  0.00    -0.202 NA 
ENDBRANCH  11  15
ENDBRANCH   4  10
ENDBRANCH   3   4
TORSDOF 4
ENDMDL
MODEL       90
REMARK 921   NORMALIZED FREE ENERGY PREDICTED BY IDOCK:   -5.93 KCAL/MOL
REMARK 922        TOTAL FREE ENERGY PREDICTED BY IDOCK:   -7.72 KCAL/MOL
REMARK 923 INTER-LIGAND FREE ENERGY PREDICTED BY IDOCK:   -8.04 KCAL/MOL
REMARK 924 INTRA-LIGAND FREE ENERGY PREDICTED BY IDOCK:    0.32 KCAL/MOL
REMARK 927      BINDING AFFINITY PREDICTED BY RF-SCORE:    0.00 PKD
ROOT
HETATM    1  N   UNL     1     -11.755  13.549  66.593  1.00  0.00    -0.366 NA 
HETATM    2  C   UNL     1     -11.540  13.775  67.709  1.00  0.00    -0.346 C  
HETATM    3  C   UNL     1     -11.256  13.998  69.135  1.00  0.00    -0.308 C  
ENDROOT
BRANCH   3   4
HETATM    4  C   UNL     1     -12.514  13.822  70.025  1.00  0.00    -0.240 C  
BRANCH   4   5
HETATM    5  C   UNL     1     -12.700  15.024  71.012  1.00  0.00    -0.432 C  
HETATM    6  C   UNL     1     -11.655  15.129  72.139  1.00  0.00    -0.490 C  
HETATM    7  C   UNL     1     -12.347  15.728  73.357  1.00  0.00    -0.638 C  
HETATM    8  C   UNL     1     -14.015  14.970  71.807  1.00  0.00    -0.598 C  
HETATM    9  C   UNL     1     -13.792  15.946  72.950  1.00  0.00    -0.530 C  
ENDBRANCH   4   5
BRANCH   4  10
HETATM   10  N   UNL     1     -12.527  12.484  70.643  1.00  0.00    -0.288 NA 
HETATM   11  C   UNL     1     -12.218  10.352  71.133  1.00  0.00    -0.498 A  
HETATM   12  C   UNL     1     -11.805  11.380  70.315  1.00  0.00    -0.350 A  
HETATM   13  C   UNL     1     -13.115  10.977  72.016  1.00  0.00    -0.344 A  
HETATM   14  N   UNL     1     -13.279  12.276  71.749  1.00  0.00    -0.411 NA 
BRANCH  11  15
HETATM   15  C   UNL     1     -11.750   8.997  70.975  1.00  0.00    -0.296 A  
HETATM   16  C   UNL     1     -10.426   8.704  70.644  1.00  0.00    -0.243 A  
HETATM   17  C   UNL     1      -9.231   9.414  70.337  1.00  0.00    -0.305 A  
HETATM   18  C   UNL     1      -8.226   8.488  70.149  1.00  0.00    -0.121 A  
HETATM   19  N   UNL     1      -8.765   7.242  70.337  1.00  0.00    -0.145 NA 
HETATM   20  C   UNL     1     -10.093   7.355  70.645  1.00  0.00    -0.190 A  
HETATM   21  H   UNL     1      -8.254   6.363  70.259  1.00  0.00     0.000 HD 
HETATM   22  N   UNL     1     -10.900   6.319  70.916  1.00  0.00    -0.258 NA 
HETATM   23  C   UNL     1     -12.143   6.725  71.223  1.00  0.00    -0.370 A  
HETATM   24  N   UNL     1     -12.610   7.986  71.274  1.00  0.00    -0.279 NA 
ENDBRANCH  11  15
ENDBRANCH   4  10
ENDBRANCH   3   4
TORSDOF 4
ENDMDL
MODEL       91
REMARK 921   NORMALIZED FREE ENERGY PREDICTED BY IDOCK:   -5.92 KCAL/MOL
REMARK 922        TOTAL FREE ENERGY PREDICTED BY IDOCK:   -7.71 KCAL/MOL
REMARK 923 INTER-LIGAND FREE ENERGY PREDICTED BY IDOCK:   -7.14 KCAL/MOL
REMARK 924 INTRA-LIGAND FREE ENERGY PREDICTED BY IDOCK:   -0.57 KCAL/MOL
REMARK 927      BINDING AFFINITY PREDICTED BY RF-SCORE:    0.00 PKD
ROOT
HETATM    1  N   UNL     1      -8.868   5.474  67.613  1.00  0.00    -0.107 NA 
HETATM    2  C   UNL     1      -9.718   6.101  68.090  1.00  0.00    -0.120 C  
HETATM    3  C   UNL     1     -10.784   6.945  68.653  1.00  0.00    -0.256 C  
ENDROOT
BRANCH   3   4
HETATM    4  C   UNL     1     -10.265   7.890  69.769  1.00  0.00    -0.212 C  
BRANCH   4   5
HETATM    5  C   UNL     1     -10.471   7.273  71.194  1.00  0.00    -0.221 C  
HETATM    6  C   UNL     1      -9.514   6.125  71.567  1.00  0.00    -0.161 C  
HETATM    7  C   UNL     1     -10.271   5.173  72.485  1.00  0.00    -0.242 C  
HETATM    8  C   UNL     1     -11.846   6.611  71.385  1.00  0.00    -0.388 C  
HETATM    9  C   UNL     1     -11.667   5.748  72.624  1.00  0.00    -0.256 C  
ENDBRANCH   4   5
BRANCH   4  10
HETATM   10  N   UNL     1     -10.797   9.251  69.582  1.00  0.00    -0.231 NA 
HETATM   11  C   UNL     1     -11.657  11.267  69.860  1.00  0.00    -0.413 A  
HETATM   12  C   UNL     1     -11.146  10.172  70.520  1.00  0.00    -0.327 A  
HETATM   13  C   UNL     1     -11.454  10.956  68.504  1.00  0.00    -0.310 A  
HETATM   14  N   UNL     1     -10.899   9.753  68.330  1.00  0.00    -0.233 NA 
BRANCH  11  15
HETATM   15  C   UNL     1     -12.245  12.388  70.552  1.00  0.00    -0.295 A  
HETATM   16  C   UNL     1     -12.199  13.684  70.035  1.00  0.00    -0.395 A  
HETATM   17  C   UNL     1     -11.653  14.352  68.902  1.00  0.00    -0.340 A  
HETATM   18  C   UNL     1     -12.032  15.677  68.970  1.00  0.00    -0.304 A  
HETATM   19  N   UNL     1     -12.793  15.836  70.099  1.00  0.00    -0.639 NA 
HETATM   20  C   UNL     1     -12.910  14.639  70.750  1.00  0.00    -0.358 A  
HETATM   21  H   UNL     1     -13.209  16.715  70.407  1.00  0.00     0.000 HD 
HETATM   22  N   UNL     1     -13.617  14.453  71.874  1.00  0.00    -0.369 NA 
HETATM   23  C   UNL     1     -13.590  13.170  72.271  1.00  0.00    -0.581 A  
HETATM   24  N   UNL     1     -12.959  12.138  71.682  1.00  0.00    -0.378 NA 
ENDBRANCH  11  15
ENDBRANCH   4  10
ENDBRANCH   3   4
TORSDOF 4
ENDMDL
MODEL       92
REMARK 921   NORMALIZED FREE ENERGY PREDICTED BY IDOCK:   -5.92 KCAL/MOL
REMARK 922        TOTAL FREE ENERGY PREDICTED BY IDOCK:   -7.71 KCAL/MOL
REMARK 923 INTER-LIGAND FREE ENERGY PREDICTED BY IDOCK:   -6.92 KCAL/MOL
REMARK 924 INTRA-LIGAND FREE ENERGY PREDICTED BY IDOCK:   -0.79 KCAL/MOL
REMARK 927      BINDING AFFINITY PREDICTED BY RF-SCORE:    0.00 PKD
ROOT
HETATM    1  N   UNL     1      -6.127  14.476  67.460  1.00  0.00    -0.346 NA 
HETATM    2  C   UNL     1      -7.007  15.198  67.675  1.00  0.00    -0.182 C  
HETATM    3  C   UNL     1      -8.155  16.067  67.981  1.00  0.00    -0.148 C  
ENDROOT
BRANCH   3   4
HETATM    4  C   UNL     1      -9.276  15.966  66.912  1.00  0.00    -0.226 C  
BRANCH   4   5
HETATM    5  C   UNL     1      -9.859  17.374  66.550  1.00  0.00    -0.310 C  
HETATM    6  C   UNL     1      -8.823  18.443  66.155  1.00  0.00    -0.117 C  
HETATM    7  C   UNL     1      -9.359  19.795  66.610  1.00  0.00    -0.483 C  
HETATM    8  C   UNL     1     -10.588  18.057  67.718  1.00  0.00    -0.409 C  
HETATM    9  C   UNL     1     -10.685  19.512  67.287  1.00  0.00    -0.604 C  
ENDBRANCH   4   5
BRANCH   4  10
HETATM   10  N   UNL     1     -10.267  14.946  67.296  1.00  0.00    -0.240 NA 
HETATM   11  C   UNL     1     -11.389  13.322  68.289  1.00  0.00    -0.335 A  
HETATM   12  C   UNL     1     -10.316  14.175  68.416  1.00  0.00    -0.249 A  
HETATM   13  C   UNL     1     -12.006  13.747  67.099  1.00  0.00    -0.405 A  
HETATM   14  N   UNL     1     -11.354  14.755  66.513  1.00  0.00    -0.351 NA 
BRANCH  11  15
HETATM   15  C   UNL     1     -11.666  12.274  69.240  1.00  0.00    -0.330 A  
HETATM   16  C   UNL     1     -11.107  11.000  69.122  1.00  0.00    -0.301 A  
HETATM   17  C   UNL     1     -10.259  10.296  68.220  1.00  0.00    -0.184 A  
HETATM   18  C   UNL     1     -10.045   9.036  68.738  1.00  0.00    -0.199 A  
HETATM   19  N   UNL     1     -10.727   8.951  69.924  1.00  0.00    -0.228 NA 
HETATM   20  C   UNL     1     -11.367  10.132  70.175  1.00  0.00    -0.303 A  
HETATM   21  H   UNL     1     -10.752   8.129  70.529  1.00  0.00     0.000 HD 
HETATM   22  N   UNL     1     -12.098  10.381  71.272  1.00  0.00    -0.370 NA 
HETATM   23  C   UNL     1     -12.578  11.636  71.274  1.00  0.00    -0.320 A  
HETATM   24  N   UNL     1     -12.404  12.587  70.338  1.00  0.00    -0.279 NA 
ENDBRANCH  11  15
ENDBRANCH   4  10
ENDBRANCH   3   4
TORSDOF 4
ENDMDL
MODEL       93
REMARK 921   NORMALIZED FREE ENERGY PREDICTED BY IDOCK:   -5.91 KCAL/MOL
REMARK 922        TOTAL FREE ENERGY PREDICTED BY IDOCK:   -7.70 KCAL/MOL
REMARK 923 INTER-LIGAND FREE ENERGY PREDICTED BY IDOCK:   -6.90 KCAL/MOL
REMARK 924 INTRA-LIGAND FREE ENERGY PREDICTED BY IDOCK:   -0.80 KCAL/MOL
REMARK 927      BINDING AFFINITY PREDICTED BY RF-SCORE:    0.00 PKD
ROOT
HETATM    1  N   UNL     1      -8.658   5.777  69.184  1.00  0.00    -0.110 NA 
HETATM    2  C   UNL     1      -9.683   6.287  69.365  1.00  0.00    -0.141 C  
HETATM    3  C   UNL     1     -10.985   6.952  69.532  1.00  0.00    -0.289 C  
ENDROOT
BRANCH   3   4
HETATM    4  C   UNL     1     -10.840   8.450  69.910  1.00  0.00    -0.207 C  
BRANCH   4   5
HETATM    5  C   UNL     1     -12.173   9.033  70.490  1.00  0.00     0.098 C  
HETATM    6  C   UNL     1     -12.180  10.552  70.747  1.00  0.00    -0.468 C  
HETATM    7  C   UNL     1     -13.082  10.814  71.947  1.00  0.00    -0.557 C  
HETATM    8  C   UNL     1     -12.536   8.479  71.877  1.00  0.00    -0.402 C  
HETATM    9  C   UNL     1     -13.576   9.455  72.402  1.00  0.00    -0.498 C  
ENDBRANCH   4   5
BRANCH   4  10
HETATM   10  N   UNL     1     -10.245   9.210  68.798  1.00  0.00    -0.204 NA 
HETATM   11  C   UNL     1      -9.758  10.097  66.833  1.00  0.00    -0.233 A  
HETATM   12  C   UNL     1     -10.691   9.354  67.520  1.00  0.00    -0.222 A  
HETATM   13  C   UNL     1      -8.834  10.465  67.828  1.00  0.00    -0.128 A  
HETATM   14  N   UNL     1      -9.144   9.963  69.028  1.00  0.00    -0.154 NA 
BRANCH  11  15
HETATM   15  C   UNL     1      -9.846  10.337  65.414  1.00  0.00    -0.296 A  
HETATM   16  C   UNL     1     -10.707  11.296  64.877  1.00  0.00    -0.337 A  
HETATM   17  C   UNL     1     -11.686  12.218  65.344  1.00  0.00    -0.424 A  
HETATM   18  C   UNL     1     -12.145  12.933  64.258  1.00  0.00    -0.419 A  
HETATM   19  N   UNL     1     -11.476  12.484  63.150  1.00  0.00    -0.753 NA 
HETATM   20  C   UNL     1     -10.597  11.499  63.508  1.00  0.00    -0.423 A  
HETATM   21  H   UNL     1     -11.613  12.831  62.200  1.00  0.00     0.000 HD 
HETATM   22  N   UNL     1      -9.771  10.873  62.657  1.00  0.00    -0.253 NA 
HETATM   23  C   UNL     1      -8.992   9.980  63.288  1.00  0.00    -0.258 A  
HETATM   24  N   UNL     1      -8.976   9.681  64.600  1.00  0.00    -0.220 NA 
ENDBRANCH  11  15
ENDBRANCH   4  10
ENDBRANCH   3   4
TORSDOF 4
ENDMDL
MODEL       94
REMARK 921   NORMALIZED FREE ENERGY PREDICTED BY IDOCK:   -5.91 KCAL/MOL
REMARK 922        TOTAL FREE ENERGY PREDICTED BY IDOCK:   -7.69 KCAL/MOL
REMARK 923 INTER-LIGAND FREE ENERGY PREDICTED BY IDOCK:   -7.38 KCAL/MOL
REMARK 924 INTRA-LIGAND FREE ENERGY PREDICTED BY IDOCK:   -0.32 KCAL/MOL
REMARK 927      BINDING AFFINITY PREDICTED BY RF-SCORE:    0.00 PKD
ROOT
HETATM    1  N   UNL     1     -12.992  12.814  64.258  1.00  0.00    -0.720 NA 
HETATM    2  C   UNL     1     -12.039  12.155  64.288  1.00  0.00    -0.375 C  
HETATM    3  C   UNL     1     -10.858  11.281  64.369  1.00  0.00    -0.373 C  
ENDROOT
BRANCH   3   4
HETATM    4  C   UNL     1      -9.895  11.690  65.514  1.00  0.00    -0.234 C  
BRANCH   4   5
HETATM    5  C   UNL     1      -8.752  10.638  65.715  1.00  0.00    -0.192 C  
HETATM    6  C   UNL     1      -9.152   9.168  65.481  1.00  0.00    -0.275 C  
HETATM    7  C   UNL     1      -8.314   8.307  66.419  1.00  0.00    -0.117 C  
HETATM    8  C   UNL     1      -8.204  10.590  67.150  1.00  0.00    -0.123 C  
HETATM    9  C   UNL     1      -7.452   9.271  67.212  1.00  0.00    -0.091 C  
ENDBRANCH   4   5
BRANCH   4  10
HETATM   10  N   UNL     1     -10.653  12.044  66.727  1.00  0.00    -0.221 NA 
HETATM   11  C   UNL     1     -11.504  13.055  68.498  1.00  0.00    -0.340 A  
HETATM   12  C   UNL     1     -10.727  13.237  67.376  1.00  0.00    -0.258 A  
HETATM   13  C   UNL     1     -11.961  11.732  68.369  1.00  0.00    -0.183 A  
HETATM   14  N   UNL     1     -11.481  11.126  67.278  1.00  0.00    -0.501 NA 
BRANCH  11  15
HETATM   15  C   UNL     1     -11.690  14.085  69.490  1.00  0.00    -0.313 A  
HETATM   16  C   UNL     1     -12.391  13.853  70.676  1.00  0.00    -0.451 A  
HETATM   17  C   UNL     1     -13.108  12.787  71.289  1.00  0.00    -0.245 A  
HETATM   18  C   UNL     1     -13.524  13.218  72.531  1.00  0.00    -0.516 A  
HETATM   19  N   UNL     1     -13.080  14.504  72.697  1.00  0.00    -0.434 NA 
HETATM   20  C   UNL     1     -12.386  14.900  71.588  1.00  0.00    -0.340 A  
HETATM   21  H   UNL     1     -13.243  15.079  73.524  1.00  0.00     0.000 HD 
HETATM   22  N   UNL     1     -11.798  16.098  71.448  1.00  0.00    -0.451 NA 
HETATM   23  C   UNL     1     -11.155  16.200  70.274  1.00  0.00    -0.369 A  
HETATM   24  N   UNL     1     -11.062  15.276  69.301  1.00  0.00    -0.257 NA 
ENDBRANCH  11  15
ENDBRANCH   4  10
ENDBRANCH   3   4
TORSDOF 4
ENDMDL
MODEL       95
REMARK 921   NORMALIZED FREE ENERGY PREDICTED BY IDOCK:   -5.90 KCAL/MOL
REMARK 922        TOTAL FREE ENERGY PREDICTED BY IDOCK:   -7.69 KCAL/MOL
REMARK 923 INTER-LIGAND FREE ENERGY PREDICTED BY IDOCK:   -7.42 KCAL/MOL
REMARK 924 INTRA-LIGAND FREE ENERGY PREDICTED BY IDOCK:   -0.27 KCAL/MOL
REMARK 927      BINDING AFFINITY PREDICTED BY RF-SCORE:    0.00 PKD
ROOT
HETATM    1  N   UNL     1     -11.938  15.918  64.049  1.00  0.00    -0.704 NA 
HETATM    2  C   UNL     1     -11.227  15.603  64.909  1.00  0.00    -0.369 C  
HETATM    3  C   UNL     1     -10.374  15.170  66.027  1.00  0.00    -0.326 C  
ENDROOT
BRANCH   3   4
HETATM    4  C   UNL     1     -10.456  16.131  67.242  1.00  0.00    -0.309 C  
BRANCH   4   5
HETATM    5  C   UNL     1      -9.080  16.823  67.529  1.00  0.00    -0.211 C  
HETATM    6  C   UNL     1      -8.187  17.065  66.297  1.00  0.00    -0.322 C  
HETATM    7  C   UNL     1      -6.736  16.957  66.750  1.00  0.00    -0.262 C  
HETATM    8  C   UNL     1      -8.152  15.996  68.432  1.00  0.00    -0.159 C  
HETATM    9  C   UNL     1      -6.785  16.629  68.230  1.00  0.00    -0.143 C  
ENDBRANCH   4   5
BRANCH   4  10
HETATM   10  N   UNL     1     -11.081  15.458  68.393  1.00  0.00    -0.285 NA 
HETATM   11  C   UNL     1     -11.889  13.984  69.828  1.00  0.00    -0.385 A  
HETATM   12  C   UNL     1     -11.136  14.130  68.685  1.00  0.00    -0.262 A  
HETATM   13  C   UNL     1     -12.141  15.309  70.225  1.00  0.00    -0.350 A  
HETATM   14  N   UNL     1     -11.622  16.207  69.381  1.00  0.00    -0.300 NA 
BRANCH  11  15
HETATM   15  C   UNL     1     -12.260  12.695  70.356  1.00  0.00    -0.288 A  
HETATM   16  C   UNL     1     -11.769  11.504  69.817  1.00  0.00    -0.426 A  
HETATM   17  C   UNL     1     -10.929  11.098  68.741  1.00  0.00    -0.268 A  
HETATM   18  C   UNL     1     -10.806   9.725  68.797  1.00  0.00    -0.188 A  
HETATM   19  N   UNL     1     -11.535   9.284  69.870  1.00  0.00    -0.437 NA 
HETATM   20  C   UNL     1     -12.118  10.348  70.502  1.00  0.00    -0.332 A  
HETATM   21  H   UNL     1     -11.630   8.309  70.155  1.00  0.00     0.000 HD 
HETATM   22  N   UNL     1     -12.874  10.254  71.606  1.00  0.00    -0.427 NA 
HETATM   23  C   UNL     1     -13.282  11.460  72.032  1.00  0.00    -0.327 A  
HETATM   24  N   UNL     1     -13.020  12.661  71.483  1.00  0.00    -0.344 NA 
ENDBRANCH  11  15
ENDBRANCH   4  10
ENDBRANCH   3   4
TORSDOF 4
ENDMDL
MODEL       96
REMARK 921   NORMALIZED FREE ENERGY PREDICTED BY IDOCK:   -5.90 KCAL/MOL
REMARK 922        TOTAL FREE ENERGY PREDICTED BY IDOCK:   -7.68 KCAL/MOL
REMARK 923 INTER-LIGAND FREE ENERGY PREDICTED BY IDOCK:   -7.57 KCAL/MOL
REMARK 924 INTRA-LIGAND FREE ENERGY PREDICTED BY IDOCK:   -0.12 KCAL/MOL
REMARK 927      BINDING AFFINITY PREDICTED BY RF-SCORE:    0.00 PKD
ROOT
HETATM    1  N   UNL     1     -10.788  19.222  65.422  1.00  0.00    -0.469 NA 
HETATM    2  C   UNL     1     -10.308  19.523  66.434  1.00  0.00    -0.496 C  
HETATM    3  C   UNL     1      -9.644  19.918  67.686  1.00  0.00    -0.493 C  
ENDROOT
BRANCH   3   4
HETATM    4  C   UNL     1      -8.922  18.729  68.373  1.00  0.00    -0.335 C  
BRANCH   4   5
HETATM    5  C   UNL     1      -7.490  18.499  67.780  1.00  0.00    -0.240 C  
HETATM    6  C   UNL     1      -6.360  19.320  68.430  1.00  0.00    -0.259 C  
HETATM    7  C   UNL     1      -5.326  19.618  67.351  1.00  0.00    -0.161 C  
HETATM    8  C   UNL     1      -7.364  18.904  66.303  1.00  0.00    -0.278 C  
HETATM    9  C   UNL     1      -5.863  18.997  66.076  1.00  0.00    -0.186 C  
ENDBRANCH   4   5
BRANCH   4  10
HETATM   10  N   UNL     1      -9.794  17.543  68.407  1.00  0.00    -0.307 NA 
HETATM   11  C   UNL     1     -10.856  15.656  67.965  1.00  0.00    -0.308 A  
HETATM   12  C   UNL     1      -9.820  16.471  67.570  1.00  0.00    -0.248 A  
HETATM   13  C   UNL     1     -11.323  16.268  69.142  1.00  0.00    -0.291 A  
HETATM   14  N   UNL     1     -10.660  17.390  69.437  1.00  0.00    -0.157 NA 
BRANCH  11  15
HETATM   15  C   UNL     1     -11.255  14.487  67.220  1.00  0.00    -0.332 A  
HETATM   16  C   UNL     1     -11.222  13.207  67.777  1.00  0.00    -0.308 A  
HETATM   17  C   UNL     1     -10.836  12.598  69.004  1.00  0.00    -0.192 A  
HETATM   18  C   UNL     1     -11.121  11.251  68.915  1.00  0.00    -0.238 A  
HETATM   19  N   UNL     1     -11.672  11.022  67.681  1.00  0.00    -0.580 NA 
HETATM   20  C   UNL     1     -11.748  12.196  66.983  1.00  0.00    -0.303 A  
HETATM   21  H   UNL     1     -11.979  10.113  67.335  1.00  0.00     0.000 HD 
HETATM   22  N   UNL     1     -12.265  12.315  65.752  1.00  0.00    -0.603 NA 
HETATM   23  C   UNL     1     -12.246  13.589  65.327  1.00  0.00    -0.441 A  
HETATM   24  N   UNL     1     -11.783  14.670  65.980  1.00  0.00    -0.341 NA 
ENDBRANCH  11  15
ENDBRANCH   4  10
ENDBRANCH   3   4
TORSDOF 4
ENDMDL
MODEL       97
REMARK 921   NORMALIZED FREE ENERGY PREDICTED BY IDOCK:   -5.87 KCAL/MOL
REMARK 922        TOTAL FREE ENERGY PREDICTED BY IDOCK:   -7.65 KCAL/MOL
REMARK 923 INTER-LIGAND FREE ENERGY PREDICTED BY IDOCK:   -7.13 KCAL/MOL
REMARK 924 INTRA-LIGAND FREE ENERGY PREDICTED BY IDOCK:   -0.52 KCAL/MOL
REMARK 927      BINDING AFFINITY PREDICTED BY RF-SCORE:    0.00 PKD
ROOT
HETATM    1  N   UNL     1      -8.701   8.866  66.365  1.00  0.00    -0.124 NA 
HETATM    2  C   UNL     1      -8.632  10.022  66.414  1.00  0.00    -0.129 C  
HETATM    3  C   UNL     1      -8.537  11.485  66.541  1.00  0.00    -0.172 C  
ENDROOT
BRANCH   3   4
HETATM    4  C   UNL     1      -9.913  12.148  66.810  1.00  0.00    -0.203 C  
BRANCH   4   5
HETATM    5  C   UNL     1     -10.948  11.816  65.682  1.00  0.00    -0.348 C  
HETATM    6  C   UNL     1     -10.415  11.917  64.239  1.00  0.00    -0.370 C  
HETATM    7  C   UNL     1     -11.571  12.361  63.351  1.00  0.00    -0.541 C  
HETATM    8  C   UNL     1     -12.146  12.778  65.643  1.00  0.00    -0.514 C  
HETATM    9  C   UNL     1     -12.761  12.542  64.273  1.00  0.00    -0.432 C  
ENDBRANCH   4   5
BRANCH   4  10
HETATM   10  N   UNL     1      -9.747  13.578  67.120  1.00  0.00    -0.238 NA 
HETATM   11  C   UNL     1      -9.226  15.725  67.093  1.00  0.00    -0.224 A  
HETATM   12  C   UNL     1      -9.245  14.573  66.340  1.00  0.00    -0.234 A  
HETATM   13  C   UNL     1      -9.862  15.346  68.288  1.00  0.00    -0.213 A  
HETATM   14  N   UNL     1     -10.214  14.057  68.297  1.00  0.00    -0.242 NA 
BRANCH  11  15
HETATM   15  C   UNL     1      -8.636  16.954  66.621  1.00  0.00    -0.247 A  
HETATM   16  C   UNL     1      -9.317  18.172  66.676  1.00  0.00    -0.300 A  
HETATM   17  C   UNL     1     -10.598  18.650  67.073  1.00  0.00    -0.448 A  
HETATM   18  C   UNL     1     -10.605  20.020  66.913  1.00  0.00    -0.327 A  
HETATM   19  N   UNL     1      -9.373  20.391  66.440  1.00  0.00    -0.625 NA 
HETATM   20  C   UNL     1      -8.580  19.287  66.298  1.00  0.00    -0.325 A  
HETATM   21  H   UNL     1      -9.091  21.348  66.225  1.00  0.00     0.000 HD 
HETATM   22  N   UNL     1      -7.305  19.316  65.882  1.00  0.00    -0.319 NA 
HETATM   23  C   UNL     1      -6.758  18.089  65.875  1.00  0.00    -0.288 A  
HETATM   24  N   UNL     1      -7.337  16.925  66.221  1.00  0.00    -0.263 NA 
ENDBRANCH  11  15
ENDBRANCH   4  10
ENDBRANCH   3   4
TORSDOF 4
ENDMDL
MODEL       98
REMARK 921   NORMALIZED FREE ENERGY PREDICTED BY IDOCK:   -5.86 KCAL/MOL
REMARK 922        TOTAL FREE ENERGY PREDICTED BY IDOCK:   -7.64 KCAL/MOL
REMARK 923 INTER-LIGAND FREE ENERGY PREDICTED BY IDOCK:   -7.24 KCAL/MOL
REMARK 924 INTRA-LIGAND FREE ENERGY PREDICTED BY IDOCK:   -0.40 KCAL/MOL
REMARK 927      BINDING AFFINITY PREDICTED BY RF-SCORE:    0.00 PKD
ROOT
HETATM    1  N   UNL     1      -9.807   4.912  65.929  1.00  0.00    -0.184 NA 
HETATM    2  C   UNL     1     -10.314   5.781  66.504  1.00  0.00    -0.209 C  
HETATM    3  C   UNL     1     -10.939   6.924  67.187  1.00  0.00    -0.427 C  
ENDROOT
BRANCH   3   4
HETATM    4  C   UNL     1      -9.957   7.653  68.142  1.00  0.00    -0.175 C  
BRANCH   4   5
HETATM    5  C   UNL     1     -10.307   7.390  69.646  1.00  0.00    -0.226 C  
HETATM    6  C   UNL     1     -11.403   6.338  69.900  1.00  0.00    -0.504 C  
HETATM    7  C   UNL     1     -12.154   6.749  71.161  1.00  0.00    -0.422 C  
HETATM    8  C   UNL     1     -10.879   8.621  70.368  1.00  0.00    -0.250 C  
HETATM    9  C   UNL     1     -11.517   8.045  71.622  1.00  0.00    -0.310 C  
ENDBRANCH   4   5
BRANCH   4  10
HETATM   10  N   UNL     1      -9.818   9.069  67.759  1.00  0.00    -0.160 NA 
HETATM   11  C   UNL     1     -10.171  11.169  67.171  1.00  0.00    -0.235 A  
HETATM   12  C   UNL     1     -10.782  10.016  67.608  1.00  0.00    -0.284 A  
HETATM   13  C   UNL     1      -8.802  10.849  67.209  1.00  0.00    -0.134 A  
HETATM   14  N   UNL     1      -8.579   9.591  67.601  1.00  0.00    -0.122 NA 
BRANCH  11  15
HETATM   15  C   UNL     1     -10.912  12.345  66.785  1.00  0.00    -0.263 A  
HETATM   16  C   UNL     1     -11.386  12.528  65.485  1.00  0.00    -0.368 A  
HETATM   17  C   UNL     1     -11.337  11.847  64.235  1.00  0.00    -0.425 A  
HETATM   18  C   UNL     1     -12.084  12.571  63.330  1.00  0.00    -0.529 A  
HETATM   19  N   UNL     1     -12.590  13.663  63.985  1.00  0.00    -0.686 NA 
HETATM   20  C   UNL     1     -12.185  13.648  65.291  1.00  0.00    -0.439 A  
HETATM   21  H   UNL     1     -13.181  14.379  63.563  1.00  0.00     0.000 HD 
HETATM   22  N   UNL     1     -12.534  14.565  66.205  1.00  0.00    -0.232 NA 
HETATM   23  C   UNL     1     -12.024  14.280  67.414  1.00  0.00    -0.391 A  
HETATM   24  N   UNL     1     -11.248  13.235  67.757  1.00  0.00    -0.267 NA 
ENDBRANCH  11  15
ENDBRANCH   4  10
ENDBRANCH   3   4
TORSDOF 4
ENDMDL
MODEL       99
REMARK 921   NORMALIZED FREE ENERGY PREDICTED BY IDOCK:   -5.83 KCAL/MOL
REMARK 922        TOTAL FREE ENERGY PREDICTED BY IDOCK:   -7.60 KCAL/MOL
REMARK 923 INTER-LIGAND FREE ENERGY PREDICTED BY IDOCK:   -7.20 KCAL/MOL
REMARK 924 INTRA-LIGAND FREE ENERGY PREDICTED BY IDOCK:   -0.41 KCAL/MOL
REMARK 927      BINDING AFFINITY PREDICTED BY RF-SCORE:    0.00 PKD
ROOT
HETATM    1  N   UNL     1      -9.891   7.770  73.521  1.00  0.00    -0.288 NA 
HETATM    2  C   UNL     1     -10.356   6.969  72.825  1.00  0.00    -0.222 C  
HETATM    3  C   UNL     1     -10.890   5.950  71.907  1.00  0.00    -0.307 C  
ENDROOT
BRANCH   3   4
HETATM    4  C   UNL     1     -11.569   6.575  70.659  1.00  0.00    -0.381 C  
BRANCH   4   5
HETATM    5  C   UNL     1     -10.572   6.696  69.457  1.00  0.00    -0.281 C  
HETATM    6  C   UNL     1     -11.160   6.375  68.070  1.00  0.00    -0.365 C  
HETATM    7  C   UNL     1     -10.047   5.767  67.225  1.00  0.00    -0.208 C  
HETATM    8  C   UNL     1      -9.393   5.713  69.534  1.00  0.00    -0.165 C  
HETATM    9  C   UNL     1      -8.826   5.710  68.123  1.00  0.00    -0.108 C  
ENDBRANCH   4   5
BRANCH   4  10
HETATM   10  N   UNL     1     -12.281   7.812  71.022  1.00  0.00    -0.261 NA 
HETATM   11  C   UNL     1     -12.895   9.910  71.343  1.00  0.00    -0.505 A  
HETATM   12  C   UNL     1     -11.968   9.102  70.724  1.00  0.00    -0.191 A  
HETATM   13  C   UNL     1     -13.810   8.997  71.895  1.00  0.00    -0.423 A  
HETATM   14  N   UNL     1     -13.465   7.725  71.671  1.00  0.00    -0.356 NA 
BRANCH  11  15
HETATM   15  C   UNL     1     -12.794  11.349  71.345  1.00  0.00    -0.397 A  
HETATM   16  C   UNL     1     -12.293  12.058  70.251  1.00  0.00    -0.275 A  
HETATM   17  C   UNL     1     -11.743  11.774  68.969  1.00  0.00    -0.390 A  
HETATM   18  C   UNL     1     -11.491  12.976  68.342  1.00  0.00    -0.310 A  
HETATM   19  N   UNL     1     -11.873  13.979  69.194  1.00  0.00    -0.329 NA 
HETATM   20  C   UNL     1     -12.368  13.441  70.350  1.00  0.00    -0.312 A  
HETATM   21  H   UNL     1     -11.800  14.978  68.996  1.00  0.00     0.000 HD 
HETATM   22  N   UNL     1     -12.853  14.158  71.374  1.00  0.00    -0.337 NA 
HETATM   23  C   UNL     1     -13.306  13.369  72.361  1.00  0.00    -0.528 A  
HETATM   24  N   UNL     1     -13.311  12.024  72.406  1.00  0.00    -0.258 NA 
ENDBRANCH  11  15
ENDBRANCH   4  10
ENDBRANCH   3   4
TORSDOF 4
ENDMDL
MODEL      100
REMARK 921   NORMALIZED FREE ENERGY PREDICTED BY IDOCK:   -5.83 KCAL/MOL
REMARK 922        TOTAL FREE ENERGY PREDICTED BY IDOCK:   -7.60 KCAL/MOL
REMARK 923 INTER-LIGAND FREE ENERGY PREDICTED BY IDOCK:   -7.02 KCAL/MOL
REMARK 924 INTRA-LIGAND FREE ENERGY PREDICTED BY IDOCK:   -0.58 KCAL/MOL
REMARK 927      BINDING AFFINITY PREDICTED BY RF-SCORE:    0.00 PKD
ROOT
HETATM    1  N   UNL     1     -10.638  16.314  69.014  1.00  0.00    -0.264 NA 
HETATM    2  C   UNL     1     -11.075  15.578  68.232  1.00  0.00    -0.322 C  
HETATM    3  C   UNL     1     -11.648  14.605  67.289  1.00  0.00    -0.404 C  
ENDROOT
BRANCH   3   4
HETATM    4  C   UNL     1     -10.639  13.493  66.898  1.00  0.00    -0.270 C  
BRANCH   4   5
HETATM    5  C   UNL     1     -10.694  13.172  65.366  1.00  0.00    -0.308 C  
HETATM    6  C   UNL     1     -12.106  13.052  64.761  1.00  0.00    -0.465 C  
HETATM    7  C   UNL     1     -12.040  12.028  63.635  1.00  0.00    -0.627 C  
HETATM    8  C   UNL     1     -10.078  11.813  64.999  1.00  0.00    -0.302 C  
HETATM    9  C   UNL     1     -10.606  11.536  63.601  1.00  0.00    -0.491 C  
ENDBRANCH   4   5
BRANCH   4  10
HETATM   10  N   UNL     1     -10.772  12.334  67.796  1.00  0.00    -0.211 NA 
HETATM   11  C   UNL     1     -10.418  10.659  69.194  1.00  0.00    -0.245 A  
HETATM   12  C   UNL     1      -9.840  11.761  68.603  1.00  0.00    -0.144 A  
HETATM   13  C   UNL     1     -11.756  10.725  68.769  1.00  0.00    -0.245 A  
HETATM   14  N   UNL     1     -11.987  11.758  67.953  1.00  0.00    -0.597 NA 
BRANCH  11  15
HETATM   15  C   UNL     1      -9.674   9.739  70.018  1.00  0.00    -0.250 A  
HETATM   16  C   UNL     1     -10.273   9.030  71.062  1.00  0.00    -0.347 A  
HETATM   17  C   UNL     1     -11.552   8.938  71.681  1.00  0.00    -0.408 A  
HETATM   18  C   UNL     1     -11.477   7.972  72.662  1.00  0.00    -0.402 A  
HETATM   19  N   UNL     1     -10.202   7.469  72.657  1.00  0.00    -0.223 NA 
HETATM   20  C   UNL     1      -9.463   8.093  71.691  1.00  0.00    -0.177 A  
HETATM   21  H   UNL     1      -9.856   6.740  73.281  1.00  0.00     0.000 HD 
HETATM   22  N   UNL     1      -8.183   7.808  71.412  1.00  0.00    -0.097 NA 
HETATM   23  C   UNL     1      -7.720   8.548  70.391  1.00  0.00    -0.080 A  
HETATM   24  N   UNL     1      -8.382   9.480  69.682  1.00  0.00    -0.135 NA 
ENDBRANCH  11  15
ENDBRANCH   4  10
ENDBRANCH   3   4
TORSDOF 4
ENDMDL
MODEL      101
REMARK 921   NORMALIZED FREE ENERGY PREDICTED BY IDOCK:   -5.82 KCAL/MOL
REMARK 922        TOTAL FREE ENERGY PREDICTED BY IDOCK:   -7.59 KCAL/MOL
REMARK 923 INTER-LIGAND FREE ENERGY PREDICTED BY IDOCK:   -7.17 KCAL/MOL
REMARK 924 INTRA-LIGAND FREE ENERGY PREDICTED BY IDOCK:   -0.42 KCAL/MOL
REMARK 927      BINDING AFFINITY PREDICTED BY RF-SCORE:    0.00 PKD
ROOT
HETATM    1  N   UNL     1     -11.031  19.704  65.346  1.00  0.00    -0.339 NA 
HETATM    2  C   UNL     1     -10.468  19.838  66.351  1.00  0.00    -0.507 C  
HETATM    3  C   UNL     1      -9.724  20.058  67.600  1.00  0.00    -0.535 C  
ENDROOT
BRANCH   3   4
HETATM    4  C   UNL     1      -8.343  19.350  67.601  1.00  0.00    -0.299 C  
BRANCH   4   5
HETATM    5  C   UNL     1      -7.651  19.425  66.198  1.00  0.00    -0.308 C  
HETATM    6  C   UNL     1      -6.683  18.273  65.870  1.00  0.00    -0.315 C  
HETATM    7  C   UNL     1      -5.579  18.836  64.983  1.00  0.00    -0.266 C  
HETATM    8  C   UNL     1      -6.746  20.656  66.024  1.00  0.00    -0.243 C  
HETATM    9  C   UNL     1      -5.888  20.311  64.818  1.00  0.00    -0.270 C  
ENDBRANCH   4   5
BRANCH   4  10
HETATM   10  N   UNL     1      -8.454  18.001  68.184  1.00  0.00    -0.262 NA 
HETATM   11  C   UNL     1      -9.148  16.018  68.868  1.00  0.00    -0.235 A  
HETATM   12  C   UNL     1      -9.480  17.111  68.099  1.00  0.00    -0.269 A  
HETATM   13  C   UNL     1      -7.833  16.293  69.279  1.00  0.00    -0.179 A  
HETATM   14  N   UNL     1      -7.392  17.476  68.837  1.00  0.00    -0.260 NA 
BRANCH  11  15
HETATM   15  C   UNL     1     -10.064  14.930  69.109  1.00  0.00    -0.226 A  
HETATM   16  C   UNL     1     -11.154  15.057  69.973  1.00  0.00    -0.290 A  
HETATM   17  C   UNL     1     -11.708  16.043  70.838  1.00  0.00    -0.438 A  
HETATM   18  C   UNL     1     -12.865  15.525  71.382  1.00  0.00    -0.465 A  
HETATM   19  N   UNL     1     -13.037  14.264  70.873  1.00  0.00    -0.336 NA 
HETATM   20  C   UNL     1     -12.015  13.969  70.013  1.00  0.00    -0.339 A  
HETATM   21  H   UNL     1     -13.811  13.639  71.101  1.00  0.00     0.000 HD 
HETATM   22  N   UNL     1     -11.907  12.821  69.329  1.00  0.00    -0.310 NA 
HETATM   23  C   UNL     1     -10.827  12.818  68.531  1.00  0.00    -0.253 A  
HETATM   24  N   UNL     1      -9.913  13.794  68.378  1.00  0.00    -0.228 NA 
ENDBRANCH  11  15
ENDBRANCH   4  10
ENDBRANCH   3   4
TORSDOF 4
ENDMDL
MODEL      102
REMARK 921   NORMALIZED FREE ENERGY PREDICTED BY IDOCK:   -5.81 KCAL/MOL
REMARK 922        TOTAL FREE ENERGY PREDICTED BY IDOCK:   -7.58 KCAL/MOL
REMARK 923 INTER-LIGAND FREE ENERGY PREDICTED BY IDOCK:   -6.88 KCAL/MOL
REMARK 924 INTRA-LIGAND FREE ENERGY PREDICTED BY IDOCK:   -0.70 KCAL/MOL
REMARK 927      BINDING AFFINITY PREDICTED BY RF-SCORE:    0.00 PKD
ROOT
HETATM    1  N   UNL     1     -14.299   8.628  71.754  1.00  0.00    -0.413 NA 
HETATM    2  C   UNL     1     -13.252   9.090  71.571  1.00  0.00    -0.334 C  
HETATM    3  C   UNL     1     -11.947   9.708  71.288  1.00  0.00    -0.462 C  
ENDROOT
BRANCH   3   4
HETATM    4  C   UNL     1     -11.090   8.860  70.312  1.00  0.00    -0.228 C  
BRANCH   4   5
HETATM    5  C   UNL     1     -10.093   7.925  71.078  1.00  0.00    -0.212 C  
HETATM    6  C   UNL     1     -10.575   6.479  71.302  1.00  0.00    -0.268 C  
HETATM    7  C   UNL     1      -9.984   5.995  72.621  1.00  0.00    -0.192 C  
HETATM    8  C   UNL     1      -9.798   8.385  72.514  1.00  0.00    -0.359 C  
HETATM    9  C   UNL     1      -9.185   7.160  73.172  1.00  0.00    -0.179 C  
ENDBRANCH   4   5
BRANCH   4  10
HETATM   10  N   UNL     1     -10.489   9.715  69.274  1.00  0.00    -0.208 NA 
HETATM   11  C   UNL     1     -10.077  10.902  67.456  1.00  0.00    -0.214 A  
HETATM   12  C   UNL     1     -11.056  10.224  68.147  1.00  0.00    -0.264 A  
HETATM   13  C   UNL     1      -8.970  10.851  68.321  1.00  0.00    -0.150 A  
HETATM   14  N   UNL     1      -9.224  10.166  69.441  1.00  0.00    -0.209 NA 
BRANCH  11  15
HETATM   15  C   UNL     1     -10.297  11.464  66.146  1.00  0.00    -0.248 A  
HETATM   16  C   UNL     1     -10.172  12.832  65.896  1.00  0.00    -0.300 A  
HETATM   17  C   UNL     1      -9.891  14.019  66.630  1.00  0.00    -0.288 A  
HETATM   18  C   UNL     1      -9.866  15.071  65.737  1.00  0.00    -0.353 A  
HETATM   19  N   UNL     1     -10.115  14.564  64.488  1.00  0.00    -0.586 NA 
HETATM   20  C   UNL     1     -10.294  13.211  64.566  1.00  0.00    -0.368 A  
HETATM   21  H   UNL     1     -10.160  15.114  63.630  1.00  0.00     0.000 HD 
HETATM   22  N   UNL     1     -10.527  12.414  63.512  1.00  0.00    -0.429 NA 
HETATM   23  C   UNL     1     -10.624  11.125  63.876  1.00  0.00    -0.364 A  
HETATM   24  N   UNL     1     -10.519  10.607  65.113  1.00  0.00    -0.250 NA 
ENDBRANCH  11  15
ENDBRANCH   4  10
ENDBRANCH   3   4
TORSDOF 4
ENDMDL
MODEL      103
REMARK 921   NORMALIZED FREE ENERGY PREDICTED BY IDOCK:   -5.80 KCAL/MOL
REMARK 922        TOTAL FREE ENERGY PREDICTED BY IDOCK:   -7.56 KCAL/MOL
REMARK 923 INTER-LIGAND FREE ENERGY PREDICTED BY IDOCK:   -7.44 KCAL/MOL
REMARK 924 INTRA-LIGAND FREE ENERGY PREDICTED BY IDOCK:   -0.13 KCAL/MOL
REMARK 927      BINDING AFFINITY PREDICTED BY RF-SCORE:    0.00 PKD
ROOT
HETATM    1  N   UNL     1      -9.079  15.044  69.207  1.00  0.00    -0.190 NA 
HETATM    2  C   UNL     1     -10.204  15.320  69.245  1.00  0.00    -0.250 C  
HETATM    3  C   UNL     1     -11.625  15.685  69.355  1.00  0.00    -0.378 C  
ENDROOT
BRANCH   3   4
HETATM    4  C   UNL     1     -12.508  14.499  69.825  1.00  0.00    -0.215 C  
BRANCH   4   5
HETATM    5  C   UNL     1     -12.759  14.540  71.371  1.00  0.00    -0.407 C  
HETATM    6  C   UNL     1     -13.970  15.375  71.827  1.00  0.00    -0.626 C  
HETATM    7  C   UNL     1     -13.637  15.964  73.193  1.00  0.00    -0.580 C  
HETATM    8  C   UNL     1     -11.613  15.188  72.163  1.00  0.00    -0.490 C  
HETATM    9  C   UNL     1     -12.232  15.496  73.517  1.00  0.00    -0.651 C  
ENDBRANCH   4   5
BRANCH   4  10
HETATM   10  N   UNL     1     -11.986  13.226  69.299  1.00  0.00    -0.317 NA 
HETATM   11  C   UNL     1     -11.108  11.213  69.053  1.00  0.00    -0.299 A  
HETATM   12  C   UNL     1     -11.580  12.118  69.977  1.00  0.00    -0.171 A  
HETATM   13  C   UNL     1     -11.391  11.825  67.820  1.00  0.00    -0.289 A  
HETATM   14  N   UNL     1     -11.957  13.028  67.960  1.00  0.00    -0.337 NA 
BRANCH  11  15
HETATM   15  C   UNL     1     -10.478   9.972  69.432  1.00  0.00    -0.232 A  
HETATM   16  C   UNL     1     -10.923   9.218  70.520  1.00  0.00    -0.318 A  
HETATM   17  C   UNL     1     -11.915   9.312  71.537  1.00  0.00    -0.439 A  
HETATM   18  C   UNL     1     -11.855   8.160  72.293  1.00  0.00    -0.382 A  
HETATM   19  N   UNL     1     -10.867   7.368  71.769  1.00  0.00    -0.222 NA 
HETATM   20  C   UNL     1     -10.299   7.989  70.692  1.00  0.00    -0.202 A  
HETATM   21  H   UNL     1     -10.596   6.452  72.129  1.00  0.00     0.000 HD 
HETATM   22  N   UNL     1      -9.321   7.463  69.940  1.00  0.00    -0.155 NA 
HETATM   23  C   UNL     1      -8.982   8.275  68.926  1.00  0.00    -0.144 A  
HETATM   24  N   UNL     1      -9.499   9.481  68.627  1.00  0.00    -0.141 NA 
ENDBRANCH  11  15
ENDBRANCH   4  10
ENDBRANCH   3   4
TORSDOF 4
ENDMDL
MODEL      104
REMARK 921   NORMALIZED FREE ENERGY PREDICTED BY IDOCK:   -5.77 KCAL/MOL
REMARK 922        TOTAL FREE ENERGY PREDICTED BY IDOCK:   -7.53 KCAL/MOL
REMARK 923 INTER-LIGAND FREE ENERGY PREDICTED BY IDOCK:   -6.95 KCAL/MOL
REMARK 924 INTRA-LIGAND FREE ENERGY PREDICTED BY IDOCK:   -0.58 KCAL/MOL
REMARK 927      BINDING AFFINITY PREDICTED BY RF-SCORE:    0.00 PKD
ROOT
HETATM    1  N   UNL     1      -7.986   7.822  72.978  1.00  0.00    -0.115 NA 
HETATM    2  C   UNL     1      -8.453   7.960  71.926  1.00  0.00    -0.122 C  
HETATM    3  C   UNL     1      -9.056   8.198  70.606  1.00  0.00    -0.156 C  
ENDROOT
BRANCH   3   4
HETATM    4  C   UNL     1     -10.592   7.982  70.609  1.00  0.00    -0.219 C  
BRANCH   4   5
HETATM    5  C   UNL     1     -11.036   6.957  69.511  1.00  0.00    -0.270 C  
HETATM    6  C   UNL     1     -10.297   5.606  69.523  1.00  0.00    -0.345 C  
HETATM    7  C   UNL     1     -10.215   5.111  68.084  1.00  0.00    -0.177 C  
HETATM    8  C   UNL     1     -10.779   7.443  68.075  1.00  0.00    -0.191 C  
HETATM    9  C   UNL     1     -10.879   6.179  67.237  1.00  0.00    -0.438 C  
ENDBRANCH   4   5
BRANCH   4  10
HETATM   10  N   UNL     1     -11.297   9.275  70.593  1.00  0.00    -0.264 NA 
HETATM   11  C   UNL     1     -11.911  11.372  70.261  1.00  0.00    -0.460 A  
HETATM   12  C   UNL     1     -11.009  10.402  69.887  1.00  0.00    -0.305 A  
HETATM   13  C   UNL     1     -12.792  10.687  71.116  1.00  0.00    -0.420 A  
HETATM   14  N   UNL     1     -12.448   9.408  71.292  1.00  0.00    -0.327 NA 
BRANCH  11  15
HETATM   15  C   UNL     1     -11.822  12.736  69.801  1.00  0.00    -0.310 A  
HETATM   16  C   UNL     1     -11.735  13.056  68.445  1.00  0.00    -0.386 A  
HETATM   17  C   UNL     1     -11.662  12.371  67.199  1.00  0.00    -0.415 A  
HETATM   18  C   UNL     1     -11.648  13.318  66.196  1.00  0.00    -0.348 A  
HETATM   19  N   UNL     1     -11.715  14.553  66.788  1.00  0.00    -0.383 NA 
HETATM   20  C   UNL     1     -11.777  14.412  68.146  1.00  0.00    -0.342 A  
HETATM   21  H   UNL     1     -11.719  15.443  66.289  1.00  0.00     0.000 HD 
HETATM   22  N   UNL     1     -11.879  15.432  69.011  1.00  0.00    -0.348 NA 
HETATM   23  C   UNL     1     -11.960  15.000  70.280  1.00  0.00    -0.315 A  
HETATM   24  N   UNL     1     -11.943  13.729  70.722  1.00  0.00    -0.292 NA 
ENDBRANCH  11  15
ENDBRANCH   4  10
ENDBRANCH   3   4
TORSDOF 4
ENDMDL
MODEL      105
REMARK 921   NORMALIZED FREE ENERGY PREDICTED BY IDOCK:   -5.77 KCAL/MOL
REMARK 922        TOTAL FREE ENERGY PREDICTED BY IDOCK:   -7.53 KCAL/MOL
REMARK 923 INTER-LIGAND FREE ENERGY PREDICTED BY IDOCK:   -6.86 KCAL/MOL
REMARK 924 INTRA-LIGAND FREE ENERGY PREDICTED BY IDOCK:   -0.67 KCAL/MOL
REMARK 927      BINDING AFFINITY PREDICTED BY RF-SCORE:    0.00 PKD
ROOT
HETATM    1  N   UNL     1     -10.378  20.054  68.095  1.00  0.00    -0.403 NA 
HETATM    2  C   UNL     1      -9.930  19.359  67.283  1.00  0.00    -0.366 C  
HETATM    3  C   UNL     1      -9.418  18.445  66.251  1.00  0.00    -0.246 C  
ENDROOT
BRANCH   3   4
HETATM    4  C   UNL     1      -8.781  17.165  66.855  1.00  0.00    -0.232 C  
BRANCH   4   5
HETATM    5  C   UNL     1      -7.217  17.198  66.765  1.00  0.00    -0.260 C  
HETATM    6  C   UNL     1      -6.485  17.615  68.055  1.00  0.00    -0.177 C  
HETATM    7  C   UNL     1      -5.212  18.346  67.647  1.00  0.00    -0.155 C  
HETATM    8  C   UNL     1      -6.680  18.223  65.753  1.00  0.00    -0.317 C  
HETATM    9  C   UNL     1      -5.216  18.378  66.131  1.00  0.00    -0.186 C  
ENDBRANCH   4   5
BRANCH   4  10
HETATM   10  N   UNL     1      -9.424  15.959  66.307  1.00  0.00    -0.290 NA 
HETATM   11  C   UNL     1     -10.095  13.895  65.892  1.00  0.00    -0.331 A  
HETATM   12  C   UNL     1      -9.411  14.686  66.787  1.00  0.00    -0.260 A  
HETATM   13  C   UNL     1     -10.595  14.816  64.955  1.00  0.00    -0.429 A  
HETATM   14  N   UNL     1     -10.224  16.073  65.222  1.00  0.00    -0.520 NA 
BRANCH  11  15
HETATM   15  C   UNL     1     -10.170  12.460  66.021  1.00  0.00    -0.245 A  
HETATM   16  C   UNL     1     -10.807  11.846  67.101  1.00  0.00    -0.301 A  
HETATM   17  C   UNL     1     -11.469  12.237  68.300  1.00  0.00    -0.367 A  
HETATM   18  C   UNL     1     -11.931  11.094  68.919  1.00  0.00    -0.298 A  
HETATM   19  N   UNL     1     -11.579  10.025  68.137  1.00  0.00    -0.636 NA 
HETATM   20  C   UNL     1     -10.906  10.463  67.030  1.00  0.00    -0.203 A  
HETATM   21  H   UNL     1     -11.788   9.049  68.349  1.00  0.00     0.000 HD 
HETATM   22  N   UNL     1     -10.451   9.665  66.053  1.00  0.00    -0.085 NA 
HETATM   23  C   UNL     1      -9.863  10.368  65.071  1.00  0.00    -0.319 A  
HETATM   24  N   UNL     1      -9.702  11.701  64.994  1.00  0.00    -0.233 NA 
ENDBRANCH  11  15
ENDBRANCH   4  10
ENDBRANCH   3   4
TORSDOF 4
ENDMDL
MODEL      106
REMARK 921   NORMALIZED FREE ENERGY PREDICTED BY IDOCK:   -5.77 KCAL/MOL
REMARK 922        TOTAL FREE ENERGY PREDICTED BY IDOCK:   -7.53 KCAL/MOL
REMARK 923 INTER-LIGAND FREE ENERGY PREDICTED BY IDOCK:   -6.80 KCAL/MOL
REMARK 924 INTRA-LIGAND FREE ENERGY PREDICTED BY IDOCK:   -0.73 KCAL/MOL
REMARK 927      BINDING AFFINITY PREDICTED BY RF-SCORE:    0.00 PKD
ROOT
HETATM    1  N   UNL     1      -6.415   6.521  68.635  1.00  0.00    -0.047 NA 
HETATM    2  C   UNL     1      -7.561   6.683  68.686  1.00  0.00    -0.101 C  
HETATM    3  C   UNL     1      -9.012   6.930  68.702  1.00  0.00    -0.129 C  
ENDROOT
BRANCH   3   4
HETATM    4  C   UNL     1      -9.400   8.120  69.619  1.00  0.00    -0.159 C  
BRANCH   4   5
HETATM    5  C   UNL     1     -10.581   7.751  70.579  1.00  0.00    -0.226 C  
HETATM    6  C   UNL     1     -10.413   8.200  72.044  1.00  0.00    -0.329 C  
HETATM    7  C   UNL     1     -11.113   7.171  72.925  1.00  0.00    -0.338 C  
HETATM    8  C   UNL     1     -10.796   6.238  70.737  1.00  0.00    -0.339 C  
HETATM    9  C   UNL     1     -11.661   6.118  71.981  1.00  0.00    -0.364 C  
ENDBRANCH   4   5
BRANCH   4  10
HETATM   10  N   UNL     1      -9.585   9.346  68.825  1.00  0.00    -0.152 NA 
HETATM   11  C   UNL     1     -10.127  10.834  67.283  1.00  0.00    -0.233 A  
HETATM   12  C   UNL     1     -10.324   9.537  67.699  1.00  0.00    -0.244 A  
HETATM   13  C   UNL     1      -9.341  11.390  68.308  1.00  0.00    -0.187 A  
HETATM   14  N   UNL     1      -9.040  10.505  69.264  1.00  0.00    -0.177 NA 
BRANCH  11  15
HETATM   15  C   UNL     1     -10.661  11.344  66.044  1.00  0.00    -0.263 A  
HETATM   16  C   UNL     1     -10.175  10.931  64.802  1.00  0.00    -0.398 A  
HETATM   17  C   UNL     1      -9.157  10.073  64.297  1.00  0.00    -0.296 A  
HETATM   18  C   UNL     1      -9.250  10.074  62.921  1.00  0.00    -0.288 A  
HETATM   19  N   UNL     1     -10.290  10.895  62.573  1.00  0.00    -0.652 NA 
HETATM   20  C   UNL     1     -10.866  11.415  63.699  1.00  0.00    -0.384 A  
HETATM   21  H   UNL     1     -10.590  11.089  61.617  1.00  0.00     0.000 HD 
HETATM   22  N   UNL     1     -11.927  12.234  63.699  1.00  0.00    -0.502 NA 
HETATM   23  C   UNL     1     -12.303  12.558  64.947  1.00  0.00    -0.470 A  
HETATM   24  N   UNL     1     -11.745  12.163  66.106  1.00  0.00    -0.522 NA 
ENDBRANCH  11  15
ENDBRANCH   4  10
ENDBRANCH   3   4
TORSDOF 4
ENDMDL
MODEL      107
REMARK 921   NORMALIZED FREE ENERGY PREDICTED BY IDOCK:   -5.73 KCAL/MOL
REMARK 922        TOTAL FREE ENERGY PREDICTED BY IDOCK:   -7.48 KCAL/MOL
REMARK 923 INTER-LIGAND FREE ENERGY PREDICTED BY IDOCK:   -6.81 KCAL/MOL
REMARK 924 INTRA-LIGAND FREE ENERGY PREDICTED BY IDOCK:   -0.67 KCAL/MOL
REMARK 927      BINDING AFFINITY PREDICTED BY RF-SCORE:    0.00 PKD
ROOT
HETATM    1  N   UNL     1      -8.187   7.091  67.405  1.00  0.00    -0.118 NA 
HETATM    2  C   UNL     1      -9.211   7.462  67.801  1.00  0.00    -0.131 C  
HETATM    3  C   UNL     1     -10.510   7.980  68.258  1.00  0.00    -0.210 C  
ENDROOT
BRANCH   3   4
HETATM    4  C   UNL     1     -10.361   9.090  69.332  1.00  0.00    -0.213 C  
BRANCH   4   5
HETATM    5  C   UNL     1     -11.004   8.668  70.696  1.00  0.00    -0.274 C  
HETATM    6  C   UNL     1     -11.618   7.256  70.734  1.00  0.00    -0.334 C  
HETATM    7  C   UNL     1     -12.804   7.294  71.690  1.00  0.00    -0.415 C  
HETATM    8  C   UNL     1     -12.199   9.542  71.110  1.00  0.00    -0.421 C  
HETATM    9  C   UNL     1     -12.896   8.724  72.185  1.00  0.00    -0.456 C  
ENDBRANCH   4   5
BRANCH   4  10
HETATM   10  N   UNL     1     -10.801  10.390  68.797  1.00  0.00    -0.218 NA 
HETATM   11  C   UNL     1     -11.176  12.538  68.436  1.00  0.00    -0.313 A  
HETATM   12  C   UNL     1     -10.448  11.644  69.189  1.00  0.00    -0.064 A  
HETATM   13  C   UNL     1     -11.856  11.717  67.520  1.00  0.00    -0.120 A  
HETATM   14  N   UNL     1     -11.604  10.418  67.708  1.00  0.00    -0.319 NA 
BRANCH  11  15
HETATM   15  C   UNL     1     -11.147  13.960  68.674  1.00  0.00    -0.265 A  
HETATM   16  C   UNL     1     -11.675  14.528  69.836  1.00  0.00    -0.354 A  
HETATM   17  C   UNL     1     -12.358  14.095  71.008  1.00  0.00    -0.438 A  
HETATM   18  C   UNL     1     -12.555  15.198  71.813  1.00  0.00    -0.347 A  
HETATM   19  N   UNL     1     -12.012  16.282  71.175  1.00  0.00    -0.607 NA 
HETATM   20  C   UNL     1     -11.469  15.893  69.982  1.00  0.00    -0.354 A  
HETATM   21  H   UNL     1     -12.013  17.237  71.536  1.00  0.00     0.000 HD 
HETATM   22  N   UNL     1     -10.835  16.715  69.132  1.00  0.00    -0.327 NA 
HETATM   23  C   UNL     1     -10.369  16.056  68.059  1.00  0.00    -0.266 A  
HETATM   24  N   UNL     1     -10.481  14.743  67.784  1.00  0.00    -0.252 NA 
ENDBRANCH  11  15
ENDBRANCH   4  10
ENDBRANCH   3   4
TORSDOF 4
ENDMDL
MODEL      108
REMARK 921   NORMALIZED FREE ENERGY PREDICTED BY IDOCK:   -5.72 KCAL/MOL
REMARK 922        TOTAL FREE ENERGY PREDICTED BY IDOCK:   -7.47 KCAL/MOL
REMARK 923 INTER-LIGAND FREE ENERGY PREDICTED BY IDOCK:   -6.78 KCAL/MOL
REMARK 924 INTRA-LIGAND FREE ENERGY PREDICTED BY IDOCK:   -0.69 KCAL/MOL
REMARK 927      BINDING AFFINITY PREDICTED BY RF-SCORE:    0.00 PKD
ROOT
HETATM    1  N   UNL     1      -7.867   8.562  72.464  1.00  0.00    -0.323 NA 
HETATM    2  C   UNL     1      -8.215   8.411  71.368  1.00  0.00    -0.139 C  
HETATM    3  C   UNL     1      -8.673   8.283  69.976  1.00  0.00    -0.133 C  
ENDROOT
BRANCH   3   4
HETATM    4  C   UNL     1     -10.188   7.964  69.877  1.00  0.00    -0.210 C  
BRANCH   4   5
HETATM    5  C   UNL     1     -10.478   6.847  68.818  1.00  0.00    -0.223 C  
HETATM    6  C   UNL     1     -10.387   5.399  69.335  1.00  0.00    -0.339 C  
HETATM    7  C   UNL     1      -9.899   4.527  68.184  1.00  0.00    -0.152 C  
HETATM    8  C   UNL     1      -9.475   6.829  67.653  1.00  0.00    -0.126 C  
HETATM    9  C   UNL     1      -9.683   5.465  67.013  1.00  0.00    -0.162 C  
ENDBRANCH   4   5
BRANCH   4  10
HETATM   10  N   UNL     1     -10.968   9.204  69.723  1.00  0.00    -0.216 NA 
HETATM   11  C   UNL     1     -11.805  11.134  69.046  1.00  0.00    -0.418 A  
HETATM   12  C   UNL     1     -10.959  10.103  68.703  1.00  0.00    -0.230 A  
HETATM   13  C   UNL     1     -12.380  10.698  70.253  1.00  0.00    -0.325 A  
HETATM   14  N   UNL     1     -11.906   9.512  70.649  1.00  0.00    -0.259 NA 
BRANCH  11  15
HETATM   15  C   UNL     1     -11.941  12.328  68.248  1.00  0.00    -0.200 A  
HETATM   16  C   UNL     1     -11.951  13.603  68.817  1.00  0.00    -0.394 A  
HETATM   17  C   UNL     1     -11.895  14.180  70.117  1.00  0.00    -0.382 A  
HETATM   18  C   UNL     1     -11.894  15.552  69.970  1.00  0.00    -0.359 A  
HETATM   19  N   UNL     1     -11.941  15.827  68.628  1.00  0.00    -0.518 NA 
HETATM   20  C   UNL     1     -11.968  14.660  67.917  1.00  0.00    -0.264 A  
HETATM   21  H   UNL     1     -11.954  16.763  68.221  1.00  0.00     0.000 HD 
HETATM   22  N   UNL     1     -11.987  14.587  66.578  1.00  0.00    -0.378 NA 
HETATM   23  C   UNL     1     -11.971  13.314  66.150  1.00  0.00    -0.418 A  
HETATM   24  N   UNL     1     -11.944  12.194  66.895  1.00  0.00    -0.609 NA 
ENDBRANCH  11  15
ENDBRANCH   4  10
ENDBRANCH   3   4
TORSDOF 4
ENDMDL
MODEL      109
REMARK 921   NORMALIZED FREE ENERGY PREDICTED BY IDOCK:   -5.71 KCAL/MOL
REMARK 922        TOTAL FREE ENERGY PREDICTED BY IDOCK:   -7.45 KCAL/MOL
REMARK 923 INTER-LIGAND FREE ENERGY PREDICTED BY IDOCK:   -6.76 KCAL/MOL
REMARK 924 INTRA-LIGAND FREE ENERGY PREDICTED BY IDOCK:   -0.69 KCAL/MOL
REMARK 927      BINDING AFFINITY PREDICTED BY RF-SCORE:    0.00 PKD
ROOT
HETATM    1  N   UNL     1      -9.731   5.017  66.290  1.00  0.00    -0.167 NA 
HETATM    2  C   UNL     1     -10.259   5.572  67.160  1.00  0.00    -0.218 C  
HETATM    3  C   UNL     1     -10.941   6.324  68.225  1.00  0.00    -0.408 C  
ENDROOT
BRANCH   3   4
HETATM    4  C   UNL     1      -9.982   7.277  68.986  1.00  0.00    -0.177 C  
BRANCH   4   5
HETATM    5  C   UNL     1     -10.380   7.418  70.494  1.00  0.00    -0.220 C  
HETATM    6  C   UNL     1     -11.313   6.322  71.042  1.00  0.00    -0.378 C  
HETATM    7  C   UNL     1     -12.196   6.957  72.109  1.00  0.00    -0.253 C  
HETATM    8  C   UNL     1     -11.179   8.694  70.802  1.00  0.00    -0.298 C  
HETATM    9  C   UNL     1     -11.798   8.419  72.163  1.00  0.00    -0.441 C  
ENDBRANCH   4   5
BRANCH   4  10
HETATM   10  N   UNL     1      -9.818   8.542  68.250  1.00  0.00    -0.163 NA 
HETATM   11  C   UNL     1     -10.033  10.263  66.880  1.00  0.00    -0.259 A  
HETATM   12  C   UNL     1     -10.652   9.125  67.348  1.00  0.00    -0.244 A  
HETATM   13  C   UNL     1      -8.869  10.348  67.663  1.00  0.00    -0.124 A  
HETATM   14  N   UNL     1      -8.751   9.330  68.522  1.00  0.00    -0.128 NA 
BRANCH  11  15
HETATM   15  C   UNL     1     -10.580  11.063  65.812  1.00  0.00    -0.195 A  
HETATM   16  C   UNL     1     -11.349  12.202  66.060  1.00  0.00    -0.410 A  
HETATM   17  C   UNL     1     -11.866  12.905  67.185  1.00  0.00    -0.424 A  
HETATM   18  C   UNL     1     -12.525  14.023  66.718  1.00  0.00    -0.201 A  
HETATM   19  N   UNL     1     -12.421  14.028  65.351  1.00  0.00    -0.478 NA 
HETATM   20  C   UNL     1     -11.706  12.938  64.938  1.00  0.00    -0.348 A  
HETATM   21  H   UNL     1     -12.817  14.739  64.735  1.00  0.00     0.000 HD 
HETATM   22  N   UNL     1     -11.404  12.669  63.659  1.00  0.00    -0.457 NA 
HETATM   23  C   UNL     1     -10.661  11.556  63.548  1.00  0.00    -0.423 A  
HETATM   24  N   UNL     1     -10.231  10.750  64.536  1.00  0.00    -0.350 NA 
ENDBRANCH  11  15
ENDBRANCH   4  10
ENDBRANCH   3   4
TORSDOF 4
ENDMDL
MODEL      110
REMARK 921   NORMALIZED FREE ENERGY PREDICTED BY IDOCK:   -5.71 KCAL/MOL
REMARK 922        TOTAL FREE ENERGY PREDICTED BY IDOCK:   -7.45 KCAL/MOL
REMARK 923 INTER-LIGAND FREE ENERGY PREDICTED BY IDOCK:   -7.01 KCAL/MOL
REMARK 924 INTRA-LIGAND FREE ENERGY PREDICTED BY IDOCK:   -0.44 KCAL/MOL
REMARK 927      BINDING AFFINITY PREDICTED BY RF-SCORE:    0.00 PKD
ROOT
HETATM    1  N   UNL     1     -12.314  12.385  71.218  1.00  0.00    -0.170 NA 
HETATM    2  C   UNL     1     -12.167  13.203  70.410  1.00  0.00    -0.316 C  
HETATM    3  C   UNL     1     -12.042  14.233  69.367  1.00  0.00    -0.361 C  
ENDROOT
BRANCH   3   4
HETATM    4  C   UNL     1     -11.646  13.638  67.990  1.00  0.00    -0.333 C  
BRANCH   4   5
HETATM    5  C   UNL     1     -10.764  12.353  68.146  1.00  0.00    -0.243 C  
HETATM    6  C   UNL     1      -9.564  12.249  67.185  1.00  0.00    -0.200 C  
HETATM    7  C   UNL     1      -9.339  10.771  66.887  1.00  0.00    -0.179 C  
HETATM    8  C   UNL     1     -11.520  11.049  67.848  1.00  0.00    -0.358 C  
HETATM    9  C   UNL     1     -10.416  10.023  67.648  1.00  0.00    -0.297 C  
ENDBRANCH   4   5
BRANCH   4  10
HETATM   10  N   UNL     1     -11.094  14.686  67.113  1.00  0.00    -0.316 NA 
HETATM   11  C   UNL     1      -9.995  16.406  66.266  1.00  0.00    -0.341 A  
HETATM   12  C   UNL     1     -10.108  15.587  67.367  1.00  0.00    -0.246 A  
HETATM   13  C   UNL     1     -10.883  15.831  65.339  1.00  0.00    -0.364 A  
HETATM   14  N   UNL     1     -11.524  14.767  65.832  1.00  0.00    -0.344 NA 
BRANCH  11  15
HETATM   15  C   UNL     1      -9.129  17.558  66.239  1.00  0.00    -0.193 A  
HETATM   16  C   UNL     1      -9.535  18.801  66.729  1.00  0.00    -0.335 A  
HETATM   17  C   UNL     1     -10.704  19.385  67.294  1.00  0.00    -0.603 A  
HETATM   18  C   UNL     1     -10.408  20.691  67.621  1.00  0.00     0.057 A  
HETATM   19  N   UNL     1      -9.100  20.921  67.281  1.00  0.00    -0.556 NA 
HETATM   20  C   UNL     1      -8.556  19.786  66.747  1.00  0.00    -0.327 A  
HETATM   21  H   UNL     1      -8.607  21.806  67.406  1.00  0.00     0.000 HD 
HETATM   22  N   UNL     1      -7.283  19.674  66.340  1.00  0.00    -0.233 NA 
HETATM   23  C   UNL     1      -7.011  18.436  65.895  1.00  0.00    -0.271 A  
HETATM   24  N   UNL     1      -7.845  17.383  65.826  1.00  0.00    -0.481 NA 
ENDBRANCH  11  15
ENDBRANCH   4  10
ENDBRANCH   3   4
TORSDOF 4
ENDMDL
MODEL      111
REMARK 921   NORMALIZED FREE ENERGY PREDICTED BY IDOCK:   -5.69 KCAL/MOL
REMARK 922        TOTAL FREE ENERGY PREDICTED BY IDOCK:   -7.43 KCAL/MOL
REMARK 923 INTER-LIGAND FREE ENERGY PREDICTED BY IDOCK:   -7.64 KCAL/MOL
REMARK 924 INTRA-LIGAND FREE ENERGY PREDICTED BY IDOCK:    0.21 KCAL/MOL
REMARK 927      BINDING AFFINITY PREDICTED BY RF-SCORE:    0.00 PKD
ROOT
HETATM    1  N   UNL     1     -10.840  14.635  66.636  1.00  0.00    -0.306 NA 
HETATM    2  C   UNL     1     -10.880  14.699  67.793  1.00  0.00    -0.267 C  
HETATM    3  C   UNL     1     -10.892  14.729  69.264  1.00  0.00    -0.275 C  
ENDROOT
BRANCH   3   4
HETATM    4  C   UNL     1     -12.026  13.856  69.864  1.00  0.00    -0.341 C  
BRANCH   4   5
HETATM    5  C   UNL     1     -12.377  14.289  71.328  1.00  0.00    -0.439 C  
HETATM    6  C   UNL     1     -13.874  14.521  71.613  1.00  0.00    -0.513 C  
HETATM    7  C   UNL     1     -13.979  15.619  72.664  1.00  0.00    -0.608 C  
HETATM    8  C   UNL     1     -11.767  15.640  71.734  1.00  0.00    -0.535 C  
HETATM    9  C   UNL     1     -12.555  16.041  72.970  1.00  0.00    -0.605 C  
ENDBRANCH   4   5
BRANCH   4  10
HETATM   10  N   UNL     1     -11.731  12.425  69.678  1.00  0.00    -0.313 NA 
HETATM   11  C   UNL     1     -11.122  10.452  68.890  1.00  0.00    -0.296 A  
HETATM   12  C   UNL     1     -11.091  11.807  68.649  1.00  0.00    -0.238 A  
HETATM   13  C   UNL     1     -11.702  10.360  70.168  1.00  0.00    -0.312 A  
HETATM   14  N   UNL     1     -12.038  11.554  70.667  1.00  0.00    -0.373 NA 
BRANCH  11  15
HETATM   15  C   UNL     1     -10.644   9.481  67.937  1.00  0.00    -0.244 A  
HETATM   16  C   UNL     1     -10.337   9.825  66.619  1.00  0.00    -0.276 A  
HETATM   17  C   UNL     1     -10.384  10.981  65.790  1.00  0.00    -0.316 A  
HETATM   18  C   UNL     1      -9.869  10.638  64.558  1.00  0.00    -0.327 A  
HETATM   19  N   UNL     1      -9.506   9.318  64.610  1.00  0.00    -0.409 NA 
HETATM   20  C   UNL     1      -9.775   8.813  65.852  1.00  0.00    -0.141 A  
HETATM   21  H   UNL     1      -9.096   8.791  63.839  1.00  0.00     0.000 HD 
HETATM   22  N   UNL     1      -9.509   7.556  66.235  1.00  0.00    -0.141 NA 
HETATM   23  C   UNL     1      -9.842   7.346  67.518  1.00  0.00    -0.158 A  
HETATM   24  N   UNL     1     -10.382   8.223  68.384  1.00  0.00    -0.209 NA 
ENDBRANCH  11  15
ENDBRANCH   4  10
ENDBRANCH   3   4
TORSDOF 4
ENDMDL
MODEL      112
REMARK 921   NORMALIZED FREE ENERGY PREDICTED BY IDOCK:   -5.68 KCAL/MOL
REMARK 922        TOTAL FREE ENERGY PREDICTED BY IDOCK:   -7.42 KCAL/MOL
REMARK 923 INTER-LIGAND FREE ENERGY PREDICTED BY IDOCK:   -6.74 KCAL/MOL
REMARK 924 INTRA-LIGAND FREE ENERGY PREDICTED BY IDOCK:   -0.68 KCAL/MOL
REMARK 927      BINDING AFFINITY PREDICTED BY RF-SCORE:    0.00 PKD
ROOT
HETATM    1  N   UNL     1     -10.994  19.768  67.500  1.00  0.00    -0.290 NA 
HETATM    2  C   UNL     1      -9.947  19.541  67.943  1.00  0.00    -0.395 C  
HETATM    3  C   UNL     1      -8.594  19.299  68.468  1.00  0.00    -0.400 C  
ENDROOT
BRANCH   3   4
HETATM    4  C   UNL     1      -7.801  18.274  67.614  1.00  0.00    -0.229 C  
BRANCH   4   5
HETATM    5  C   UNL     1      -7.497  18.825  66.180  1.00  0.00    -0.287 C  
HETATM    6  C   UNL     1      -6.332  18.144  65.438  1.00  0.00    -0.187 C  
HETATM    7  C   UNL     1      -5.673  19.193  64.551  1.00  0.00    -0.319 C  
HETATM    8  C   UNL     1      -7.060  20.298  66.167  1.00  0.00    -0.295 C  
HETATM    9  C   UNL     1      -6.433  20.482  64.795  1.00  0.00    -0.337 C  
ENDBRANCH   4   5
BRANCH   4  10
HETATM   10  N   UNL     1      -8.447  16.951  67.664  1.00  0.00    -0.198 NA 
HETATM   11  C   UNL     1      -9.617  15.125  67.238  1.00  0.00    -0.211 A  
HETATM   12  C   UNL     1      -9.150  16.302  66.697  1.00  0.00    -0.248 A  
HETATM   13  C   UNL     1      -9.029  15.096  68.515  1.00  0.00    -0.186 A  
HETATM   14  N   UNL     1      -8.289  16.180  68.765  1.00  0.00    -0.217 NA 
BRANCH  11  15
HETATM   15  C   UNL     1     -10.511  14.243  66.529  1.00  0.00    -0.287 A  
HETATM   16  C   UNL     1     -10.158  12.930  66.211  1.00  0.00    -0.281 A  
HETATM   17  C   UNL     1      -9.029  12.074  66.353  1.00  0.00    -0.161 A  
HETATM   18  C   UNL     1      -9.373  10.836  65.853  1.00  0.00    -0.189 A  
HETATM   19  N   UNL     1     -10.671  10.906  65.418  1.00  0.00    -0.175 NA 
HETATM   20  C   UNL     1     -11.163  12.164  65.635  1.00  0.00    -0.335 A  
HETATM   21  H   UNL     1     -11.191  10.137  64.996  1.00  0.00     0.000 HD 
HETATM   22  N   UNL     1     -12.414  12.549  65.345  1.00  0.00    -0.647 NA 
HETATM   23  C   UNL     1     -12.635  13.825  65.699  1.00  0.00    -0.509 A  
HETATM   24  N   UNL     1     -11.771  14.684  66.271  1.00  0.00    -0.354 NA 
ENDBRANCH  11  15
ENDBRANCH   4  10
ENDBRANCH   3   4
TORSDOF 4
ENDMDL
MODEL      113
REMARK 921   NORMALIZED FREE ENERGY PREDICTED BY IDOCK:   -5.68 KCAL/MOL
REMARK 922        TOTAL FREE ENERGY PREDICTED BY IDOCK:   -7.41 KCAL/MOL
REMARK 923 INTER-LIGAND FREE ENERGY PREDICTED BY IDOCK:   -6.73 KCAL/MOL
REMARK 924 INTRA-LIGAND FREE ENERGY PREDICTED BY IDOCK:   -0.68 KCAL/MOL
REMARK 927      BINDING AFFINITY PREDICTED BY RF-SCORE:    0.00 PKD
ROOT
HETATM    1  N   UNL     1     -10.285   7.369  73.505  1.00  0.00    -0.345 NA 
HETATM    2  C   UNL     1     -10.906   7.935  72.706  1.00  0.00    -0.386 C  
HETATM    3  C   UNL     1     -11.716   8.596  71.671  1.00  0.00    -0.380 C  
ENDROOT
BRANCH   3   4
HETATM    4  C   UNL     1     -10.956   8.741  70.326  1.00  0.00    -0.235 C  
BRANCH   4   5
HETATM    5  C   UNL     1      -9.436   8.396  70.479  1.00  0.00    -0.186 C  
HETATM    6  C   UNL     1      -8.471   9.596  70.419  1.00  0.00    -0.187 C  
HETATM    7  C   UNL     1      -7.169   9.111  69.793  1.00  0.00    -0.062 C  
HETATM    8  C   UNL     1      -8.892   7.500  69.355  1.00  0.00    -0.136 C  
HETATM    9  C   UNL     1      -7.383   7.646  69.467  1.00  0.00    -0.086 C  
ENDBRANCH   4   5
BRANCH   4  10
HETATM   10  N   UNL     1     -11.253  10.042  69.702  1.00  0.00    -0.249 NA 
HETATM   11  C   UNL     1     -11.451  11.755  68.320  1.00  0.00    -0.370 A  
HETATM   12  C   UNL     1     -11.111  10.424  68.404  1.00  0.00    -0.268 A  
HETATM   13  C   UNL     1     -11.910  12.058  69.614  1.00  0.00    -0.333 A  
HETATM   14  N   UNL     1     -11.829  11.015  70.446  1.00  0.00    -0.344 NA 
BRANCH  11  15
HETATM   15  C   UNL     1     -11.295  12.524  67.110  1.00  0.00    -0.324 A  
HETATM   16  C   UNL     1     -10.331  13.527  66.988  1.00  0.00    -0.252 A  
HETATM   17  C   UNL     1      -9.338  14.143  67.801  1.00  0.00    -0.200 A  
HETATM   18  C   UNL     1      -8.671  15.067  67.025  1.00  0.00    -0.237 A  
HETATM   19  N   UNL     1      -9.218  15.030  65.769  1.00  0.00    -0.468 NA 
HETATM   20  C   UNL     1     -10.218  14.098  65.728  1.00  0.00    -0.332 A  
HETATM   21  H   UNL     1      -8.923  15.610  64.983  1.00  0.00     0.000 HD 
HETATM   22  N   UNL     1     -10.933  13.800  64.633  1.00  0.00    -0.386 NA 
HETATM   23  C   UNL     1     -11.821  12.821  64.872  1.00  0.00    -0.379 A  
HETATM   24  N   UNL     1     -12.039  12.169  66.028  1.00  0.00    -0.586 NA 
ENDBRANCH  11  15
ENDBRANCH   4  10
ENDBRANCH   3   4
TORSDOF 4
ENDMDL
MODEL      114
REMARK 921   NORMALIZED FREE ENERGY PREDICTED BY IDOCK:   -5.67 KCAL/MOL
REMARK 922        TOTAL FREE ENERGY PREDICTED BY IDOCK:   -7.41 KCAL/MOL
REMARK 923 INTER-LIGAND FREE ENERGY PREDICTED BY IDOCK:   -6.72 KCAL/MOL
REMARK 924 INTRA-LIGAND FREE ENERGY PREDICTED BY IDOCK:   -0.69 KCAL/MOL
REMARK 927      BINDING AFFINITY PREDICTED BY RF-SCORE:    0.00 PKD
ROOT
HETATM    1  N   UNL     1     -10.391  19.842  68.466  1.00  0.00    -0.424 NA 
HETATM    2  C   UNL     1     -10.367  18.853  67.862  1.00  0.00    -0.404 C  
HETATM    3  C   UNL     1     -10.391  17.580  67.126  1.00  0.00    -0.330 C  
ENDROOT
BRANCH   3   4
HETATM    4  C   UNL     1      -9.655  16.443  67.884  1.00  0.00    -0.228 C  
BRANCH   4   5
HETATM    5  C   UNL     1      -8.259  16.130  67.246  1.00  0.00    -0.203 C  
HETATM    6  C   UNL     1      -7.519  14.911  67.829  1.00  0.00    -0.179 C  
HETATM    7  C   UNL     1      -6.024  15.194  67.744  1.00  0.00    -0.150 C  
HETATM    8  C   UNL     1      -7.225  17.250  67.445  1.00  0.00    -0.183 C  
HETATM    9  C   UNL     1      -5.896  16.579  67.140  1.00  0.00    -0.174 C  
ENDBRANCH   4   5
BRANCH   4  10
HETATM   10  N   UNL     1     -10.544  15.284  68.069  1.00  0.00    -0.255 NA 
HETATM   11  C   UNL     1     -11.677  13.564  68.871  1.00  0.00    -0.379 A  
HETATM   12  C   UNL     1     -10.868  14.624  69.214  1.00  0.00    -0.258 A  
HETATM   13  C   UNL     1     -11.888  13.746  67.493  1.00  0.00    -0.387 A  
HETATM   14  N   UNL     1     -11.236  14.807  67.008  1.00  0.00    -0.338 NA 
BRANCH  11  15
HETATM   15  C   UNL     1     -12.107  12.573  69.826  1.00  0.00    -0.224 A  
HETATM   16  C   UNL     1     -11.705  11.238  69.740  1.00  0.00    -0.422 A  
HETATM   17  C   UNL     1     -10.927  10.422  68.871  1.00  0.00    -0.289 A  
HETATM   18  C   UNL     1     -10.884   9.153  69.410  1.00  0.00    -0.151 A  
HETATM   19  N   UNL     1     -11.603   9.171  70.577  1.00  0.00    -0.390 NA 
HETATM   20  C   UNL     1     -12.100  10.426  70.795  1.00  0.00    -0.364 A  
HETATM   21  H   UNL     1     -11.745   8.368  71.190  1.00  0.00     0.000 HD 
HETATM   22  N   UNL     1     -12.824  10.780  71.867  1.00  0.00    -0.415 NA 
HETATM   23  C   UNL     1     -13.146  12.083  71.840  1.00  0.00    -0.370 A  
HETATM   24  N   UNL     1     -12.830  12.991  70.899  1.00  0.00    -0.202 NA 
ENDBRANCH  11  15
ENDBRANCH   4  10
ENDBRANCH   3   4
TORSDOF 4
ENDMDL
MODEL      115
REMARK 921   NORMALIZED FREE ENERGY PREDICTED BY IDOCK:   -5.67 KCAL/MOL
REMARK 922        TOTAL FREE ENERGY PREDICTED BY IDOCK:   -7.41 KCAL/MOL
REMARK 923 INTER-LIGAND FREE ENERGY PREDICTED BY IDOCK:   -6.81 KCAL/MOL
REMARK 924 INTRA-LIGAND FREE ENERGY PREDICTED BY IDOCK:   -0.60 KCAL/MOL
REMARK 927      BINDING AFFINITY PREDICTED BY RF-SCORE:    0.00 PKD
ROOT
HETATM    1  N   UNL     1     -10.953   5.522  73.157  1.00  0.00    -0.277 NA 
HETATM    2  C   UNL     1     -10.491   6.542  72.858  1.00  0.00    -0.222 C  
HETATM    3  C   UNL     1      -9.964   7.863  72.482  1.00  0.00    -0.312 C  
ENDROOT
BRANCH   3   4
HETATM    4  C   UNL     1     -10.018   8.110  70.951  1.00  0.00    -0.187 C  
BRANCH   4   5
HETATM    5  C   UNL     1      -8.588   8.114  70.313  1.00  0.00    -0.131 C  
HETATM    6  C   UNL     1      -8.403   7.201  69.086  1.00  0.00    -0.129 C  
HETATM    7  C   UNL     1      -6.963   6.701  69.096  1.00  0.00    -0.078 C  
HETATM    8  C   UNL     1      -7.491   7.598  71.258  1.00  0.00    -0.079 C  
HETATM    9  C   UNL     1      -6.322   7.298  70.333  1.00  0.00    -0.035 C  
ENDBRANCH   4   5
BRANCH   4  10
HETATM   10  N   UNL     1     -10.855   9.283  70.645  1.00  0.00    -0.255 NA 
HETATM   11  C   UNL     1     -11.735  11.113  69.774  1.00  0.00    -0.419 A  
HETATM   12  C   UNL     1     -10.793  10.127  69.581  1.00  0.00    -0.263 A  
HETATM   13  C   UNL     1     -12.407  10.700  70.938  1.00  0.00    -0.401 A  
HETATM   14  N   UNL     1     -11.904   9.572  71.450  1.00  0.00    -0.361 NA 
BRANCH  11  15
HETATM   15  C   UNL     1     -11.861  12.251  68.897  1.00  0.00    -0.303 A  
HETATM   16  C   UNL     1     -12.000  13.551  69.387  1.00  0.00    -0.383 A  
HETATM   17  C   UNL     1     -12.106  14.200  70.650  1.00  0.00    -0.421 A  
HETATM   18  C   UNL     1     -12.170  15.558  70.423  1.00  0.00    -0.406 A  
HETATM   19  N   UNL     1     -12.100  15.759  69.069  1.00  0.00    -0.563 NA 
HETATM   20  C   UNL     1     -11.989  14.556  68.429  1.00  0.00    -0.274 A  
HETATM   21  H   UNL     1     -12.127  16.669  68.609  1.00  0.00     0.000 HD 
HETATM   22  N   UNL     1     -11.871  14.411  67.101  1.00  0.00    -0.404 NA 
HETATM   23  C   UNL     1     -11.740  13.121  66.752  1.00  0.00    -0.385 A  
HETATM   24  N   UNL     1     -11.722  12.046  67.560  1.00  0.00    -0.517 NA 
ENDBRANCH  11  15
ENDBRANCH   4  10
ENDBRANCH   3   4
TORSDOF 4
ENDMDL
MODEL      116
REMARK 921   NORMALIZED FREE ENERGY PREDICTED BY IDOCK:   -5.67 KCAL/MOL
REMARK 922        TOTAL FREE ENERGY PREDICTED BY IDOCK:   -7.40 KCAL/MOL
REMARK 923 INTER-LIGAND FREE ENERGY PREDICTED BY IDOCK:   -6.72 KCAL/MOL
REMARK 924 INTRA-LIGAND FREE ENERGY PREDICTED BY IDOCK:   -0.69 KCAL/MOL
REMARK 927      BINDING AFFINITY PREDICTED BY RF-SCORE:    0.00 PKD
ROOT
HETATM    1  N   UNL     1      -6.520  14.001  69.018  1.00  0.00    -0.095 NA 
HETATM    2  C   UNL     1      -7.111  14.988  69.161  1.00  0.00    -0.149 C  
HETATM    3  C   UNL     1      -7.911  16.206  69.360  1.00  0.00    -0.107 C  
ENDROOT
BRANCH   3   4
HETATM    4  C   UNL     1      -8.685  16.622  68.081  1.00  0.00    -0.201 C  
BRANCH   4   5
HETATM    5  C   UNL     1      -9.306  18.053  68.218  1.00  0.00    -0.299 C  
HETATM    6  C   UNL     1     -10.644  18.272  67.486  1.00  0.00    -0.432 C  
HETATM    7  C   UNL     1     -10.692  19.727  67.036  1.00  0.00    -0.542 C  
HETATM    8  C   UNL     1      -8.432  19.163  67.613  1.00  0.00    -0.323 C  
HETATM    9  C   UNL     1      -9.380  20.344  67.480  1.00  0.00    -0.500 C  
ENDBRANCH   4   5
BRANCH   4  10
HETATM   10  N   UNL     1      -9.621  15.559  67.674  1.00  0.00    -0.210 NA 
HETATM   11  C   UNL     1     -10.777  14.038  66.564  1.00  0.00    -0.281 A  
HETATM   12  C   UNL     1      -9.692  14.883  66.496  1.00  0.00    -0.276 A  
HETATM   13  C   UNL     1     -11.228  14.189  67.887  1.00  0.00    -0.279 A  
HETATM   14  N   UNL     1     -10.509  15.081  68.577  1.00  0.00    -0.227 NA 
BRANCH  11  15
HETATM   15  C   UNL     1     -11.227  13.257  65.438  1.00  0.00    -0.287 A  
HETATM   16  C   UNL     1     -10.537  12.125  64.999  1.00  0.00    -0.330 A  
HETATM   17  C   UNL     1      -9.348  11.416  65.332  1.00  0.00    -0.206 A  
HETATM   18  C   UNL     1      -9.272  10.311  64.509  1.00  0.00    -0.250 A  
HETATM   19  N   UNL     1     -10.373  10.321  63.694  1.00  0.00    -0.406 NA 
HETATM   20  C   UNL     1     -11.153  11.406  63.982  1.00  0.00    -0.322 A  
HETATM   21  H   UNL     1     -10.580   9.623  62.979  1.00  0.00     0.000 HD 
HETATM   22  N   UNL     1     -12.317  11.686  63.379  1.00  0.00    -0.373 NA 
HETATM   23  C   UNL     1     -12.886  12.791  63.888  1.00  0.00    -0.066 A  
HETATM   24  N   UNL     1     -12.420  13.580  64.873  1.00  0.00    -0.559 NA 
ENDBRANCH  11  15
ENDBRANCH   4  10
ENDBRANCH   3   4
TORSDOF 4
ENDMDL
MODEL      117
REMARK 921   NORMALIZED FREE ENERGY PREDICTED BY IDOCK:   -5.66 KCAL/MOL
REMARK 922        TOTAL FREE ENERGY PREDICTED BY IDOCK:   -7.39 KCAL/MOL
REMARK 923 INTER-LIGAND FREE ENERGY PREDICTED BY IDOCK:   -6.74 KCAL/MOL
REMARK 924 INTRA-LIGAND FREE ENERGY PREDICTED BY IDOCK:   -0.65 KCAL/MOL
REMARK 927      BINDING AFFINITY PREDICTED BY RF-SCORE:    0.00 PKD
ROOT
HETATM    1  N   UNL     1     -11.787   6.879  71.353  1.00  0.00    -0.310 NA 
HETATM    2  C   UNL     1     -11.176   7.675  70.772  1.00  0.00    -0.268 C  
HETATM    3  C   UNL     1     -10.438   8.730  70.061  1.00  0.00    -0.222 C  
ENDROOT
BRANCH   3   4
HETATM    4  C   UNL     1     -11.068   9.069  68.685  1.00  0.00     0.206 C  
BRANCH   4   5
HETATM    5  C   UNL     1     -10.295   8.383  67.508  1.00  0.00    -0.333 C  
HETATM    6  C   UNL     1     -10.909   7.070  66.984  1.00  0.00    -0.413 C  
HETATM    7  C   UNL     1      -9.764   6.182  66.511  1.00  0.00    -0.184 C  
HETATM    8  C   UNL     1      -8.873   7.937  67.883  1.00  0.00    -0.123 C  
HETATM    9  C   UNL     1      -8.492   6.961  66.782  1.00  0.00    -0.118 C  
ENDBRANCH   4   5
BRANCH   4  10
HETATM   10  N   UNL     1     -11.269  10.523  68.551  1.00  0.00    -0.273 NA 
HETATM   11  C   UNL     1     -11.523  12.688  68.911  1.00  0.00    -0.354 A  
HETATM   12  C   UNL     1     -11.179  11.493  69.500  1.00  0.00    -0.236 A  
HETATM   13  C   UNL     1     -11.686  12.350  67.556  1.00  0.00    -0.357 A  
HETATM   14  N   UNL     1     -11.496  11.047  67.324  1.00  0.00    -0.481 NA 
BRANCH  11  15
HETATM   15  C   UNL     1     -11.658  13.914  69.658  1.00  0.00    -0.286 A  
HETATM   16  C   UNL     1     -12.492  14.013  70.774  1.00  0.00    -0.442 A  
HETATM   17  C   UNL     1     -13.403  13.185  71.490  1.00  0.00    -0.305 A  
HETATM   18  C   UNL     1     -13.870  13.907  72.569  1.00  0.00    -0.515 A  
HETATM   19  N   UNL     1     -13.271  15.139  72.538  1.00  0.00    -0.369 NA 
HETATM   20  C   UNL     1     -12.429  15.217  71.463  1.00  0.00    -0.350 A  
HETATM   21  H   UNL     1     -13.430  15.886  73.214  1.00  0.00     0.000 HD 
HETATM   22  N   UNL     1     -11.671  16.283  71.169  1.00  0.00    -0.386 NA 
HETATM   23  C   UNL     1     -10.913  16.068  70.082  1.00  0.00    -0.367 A  
HETATM   24  N   UNL     1     -10.857  14.959  69.321  1.00  0.00    -0.258 NA 
ENDBRANCH  11  15
ENDBRANCH   4  10
ENDBRANCH   3   4
TORSDOF 4
ENDMDL
MODEL      118
REMARK 921   NORMALIZED FREE ENERGY PREDICTED BY IDOCK:   -5.64 KCAL/MOL
REMARK 922        TOTAL FREE ENERGY PREDICTED BY IDOCK:   -7.37 KCAL/MOL
REMARK 923 INTER-LIGAND FREE ENERGY PREDICTED BY IDOCK:   -6.91 KCAL/MOL
REMARK 924 INTRA-LIGAND FREE ENERGY PREDICTED BY IDOCK:   -0.46 KCAL/MOL
REMARK 927      BINDING AFFINITY PREDICTED BY RF-SCORE:    0.00 PKD
ROOT
HETATM    1  N   UNL     1     -11.837  16.380  63.926  1.00  0.00    -0.948 NA 
HETATM    2  C   UNL     1     -11.125  15.863  64.681  1.00  0.00    -0.354 C  
HETATM    3  C   UNL     1     -10.249  15.152  65.625  1.00  0.00    -0.387 C  
ENDROOT
BRANCH   3   4
HETATM    4  C   UNL     1     -10.878  15.024  67.037  1.00  0.00    -0.311 C  
BRANCH   4   5
HETATM    5  C   UNL     1     -10.125  15.905  68.090  1.00  0.00    -0.229 C  
HETATM    6  C   UNL     1     -10.659  17.340  68.262  1.00  0.00    -0.383 C  
HETATM    7  C   UNL     1      -9.476  18.233  68.616  1.00  0.00    -0.343 C  
HETATM    8  C   UNL     1      -8.650  16.158  67.739  1.00  0.00    -0.172 C  
HETATM    9  C   UNL     1      -8.258  17.329  68.625  1.00  0.00    -0.262 C  
ENDBRANCH   4   5
BRANCH   4  10
HETATM   10  N   UNL     1     -11.051  13.607  67.400  1.00  0.00    -0.276 NA 
HETATM   11  C   UNL     1     -10.913  11.406  67.554  1.00  0.00    -0.312 A  
HETATM   12  C   UNL     1     -10.325  12.525  67.008  1.00  0.00    -0.224 A  
HETATM   13  C   UNL     1     -11.927  11.935  68.372  1.00  0.00    -0.182 A  
HETATM   14  N   UNL     1     -11.991  13.269  68.313  1.00  0.00    -0.339 NA 
BRANCH  11  15
HETATM   15  C   UNL     1     -10.477  10.067  67.241  1.00  0.00    -0.254 A  
HETATM   16  C   UNL     1      -9.922   9.739  66.003  1.00  0.00    -0.342 A  
HETATM   17  C   UNL     1      -9.639  10.386  64.766  1.00  0.00    -0.352 A  
HETATM   18  C   UNL     1      -9.015   9.470  63.945  1.00  0.00    -0.179 A  
HETATM   19  N   UNL     1      -8.903   8.294  64.639  1.00  0.00    -0.398 NA 
HETATM   20  C   UNL     1      -9.439   8.442  65.889  1.00  0.00    -0.099 A  
HETATM   21  H   UNL     1      -8.483   7.437  64.279  1.00  0.00     0.000 HD 
HETATM   22  N   UNL     1      -9.460   7.482  66.824  1.00  0.00    -0.169 NA 
HETATM   23  C   UNL     1     -10.012   7.916  67.969  1.00  0.00    -0.177 A  
HETATM   24  N   UNL     1     -10.511   9.137  68.233  1.00  0.00    -0.216 NA 
ENDBRANCH  11  15
ENDBRANCH   4  10
ENDBRANCH   3   4
TORSDOF 4
ENDMDL
MODEL      119
REMARK 921   NORMALIZED FREE ENERGY PREDICTED BY IDOCK:   -5.63 KCAL/MOL
REMARK 922        TOTAL FREE ENERGY PREDICTED BY IDOCK:   -7.35 KCAL/MOL
REMARK 923 INTER-LIGAND FREE ENERGY PREDICTED BY IDOCK:   -6.80 KCAL/MOL
REMARK 924 INTRA-LIGAND FREE ENERGY PREDICTED BY IDOCK:   -0.55 KCAL/MOL
REMARK 927      BINDING AFFINITY PREDICTED BY RF-SCORE:    0.00 PKD
ROOT
HETATM    1  N   UNL     1      -7.839  10.055  64.824  1.00  0.00    -0.141 NA 
HETATM    2  C   UNL     1      -8.461  10.755  65.507  1.00  0.00    -0.153 C  
HETATM    3  C   UNL     1      -9.242  11.601  66.423  1.00  0.00    -0.219 C  
ENDROOT
BRANCH   3   4
HETATM    4  C   UNL     1     -10.746  11.220  66.444  1.00  0.00    -0.267 C  
BRANCH   4   5
HETATM    5  C   UNL     1     -11.639  12.349  65.827  1.00  0.00    -0.449 C  
HETATM    6  C   UNL     1     -12.053  12.142  64.357  1.00  0.00    -0.443 C  
HETATM    7  C   UNL     1     -12.164  13.518  63.711  1.00  0.00    -0.449 C  
HETATM    8  C   UNL     1     -10.945  13.720  65.768  1.00  0.00    -0.280 C  
HETATM    9  C   UNL     1     -11.791  14.517  64.789  1.00  0.00    -0.446 C  
ENDBRANCH   4   5
BRANCH   4  10
HETATM   10  N   UNL     1     -11.144  10.757  67.784  1.00  0.00    -0.299 NA 
HETATM   11  C   UNL     1     -11.369   9.653  69.686  1.00  0.00    -0.113 A  
HETATM   12  C   UNL     1     -10.615   9.756  68.539  1.00  0.00    -0.221 A  
HETATM   13  C   UNL     1     -12.265  10.732  69.586  1.00  0.00    -0.254 A  
HETATM   14  N   UNL     1     -12.109  11.428  68.455  1.00  0.00    -0.585 NA 
BRANCH  11  15
HETATM   15  C   UNL     1     -11.168   8.608  70.659  1.00  0.00    -0.252 A  
HETATM   16  C   UNL     1     -10.927   7.284  70.285  1.00  0.00    -0.281 A  
HETATM   17  C   UNL     1     -10.838   6.524  69.084  1.00  0.00    -0.354 A  
HETATM   18  C   UNL     1     -10.511   5.229  69.428  1.00  0.00    -0.214 A  
HETATM   19  N   UNL     1     -10.393   5.177  70.792  1.00  0.00    -0.241 NA 
HETATM   20  C   UNL     1     -10.633   6.413  71.325  1.00  0.00    -0.230 A  
HETATM   21  H   UNL     1     -10.160   4.341  71.329  1.00  0.00     0.000 HD 
HETATM   22  N   UNL     1     -10.568   6.701  72.633  1.00  0.00    -0.212 NA 
HETATM   23  C   UNL     1     -10.813   8.000  72.868  1.00  0.00    -0.330 A  
HETATM   24  N   UNL     1     -11.100   8.961  71.970  1.00  0.00    -0.371 NA 
ENDBRANCH  11  15
ENDBRANCH   4  10
ENDBRANCH   3   4
TORSDOF 4
ENDMDL
MODEL      120
REMARK 921   NORMALIZED FREE ENERGY PREDICTED BY IDOCK:   -5.59 KCAL/MOL
REMARK 922        TOTAL FREE ENERGY PREDICTED BY IDOCK:   -7.31 KCAL/MOL
REMARK 923 INTER-LIGAND FREE ENERGY PREDICTED BY IDOCK:   -6.76 KCAL/MOL
REMARK 924 INTRA-LIGAND FREE ENERGY PREDICTED BY IDOCK:   -0.55 KCAL/MOL
REMARK 927      BINDING AFFINITY PREDICTED BY RF-SCORE:    0.00 PKD
ROOT
HETATM    1  N   UNL     1     -11.728  15.998  63.976  1.00  0.00    -0.739 NA 
HETATM    2  C   UNL     1     -10.953  16.152  64.823  1.00  0.00    -0.313 C  
HETATM    3  C   UNL     1      -9.978  16.285  65.917  1.00  0.00    -0.366 C  
ENDROOT
BRANCH   3   4
HETATM    4  C   UNL     1     -10.641  16.703  67.255  1.00  0.00    -0.281 C  
BRANCH   4   5
HETATM    5  C   UNL     1      -9.708  17.634  68.100  1.00  0.00    -0.310 C  
HETATM    6  C   UNL     1      -9.928  19.147  67.910  1.00  0.00    -0.445 C  
HETATM    7  C   UNL     1      -8.580  19.836  68.089  1.00  0.00    -0.333 C  
HETATM    8  C   UNL     1      -8.217  17.487  67.756  1.00  0.00    -0.219 C  
HETATM    9  C   UNL     1      -7.578  18.729  68.356  1.00  0.00    -0.329 C  
ENDBRANCH   4   5
BRANCH   4  10
HETATM   10  N   UNL     1     -11.170  15.523  67.961  1.00  0.00    -0.325 NA 
HETATM   11  C   UNL     1     -11.540  13.494  68.755  1.00  0.00    -0.362 A  
HETATM   12  C   UNL     1     -10.650  14.269  68.046  1.00  0.00    -0.238 A  
HETATM   13  C   UNL     1     -12.519  14.414  69.167  1.00  0.00     0.025 A  
HETATM   14  N   UNL     1     -12.282  15.652  68.722  1.00  0.00    -0.110 NA 
BRANCH  11  15
HETATM   15  C   UNL     1     -11.368  12.072  68.928  1.00  0.00    -0.278 A  
HETATM   16  C   UNL     1     -10.910  11.250  67.897  1.00  0.00    -0.278 A  
HETATM   17  C   UNL     1     -10.540  11.378  66.528  1.00  0.00    -0.309 A  
HETATM   18  C   UNL     1     -10.115  10.142  66.088  1.00  0.00    -0.246 A  
HETATM   19  N   UNL     1     -10.208   9.270  67.141  1.00  0.00    -0.238 NA 
HETATM   20  C   UNL     1     -10.680   9.926  68.245  1.00  0.00    -0.234 A  
HETATM   21  H   UNL     1      -9.962   8.280  67.107  1.00  0.00     0.000 HD 
HETATM   22  N   UNL     1     -10.858   9.358  69.447  1.00  0.00    -0.218 NA 
HETATM   23  C   UNL     1     -11.294  10.246  70.355  1.00  0.00    -0.332 A  
HETATM   24  N   UNL     1     -11.551  11.554  70.172  1.00  0.00    -0.286 NA 
ENDBRANCH  11  15
ENDBRANCH   4  10
ENDBRANCH   3   4
TORSDOF 4
ENDMDL
MODEL      121
REMARK 921   NORMALIZED FREE ENERGY PREDICTED BY IDOCK:   -5.59 KCAL/MOL
REMARK 922        TOTAL FREE ENERGY PREDICTED BY IDOCK:   -7.31 KCAL/MOL
REMARK 923 INTER-LIGAND FREE ENERGY PREDICTED BY IDOCK:   -6.49 KCAL/MOL
REMARK 924 INTRA-LIGAND FREE ENERGY PREDICTED BY IDOCK:   -0.81 KCAL/MOL
REMARK 927      BINDING AFFINITY PREDICTED BY RF-SCORE:    0.00 PKD
ROOT
HETATM    1  N   UNL     1      -6.670  10.615  70.662  1.00  0.00    -0.296 NA 
HETATM    2  C   UNL     1      -7.428  10.338  69.830  1.00  0.00    -0.158 C  
HETATM    3  C   UNL     1      -8.397  10.049  68.761  1.00  0.00    -0.121 C  
ENDROOT
BRANCH   3   4
HETATM    4  C   UNL     1      -9.863  10.081  69.265  1.00  0.00    -0.214 C  
BRANCH   4   5
HETATM    5  C   UNL     1     -10.635   8.771  68.890  1.00  0.00    -0.178 C  
HETATM    6  C   UNL     1     -10.343   7.548  69.780  1.00  0.00    -0.221 C  
HETATM    7  C   UNL     1     -10.463   6.303  68.909  1.00  0.00    -0.280 C  
HETATM    8  C   UNL     1     -10.288   8.232  67.492  1.00  0.00    -0.333 C  
HETATM    9  C   UNL     1     -10.797   6.800  67.515  1.00  0.00    -0.388 C  
ENDBRANCH   4   5
BRANCH   4  10
HETATM   10  N   UNL     1     -10.519  11.340  68.872  1.00  0.00    -0.207 NA 
HETATM   11  C   UNL     1     -11.078  13.252  67.914  1.00  0.00    -0.287 A  
HETATM   12  C   UNL     1     -10.240  12.163  67.825  1.00  0.00    -0.201 A  
HETATM   13  C   UNL     1     -11.921  12.928  68.992  1.00  0.00    -0.251 A  
HETATM   14  N   UNL     1     -11.613  11.755  69.552  1.00  0.00    -0.310 NA 
BRANCH  11  15
HETATM   15  C   UNL     1     -10.971  14.390  67.035  1.00  0.00    -0.304 A  
HETATM   16  C   UNL     1     -10.343  15.573  67.428  1.00  0.00    -0.266 A  
HETATM   17  C   UNL     1      -9.718  16.102  68.594  1.00  0.00    -0.227 A  
HETATM   18  C   UNL     1      -9.243  17.359  68.284  1.00  0.00    -0.271 A  
HETATM   19  N   UNL     1      -9.551  17.611  66.972  1.00  0.00    -0.267 NA 
HETATM   20  C   UNL     1     -10.210  16.538  66.438  1.00  0.00    -0.316 A  
HETATM   21  H   UNL     1      -9.324  18.469  66.470  1.00  0.00     0.000 HD 
HETATM   22  N   UNL     1     -10.623  16.458  65.165  1.00  0.00    -0.663 NA 
HETATM   23  C   UNL     1     -11.205  15.276  64.905  1.00  0.00    -0.415 A  
HETATM   24  N   UNL     1     -11.397  14.247  65.751  1.00  0.00    -0.320 NA 
ENDBRANCH  11  15
ENDBRANCH   4  10
ENDBRANCH   3   4
TORSDOF 4
ENDMDL
MODEL      122
REMARK 921   NORMALIZED FREE ENERGY PREDICTED BY IDOCK:   -5.58 KCAL/MOL
REMARK 922        TOTAL FREE ENERGY PREDICTED BY IDOCK:   -7.29 KCAL/MOL
REMARK 923 INTER-LIGAND FREE ENERGY PREDICTED BY IDOCK:   -6.71 KCAL/MOL
REMARK 924 INTRA-LIGAND FREE ENERGY PREDICTED BY IDOCK:   -0.58 KCAL/MOL
REMARK 927      BINDING AFFINITY PREDICTED BY RF-SCORE:    0.00 PKD
ROOT
HETATM    1  N   UNL     1     -11.306  15.400  72.282  1.00  0.00    -0.412 NA 
HETATM    2  C   UNL     1     -11.663  15.562  71.191  1.00  0.00    -0.391 C  
HETATM    3  C   UNL     1     -12.132  15.706  69.804  1.00  0.00    -0.346 C  
ENDROOT
BRANCH   3   4
HETATM    4  C   UNL     1     -11.011  15.428  68.768  1.00  0.00    -0.264 C  
BRANCH   4   5
HETATM    5  C   UNL     1     -10.801  16.642  67.801  1.00  0.00    -0.292 C  
HETATM    6  C   UNL     1      -9.679  16.477  66.759  1.00  0.00    -0.268 C  
HETATM    7  C   UNL     1      -9.084  17.856  66.498  1.00  0.00    -0.276 C  
HETATM    8  C   UNL     1     -10.378  17.934  68.518  1.00  0.00    -0.365 C  
HETATM    9  C   UNL     1      -9.838  18.812  67.401  1.00  0.00    -0.357 C  
ENDBRANCH   4   5
BRANCH   4  10
HETATM   10  N   UNL     1     -11.222  14.124  68.116  1.00  0.00    -0.265 NA 
HETATM   11  C   UNL     1     -11.126  12.008  67.485  1.00  0.00    -0.331 A  
HETATM   12  C   UNL     1     -10.686  12.913  68.425  1.00  0.00    -0.255 A  
HETATM   13  C   UNL     1     -12.034  12.754  66.713  1.00  0.00    -0.319 A  
HETATM   14  N   UNL     1     -12.126  14.026  67.113  1.00  0.00    -0.429 NA 
BRANCH  11  15
HETATM   15  C   UNL     1     -10.651  10.648  67.432  1.00  0.00    -0.256 A  
HETATM   16  C   UNL     1     -10.752   9.785  68.526  1.00  0.00    -0.252 A  
HETATM   17  C   UNL     1     -11.205   9.837  69.875  1.00  0.00    -0.271 A  
HETATM   18  C   UNL     1     -11.067   8.575  70.415  1.00  0.00    -0.231 A  
HETATM   19  N   UNL     1     -10.553   7.759  69.442  1.00  0.00    -0.251 NA 
HETATM   20  C   UNL     1     -10.364   8.473  68.291  1.00  0.00    -0.201 A  
HETATM   21  H   UNL     1     -10.343   6.767  69.558  1.00  0.00     0.000 HD 
HETATM   22  N   UNL     1      -9.899   7.956  67.144  1.00  0.00    -0.187 NA 
HETATM   23  C   UNL     1      -9.852   8.876  66.168  1.00  0.00    -0.256 A  
HETATM   24  N   UNL     1     -10.201  10.174  66.240  1.00  0.00    -0.236 NA 
ENDBRANCH  11  15
ENDBRANCH   4  10
ENDBRANCH   3   4
TORSDOF 4
ENDMDL
MODEL      123
REMARK 921   NORMALIZED FREE ENERGY PREDICTED BY IDOCK:   -5.53 KCAL/MOL
REMARK 922        TOTAL FREE ENERGY PREDICTED BY IDOCK:   -7.22 KCAL/MOL
REMARK 923 INTER-LIGAND FREE ENERGY PREDICTED BY IDOCK:   -6.61 KCAL/MOL
REMARK 924 INTRA-LIGAND FREE ENERGY PREDICTED BY IDOCK:   -0.61 KCAL/MOL
REMARK 927      BINDING AFFINITY PREDICTED BY RF-SCORE:    0.00 PKD
ROOT
HETATM    1  N   UNL     1     -10.247  10.932  63.789  1.00  0.00    -0.350 NA 
HETATM    2  C   UNL     1      -9.555  10.606  64.660  1.00  0.00    -0.280 C  
HETATM    3  C   UNL     1      -8.694  10.130  65.753  1.00  0.00    -0.166 C  
ENDROOT
BRANCH   3   4
HETATM    4  C   UNL     1      -9.459   9.996  67.096  1.00  0.00    -0.155 C  
BRANCH   4   5
HETATM    5  C   UNL     1     -10.232   8.637  67.190  1.00  0.00    -0.353 C  
HETATM    6  C   UNL     1     -10.406   8.067  68.611  1.00  0.00    -0.224 C  
HETATM    7  C   UNL     1     -10.400   6.547  68.503  1.00  0.00    -0.219 C  
HETATM    8  C   UNL     1      -9.525   7.477  66.471  1.00  0.00    -0.237 C  
HETATM    9  C   UNL     1     -10.197   6.234  67.034  1.00  0.00    -0.256 C  
ENDBRANCH   4   5
BRANCH   4  10
HETATM   10  N   UNL     1     -10.262  11.203  67.357  1.00  0.00    -0.185 NA 
HETATM   11  C   UNL     1     -10.963  13.238  67.857  1.00  0.00    -0.270 A  
HETATM   12  C   UNL     1      -9.846  12.475  67.605  1.00  0.00    -0.202 A  
HETATM   13  C   UNL     1     -12.028  12.353  67.612  1.00  0.00    -0.180 A  
HETATM   14  N   UNL     1     -11.611  11.130  67.271  1.00  0.00    -0.511 NA 
BRANCH  11  15
HETATM   15  C   UNL     1     -10.885  14.614  68.284  1.00  0.00    -0.245 A  
HETATM   16  C   UNL     1     -11.321  15.024  69.545  1.00  0.00    -0.308 A  
HETATM   17  C   UNL     1     -11.933  14.445  70.692  1.00  0.00    -0.393 A  
HETATM   18  C   UNL     1     -12.050  15.429  71.651  1.00  0.00    -0.380 A  
HETATM   19  N   UNL     1     -11.526  16.583  71.130  1.00  0.00    -0.536 NA 
HETATM   20  C   UNL     1     -11.073  16.354  69.861  1.00  0.00    -0.310 A  
HETATM   21  H   UNL     1     -11.480  17.479  71.617  1.00  0.00     0.000 HD 
HETATM   22  N   UNL     1     -10.478  17.275  69.089  1.00  0.00    -0.318 NA 
HETATM   23  C   UNL     1     -10.101  16.763  67.906  1.00  0.00    -0.284 A  
HETATM   24  N   UNL     1     -10.261  15.502  67.464  1.00  0.00    -0.250 NA 
ENDBRANCH  11  15
ENDBRANCH   4  10
ENDBRANCH   3   4
TORSDOF 4
ENDMDL
MODEL      124
REMARK 921   NORMALIZED FREE ENERGY PREDICTED BY IDOCK:   -5.48 KCAL/MOL
REMARK 922        TOTAL FREE ENERGY PREDICTED BY IDOCK:   -7.17 KCAL/MOL
REMARK 923 INTER-LIGAND FREE ENERGY PREDICTED BY IDOCK:   -6.64 KCAL/MOL
REMARK 924 INTRA-LIGAND FREE ENERGY PREDICTED BY IDOCK:   -0.53 KCAL/MOL
REMARK 927      BINDING AFFINITY PREDICTED BY RF-SCORE:    0.00 PKD
ROOT
HETATM    1  N   UNL     1     -11.051   6.162  67.760  1.00  0.00    -0.297 NA 
HETATM    2  C   UNL     1     -10.463   7.147  67.595  1.00  0.00    -0.239 C  
HETATM    3  C   UNL     1      -9.663   8.367  67.406  1.00  0.00    -0.222 C  
ENDROOT
BRANCH   3   4
HETATM    4  C   UNL     1      -9.598   9.238  68.688  1.00  0.00    -0.147 C  
BRANCH   4   5
HETATM    5  C   UNL     1      -9.986   8.419  69.966  1.00  0.00    -0.188 C  
HETATM    6  C   UNL     1     -11.431   8.611  70.467  1.00  0.00    -0.208 C  
HETATM    7  C   UNL     1     -11.417   8.467  71.984  1.00  0.00    -0.431 C  
HETATM    8  C   UNL     1      -9.169   8.799  71.211  1.00  0.00    -0.309 C  
HETATM    9  C   UNL     1      -9.970   8.219  72.366  1.00  0.00    -0.379 C  
ENDBRANCH   4   5
BRANCH   4  10
HETATM   10  N   UNL     1     -10.333  10.500  68.494  1.00  0.00    -0.170 NA 
HETATM   11  C   UNL     1     -11.241  12.502  68.719  1.00  0.00    -0.318 A  
HETATM   12  C   UNL     1     -10.351  11.612  69.277  1.00  0.00     0.069 A  
HETATM   13  C   UNL     1     -11.619  11.876  67.517  1.00  0.00    -0.304 A  
HETATM   14  N   UNL     1     -11.044  10.681  67.357  1.00  0.00    -0.302 NA 
BRANCH  11  15
HETATM   15  C   UNL     1     -11.606  13.742  69.358  1.00  0.00    -0.310 A  
HETATM   16  C   UNL     1     -12.370  13.776  70.527  1.00  0.00    -0.429 A  
HETATM   17  C   UNL     1     -13.022  12.851  71.391  1.00  0.00    -0.362 A  
HETATM   18  C   UNL     1     -13.574  13.566  72.434  1.00  0.00    -0.608 A  
HETATM   19  N   UNL     1     -13.275  14.889  72.238  1.00  0.00    -0.344 NA 
HETATM   20  C   UNL     1     -12.541  15.032  71.093  1.00  0.00    -0.348 A  
HETATM   21  H   UNL     1     -13.559  15.652  72.853  1.00  0.00     0.000 HD 
HETATM   22  N   UNL     1     -12.066  16.201  70.637  1.00  0.00    -0.203 NA 
HETATM   23  C   UNL     1     -11.347  16.040  69.515  1.00  0.00    -0.344 A  
HETATM   24  N   UNL     1     -11.087  14.895  68.859  1.00  0.00    -0.244 NA 
ENDBRANCH  11  15
ENDBRANCH   4  10
ENDBRANCH   3   4
TORSDOF 4
ENDMDL
MODEL      125
REMARK 921   NORMALIZED FREE ENERGY PREDICTED BY IDOCK:   -5.47 KCAL/MOL
REMARK 922        TOTAL FREE ENERGY PREDICTED BY IDOCK:   -7.16 KCAL/MOL
REMARK 923 INTER-LIGAND FREE ENERGY PREDICTED BY IDOCK:   -6.40 KCAL/MOL
REMARK 924 INTRA-LIGAND FREE ENERGY PREDICTED BY IDOCK:   -0.76 KCAL/MOL
REMARK 927      BINDING AFFINITY PREDICTED BY RF-SCORE:    0.00 PKD
ROOT
HETATM    1  N   UNL     1     -12.199  14.065  66.503  1.00  0.00    -0.459 NA 
HETATM    2  C   UNL     1     -11.729  13.922  67.553  1.00  0.00    -0.380 C  
HETATM    3  C   UNL     1     -11.110  13.684  68.866  1.00  0.00    -0.292 C  
ENDROOT
BRANCH   3   4
HETATM    4  C   UNL     1     -12.051  12.921  69.836  1.00  0.00    -0.265 C  
BRANCH   4   5
HETATM    5  C   UNL     1     -12.302  13.727  71.155  1.00  0.00    -0.428 C  
HETATM    6  C   UNL     1     -13.737  14.252  71.352  1.00  0.00    -0.382 C  
HETATM    7  C   UNL     1     -13.648  15.564  72.122  1.00  0.00    -0.596 C  
HETATM    8  C   UNL     1     -11.478  15.021  71.252  1.00  0.00    -0.359 C  
HETATM    9  C   UNL     1     -12.169  15.814  72.349  1.00  0.00    -0.568 C  
ENDBRANCH   4   5
BRANCH   4  10
HETATM   10  N   UNL     1     -11.593  11.533  70.016  1.00  0.00    -0.302 NA 
HETATM   11  C   UNL     1     -10.537   9.596  69.890  1.00  0.00    -0.281 A  
HETATM   12  C   UNL     1     -10.503  10.913  69.490  1.00  0.00    -0.138 A  
HETATM   13  C   UNL     1     -11.634   9.548  70.768  1.00  0.00    -0.308 A  
HETATM   14  N   UNL     1     -12.255  10.727  70.879  1.00  0.00    -0.357 NA 
BRANCH  11  15
HETATM   15  C   UNL     1      -9.597   8.612  69.410  1.00  0.00    -0.166 A  
HETATM   16  C   UNL     1      -9.953   7.645  68.468  1.00  0.00    -0.190 A  
HETATM   17  C   UNL     1     -11.118   7.242  67.755  1.00  0.00    -0.031 A  
HETATM   18  C   UNL     1     -10.760   6.213  66.910  1.00  0.00    -0.340 A  
HETATM   19  N   UNL     1      -9.420   5.980  67.078  1.00  0.00    -0.123 NA 
HETATM   20  C   UNL     1      -8.915   6.844  68.011  1.00  0.00    -0.121 A  
HETATM   21  H   UNL     1      -8.880   5.270  66.583  1.00  0.00     0.000 HD 
HETATM   22  N   UNL     1      -7.628   6.892  68.382  1.00  0.00    -0.108 NA 
HETATM   23  C   UNL     1      -7.408   7.861  69.286  1.00  0.00    -0.082 A  
HETATM   24  N   UNL     1      -8.302   8.717  69.812  1.00  0.00    -0.122 NA 
ENDBRANCH  11  15
ENDBRANCH   4  10
ENDBRANCH   3   4
TORSDOF 4
ENDMDL
MODEL      126
REMARK 921   NORMALIZED FREE ENERGY PREDICTED BY IDOCK:   -5.45 KCAL/MOL
REMARK 922        TOTAL FREE ENERGY PREDICTED BY IDOCK:   -7.13 KCAL/MOL
REMARK 923 INTER-LIGAND FREE ENERGY PREDICTED BY IDOCK:   -6.63 KCAL/MOL
REMARK 924 INTRA-LIGAND FREE ENERGY PREDICTED BY IDOCK:   -0.50 KCAL/MOL
REMARK 927      BINDING AFFINITY PREDICTED BY RF-SCORE:    0.00 PKD
ROOT
HETATM    1  N   UNL     1      -7.739  21.205  67.454  1.00  0.00    -0.304 NA 
HETATM    2  C   UNL     1      -8.546  20.386  67.308  1.00  0.00    -0.329 C  
HETATM    3  C   UNL     1      -9.593  19.361  67.181  1.00  0.00    -0.412 C  
ENDROOT
BRANCH   3   4
HETATM    4  C   UNL     1      -9.169  17.999  67.792  1.00  0.00    -0.262 C  
BRANCH   4   5
HETATM    5  C   UNL     1      -7.620  17.922  68.016  1.00  0.00    -0.238 C  
HETATM    6  C   UNL     1      -6.807  17.331  66.849  1.00  0.00    -0.231 C  
HETATM    7  C   UNL     1      -5.604  16.608  67.443  1.00  0.00    -0.180 C  
HETATM    8  C   UNL     1      -7.213  17.005  69.180  1.00  0.00    -0.209 C  
HETATM    9  C   UNL     1      -5.731  16.755  68.947  1.00  0.00    -0.145 C  
ENDBRANCH   4   5
BRANCH   4  10
HETATM   10  N   UNL     1      -9.757  16.884  67.030  1.00  0.00    -0.246 NA 
HETATM   11  C   UNL     1     -10.542  14.929  66.363  1.00  0.00    -0.307 A  
HETATM   12  C   UNL     1     -10.097  15.638  67.456  1.00  0.00    -0.253 A  
HETATM   13  C   UNL     1     -10.552  15.887  65.334  1.00  0.00    -0.419 A  
HETATM   14  N   UNL     1     -10.114  17.083  65.739  1.00  0.00    -0.566 NA 
BRANCH  11  15
HETATM   15  C   UNL     1     -10.868  13.526  66.426  1.00  0.00    -0.290 A  
HETATM   16  C   UNL     1     -10.786  12.696  65.306  1.00  0.00    -0.319 A  
HETATM   17  C   UNL     1     -10.473  12.815  63.922  1.00  0.00    -0.402 A  
HETATM   18  C   UNL     1     -10.533  11.554  63.366  1.00  0.00    -0.406 A  
HETATM   19  N   UNL     1     -10.864  10.673  64.363  1.00  0.00    -0.165 NA 
HETATM   20  C   UNL     1     -11.013  11.346  65.544  1.00  0.00    -0.183 A  
HETATM   21  H   UNL     1     -10.982   9.667  64.242  1.00  0.00     0.000 HD 
HETATM   22  N   UNL     1     -11.309  10.766  66.716  1.00  0.00    -0.214 NA 
HETATM   23  C   UNL     1     -11.356  11.662  67.715  1.00  0.00    -0.288 A  
HETATM   24  N   UNL     1     -11.150  12.990  67.643  1.00  0.00    -0.257 NA 
ENDBRANCH  11  15
ENDBRANCH   4  10
ENDBRANCH   3   4
TORSDOF 4
ENDMDL
MODEL      127
REMARK 921   NORMALIZED FREE ENERGY PREDICTED BY IDOCK:   -5.41 KCAL/MOL
REMARK 922        TOTAL FREE ENERGY PREDICTED BY IDOCK:   -7.08 KCAL/MOL
REMARK 923 INTER-LIGAND FREE ENERGY PREDICTED BY IDOCK:   -6.77 KCAL/MOL
REMARK 924 INTRA-LIGAND FREE ENERGY PREDICTED BY IDOCK:   -0.31 KCAL/MOL
REMARK 927      BINDING AFFINITY PREDICTED BY RF-SCORE:    0.00 PKD
ROOT
HETATM    1  N   UNL     1      -7.144  10.305  70.248  1.00  0.00    -0.233 NA 
HETATM    2  C   UNL     1      -8.191  10.211  69.759  1.00  0.00    -0.145 C  
HETATM    3  C   UNL     1      -9.511  10.151  69.112  1.00  0.00    -0.215 C  
ENDROOT
BRANCH   3   4
HETATM    4  C   UNL     1     -10.631  10.764  69.993  1.00  0.00     0.005 C  
BRANCH   4   5
HETATM    5  C   UNL     1     -11.796   9.747  70.240  1.00  0.00    -0.208 C  
HETATM    6  C   UNL     1     -12.843  10.175  71.286  1.00  0.00    -0.508 C  
HETATM    7  C   UNL     1     -13.357   8.913  71.969  1.00  0.00    -0.471 C  
HETATM    8  C   UNL     1     -11.325   8.396  70.801  1.00  0.00    -0.290 C  
HETATM    9  C   UNL     1     -12.596   7.761  71.342  1.00  0.00    -0.339 C  
ENDBRANCH   4   5
BRANCH   4  10
HETATM   10  N   UNL     1     -11.036  12.081  69.473  1.00  0.00    -0.136 NA 
HETATM   11  C   UNL     1     -11.258  13.941  68.301  1.00  0.00    -0.298 A  
HETATM   12  C   UNL     1     -10.682  12.691  68.310  1.00  0.00    -0.230 A  
HETATM   13  C   UNL     1     -12.053  13.944  69.461  1.00  0.00    -0.342 A  
HETATM   14  N   UNL     1     -11.953  12.806  70.156  1.00  0.00    -0.337 NA 
BRANCH  11  15
HETATM   15  C   UNL     1     -10.989  14.915  67.271  1.00  0.00    -0.323 A  
HETATM   16  C   UNL     1     -10.165  16.020  67.493  1.00  0.00    -0.275 A  
HETATM   17  C   UNL     1      -9.431  16.592  68.571  1.00  0.00    -0.235 A  
HETATM   18  C   UNL     1      -8.764  17.698  68.087  1.00  0.00    -0.265 A  
HETATM   19  N   UNL     1      -9.063  17.815  66.754  1.00  0.00    -0.255 NA 
HETATM   20  C   UNL     1      -9.902  16.804  66.378  1.00  0.00    -0.297 A  
HETATM   21  H   UNL     1      -8.711  18.547  66.136  1.00  0.00     0.000 HD 
HETATM   22  N   UNL     1     -10.358  16.621  65.130  1.00  0.00    -0.631 NA 
HETATM   23  C   UNL     1     -11.133  15.528  65.040  1.00  0.00    -0.401 A  
HETATM   24  N   UNL     1     -11.468  14.671  66.022  1.00  0.00    -0.342 NA 
ENDBRANCH  11  15
ENDBRANCH   4  10
ENDBRANCH   3   4
TORSDOF 4
ENDMDL
MODEL      128
REMARK 921   NORMALIZED FREE ENERGY PREDICTED BY IDOCK:   -5.39 KCAL/MOL
REMARK 922        TOTAL FREE ENERGY PREDICTED BY IDOCK:   -7.06 KCAL/MOL
REMARK 923 INTER-LIGAND FREE ENERGY PREDICTED BY IDOCK:   -7.36 KCAL/MOL
REMARK 924 INTRA-LIGAND FREE ENERGY PREDICTED BY IDOCK:    0.30 KCAL/MOL
REMARK 927      BINDING AFFINITY PREDICTED BY RF-SCORE:    0.00 PKD
ROOT
HETATM    1  N   UNL     1     -11.106   6.864  67.486  1.00  0.00    -0.252 NA 
HETATM    2  C   UNL     1     -10.825   6.691  68.597  1.00  0.00    -0.262 C  
HETATM    3  C   UNL     1     -10.531   6.465  70.020  1.00  0.00    -0.267 C  
ENDROOT
BRANCH   3   4
HETATM    4  C   UNL     1     -10.590   7.772  70.854  1.00  0.00    -0.213 C  
BRANCH   4   5
HETATM    5  C   UNL     1     -11.882   7.839  71.737  1.00  0.00    -0.328 C  
HETATM    6  C   UNL     1     -13.070   6.991  71.244  1.00  0.00    -0.329 C  
HETATM    7  C   UNL     1     -14.351   7.717  71.639  1.00  0.00    -0.607 C  
HETATM    8  C   UNL     1     -12.505   9.242  71.811  1.00  0.00    -0.458 C  
HETATM    9  C   UNL     1     -13.910   8.991  72.334  1.00  0.00    -0.540 C  
ENDBRANCH   4   5
BRANCH   4  10
HETATM   10  N   UNL     1     -10.346   8.944  69.996  1.00  0.00    -0.197 NA 
HETATM   11  C   UNL     1     -10.538  10.689  68.653  1.00  0.00    -0.229 A  
HETATM   12  C   UNL     1     -11.243   9.791  69.423  1.00  0.00    -0.114 A  
HETATM   13  C   UNL     1      -9.195  10.374  68.929  1.00  0.00    -0.177 A  
HETATM   14  N   UNL     1      -9.072   9.343  69.771  1.00  0.00    -0.177 NA 
BRANCH  11  15
HETATM   15  C   UNL     1     -11.182  11.657  67.799  1.00  0.00    -0.268 A  
HETATM   16  C   UNL     1     -11.484  12.947  68.239  1.00  0.00    -0.348 A  
HETATM   17  C   UNL     1     -11.375  13.708  69.438  1.00  0.00    -0.303 A  
HETATM   18  C   UNL     1     -11.828  14.983  69.170  1.00  0.00    -0.308 A  
HETATM   19  N   UNL     1     -12.202  15.025  67.853  1.00  0.00    -0.469 NA 
HETATM   20  C   UNL     1     -11.993  13.805  67.273  1.00  0.00    -0.401 A  
HETATM   21  H   UNL     1     -12.580  15.844  67.376  1.00  0.00     0.000 HD 
HETATM   22  N   UNL     1     -12.232  13.526  65.983  1.00  0.00    -0.436 NA 
HETATM   23  C   UNL     1     -11.899  12.261  65.679  1.00  0.00    -0.360 A  
HETATM   24  N   UNL     1     -11.390  11.322  66.498  1.00  0.00    -0.318 NA 
ENDBRANCH  11  15
ENDBRANCH   4  10
ENDBRANCH   3   4
TORSDOF 4
ENDMDL
MODEL      129
REMARK 921   NORMALIZED FREE ENERGY PREDICTED BY IDOCK:   -5.39 KCAL/MOL
REMARK 922        TOTAL FREE ENERGY PREDICTED BY IDOCK:   -7.05 KCAL/MOL
REMARK 923 INTER-LIGAND FREE ENERGY PREDICTED BY IDOCK:   -6.58 KCAL/MOL
REMARK 924 INTRA-LIGAND FREE ENERGY PREDICTED BY IDOCK:   -0.47 KCAL/MOL
REMARK 927      BINDING AFFINITY PREDICTED BY RF-SCORE:    0.00 PKD
ROOT
HETATM    1  N   UNL     1     -13.206  12.385  64.453  1.00  0.00    -0.778 NA 
HETATM    2  C   UNL     1     -12.347  12.241  65.218  1.00  0.00    -0.152 C  
HETATM    3  C   UNL     1     -11.285  12.002  66.207  1.00  0.00    -0.394 C  
ENDROOT
BRANCH   3   4
HETATM    4  C   UNL     1     -11.638  12.575  67.606  1.00  0.00    -0.355 C  
BRANCH   4   5
HETATM    5  C   UNL     1     -10.807  13.862  67.932  1.00  0.00    -0.256 C  
HETATM    6  C   UNL     1     -11.599  15.024  68.562  1.00  0.00    -0.348 C  
HETATM    7  C   UNL     1     -10.962  16.325  68.091  1.00  0.00    -0.343 C  
HETATM    8  C   UNL     1     -10.198  14.532  66.691  1.00  0.00    -0.276 C  
HETATM    9  C   UNL     1      -9.823  15.924  67.173  1.00  0.00    -0.232 C  
ENDBRANCH   4   5
BRANCH   4  10
HETATM   10  N   UNL     1     -11.594  11.513  68.626  1.00  0.00    -0.285 NA 
HETATM   11  C   UNL     1     -11.254   9.642  69.752  1.00  0.00    -0.208 A  
HETATM   12  C   UNL     1     -10.931  10.325  68.601  1.00  0.00    -0.244 A  
HETATM   13  C   UNL     1     -12.029  10.566  70.475  1.00  0.00    -0.342 A  
HETATM   14  N   UNL     1     -12.207  11.715  69.815  1.00  0.00    -0.253 NA 
BRANCH  11  15
HETATM   15  C   UNL     1     -10.827   8.287  69.998  1.00  0.00    -0.232 A  
HETATM   16  C   UNL     1     -10.482   7.839  71.274  1.00  0.00    -0.230 A  
HETATM   17  C   UNL     1     -10.368   8.376  72.588  1.00  0.00    -0.314 A  
HETATM   18  C   UNL     1     -10.018   7.346  73.436  1.00  0.00    -0.314 A  
HETATM   19  N   UNL     1      -9.922   6.203  72.686  1.00  0.00    -0.174 NA 
HETATM   20  C   UNL     1     -10.207   6.482  71.379  1.00  0.00    -0.197 A  
HETATM   21  H   UNL     1      -9.675   5.282  73.050  1.00  0.00     0.000 HD 
HETATM   22  N   UNL     1     -10.227   5.571  70.395  1.00  0.00    -0.231 NA 
HETATM   23  C   UNL     1     -10.576   6.118  69.219  1.00  0.00    -0.285 A  
HETATM   24  N   UNL     1     -10.879   7.404  68.965  1.00  0.00    -0.142 NA 
ENDBRANCH  11  15
ENDBRANCH   4  10
ENDBRANCH   3   4
TORSDOF 4
ENDMDL
MODEL      130
REMARK 921   NORMALIZED FREE ENERGY PREDICTED BY IDOCK:   -5.34 KCAL/MOL
REMARK 922        TOTAL FREE ENERGY PREDICTED BY IDOCK:   -6.99 KCAL/MOL
REMARK 923 INTER-LIGAND FREE ENERGY PREDICTED BY IDOCK:   -6.69 KCAL/MOL
REMARK 924 INTRA-LIGAND FREE ENERGY PREDICTED BY IDOCK:   -0.30 KCAL/MOL
REMARK 927      BINDING AFFINITY PREDICTED BY RF-SCORE:    0.00 PKD
ROOT
HETATM    1  N   UNL     1      -8.321  10.545  64.935  1.00  0.00    -0.162 NA 
HETATM    2  C   UNL     1      -8.926   9.773  65.553  1.00  0.00    -0.176 C  
HETATM    3  C   UNL     1      -9.746   8.825  66.323  1.00  0.00    -0.342 C  
ENDROOT
BRANCH   3   4
HETATM    4  C   UNL     1      -9.945   9.273  67.795  1.00  0.00    -0.190 C  
BRANCH   4   5
HETATM    5  C   UNL     1     -10.642   8.162  68.651  1.00  0.00    -0.144 C  
HETATM    6  C   UNL     1     -10.497   8.308  70.178  1.00  0.00    -0.225 C  
HETATM    7  C   UNL     1     -10.471   6.906  70.775  1.00  0.00    -0.238 C  
HETATM    8  C   UNL     1     -10.071   6.754  68.414  1.00  0.00    -0.168 C  
HETATM    9  C   UNL     1     -10.574   5.951  69.603  1.00  0.00    -0.383 C  
ENDBRANCH   4   5
BRANCH   4  10
HETATM   10  N   UNL     1     -10.571  10.605  67.851  1.00  0.00    -0.210 NA 
HETATM   11  C   UNL     1     -11.291  12.606  68.451  1.00  0.00    -0.329 A  
HETATM   12  C   UNL     1     -10.464  11.565  68.808  1.00  0.00    -0.204 A  
HETATM   13  C   UNL     1     -11.766  12.227  67.183  1.00  0.00    -0.326 A  
HETATM   14  N   UNL     1     -11.304  11.034  66.797  1.00  0.00    -0.307 NA 
BRANCH  11  15
HETATM   15  C   UNL     1     -11.522  13.745  69.305  1.00  0.00    -0.293 A  
HETATM   16  C   UNL     1     -12.252  13.645  70.491  1.00  0.00    -0.438 A  
HETATM   17  C   UNL     1     -12.971  12.648  71.210  1.00  0.00    -0.306 A  
HETATM   18  C   UNL     1     -13.429  13.218  72.379  1.00  0.00    -0.569 A  
HETATM   19  N   UNL     1     -13.010  14.523  72.400  1.00  0.00    -0.360 NA 
HETATM   20  C   UNL     1     -12.290  14.795  71.269  1.00  0.00    -0.327 A  
HETATM   21  H   UNL     1     -13.205  15.191  73.146  1.00  0.00     0.000 HD 
HETATM   22  N   UNL     1     -11.717  15.977  71.000  1.00  0.00    -0.417 NA 
HETATM   23  C   UNL     1     -11.041  15.949  69.840  1.00  0.00    -0.343 A  
HETATM   24  N   UNL     1     -10.906  14.916  68.989  1.00  0.00    -0.236 NA 
ENDBRANCH  11  15
ENDBRANCH   4  10
ENDBRANCH   3   4
TORSDOF 4
ENDMDL
MODEL      131
REMARK 921   NORMALIZED FREE ENERGY PREDICTED BY IDOCK:   -5.33 KCAL/MOL
REMARK 922        TOTAL FREE ENERGY PREDICTED BY IDOCK:   -6.98 KCAL/MOL
REMARK 923 INTER-LIGAND FREE ENERGY PREDICTED BY IDOCK:   -6.66 KCAL/MOL
REMARK 924 INTRA-LIGAND FREE ENERGY PREDICTED BY IDOCK:   -0.32 KCAL/MOL
REMARK 927      BINDING AFFINITY PREDICTED BY RF-SCORE:    0.00 PKD
ROOT
HETATM    1  N   UNL     1      -9.253  15.380  69.289  1.00  0.00    -0.246 NA 
HETATM    2  C   UNL     1      -9.025  14.420  68.680  1.00  0.00    -0.172 C  
HETATM    3  C   UNL     1      -8.737  13.238  67.853  1.00  0.00    -0.192 C  
ENDROOT
BRANCH   3   4
HETATM    4  C   UNL     1     -10.026  12.556  67.324  1.00  0.00    -0.211 C  
BRANCH   4   5
HETATM    5  C   UNL     1     -10.947  13.567  66.561  1.00  0.00    -0.295 C  
HETATM    6  C   UNL     1     -12.132  12.944  65.800  1.00  0.00    -0.513 C  
HETATM    7  C   UNL     1     -12.395  13.804  64.570  1.00  0.00    -0.399 C  
HETATM    8  C   UNL     1     -10.223  14.334  65.443  1.00  0.00    -0.395 C  
HETATM    9  C   UNL     1     -11.353  14.905  64.601  1.00  0.00    -0.362 C  
ENDBRANCH   4   5
BRANCH   4  10
HETATM   10  N   UNL     1     -10.679  11.784  68.396  1.00  0.00    -0.209 NA 
HETATM   11  C   UNL     1     -11.257  10.254  69.882  1.00  0.00    -0.360 A  
HETATM   12  C   UNL     1     -10.281  10.624  68.984  1.00  0.00    -0.215 A  
HETATM   13  C   UNL     1     -12.156  11.334  69.852  1.00  0.00    -0.341 A  
HETATM   14  N   UNL     1     -11.793  12.282  68.982  1.00  0.00    -0.315 NA 
BRANCH  11  15
HETATM   15  C   UNL     1     -11.223   9.001  70.596  1.00  0.00    -0.270 A  
HETATM   16  C   UNL     1     -10.957   7.790  69.954  1.00  0.00    -0.194 A  
HETATM   17  C   UNL     1     -10.707   7.327  68.631  1.00  0.00    -0.172 A  
HETATM   18  C   UNL     1     -10.462   5.971  68.698  1.00  0.00    -0.241 A  
HETATM   19  N   UNL     1     -10.547   5.596  70.013  1.00  0.00    -0.301 NA 
HETATM   20  C   UNL     1     -10.837   6.685  70.787  1.00  0.00    -0.252 A  
HETATM   21  H   UNL     1     -10.413   4.647  70.362  1.00  0.00     0.000 HD 
HETATM   22  N   UNL     1     -10.960   6.657  72.122  1.00  0.00    -0.236 NA 
HETATM   23  C   UNL     1     -11.210   7.877  72.623  1.00  0.00    -0.398 A  
HETATM   24  N   UNL     1     -11.341   9.035  71.950  1.00  0.00    -0.369 NA 
ENDBRANCH  11  15
ENDBRANCH   4  10
ENDBRANCH   3   4
TORSDOF 4
ENDMDL
MODEL      132
REMARK 921   NORMALIZED FREE ENERGY PREDICTED BY IDOCK:   -5.33 KCAL/MOL
REMARK 922        TOTAL FREE ENERGY PREDICTED BY IDOCK:   -6.98 KCAL/MOL
REMARK 923 INTER-LIGAND FREE ENERGY PREDICTED BY IDOCK:   -6.67 KCAL/MOL
REMARK 924 INTRA-LIGAND FREE ENERGY PREDICTED BY IDOCK:   -0.31 KCAL/MOL
REMARK 927      BINDING AFFINITY PREDICTED BY RF-SCORE:    0.00 PKD
ROOT
HETATM    1  N   UNL     1     -14.410   7.820  71.707  1.00  0.00    -0.450 NA 
HETATM    2  C   UNL     1     -13.359   8.307  71.754  1.00  0.00    -0.352 C  
HETATM    3  C   UNL     1     -12.048   8.974  71.778  1.00  0.00    -0.438 C  
ENDROOT
BRANCH   3   4
HETATM    4  C   UNL     1     -11.163   8.584  70.564  1.00  0.00    -0.242 C  
BRANCH   4   5
HETATM    5  C   UNL     1      -9.961   7.675  70.991  1.00  0.00    -0.188 C  
HETATM    6  C   UNL     1     -10.317   6.214  71.325  1.00  0.00    -0.264 C  
HETATM    7  C   UNL     1      -9.353   5.739  72.406  1.00  0.00    -0.152 C  
HETATM    8  C   UNL     1      -9.271   8.135  72.285  1.00  0.00    -0.266 C  
HETATM    9  C   UNL     1      -8.459   6.924  72.717  1.00  0.00    -0.126 C  
ENDBRANCH   4   5
BRANCH   4  10
HETATM   10  N   UNL     1     -10.809   9.778  69.777  1.00  0.00    -0.244 NA 
HETATM   11  C   UNL     1     -10.677  11.808  68.913  1.00  0.00    -0.241 A  
HETATM   12  C   UNL     1     -11.224  11.064  69.935  1.00  0.00    -0.252 A  
HETATM   13  C   UNL     1      -9.836  10.892  68.255  1.00  0.00    -0.170 A  
HETATM   14  N   UNL     1      -9.882   9.671  68.797  1.00  0.00    -0.160 NA 
BRANCH  11  15
HETATM   15  C   UNL     1     -11.009  13.194  68.696  1.00  0.00    -0.265 A  
HETATM   16  C   UNL     1     -11.895  13.883  69.527  1.00  0.00    -0.383 A  
HETATM   17  C   UNL     1     -12.716  13.606  70.657  1.00  0.00    -0.303 A  
HETATM   18  C   UNL     1     -13.322  14.786  71.037  1.00  0.00    -0.374 A  
HETATM   19  N   UNL     1     -12.895  15.769  70.182  1.00  0.00    -0.639 NA 
HETATM   20  C   UNL     1     -12.025  15.241  69.268  1.00  0.00    -0.299 A  
HETATM   21  H   UNL     1     -13.182  16.747  70.222  1.00  0.00     0.000 HD 
HETATM   22  N   UNL     1     -11.407  15.949  68.312  1.00  0.00    -0.356 NA 
HETATM   23  C   UNL     1     -10.581  15.182  67.582  1.00  0.00    -0.263 A  
HETATM   24  N   UNL     1     -10.343  13.865  67.718  1.00  0.00    -0.237 NA 
ENDBRANCH  11  15
ENDBRANCH   4  10
ENDBRANCH   3   4
TORSDOF 4
ENDMDL
MODEL      133
REMARK 921   NORMALIZED FREE ENERGY PREDICTED BY IDOCK:   -5.32 KCAL/MOL
REMARK 922        TOTAL FREE ENERGY PREDICTED BY IDOCK:   -6.98 KCAL/MOL
REMARK 923 INTER-LIGAND FREE ENERGY PREDICTED BY IDOCK:   -6.40 KCAL/MOL
REMARK 924 INTRA-LIGAND FREE ENERGY PREDICTED BY IDOCK:   -0.57 KCAL/MOL
REMARK 927      BINDING AFFINITY PREDICTED BY RF-SCORE:    0.00 PKD
ROOT
HETATM    1  N   UNL     1      -7.453  15.175  68.069  1.00  0.00    -0.111 NA 
HETATM    2  C   UNL     1      -8.502  14.778  67.778  1.00  0.00    -0.164 C  
HETATM    3  C   UNL     1      -9.838  14.245  67.467  1.00  0.00    -0.231 C  
ENDROOT
BRANCH   3   4
HETATM    4  C   UNL     1      -9.780  12.825  66.846  1.00  0.00    -0.234 C  
BRANCH   4   5
HETATM    5  C   UNL     1     -10.371  12.801  65.395  1.00  0.00    -0.310 C  
HETATM    6  C   UNL     1     -10.751  14.174  64.809  1.00  0.00    -0.436 C  
HETATM    7  C   UNL     1     -11.945  13.967  63.885  1.00  0.00    -0.372 C  
HETATM    8  C   UNL     1     -11.698  12.033  65.284  1.00  0.00    -0.312 C  
HETATM    9  C   UNL     1     -12.274  12.488  63.953  1.00  0.00    -0.590 C  
ENDBRANCH   4   5
BRANCH   4  10
HETATM   10  N   UNL     1     -10.338  11.829  67.776  1.00  0.00    -0.190 NA 
HETATM   11  C   UNL     1     -10.823   9.991  68.904  1.00  0.00    -0.250 A  
HETATM   12  C   UNL     1      -9.953  10.542  67.991  1.00  0.00    -0.155 A  
HETATM   13  C   UNL     1     -11.634  11.077  69.279  1.00  0.00    -0.314 A  
HETATM   14  N   UNL     1     -11.322  12.202  68.629  1.00  0.00    -0.255 NA 
BRANCH  11  15
HETATM   15  C   UNL     1     -10.787   8.597  69.270  1.00  0.00    -0.065 A  
HETATM   16  C   UNL     1     -11.033   8.167  70.575  1.00  0.00    -0.248 A  
HETATM   17  C   UNL     1     -11.314   8.748  71.844  1.00  0.00    -0.431 A  
HETATM   18  C   UNL     1     -11.509   7.721  72.744  1.00  0.00    -0.359 A  
HETATM   19  N   UNL     1     -11.364   6.539  72.067  1.00  0.00    -0.271 NA 
HETATM   20  C   UNL     1     -11.083   6.790  70.752  1.00  0.00    -0.276 A  
HETATM   21  H   UNL     1     -11.451   5.610  72.481  1.00  0.00     0.000 HD 
HETATM   22  N   UNL     1     -10.912   5.844  69.818  1.00  0.00    -0.378 NA 
HETATM   23  C   UNL     1     -10.687   6.378  68.606  1.00  0.00    -0.285 A  
HETATM   24  N   UNL     1     -10.621   7.681  68.278  1.00  0.00    -0.165 NA 
ENDBRANCH  11  15
ENDBRANCH   4  10
ENDBRANCH   3   4
TORSDOF 4
ENDMDL
MODEL      134
REMARK 921   NORMALIZED FREE ENERGY PREDICTED BY IDOCK:   -5.31 KCAL/MOL
REMARK 922        TOTAL FREE ENERGY PREDICTED BY IDOCK:   -6.96 KCAL/MOL
REMARK 923 INTER-LIGAND FREE ENERGY PREDICTED BY IDOCK:   -6.36 KCAL/MOL
REMARK 924 INTRA-LIGAND FREE ENERGY PREDICTED BY IDOCK:   -0.60 KCAL/MOL
REMARK 927      BINDING AFFINITY PREDICTED BY RF-SCORE:    0.00 PKD
ROOT
HETATM    1  N   UNL     1     -10.753  16.649  69.742  1.00  0.00    -0.310 NA 
HETATM    2  C   UNL     1     -11.262  15.834  69.093  1.00  0.00    -0.322 C  
HETATM    3  C   UNL     1     -11.921  14.767  68.324  1.00  0.00    -0.258 C  
ENDROOT
BRANCH   3   4
HETATM    4  C   UNL     1     -10.945  13.625  67.938  1.00  0.00    -0.259 C  
BRANCH   4   5
HETATM    5  C   UNL     1     -10.968  13.337  66.399  1.00  0.00    -0.301 C  
HETATM    6  C   UNL     1     -11.335  14.535  65.503  1.00  0.00    -0.335 C  
HETATM    7  C   UNL     1     -12.069  13.992  64.283  1.00  0.00    -0.476 C  
HETATM    8  C   UNL     1     -12.022  12.299  65.982  1.00  0.00    -0.342 C  
HETATM    9  C   UNL     1     -12.152  12.491  64.480  1.00  0.00    -0.496 C  
ENDBRANCH   4   5
BRANCH   4  10
HETATM   10  N   UNL     1     -11.150  12.453  68.807  1.00  0.00    -0.249 NA 
HETATM   11  C   UNL     1     -11.060  10.472  69.783  1.00  0.00    -0.354 A  
HETATM   12  C   UNL     1     -10.444  11.292  68.865  1.00  0.00    -0.206 A  
HETATM   13  C   UNL     1     -12.071  11.288  70.324  1.00  0.00    -0.373 A  
HETATM   14  N   UNL     1     -12.107  12.501  69.764  1.00  0.00    -0.264 NA 
BRANCH  11  15
HETATM   15  C   UNL     1     -10.650   9.108  70.007  1.00  0.00    -0.227 A  
HETATM   16  C   UNL     1     -10.527   8.190  68.962  1.00  0.00    -0.211 A  
HETATM   17  C   UNL     1     -10.739   8.156  67.555  1.00  0.00    -0.227 A  
HETATM   18  C   UNL     1     -10.362   6.910  67.101  1.00  0.00    -0.269 A  
HETATM   19  N   UNL     1      -9.922   6.188  68.180  1.00  0.00    -0.134 NA 
HETATM   20  C   UNL     1     -10.008   6.951  69.312  1.00  0.00    -0.159 A  
HETATM   21  H   UNL     1      -9.582   5.227  68.145  1.00  0.00     0.000 HD 
HETATM   22  N   UNL     1      -9.629   6.544  70.532  1.00  0.00    -0.169 NA 
HETATM   23  C   UNL     1      -9.789   7.511  71.450  1.00  0.00    -0.177 A  
HETATM   24  N   UNL     1     -10.266   8.755  71.263  1.00  0.00    -0.237 NA 
ENDBRANCH  11  15
ENDBRANCH   4  10
ENDBRANCH   3   4
TORSDOF 4
ENDMDL
MODEL      135
REMARK 921   NORMALIZED FREE ENERGY PREDICTED BY IDOCK:   -5.28 KCAL/MOL
REMARK 922        TOTAL FREE ENERGY PREDICTED BY IDOCK:   -6.92 KCAL/MOL
REMARK 923 INTER-LIGAND FREE ENERGY PREDICTED BY IDOCK:   -6.74 KCAL/MOL
REMARK 924 INTRA-LIGAND FREE ENERGY PREDICTED BY IDOCK:   -0.18 KCAL/MOL
REMARK 927      BINDING AFFINITY PREDICTED BY RF-SCORE:    0.00 PKD
ROOT
HETATM    1  N   UNL     1     -12.703  14.579  63.753  1.00  0.00    -0.678 NA 
HETATM    2  C   UNL     1     -11.969  14.209  64.571  1.00  0.00    -0.458 C  
HETATM    3  C   UNL     1     -11.082  13.696  65.627  1.00  0.00    -0.300 C  
ENDROOT
BRANCH   3   4
HETATM    4  C   UNL     1     -11.318  14.396  66.991  1.00  0.00    -0.346 C  
BRANCH   4   5
HETATM    5  C   UNL     1     -10.287  15.549  67.238  1.00  0.00    -0.267 C  
HETATM    6  C   UNL     1      -9.312  15.830  66.079  1.00  0.00    -0.384 C  
HETATM    7  C   UNL     1      -7.996  16.303  66.686  1.00  0.00    -0.324 C  
HETATM    8  C   UNL     1      -9.321  15.272  68.401  1.00  0.00    -0.194 C  
HETATM    9  C   UNL     1      -8.196  16.272  68.189  1.00  0.00    -0.163 C  
ENDBRANCH   4   5
BRANCH   4  10
HETATM   10  N   UNL     1     -11.429  13.400  68.071  1.00  0.00    -0.285 NA 
HETATM   11  C   UNL     1     -11.296  11.592  69.334  1.00  0.00    -0.342 A  
HETATM   12  C   UNL     1     -10.825  12.187  68.185  1.00  0.00    -0.222 A  
HETATM   13  C   UNL     1     -12.096  12.591  69.916  1.00  0.00    -0.252 A  
HETATM   14  N   UNL     1     -12.150  13.703  69.175  1.00  0.00    -0.343 NA 
BRANCH  11  15
HETATM   15  C   UNL     1     -10.962  10.238  69.703  1.00  0.00    -0.270 A  
HETATM   16  C   UNL     1     -10.665   9.263  68.749  1.00  0.00    -0.184 A  
HETATM   17  C   UNL     1     -10.613   9.152  67.330  1.00  0.00    -0.315 A  
HETATM   18  C   UNL     1     -10.182   7.879  67.022  1.00  0.00    -0.312 A  
HETATM   19  N   UNL     1      -9.965   7.214  68.201  1.00  0.00    -0.147 NA 
HETATM   20  C   UNL     1     -10.245   8.040  69.255  1.00  0.00    -0.213 A  
HETATM   21  H   UNL     1      -9.644   6.249  68.280  1.00  0.00     0.000 HD 
HETATM   22  N   UNL     1     -10.106   7.698  70.544  1.00  0.00    -0.188 NA 
HETATM   23  C   UNL     1     -10.415   8.716  71.363  1.00  0.00    -0.257 A  
HETATM   24  N   UNL     1     -10.824   9.952  71.025  1.00  0.00    -0.299 NA 
ENDBRANCH  11  15
ENDBRANCH   4  10
ENDBRANCH   3   4
TORSDOF 4
ENDMDL
MODEL      136
REMARK 921   NORMALIZED FREE ENERGY PREDICTED BY IDOCK:   -5.27 KCAL/MOL
REMARK 922        TOTAL FREE ENERGY PREDICTED BY IDOCK:   -6.91 KCAL/MOL
REMARK 923 INTER-LIGAND FREE ENERGY PREDICTED BY IDOCK:   -6.28 KCAL/MOL
REMARK 924 INTRA-LIGAND FREE ENERGY PREDICTED BY IDOCK:   -0.63 KCAL/MOL
REMARK 927      BINDING AFFINITY PREDICTED BY RF-SCORE:    0.00 PKD
ROOT
HETATM    1  N   UNL     1      -5.722  12.814  67.886  1.00  0.00    -0.102 NA 
HETATM    2  C   UNL     1      -6.335  12.050  67.266  1.00  0.00    -0.151 C  
HETATM    3  C   UNL     1      -7.150  11.128  66.459  1.00  0.00    -0.124 C  
ENDROOT
BRANCH   3   4
HETATM    4  C   UNL     1      -8.364  10.567  67.247  1.00  0.00    -0.122 C  
BRANCH   4   5
HETATM    5  C   UNL     1      -8.923   9.257  66.594  1.00  0.00    -0.165 C  
HETATM    6  C   UNL     1     -10.355   8.867  67.006  1.00  0.00    -0.340 C  
HETATM    7  C   UNL     1     -10.442   7.346  66.991  1.00  0.00    -0.404 C  
HETATM    8  C   UNL     1      -8.132   7.995  66.974  1.00  0.00    -0.116 C  
HETATM    9  C   UNL     1      -9.062   6.853  66.599  1.00  0.00    -0.172 C  
ENDBRANCH   4   5
BRANCH   4  10
HETATM   10  N   UNL     1      -9.355  11.628  67.494  1.00  0.00    -0.166 NA 
HETATM   11  C   UNL     1     -10.801  13.036  68.394  1.00  0.00    -0.280 A  
HETATM   12  C   UNL     1      -9.842  12.090  68.677  1.00  0.00    -0.117 A  
HETATM   13  C   UNL     1     -10.731  13.165  66.996  1.00  0.00    -0.262 A  
HETATM   14  N   UNL     1      -9.831  12.342  66.447  1.00  0.00    -0.235 NA 
BRANCH  11  15
HETATM   15  C   UNL     1     -11.617  13.646  69.415  1.00  0.00    -0.312 A  
HETATM   16  C   UNL     1     -12.247  12.894  70.408  1.00  0.00    -0.381 A  
HETATM   17  C   UNL     1     -12.389  11.523  70.766  1.00  0.00    -0.472 A  
HETATM   18  C   UNL     1     -13.125  11.465  71.931  1.00  0.00    -0.400 A  
HETATM   19  N   UNL     1     -13.429  12.750  72.297  1.00  0.00    -0.558 NA 
HETATM   20  C   UNL     1     -12.898  13.627  71.391  1.00  0.00    -0.360 A  
HETATM   21  H   UNL     1     -13.969  13.014  73.121  1.00  0.00     0.000 HD 
HETATM   22  N   UNL     1     -12.995  14.961  71.480  1.00  0.00    -0.318 NA 
HETATM   23  C   UNL     1     -12.348  15.574  70.475  1.00  0.00    -0.418 A  
HETATM   24  N   UNL     1     -11.669  15.004  69.463  1.00  0.00    -0.303 NA 
ENDBRANCH  11  15
ENDBRANCH   4  10
ENDBRANCH   3   4
TORSDOF 4
ENDMDL
MODEL      137
REMARK 921   NORMALIZED FREE ENERGY PREDICTED BY IDOCK:   -5.26 KCAL/MOL
REMARK 922        TOTAL FREE ENERGY PREDICTED BY IDOCK:   -6.90 KCAL/MOL
REMARK 923 INTER-LIGAND FREE ENERGY PREDICTED BY IDOCK:   -6.26 KCAL/MOL
REMARK 924 INTRA-LIGAND FREE ENERGY PREDICTED BY IDOCK:   -0.64 KCAL/MOL
REMARK 927      BINDING AFFINITY PREDICTED BY RF-SCORE:    0.00 PKD
ROOT
HETATM    1  N   UNL     1     -10.901  12.602  64.424  1.00  0.00    -0.332 NA 
HETATM    2  C   UNL     1     -11.177  12.557  65.549  1.00  0.00    -0.314 C  
HETATM    3  C   UNL     1     -11.512  12.563  66.981  1.00  0.00    -0.419 C  
ENDROOT
BRANCH   3   4
HETATM    4  C   UNL     1     -10.289  12.232  67.877  1.00  0.00    -0.208 C  
BRANCH   4   5
HETATM    5  C   UNL     1     -10.725  11.805  69.320  1.00  0.00    -0.117 C  
HETATM    6  C   UNL     1     -10.179  10.450  69.807  1.00  0.00    -0.228 C  
HETATM    7  C   UNL     1     -11.223   9.836  70.732  1.00  0.00    -0.419 C  
HETATM    8  C   UNL     1     -12.241  11.606  69.470  1.00  0.00    -0.257 C  
HETATM    9  C   UNL     1     -12.380  10.816  70.761  1.00  0.00    -0.480 C  
ENDBRANCH   4   5
BRANCH   4  10
HETATM   10  N   UNL     1      -9.289  13.312  67.808  1.00  0.00    -0.200 NA 
HETATM   11  C   UNL     1      -8.192  15.223  67.966  1.00  0.00    -0.143 A  
HETATM   12  C   UNL     1      -9.320  14.548  68.374  1.00  0.00    -0.208 A  
HETATM   13  C   UNL     1      -7.472  14.253  67.247  1.00  0.00    -0.055 A  
HETATM   14  N   UNL     1      -8.113  13.082  67.179  1.00  0.00    -0.148 NA 
BRANCH  11  15
HETATM   15  C   UNL     1      -7.962  16.613  68.276  1.00  0.00    -0.192 A  
HETATM   16  C   UNL     1      -8.919  17.597  68.021  1.00  0.00    -0.264 A  
HETATM   17  C   UNL     1     -10.216  17.686  67.441  1.00  0.00    -0.345 A  
HETATM   18  C   UNL     1     -10.640  18.993  67.553  1.00  0.00    -0.461 A  
HETATM   19  N   UNL     1      -9.651  19.700  68.186  1.00  0.00    -0.360 NA 
HETATM   20  C   UNL     1      -8.606  18.869  68.483  1.00  0.00    -0.348 A  
HETATM   21  H   UNL     1      -9.688  20.697  68.402  1.00  0.00     0.000 HD 
HETATM   22  N   UNL     1      -7.494  19.249  69.128  1.00  0.00    -0.328 NA 
HETATM   23  C   UNL     1      -6.654  18.219  69.318  1.00  0.00    -0.236 A  
HETATM   24  N   UNL     1      -6.821  16.938  68.941  1.00  0.00    -0.196 NA 
ENDBRANCH  11  15
ENDBRANCH   4  10
ENDBRANCH   3   4
TORSDOF 4
ENDMDL
MODEL      138
REMARK 921   NORMALIZED FREE ENERGY PREDICTED BY IDOCK:   -5.25 KCAL/MOL
REMARK 922        TOTAL FREE ENERGY PREDICTED BY IDOCK:   -6.88 KCAL/MOL
REMARK 923 INTER-LIGAND FREE ENERGY PREDICTED BY IDOCK:   -6.24 KCAL/MOL
REMARK 924 INTRA-LIGAND FREE ENERGY PREDICTED BY IDOCK:   -0.64 KCAL/MOL
REMARK 927      BINDING AFFINITY PREDICTED BY RF-SCORE:    0.00 PKD
ROOT
HETATM    1  N   UNL     1     -10.505  15.183  69.381  1.00  0.00    -0.246 NA 
HETATM    2  C   UNL     1     -10.842  14.138  69.008  1.00  0.00    -0.251 C  
HETATM    3  C   UNL     1     -11.296  12.802  68.591  1.00  0.00    -0.333 C  
ENDROOT
BRANCH   3   4
HETATM    4  C   UNL     1     -10.257  11.696  68.914  1.00  0.00    -0.125 C  
BRANCH   4   5
HETATM    5  C   UNL     1      -9.625  11.096  67.612  1.00  0.00    -0.180 C  
HETATM    6  C   UNL     1      -9.549  12.053  66.406  1.00  0.00    -0.239 C  
HETATM    7  C   UNL     1      -9.702  11.216  65.142  1.00  0.00    -0.296 C  
HETATM    8  C   UNL     1     -10.421   9.918  67.028  1.00  0.00    -0.296 C  
HETATM    9  C   UNL     1      -9.892   9.786  65.609  1.00  0.00    -0.371 C  
ENDBRANCH   4   5
BRANCH   4  10
HETATM   10  N   UNL     1     -10.820  10.716  69.857  1.00  0.00    -0.264 NA 
HETATM   11  C   UNL     1     -11.181   8.978  71.175  1.00  0.00    -0.375 A  
HETATM   12  C   UNL     1     -10.231   9.624  70.415  1.00  0.00    -0.288 A  
HETATM   13  C   UNL     1     -12.291   9.838  71.110  1.00  0.00    -0.359 A  
HETATM   14  N   UNL     1     -12.068  10.911  70.345  1.00  0.00    -0.332 NA 
BRANCH  11  15
HETATM   15  C   UNL     1     -10.936   7.708  71.811  1.00  0.00    -0.239 A  
HETATM   16  C   UNL     1     -10.634   6.558  71.078  1.00  0.00    -0.275 A  
HETATM   17  C   UNL     1     -10.505   6.179  69.711  1.00  0.00    -0.299 A  
HETATM   18  C   UNL     1     -10.121   4.855  69.675  1.00  0.00    -0.230 A  
HETATM   19  N   UNL     1     -10.006   4.418  70.969  1.00  0.00    -0.192 NA 
HETATM   20  C   UNL     1     -10.305   5.438  71.830  1.00  0.00    -0.212 A  
HETATM   21  H   UNL     1      -9.738   3.474  71.249  1.00  0.00     0.000 HD 
HETATM   22  N   UNL     1     -10.259   5.342  73.167  1.00  0.00    -0.176 NA 
HETATM   23  C   UNL     1     -10.563   6.508  73.759  1.00  0.00    -0.266 A  
HETATM   24  N   UNL     1     -10.890   7.672  73.169  1.00  0.00    -0.399 NA 
ENDBRANCH  11  15
ENDBRANCH   4  10
ENDBRANCH   3   4
TORSDOF 4
ENDMDL
MODEL      139
REMARK 921   NORMALIZED FREE ENERGY PREDICTED BY IDOCK:   -5.23 KCAL/MOL
REMARK 922        TOTAL FREE ENERGY PREDICTED BY IDOCK:   -6.87 KCAL/MOL
REMARK 923 INTER-LIGAND FREE ENERGY PREDICTED BY IDOCK:   -6.40 KCAL/MOL
REMARK 924 INTRA-LIGAND FREE ENERGY PREDICTED BY IDOCK:   -0.46 KCAL/MOL
REMARK 927      BINDING AFFINITY PREDICTED BY RF-SCORE:    0.00 PKD
ROOT
HETATM    1  N   UNL     1     -10.160  12.659  63.932  1.00  0.00    -0.327 NA 
HETATM    2  C   UNL     1     -11.013  13.197  64.503  1.00  0.00    -0.372 C  
HETATM    3  C   UNL     1     -12.067  13.936  65.215  1.00  0.00    -0.422 C  
ENDROOT
BRANCH   3   4
HETATM    4  C   UNL     1     -11.725  14.162  66.711  1.00  0.00    -0.410 C  
BRANCH   4   5
HETATM    5  C   UNL     1     -10.732  15.357  66.905  1.00  0.00    -0.314 C  
HETATM    6  C   UNL     1     -11.108  16.364  68.009  1.00  0.00    -0.292 C  
HETATM    7  C   UNL     1     -10.609  17.736  67.572  1.00  0.00    -0.365 C  
HETATM    8  C   UNL     1     -10.618  16.269  65.673  1.00  0.00    -0.360 C  
HETATM    9  C   UNL     1      -9.970  17.534  66.212  1.00  0.00    -0.316 C  
ENDBRANCH   4   5
BRANCH   4  10
HETATM   10  N   UNL     1     -11.327  12.895  67.348  1.00  0.00    -0.291 NA 
HETATM   11  C   UNL     1     -10.278  11.292  68.450  1.00  0.00    -0.205 A  
HETATM   12  C   UNL     1     -10.273  12.640  68.169  1.00  0.00    -0.240 A  
HETATM   13  C   UNL     1     -11.462  10.836  67.846  1.00  0.00    -0.227 A  
HETATM   14  N   UNL     1     -12.123  11.808  67.209  1.00  0.00    -0.499 NA 
BRANCH  11  15
HETATM   15  C   UNL     1      -9.223  10.649  69.194  1.00  0.00    -0.148 A  
HETATM   16  C   UNL     1      -9.487   9.809  70.278  1.00  0.00    -0.250 A  
HETATM   17  C   UNL     1     -10.620   9.348  71.007  1.00  0.00    -0.400 A  
HETATM   18  C   UNL     1     -10.174   8.462  71.965  1.00  0.00    -0.294 A  
HETATM   19  N   UNL     1      -8.812   8.365  71.841  1.00  0.00    -0.184 NA 
HETATM   20  C   UNL     1      -8.382   9.167  70.821  1.00  0.00    -0.208 A  
HETATM   21  H   UNL     1      -8.210   7.782  72.423  1.00  0.00     0.000 HD 
HETATM   22  N   UNL     1      -7.105   9.274  70.427  1.00  0.00    -0.077 NA 
HETATM   23  C   UNL     1      -6.978  10.103  69.377  1.00  0.00    -0.076 A  
HETATM   24  N   UNL     1      -7.948  10.784  68.742  1.00  0.00    -0.128 NA 
ENDBRANCH  11  15
ENDBRANCH   4  10
ENDBRANCH   3   4
TORSDOF 4
ENDMDL
MODEL      140
REMARK 921   NORMALIZED FREE ENERGY PREDICTED BY IDOCK:   -5.22 KCAL/MOL
REMARK 922        TOTAL FREE ENERGY PREDICTED BY IDOCK:   -6.85 KCAL/MOL
REMARK 923 INTER-LIGAND FREE ENERGY PREDICTED BY IDOCK:   -6.16 KCAL/MOL
REMARK 924 INTRA-LIGAND FREE ENERGY PREDICTED BY IDOCK:   -0.69 KCAL/MOL
REMARK 927      BINDING AFFINITY PREDICTED BY RF-SCORE:    0.00 PKD
ROOT
HETATM    1  N   UNL     1      -7.363   4.264  65.814  1.00  0.00    -0.078 NA 
HETATM    2  C   UNL     1      -8.127   5.122  65.973  1.00  0.00    -0.109 C  
HETATM    3  C   UNL     1      -9.063   6.246  66.130  1.00  0.00    -0.153 C  
ENDROOT
BRANCH   3   4
HETATM    4  C   UNL     1      -8.594   7.263  67.203  1.00  0.00    -0.121 C  
BRANCH   4   5
HETATM    5  C   UNL     1      -9.176   6.925  68.618  1.00  0.00    -0.130 C  
HETATM    6  C   UNL     1      -8.214   6.199  69.578  1.00  0.00    -0.116 C  
HETATM    7  C   UNL     1      -9.049   5.285  70.465  1.00  0.00    -0.174 C  
HETATM    8  C   UNL     1     -10.369   5.956  68.577  1.00  0.00    -0.268 C  
HETATM    9  C   UNL     1     -10.485   5.457  70.008  1.00  0.00    -0.373 C  
ENDBRANCH   4   5
BRANCH   4  10
HETATM   10  N   UNL     1      -8.813   8.643  66.739  1.00  0.00    -0.130 NA 
HETATM   11  C   UNL     1      -9.676  10.542  66.008  1.00  0.00    -0.257 A  
HETATM   12  C   UNL     1      -9.984   9.291  66.494  1.00  0.00    -0.274 A  
HETATM   13  C   UNL     1      -8.276  10.600  66.117  1.00  0.00    -0.156 A  
HETATM   14  N   UNL     1      -7.749   9.468  66.595  1.00  0.00    -0.097 NA 
BRANCH  11  15
HETATM   15  C   UNL     1     -10.680  11.457  65.523  1.00  0.00    -0.253 A  
HETATM   16  C   UNL     1     -11.240  12.442  66.339  1.00  0.00    -0.365 A  
HETATM   17  C   UNL     1     -11.150  12.871  67.693  1.00  0.00    -0.297 A  
HETATM   18  C   UNL     1     -11.961  13.977  67.841  1.00  0.00    -0.351 A  
HETATM   19  N   UNL     1     -12.536  14.239  66.625  1.00  0.00    -0.543 NA 
HETATM   20  C   UNL     1     -12.104  13.325  65.703  1.00  0.00    -0.441 A  
HETATM   21  H   UNL     1     -13.187  15.001  66.435  1.00  0.00     0.000 HD 
HETATM   22  N   UNL     1     -12.460  13.324  64.410  1.00  0.00    -0.611 NA 
HETATM   23  C   UNL     1     -11.856  12.337  63.730  1.00  0.00    -0.498 A  
HETATM   24  N   UNL     1     -10.994  11.418  64.201  1.00  0.00    -0.359 NA 
ENDBRANCH  11  15
ENDBRANCH   4  10
ENDBRANCH   3   4
TORSDOF 4
ENDMDL
MODEL      141
REMARK 921   NORMALIZED FREE ENERGY PREDICTED BY IDOCK:   -5.22 KCAL/MOL
REMARK 922        TOTAL FREE ENERGY PREDICTED BY IDOCK:   -6.85 KCAL/MOL
REMARK 923 INTER-LIGAND FREE ENERGY PREDICTED BY IDOCK:   -6.35 KCAL/MOL
REMARK 924 INTRA-LIGAND FREE ENERGY PREDICTED BY IDOCK:   -0.50 KCAL/MOL
REMARK 927      BINDING AFFINITY PREDICTED BY RF-SCORE:    0.00 PKD
ROOT
HETATM    1  N   UNL     1     -12.208  15.720  63.911  1.00  0.00    -0.670 NA 
HETATM    2  C   UNL     1     -12.316  14.702  64.454  1.00  0.00    -0.398 C  
HETATM    3  C   UNL     1     -12.515  13.423  65.154  1.00  0.00    -0.509 C  
ENDROOT
BRANCH   3   4
HETATM    4  C   UNL     1     -12.279  13.541  66.682  1.00  0.00    -0.358 C  
BRANCH   4   5
HETATM    5  C   UNL     1     -11.453  14.821  67.045  1.00  0.00    -0.362 C  
HETATM    6  C   UNL     1      -9.926  14.631  67.116  1.00  0.00    -0.240 C  
HETATM    7  C   UNL     1      -9.390  15.587  68.175  1.00  0.00    -0.197 C  
HETATM    8  C   UNL     1     -11.766  15.379  68.443  1.00  0.00    -0.332 C  
HETATM    9  C   UNL     1     -10.600  16.310  68.735  1.00  0.00    -0.298 C  
ENDBRANCH   4   5
BRANCH   4  10
HETATM   10  N   UNL     1     -11.759  12.274  67.225  1.00  0.00    -0.488 NA 
HETATM   11  C   UNL     1     -10.708  10.357  67.547  1.00  0.00    -0.339 A  
HETATM   12  C   UNL     1     -10.792  11.458  66.725  1.00  0.00    -0.286 A  
HETATM   13  C   UNL     1     -11.588  10.665  68.599  1.00  0.00    -0.227 A  
HETATM   14  N   UNL     1     -12.200  11.842  68.430  1.00  0.00    -0.398 NA 
BRANCH  11  15
HETATM   15  C   UNL     1      -9.869   9.223  67.246  1.00  0.00    -0.182 A  
HETATM   16  C   UNL     1      -8.483   9.263  67.408  1.00  0.00    -0.122 A  
HETATM   17  C   UNL     1      -7.491  10.206  67.798  1.00  0.00    -0.089 A  
HETATM   18  C   UNL     1      -6.271   9.562  67.795  1.00  0.00    -0.053 A  
HETATM   19  N   UNL     1      -6.488   8.261  67.423  1.00  0.00    -0.057 NA 
HETATM   20  C   UNL     1      -7.821   8.061  67.193  1.00  0.00    -0.105 A  
HETATM   21  H   UNL     1      -5.763   7.548  67.332  1.00  0.00     0.000 HD 
HETATM   22  N   UNL     1      -8.362   6.886  66.841  1.00  0.00    -0.113 NA 
HETATM   23  C   UNL     1      -9.697   6.972  66.720  1.00  0.00    -0.184 A  
HETATM   24  N   UNL     1     -10.474   8.054  66.904  1.00  0.00    -0.341 NA 
ENDBRANCH  11  15
ENDBRANCH   4  10
ENDBRANCH   3   4
TORSDOF 4
ENDMDL
MODEL      142
REMARK 921   NORMALIZED FREE ENERGY PREDICTED BY IDOCK:   -5.22 KCAL/MOL
REMARK 922        TOTAL FREE ENERGY PREDICTED BY IDOCK:   -6.84 KCAL/MOL
REMARK 923 INTER-LIGAND FREE ENERGY PREDICTED BY IDOCK:   -6.36 KCAL/MOL
REMARK 924 INTRA-LIGAND FREE ENERGY PREDICTED BY IDOCK:   -0.49 KCAL/MOL
REMARK 927      BINDING AFFINITY PREDICTED BY RF-SCORE:    0.00 PKD
ROOT
HETATM    1  N   UNL     1     -13.591   9.297  72.111  1.00  0.00    -0.447 NA 
HETATM    2  C   UNL     1     -12.718   9.838  71.572  1.00  0.00    -0.406 C  
HETATM    3  C   UNL     1     -11.655  10.561  70.857  1.00  0.00    -0.385 C  
ENDROOT
BRANCH   3   4
HETATM    4  C   UNL     1     -11.302   9.902  69.497  1.00  0.00    -0.124 C  
BRANCH   4   5
HETATM    5  C   UNL     1     -10.297   8.713  69.673  1.00  0.00    -0.213 C  
HETATM    6  C   UNL     1     -10.935   7.330  69.903  1.00  0.00    -0.262 C  
HETATM    7  C   UNL     1      -9.995   6.531  70.798  1.00  0.00    -0.205 C  
HETATM    8  C   UNL     1      -9.390   8.851  70.906  1.00  0.00    -0.295 C  
HETATM    9  C   UNL     1      -8.830   7.452  71.107  1.00  0.00    -0.142 C  
ENDBRANCH   4   5
BRANCH   4  10
HETATM   10  N   UNL     1     -10.911  10.925  68.513  1.00  0.00    -0.210 NA 
HETATM   11  C   UNL     1      -9.970  12.614  67.442  1.00  0.00    -0.204 A  
HETATM   12  C   UNL     1      -9.885  11.817  68.562  1.00  0.00    -0.189 A  
HETATM   13  C   UNL     1     -11.020  12.036  66.707  1.00  0.00    -0.285 A  
HETATM   14  N   UNL     1     -11.570  10.989  67.332  1.00  0.00    -0.521 NA 
BRANCH  11  15
HETATM   15  C   UNL     1      -9.111  13.753  67.232  1.00  0.00    -0.232 A  
HETATM   16  C   UNL     1      -9.539  14.884  66.533  1.00  0.00    -0.297 A  
HETATM   17  C   UNL     1     -10.702  15.319  65.836  1.00  0.00    -0.340 A  
HETATM   18  C   UNL     1     -10.479  16.611  65.408  1.00  0.00    -0.233 A  
HETATM   19  N   UNL     1      -9.226  16.978  65.825  1.00  0.00    -0.521 NA 
HETATM   20  C   UNL     1      -8.647  15.948  66.514  1.00  0.00    -0.310 A  
HETATM   21  H   UNL     1      -8.790  17.884  65.648  1.00  0.00     0.000 HD 
HETATM   22  N   UNL     1      -7.432  16.000  67.077  1.00  0.00    -0.217 NA 
HETATM   23  C   UNL     1      -7.134  14.861  67.722  1.00  0.00    -0.174 A  
HETATM   24  N   UNL     1      -7.893  13.756  67.836  1.00  0.00    -0.142 NA 
ENDBRANCH  11  15
ENDBRANCH   4  10
ENDBRANCH   3   4
TORSDOF 4
ENDMDL
MODEL      143
REMARK 921   NORMALIZED FREE ENERGY PREDICTED BY IDOCK:   -5.20 KCAL/MOL
REMARK 922        TOTAL FREE ENERGY PREDICTED BY IDOCK:   -6.82 KCAL/MOL
REMARK 923 INTER-LIGAND FREE ENERGY PREDICTED BY IDOCK:   -6.16 KCAL/MOL
REMARK 924 INTRA-LIGAND FREE ENERGY PREDICTED BY IDOCK:   -0.66 KCAL/MOL
REMARK 927      BINDING AFFINITY PREDICTED BY RF-SCORE:    0.00 PKD
ROOT
HETATM    1  N   UNL     1     -12.992  15.119  71.258  1.00  0.00    -0.371 NA 
HETATM    2  C   UNL     1     -12.577  15.533  70.258  1.00  0.00    -0.323 C  
HETATM    3  C   UNL     1     -12.079  16.010  68.958  1.00  0.00    -0.027 C  
ENDROOT
BRANCH   3   4
HETATM    4  C   UNL     1     -10.704  15.393  68.588  1.00  0.00    -0.246 C  
BRANCH   4   5
HETATM    5  C   UNL     1      -9.710  16.475  68.046  1.00  0.00    -0.236 C  
HETATM    6  C   UNL     1      -9.422  16.416  66.534  1.00  0.00    -0.296 C  
HETATM    7  C   UNL     1      -7.989  16.886  66.318  1.00  0.00    -0.350 C  
HETATM    8  C   UNL     1      -8.296  16.364  68.640  1.00  0.00    -0.221 C  
HETATM    9  C   UNL     1      -7.437  17.191  67.697  1.00  0.00    -0.183 C  
ENDBRANCH   4   5
BRANCH   4  10
HETATM   10  N   UNL     1     -10.882  14.207  67.733  1.00  0.00    -0.250 NA 
HETATM   11  C   UNL     1     -10.684  12.256  66.714  1.00  0.00    -0.272 A  
HETATM   12  C   UNL     1     -10.207  13.026  67.751  1.00  0.00    -0.228 A  
HETATM   13  C   UNL     1     -11.746  13.021  66.200  1.00  0.00    -0.394 A  
HETATM   14  N   UNL     1     -11.896  14.187  66.836  1.00  0.00    -0.412 NA 
BRANCH  11  15
HETATM   15  C   UNL     1     -10.103  10.985  66.358  1.00  0.00    -0.229 A  
HETATM   16  C   UNL     1      -9.828  10.642  65.033  1.00  0.00    -0.353 A  
HETATM   17  C   UNL     1      -9.991  11.210  63.737  1.00  0.00    -0.401 A  
HETATM   18  C   UNL     1      -9.437  10.340  62.822  1.00  0.00    -0.290 A  
HETATM   19  N   UNL     1      -8.939   9.267  63.514  1.00  0.00    -0.422 NA 
HETATM   20  C   UNL     1      -9.160   9.438  64.853  1.00  0.00    -0.202 A  
HETATM   21  H   UNL     1      -8.473   8.462  63.094  1.00  0.00     0.000 HD 
HETATM   22  N   UNL     1      -8.766   8.577  65.803  1.00  0.00    -0.170 NA 
HETATM   23  C   UNL     1      -9.081   9.016  67.032  1.00  0.00    -0.130 A  
HETATM   24  N   UNL     1      -9.713  10.157  67.363  1.00  0.00    -0.157 NA 
ENDBRANCH  11  15
ENDBRANCH   4  10
ENDBRANCH   3   4
TORSDOF 4
ENDMDL
MODEL      144
REMARK 921   NORMALIZED FREE ENERGY PREDICTED BY IDOCK:   -5.19 KCAL/MOL
REMARK 922        TOTAL FREE ENERGY PREDICTED BY IDOCK:   -6.81 KCAL/MOL
REMARK 923 INTER-LIGAND FREE ENERGY PREDICTED BY IDOCK:   -6.42 KCAL/MOL
REMARK 924 INTRA-LIGAND FREE ENERGY PREDICTED BY IDOCK:   -0.39 KCAL/MOL
REMARK 927      BINDING AFFINITY PREDICTED BY RF-SCORE:    0.00 PKD
ROOT
HETATM    1  N   UNL     1     -12.518   9.224  71.608  1.00  0.00    -0.345 NA 
HETATM    2  C   UNL     1     -11.868   9.890  70.918  1.00  0.00    -0.356 C  
HETATM    3  C   UNL     1     -11.094  10.747  70.006  1.00  0.00    -0.327 C  
ENDROOT
BRANCH   3   4
HETATM    4  C   UNL     1     -10.527   9.963  68.793  1.00  0.00    -0.213 C  
BRANCH   4   5
HETATM    5  C   UNL     1      -9.422   8.942  69.228  1.00  0.00    -0.161 C  
HETATM    6  C   UNL     1      -9.920   7.524  69.563  1.00  0.00    -0.180 C  
HETATM    7  C   UNL     1      -9.012   6.960  70.650  1.00  0.00    -0.151 C  
HETATM    8  C   UNL     1      -8.696   9.336  70.524  1.00  0.00    -0.276 C  
HETATM    9  C   UNL     1      -8.009   8.053  70.963  1.00  0.00    -0.092 C  
ENDBRANCH   4   5
BRANCH   4  10
HETATM   10  N   UNL     1     -10.149  10.887  67.710  1.00  0.00    -0.174 NA 
HETATM   11  C   UNL     1      -9.853  12.647  66.407  1.00  0.00    -0.263 A  
HETATM   12  C   UNL     1     -10.285  12.239  67.649  1.00  0.00    -0.203 A  
HETATM   13  C   UNL     1      -9.353  11.466  65.830  1.00  0.00    -0.228 A  
HETATM   14  N   UNL     1      -9.494  10.404  66.629  1.00  0.00    -0.161 NA 
BRANCH  11  15
HETATM   15  C   UNL     1      -9.974  14.009  65.949  1.00  0.00    -0.307 A  
HETATM   16  C   UNL     1     -10.957  14.401  65.039  1.00  0.00    -0.398 A  
HETATM   17  C   UNL     1     -12.004  13.794  64.287  1.00  0.00    -0.481 A  
HETATM   18  C   UNL     1     -12.659  14.792  63.596  1.00  0.00     0.768 A  
HETATM   19  N   UNL     1     -12.054  15.982  63.906  1.00  0.00    -1.257 NA 
HETATM   20  C   UNL     1     -11.028  15.764  64.783  1.00  0.00    -0.393 A  
HETATM   21  H   UNL     1     -12.327  16.893  63.537  1.00  0.00     0.000 HD 
HETATM   22  N   UNL     1     -10.255  16.729  65.302  1.00  0.00    -0.610 NA 
HETATM   23  C   UNL     1      -9.353  16.233  66.164  1.00  0.00    -0.339 A  
HETATM   24  N   UNL     1      -9.171  14.948  66.519  1.00  0.00    -0.274 NA 
ENDBRANCH  11  15
ENDBRANCH   4  10
ENDBRANCH   3   4
TORSDOF 4
ENDMDL
MODEL      145
REMARK 921   NORMALIZED FREE ENERGY PREDICTED BY IDOCK:   -5.19 KCAL/MOL
REMARK 922        TOTAL FREE ENERGY PREDICTED BY IDOCK:   -6.81 KCAL/MOL
REMARK 923 INTER-LIGAND FREE ENERGY PREDICTED BY IDOCK:   -6.72 KCAL/MOL
REMARK 924 INTRA-LIGAND FREE ENERGY PREDICTED BY IDOCK:   -0.09 KCAL/MOL
REMARK 927      BINDING AFFINITY PREDICTED BY RF-SCORE:    0.00 PKD
ROOT
HETATM    1  N   UNL     1     -11.373  14.116  69.440  1.00  0.00    -0.264 NA 
HETATM    2  C   UNL     1     -10.608  13.924  68.591  1.00  0.00    -0.257 C  
HETATM    3  C   UNL     1      -9.684  13.693  67.469  1.00  0.00    -0.227 C  
ENDROOT
BRANCH   3   4
HETATM    4  C   UNL     1      -9.703  12.222  66.978  1.00  0.00    -0.205 C  
BRANCH   4   5
HETATM    5  C   UNL     1     -10.959  11.923  66.091  1.00  0.00    -0.352 C  
HETATM    6  C   UNL     1     -10.662  11.478  64.646  1.00  0.00    -0.379 C  
HETATM    7  C   UNL     1     -11.794  11.990  63.764  1.00  0.00    -0.581 C  
HETATM    8  C   UNL     1     -11.858  13.149  65.864  1.00  0.00    -0.453 C  
HETATM    9  C   UNL     1     -12.729  12.750  64.684  1.00  0.00    -0.439 C  
ENDBRANCH   4   5
BRANCH   4  10
HETATM   10  N   UNL     1      -9.486  11.298  68.105  1.00  0.00    -0.177 NA 
HETATM   11  C   UNL     1      -9.722   9.914  69.812  1.00  0.00    -0.266 A  
HETATM   12  C   UNL     1     -10.397  10.573  68.809  1.00  0.00    -0.191 A  
HETATM   13  C   UNL     1      -8.373  10.211  69.548  1.00  0.00    -0.168 A  
HETATM   14  N   UNL     1      -8.220  11.017  68.493  1.00  0.00    -0.139 NA 
BRANCH  11  15
HETATM   15  C   UNL     1     -10.396   9.150  70.832  1.00  0.00    -0.280 A  
HETATM   16  C   UNL     1      -9.709   8.572  71.901  1.00  0.00    -0.358 A  
HETATM   17  C   UNL     1      -8.363   8.452  72.352  1.00  0.00    -0.219 A  
HETATM   18  C   UNL     1      -8.380   7.776  73.554  1.00  0.00    -0.196 A  
HETATM   19  N   UNL     1      -9.686   7.488  73.853  1.00  0.00    -0.381 NA 
HETATM   20  C   UNL     1     -10.503   7.969  72.867  1.00  0.00    -0.332 A  
HETATM   21  H   UNL     1     -10.002   6.989  74.685  1.00  0.00     0.000 HD 
HETATM   22  N   UNL     1     -11.841   7.874  72.877  1.00  0.00    -0.239 NA 
HETATM   23  C   UNL     1     -12.388   8.468  71.803  1.00  0.00    -0.338 A  
HETATM   24  N   UNL     1     -11.755   9.097  70.796  1.00  0.00    -0.277 NA 
ENDBRANCH  11  15
ENDBRANCH   4  10
ENDBRANCH   3   4
TORSDOF 4
ENDMDL
MODEL      146
REMARK 921   NORMALIZED FREE ENERGY PREDICTED BY IDOCK:   -5.17 KCAL/MOL
REMARK 922        TOTAL FREE ENERGY PREDICTED BY IDOCK:   -6.79 KCAL/MOL
REMARK 923 INTER-LIGAND FREE ENERGY PREDICTED BY IDOCK:   -6.05 KCAL/MOL
REMARK 924 INTRA-LIGAND FREE ENERGY PREDICTED BY IDOCK:   -0.74 KCAL/MOL
REMARK 927      BINDING AFFINITY PREDICTED BY RF-SCORE:    0.00 PKD
ROOT
HETATM    1  N   UNL     1     -10.582  20.323  68.323  1.00  0.00    -0.164 NA 
HETATM    2  C   UNL     1     -10.054  19.604  67.583  1.00  0.00    -0.417 C  
HETATM    3  C   UNL     1      -9.439  18.661  66.636  1.00  0.00    -0.328 C  
ENDROOT
BRANCH   3   4
HETATM    4  C   UNL     1      -8.875  17.398  67.339  1.00  0.00    -0.227 C  
BRANCH   4   5
HETATM    5  C   UNL     1      -7.329  17.259  67.129  1.00  0.00    -0.200 C  
HETATM    6  C   UNL     1      -6.450  18.100  68.075  1.00  0.00    -0.189 C  
HETATM    7  C   UNL     1      -5.192  18.492  67.309  1.00  0.00    -0.138 C  
HETATM    8  C   UNL     1      -6.850  17.736  65.748  1.00  0.00    -0.211 C  
HETATM    9  C   UNL     1      -5.350  17.906  65.920  1.00  0.00    -0.237 C  
ENDBRANCH   4   5
BRANCH   4  10
HETATM   10  N   UNL     1      -9.674  16.211  66.990  1.00  0.00    -0.226 NA 
HETATM   11  C   UNL     1     -10.690  14.249  66.965  1.00  0.00    -0.290 A  
HETATM   12  C   UNL     1      -9.981  15.128  67.753  1.00  0.00    -0.225 A  
HETATM   13  C   UNL     1     -10.868  14.957  65.764  1.00  0.00    -0.339 A  
HETATM   14  N   UNL     1     -10.288  16.161  65.785  1.00  0.00    -0.362 NA 
BRANCH  11  15
HETATM   15  C   UNL     1     -11.070  12.933  67.416  1.00  0.00    -0.273 A  
HETATM   16  C   UNL     1     -10.656  11.775  66.755  1.00  0.00    -0.273 A  
HETATM   17  C   UNL     1      -9.902  11.430  65.598  1.00  0.00    -0.274 A  
HETATM   18  C   UNL     1      -9.822  10.055  65.540  1.00  0.00    -0.303 A  
HETATM   19  N   UNL     1     -10.495   9.552  66.623  1.00  0.00    -0.208 NA 
HETATM   20  C   UNL     1     -10.999  10.579  67.372  1.00  0.00    -0.288 A  
HETATM   21  H   UNL     1     -10.605   8.560  66.837  1.00  0.00     0.000 HD 
HETATM   22  N   UNL     1     -11.685  10.420  68.513  1.00  0.00    -0.264 NA 
HETATM   23  C   UNL     1     -12.024  11.601  69.057  1.00  0.00    -0.305 A  
HETATM   24  N   UNL     1     -11.756  12.832  68.586  1.00  0.00    -0.307 NA 
ENDBRANCH  11  15
ENDBRANCH   4  10
ENDBRANCH   3   4
TORSDOF 4
ENDMDL
MODEL      147
REMARK 921   NORMALIZED FREE ENERGY PREDICTED BY IDOCK:   -5.17 KCAL/MOL
REMARK 922        TOTAL FREE ENERGY PREDICTED BY IDOCK:   -6.78 KCAL/MOL
REMARK 923 INTER-LIGAND FREE ENERGY PREDICTED BY IDOCK:   -6.27 KCAL/MOL
REMARK 924 INTRA-LIGAND FREE ENERGY PREDICTED BY IDOCK:   -0.52 KCAL/MOL
REMARK 927      BINDING AFFINITY PREDICTED BY RF-SCORE:    0.00 PKD
ROOT
HETATM    1  N   UNL     1     -10.767  18.986  65.437  1.00  0.00    -0.487 NA 
HETATM    2  C   UNL     1     -10.657  19.282  66.553  1.00  0.00    -0.446 C  
HETATM    3  C   UNL     1     -10.482  19.707  67.950  1.00  0.00    -0.556 C  
ENDROOT
BRANCH   3   4
HETATM    4  C   UNL     1      -9.221  19.085  68.605  1.00  0.00    -0.368 C  
BRANCH   4   5
HETATM    5  C   UNL     1      -7.907  19.539  67.883  1.00  0.00    -0.330 C  
HETATM    6  C   UNL     1      -6.691  19.774  68.798  1.00  0.00    -0.353 C  
HETATM    7  C   UNL     1      -5.855  20.888  68.179  1.00  0.00    -0.384 C  
HETATM    8  C   UNL     1      -8.034  20.897  67.173  1.00  0.00    -0.182 C  
HETATM    9  C   UNL     1      -6.594  21.316  66.926  1.00  0.00    -0.342 C  
ENDBRANCH   4   5
BRANCH   4  10
HETATM   10  N   UNL     1      -9.386  17.630  68.767  1.00  0.00    -0.261 NA 
HETATM   11  C   UNL     1      -9.179  15.431  68.682  1.00  0.00    -0.199 A  
HETATM   12  C   UNL     1      -8.562  16.622  68.372  1.00  0.00    -0.221 A  
HETATM   13  C   UNL     1     -10.330  15.832  69.384  1.00  0.00    -0.263 A  
HETATM   14  N   UNL     1     -10.442  17.161  69.472  1.00  0.00    -0.230 NA 
BRANCH  11  15
HETATM   15  C   UNL     1      -8.643  14.152  68.288  1.00  0.00    -0.175 A  
HETATM   16  C   UNL     1      -9.298  13.324  67.374  1.00  0.00    -0.217 A  
HETATM   17  C   UNL     1     -10.510  13.324  66.628  1.00  0.00    -0.279 A  
HETATM   18  C   UNL     1     -10.524  12.188  65.845  1.00  0.00    -0.254 A  
HETATM   19  N   UNL     1      -9.361  11.503  66.084  1.00  0.00    -0.211 NA 
HETATM   20  C   UNL     1      -8.605  12.180  67.000  1.00  0.00    -0.191 A  
HETATM   21  H   UNL     1      -9.099  10.620  65.645  1.00  0.00     0.000 HD 
HETATM   22  N   UNL     1      -7.396  11.786  67.427  1.00  0.00    -0.127 NA 
HETATM   23  C   UNL     1      -6.867  12.662  68.296  1.00  0.00    -0.084 A  
HETATM   24  N   UNL     1      -7.408  13.810  68.743  1.00  0.00    -0.109 NA 
ENDBRANCH  11  15
ENDBRANCH   4  10
ENDBRANCH   3   4
TORSDOF 4
ENDMDL
MODEL      148
REMARK 921   NORMALIZED FREE ENERGY PREDICTED BY IDOCK:   -5.10 KCAL/MOL
REMARK 922        TOTAL FREE ENERGY PREDICTED BY IDOCK:   -6.70 KCAL/MOL
REMARK 923 INTER-LIGAND FREE ENERGY PREDICTED BY IDOCK:   -6.31 KCAL/MOL
REMARK 924 INTRA-LIGAND FREE ENERGY PREDICTED BY IDOCK:   -0.39 KCAL/MOL
REMARK 927      BINDING AFFINITY PREDICTED BY RF-SCORE:    0.00 PKD
ROOT
HETATM    1  N   UNL     1     -12.703   8.002  72.075  1.00  0.00    -0.315 NA 
HETATM    2  C   UNL     1     -11.810   8.307  71.401  1.00  0.00    -0.293 C  
HETATM    3  C   UNL     1     -10.715   8.736  70.517  1.00  0.00    -0.259 C  
ENDROOT
BRANCH   3   4
HETATM    4  C   UNL     1     -10.660   7.914  69.202  1.00  0.00    -0.173 C  
BRANCH   4   5
HETATM    5  C   UNL     1      -9.617   6.749  69.289  1.00  0.00    -0.144 C  
HETATM    6  C   UNL     1     -10.165   5.401  69.796  1.00  0.00    -0.348 C  
HETATM    7  C   UNL     1      -9.043   4.702  70.554  1.00  0.00    -0.174 C  
HETATM    8  C   UNL     1      -8.475   7.018  70.282  1.00  0.00    -0.138 C  
HETATM    9  C   UNL     1      -7.858   5.648  70.510  1.00  0.00    -0.099 C  
ENDBRANCH   4   5
BRANCH   4  10
HETATM   10  N   UNL     1     -10.520   8.808  68.039  1.00  0.00    -0.222 NA 
HETATM   11  C   UNL     1     -10.663  10.469  66.589  1.00  0.00    -0.222 A  
HETATM   12  C   UNL     1     -10.982  10.076  67.870  1.00  0.00    -0.252 A  
HETATM   13  C   UNL     1      -9.889   9.402  66.101  1.00  0.00    -0.285 A  
HETATM   14  N   UNL     1      -9.767   8.408  66.987  1.00  0.00    -0.186 NA 
BRANCH  11  15
HETATM   15  C   UNL     1     -11.113  11.718  66.025  1.00  0.00    -0.312 A  
HETATM   16  C   UNL     1     -11.438  12.817  66.822  1.00  0.00    -0.399 A  
HETATM   17  C   UNL     1     -11.510  13.134  68.208  1.00  0.00    -0.349 A  
HETATM   18  C   UNL     1     -11.861  14.462  68.320  1.00  0.00    -0.326 A  
HETATM   19  N   UNL     1     -12.000  14.966  67.053  1.00  0.00    -0.329 NA 
HETATM   20  C   UNL     1     -11.739  13.986  66.135  1.00  0.00    -0.384 A  
HETATM   21  H   UNL     1     -12.258  15.927  66.828  1.00  0.00     0.000 HD 
HETATM   22  N   UNL     1     -11.762  14.165  64.806  1.00  0.00    -0.388 NA 
HETATM   23  C   UNL     1     -11.429  13.043  64.149  1.00  0.00    -0.402 A  
HETATM   24  N   UNL     1     -11.104  11.846  64.671  1.00  0.00    -0.312 NA 
ENDBRANCH  11  15
ENDBRANCH   4  10
ENDBRANCH   3   4
TORSDOF 4
ENDMDL
MODEL      149
REMARK 921   NORMALIZED FREE ENERGY PREDICTED BY IDOCK:   -5.08 KCAL/MOL
REMARK 922        TOTAL FREE ENERGY PREDICTED BY IDOCK:   -6.68 KCAL/MOL
REMARK 923 INTER-LIGAND FREE ENERGY PREDICTED BY IDOCK:   -6.18 KCAL/MOL
REMARK 924 INTRA-LIGAND FREE ENERGY PREDICTED BY IDOCK:   -0.49 KCAL/MOL
REMARK 927      BINDING AFFINITY PREDICTED BY RF-SCORE:    0.00 PKD
ROOT
HETATM    1  N   UNL     1     -13.639   8.695  72.148  1.00  0.00    -0.394 NA 
HETATM    2  C   UNL     1     -13.033   9.557  71.665  1.00  0.00    -0.396 C  
HETATM    3  C   UNL     1     -12.319  10.672  71.024  1.00  0.00    -0.507 C  
ENDROOT
BRANCH   3   4
HETATM    4  C   UNL     1     -11.785  10.302  69.615  1.00  0.00    -0.160 C  
BRANCH   4   5
HETATM    5  C   UNL     1     -10.573   9.313  69.694  1.00  0.00    -0.241 C  
HETATM    6  C   UNL     1     -10.935   7.816  69.694  1.00  0.00    -0.128 C  
HETATM    7  C   UNL     1      -9.891   7.089  70.533  1.00  0.00    -0.184 C  
HETATM    8  C   UNL     1      -9.759   9.440  70.992  1.00  0.00    -0.293 C  
HETATM    9  C   UNL     1      -8.943   8.159  71.040  1.00  0.00    -0.173 C  
ENDBRANCH   4   5
BRANCH   4  10
HETATM   10  N   UNL     1     -11.564  11.516  68.811  1.00  0.00    -0.287 NA 
HETATM   11  C   UNL     1     -11.047  13.542  68.094  1.00  0.00    -0.283 A  
HETATM   12  C   UNL     1     -10.940  12.674  69.157  1.00  0.00    -0.142 A  
HETATM   13  C   UNL     1     -11.652  12.760  67.093  1.00  0.00    -0.364 A  
HETATM   14  N   UNL     1     -11.933  11.521  67.508  1.00  0.00    -0.622 NA 
BRANCH  11  15
HETATM   15  C   UNL     1     -10.605  14.913  68.160  1.00  0.00    -0.244 A  
HETATM   16  C   UNL     1      -9.293  15.284  67.856  1.00  0.00    -0.189 A  
HETATM   17  C   UNL     1      -8.075  14.649  67.483  1.00  0.00    -0.200 A  
HETATM   18  C   UNL     1      -7.132  15.635  67.275  1.00  0.00    -0.207 A  
HETATM   19  N   UNL     1      -7.736  16.844  67.503  1.00  0.00    -0.165 NA 
HETATM   20  C   UNL     1      -9.045  16.650  67.847  1.00  0.00    -0.218 A  
HETATM   21  H   UNL     1      -7.278  17.752  67.426  1.00  0.00     0.000 HD 
HETATM   22  N   UNL     1      -9.916  17.636  68.106  1.00  0.00    -0.311 NA 
HETATM   23  C   UNL     1     -11.140  17.158  68.380  1.00  0.00    -0.107 A  
HETATM   24  N   UNL     1     -11.534  15.872  68.416  1.00  0.00    -0.367 NA 
ENDBRANCH  11  15
ENDBRANCH   4  10
ENDBRANCH   3   4
TORSDOF 4
ENDMDL
MODEL      150
REMARK 921   NORMALIZED FREE ENERGY PREDICTED BY IDOCK:   -5.08 KCAL/MOL
REMARK 922        TOTAL FREE ENERGY PREDICTED BY IDOCK:   -6.67 KCAL/MOL
REMARK 923 INTER-LIGAND FREE ENERGY PREDICTED BY IDOCK:   -6.02 KCAL/MOL
REMARK 924 INTRA-LIGAND FREE ENERGY PREDICTED BY IDOCK:   -0.66 KCAL/MOL
REMARK 927      BINDING AFFINITY PREDICTED BY RF-SCORE:    0.00 PKD
ROOT
HETATM    1  N   UNL     1      -7.890   8.747  64.567  1.00  0.00    -0.122 NA 
HETATM    2  C   UNL     1      -8.524   9.716  64.619  1.00  0.00    -0.174 C  
HETATM    3  C   UNL     1      -9.303  10.958  64.742  1.00  0.00    -0.259 C  
ENDROOT
BRANCH   3   4
HETATM    4  C   UNL     1     -10.654  10.740  65.473  1.00  0.00    -0.135 C  
BRANCH   4   5
HETATM    5  C   UNL     1     -11.733  11.782  65.020  1.00  0.00    -0.174 C  
HETATM    6  C   UNL     1     -11.738  12.126  63.518  1.00  0.00    -0.579 C  
HETATM    7  C   UNL     1     -12.179  13.578  63.379  1.00  0.00    -0.338 C  
HETATM    8  C   UNL     1     -11.557  13.168  65.660  1.00  0.00    -0.371 C  
HETATM    9  C   UNL     1     -12.404  14.083  64.791  1.00  0.00    -0.437 C  
ENDBRANCH   4   5
BRANCH   4  10
HETATM   10  N   UNL     1     -10.445  10.633  66.927  1.00  0.00    -0.240 NA 
HETATM   11  C   UNL     1     -10.593  10.155  69.079  1.00  0.00    -0.245 A  
HETATM   12  C   UNL     1     -11.093   9.853  67.833  1.00  0.00    -0.152 A  
HETATM   13  C   UNL     1      -9.545  11.052  68.803  1.00  0.00    -0.187 A  
HETATM   14  N   UNL     1      -9.425  11.317  67.498  1.00  0.00    -0.168 NA 
BRANCH  11  15
HETATM   15  C   UNL     1     -11.142   9.604  70.293  1.00  0.00    -0.276 A  
HETATM   16  C   UNL     1     -10.405   8.755  71.121  1.00  0.00    -0.315 A  
HETATM   17  C   UNL     1      -9.117   8.148  71.136  1.00  0.00    -0.183 A  
HETATM   18  C   UNL     1      -8.998   7.441  72.314  1.00  0.00    -0.128 A  
HETATM   19  N   UNL     1     -10.163   7.601  73.017  1.00  0.00    -0.291 NA 
HETATM   20  C   UNL     1     -11.021   8.400  72.314  1.00  0.00    -0.361 A  
HETATM   21  H   UNL     1     -10.360   7.187  73.929  1.00  0.00     0.000 HD 
HETATM   22  N   UNL     1     -12.236   8.771  72.743  1.00  0.00    -0.188 NA 
HETATM   23  C   UNL     1     -12.844   9.587  71.867  1.00  0.00    -0.420 A  
HETATM   24  N   UNL     1     -12.374  10.025  70.685  1.00  0.00    -0.275 NA 
ENDBRANCH  11  15
ENDBRANCH   4  10
ENDBRANCH   3   4
TORSDOF 4
ENDMDL
MODEL      151
REMARK 921   NORMALIZED FREE ENERGY PREDICTED BY IDOCK:   -5.05 KCAL/MOL
REMARK 922        TOTAL FREE ENERGY PREDICTED BY IDOCK:   -6.64 KCAL/MOL
REMARK 923 INTER-LIGAND FREE ENERGY PREDICTED BY IDOCK:   -6.35 KCAL/MOL
REMARK 924 INTRA-LIGAND FREE ENERGY PREDICTED BY IDOCK:   -0.29 KCAL/MOL
REMARK 927      BINDING AFFINITY PREDICTED BY RF-SCORE:    0.00 PKD
ROOT
HETATM    1  N   UNL     1     -10.296  10.496  64.368  1.00  0.00    -0.286 NA 
HETATM    2  C   UNL     1      -9.662  10.139  65.270  1.00  0.00    -0.300 C  
HETATM    3  C   UNL     1      -8.887   9.630  66.412  1.00  0.00    -0.168 C  
ENDROOT
BRANCH   3   4
HETATM    4  C   UNL     1      -9.613   9.848  67.766  1.00  0.00    -0.141 C  
BRANCH   4   5
HETATM    5  C   UNL     1     -10.556   8.649  68.119  1.00  0.00    -0.189 C  
HETATM    6  C   UNL     1     -10.322   8.000  69.496  1.00  0.00    -0.221 C  
HETATM    7  C   UNL     1     -10.659   6.519  69.373  1.00  0.00    -0.291 C  
HETATM    8  C   UNL     1     -10.402   7.446  67.174  1.00  0.00    -0.377 C  
HETATM    9  C   UNL     1     -11.062   6.302  67.927  1.00  0.00    -0.360 C  
ENDBRANCH   4   5
BRANCH   4  10
HETATM   10  N   UNL     1     -10.237  11.182  67.809  1.00  0.00    -0.176 NA 
HETATM   11  C   UNL     1     -10.661  13.348  67.712  1.00  0.00    -0.252 A  
HETATM   12  C   UNL     1      -9.735  12.378  67.402  1.00  0.00    -0.193 A  
HETATM   13  C   UNL     1     -11.756  12.612  68.198  1.00  0.00    -0.347 A  
HETATM   14  N   UNL     1     -11.520  11.296  68.224  1.00  0.00    -0.318 NA 
BRANCH  11  15
HETATM   15  C   UNL     1     -10.403  14.756  67.534  1.00  0.00    -0.238 A  
HETATM   16  C   UNL     1     -10.708  15.421  66.345  1.00  0.00    -0.311 A  
HETATM   17  C   UNL     1     -11.235  15.102  65.061  1.00  0.00    -0.414 A  
HETATM   18  C   UNL     1     -11.332  16.275  64.342  1.00  0.00    -0.129 A  
HETATM   19  N   UNL     1     -10.890  17.294  65.144  1.00  0.00    -0.599 NA 
HETATM   20  C   UNL     1     -10.516  16.796  66.361  1.00  0.00    -0.269 A  
HETATM   21  H   UNL     1     -10.846  18.277  64.874  1.00  0.00     0.000 HD 
HETATM   22  N   UNL     1     -10.065  17.541  67.381  1.00  0.00    -0.313 NA 
HETATM   23  C   UNL     1      -9.810  16.794  68.467  1.00  0.00    -0.257 A  
HETATM   24  N   UNL     1      -9.955  15.464  68.606  1.00  0.00    -0.205 NA 
ENDBRANCH  11  15
ENDBRANCH   4  10
ENDBRANCH   3   4
TORSDOF 4
ENDMDL
MODEL      152
REMARK 921   NORMALIZED FREE ENERGY PREDICTED BY IDOCK:   -5.05 KCAL/MOL
REMARK 922        TOTAL FREE ENERGY PREDICTED BY IDOCK:   -6.64 KCAL/MOL
REMARK 923 INTER-LIGAND FREE ENERGY PREDICTED BY IDOCK:   -6.90 KCAL/MOL
REMARK 924 INTRA-LIGAND FREE ENERGY PREDICTED BY IDOCK:    0.26 KCAL/MOL
REMARK 927      BINDING AFFINITY PREDICTED BY RF-SCORE:    0.00 PKD
ROOT
HETATM    1  N   UNL     1     -13.195  12.445  64.552  1.00  0.00    -0.771 NA 
HETATM    2  C   UNL     1     -12.060  12.383  64.325  1.00  0.00    -0.433 C  
HETATM    3  C   UNL     1     -10.627  12.241  64.025  1.00  0.00    -0.434 C  
ENDROOT
BRANCH   3   4
HETATM    4  C   UNL     1      -9.797  11.838  65.272  1.00  0.00    -0.239 C  
BRANCH   4   5
HETATM    5  C   UNL     1      -9.262  10.370  65.164  1.00  0.00    -0.250 C  
HETATM    6  C   UNL     1      -7.868  10.122  65.771  1.00  0.00    -0.139 C  
HETATM    7  C   UNL     1      -7.193   9.032  64.948  1.00  0.00    -0.095 C  
HETATM    8  C   UNL     1      -9.064   9.893  63.716  1.00  0.00    -0.293 C  
HETATM    9  C   UNL     1      -8.176   8.666  63.853  1.00  0.00    -0.147 C  
ENDBRANCH   4   5
BRANCH   4  10
HETATM   10  N   UNL     1     -10.532  12.157  66.508  1.00  0.00    -0.221 NA 
HETATM   11  C   UNL     1     -11.343  13.114  68.327  1.00  0.00    -0.333 A  
HETATM   12  C   UNL     1     -10.581  13.327  67.200  1.00  0.00    -0.258 A  
HETATM   13  C   UNL     1     -11.818  11.802  68.159  1.00  0.00    -0.254 A  
HETATM   14  N   UNL     1     -11.362  11.229  67.040  1.00  0.00    -0.429 NA 
BRANCH  11  15
HETATM   15  C   UNL     1     -11.501  14.110  69.358  1.00  0.00    -0.288 A  
HETATM   16  C   UNL     1     -11.026  15.415  69.208  1.00  0.00    -0.261 A  
HETATM   17  C   UNL     1     -10.305  16.172  68.242  1.00  0.00    -0.266 A  
HETATM   18  C   UNL     1     -10.208  17.467  68.707  1.00  0.00    -0.361 A  
HETATM   19  N   UNL     1     -10.850  17.525  69.917  1.00  0.00    -0.019 NA 
HETATM   20  C   UNL     1     -11.357  16.294  70.230  1.00  0.00    -0.287 A  
HETATM   21  H   UNL     1     -10.936  18.360  70.497  1.00  0.00     0.000 HD 
HETATM   22  N   UNL     1     -12.065  16.024  71.337  1.00  0.00    -0.441 NA 
HETATM   23  C   UNL     1     -12.470  14.744  71.367  1.00  0.00    -0.336 A  
HETATM   24  N   UNL     1     -12.238  13.784  70.454  1.00  0.00    -0.346 NA 
ENDBRANCH  11  15
ENDBRANCH   4  10
ENDBRANCH   3   4
TORSDOF 4
ENDMDL
MODEL      153
REMARK 921   NORMALIZED FREE ENERGY PREDICTED BY IDOCK:   -5.00 KCAL/MOL
REMARK 922        TOTAL FREE ENERGY PREDICTED BY IDOCK:   -6.58 KCAL/MOL
REMARK 923 INTER-LIGAND FREE ENERGY PREDICTED BY IDOCK:   -6.18 KCAL/MOL
REMARK 924 INTRA-LIGAND FREE ENERGY PREDICTED BY IDOCK:   -0.40 KCAL/MOL
REMARK 927      BINDING AFFINITY PREDICTED BY RF-SCORE:    0.00 PKD
ROOT
HETATM    1  N   UNL     1     -10.787  16.932  68.433  1.00  0.00    -0.362 NA 
HETATM    2  C   UNL     1     -11.152  15.957  67.924  1.00  0.00    -0.317 C  
HETATM    3  C   UNL     1     -11.595  14.686  67.330  1.00  0.00    -0.404 C  
ENDROOT
BRANCH   3   4
HETATM    4  C   UNL     1     -10.472  13.986  66.521  1.00  0.00    -0.281 C  
BRANCH   4   5
HETATM    5  C   UNL     1     -10.941  13.621  65.072  1.00  0.00    -0.350 C  
HETATM    6  C   UNL     1     -12.447  13.338  64.911  1.00  0.00    -0.465 C  
HETATM    7  C   UNL     1     -12.606  12.297  63.809  1.00  0.00    -0.577 C  
HETATM    8  C   UNL     1     -10.318  12.325  64.531  1.00  0.00    -0.339 C  
HETATM    9  C   UNL     1     -11.201  11.958  63.350  1.00  0.00    -0.463 C  
ENDBRANCH   4   5
BRANCH   4  10
HETATM   10  N   UNL     1      -9.888  12.879  67.298  1.00  0.00    -0.215 NA 
HETATM   11  C   UNL     1      -9.545  11.142  68.620  1.00  0.00    -0.200 A  
HETATM   12  C   UNL     1     -10.515  11.904  68.009  1.00  0.00    -0.208 A  
HETATM   13  C   UNL     1      -8.346  11.668  68.109  1.00  0.00    -0.154 A  
HETATM   14  N   UNL     1      -8.547  12.695  67.278  1.00  0.00    -0.188 NA 
BRANCH  11  15
HETATM   15  C   UNL     1      -9.857  10.092  69.558  1.00  0.00    -0.232 A  
HETATM   16  C   UNL     1      -8.869   9.276  70.112  1.00  0.00    -0.235 A  
HETATM   17  C   UNL     1      -7.460   9.102  70.007  1.00  0.00    -0.077 A  
HETATM   18  C   UNL     1      -7.088   8.120  70.900  1.00  0.00    -0.050 A  
HETATM   19  N   UNL     1      -8.218   7.695  71.549  1.00  0.00    -0.101 NA 
HETATM   20  C   UNL     1      -9.303   8.390  71.089  1.00  0.00    -0.177 A  
HETATM   21  H   UNL     1      -8.246   6.970  72.266  1.00  0.00     0.000 HD 
HETATM   22  N   UNL     1     -10.554   8.230  71.543  1.00  0.00    -0.223 NA 
HETATM   23  C   UNL     1     -11.412   9.070  70.941  1.00  0.00    -0.291 A  
HETATM   24  N   UNL     1     -11.142   9.984  69.992  1.00  0.00    -0.275 NA 
ENDBRANCH  11  15
ENDBRANCH   4  10
ENDBRANCH   3   4
TORSDOF 4
ENDMDL
MODEL      154
REMARK 921   NORMALIZED FREE ENERGY PREDICTED BY IDOCK:   -4.99 KCAL/MOL
REMARK 922        TOTAL FREE ENERGY PREDICTED BY IDOCK:   -6.57 KCAL/MOL
REMARK 923 INTER-LIGAND FREE ENERGY PREDICTED BY IDOCK:   -5.86 KCAL/MOL
REMARK 924 INTRA-LIGAND FREE ENERGY PREDICTED BY IDOCK:   -0.71 KCAL/MOL
REMARK 927      BINDING AFFINITY PREDICTED BY RF-SCORE:    0.00 PKD
ROOT
HETATM    1  N   UNL     1      -8.313   4.086  68.012  1.00  0.00    -0.092 NA 
HETATM    2  C   UNL     1      -9.157   4.782  68.396  1.00  0.00    -0.117 C  
HETATM    3  C   UNL     1     -10.219   5.702  68.832  1.00  0.00    -0.279 C  
ENDROOT
BRANCH   3   4
HETATM    4  C   UNL     1      -9.672   6.881  69.678  1.00  0.00    -0.155 C  
BRANCH   4   5
HETATM    5  C   UNL     1     -10.507   7.094  70.986  1.00  0.00    -0.230 C  
HETATM    6  C   UNL     1      -9.757   7.760  72.155  1.00  0.00    -0.240 C  
HETATM    7  C   UNL     1     -10.327   7.197  73.451  1.00  0.00    -0.391 C  
HETATM    8  C   UNL     1     -10.990   5.784  71.628  1.00  0.00    -0.308 C  
HETATM    9  C   UNL     1     -11.384   6.191  73.039  1.00  0.00    -0.147 C  
ENDBRANCH   4   5
BRANCH   4  10
HETATM   10  N   UNL     1      -9.487   8.078  68.840  1.00  0.00    -0.151 NA 
HETATM   11  C   UNL     1      -9.757   9.946  67.689  1.00  0.00    -0.183 A  
HETATM   12  C   UNL     1     -10.356   9.094  68.589  1.00  0.00    -0.209 A  
HETATM   13  C   UNL     1      -8.461   9.417  67.551  1.00  0.00    -0.122 A  
HETATM   14  N   UNL     1      -8.279   8.307  68.275  1.00  0.00    -0.127 NA 
BRANCH  11  15
HETATM   15  C   UNL     1     -10.445  11.069  67.103  1.00  0.00    -0.232 A  
HETATM   16  C   UNL     1     -10.489  11.273  65.723  1.00  0.00    -0.310 A  
HETATM   17  C   UNL     1      -9.971  10.660  64.546  1.00  0.00    -0.410 A  
HETATM   18  C   UNL     1     -10.453  11.359  63.459  1.00  0.00    -0.417 A  
HETATM   19  N   UNL     1     -11.249  12.369  63.932  1.00  0.00    -0.385 NA 
HETATM   20  C   UNL     1     -11.288  12.326  65.298  1.00  0.00    -0.338 A  
HETATM   21  H   UNL     1     -11.739  13.051  63.352  1.00  0.00     0.000 HD 
HETATM   22  N   UNL     1     -12.003  13.164  66.064  1.00  0.00    -0.412 NA 
HETATM   23  C   UNL     1     -11.885  12.866  67.368  1.00  0.00    -0.360 A  
HETATM   24  N   UNL     1     -11.163  11.879  67.927  1.00  0.00    -0.243 NA 
ENDBRANCH  11  15
ENDBRANCH   4  10
ENDBRANCH   3   4
TORSDOF 4
ENDMDL
MODEL      155
REMARK 921   NORMALIZED FREE ENERGY PREDICTED BY IDOCK:   -4.99 KCAL/MOL
REMARK 922        TOTAL FREE ENERGY PREDICTED BY IDOCK:   -6.56 KCAL/MOL
REMARK 923 INTER-LIGAND FREE ENERGY PREDICTED BY IDOCK:   -6.16 KCAL/MOL
REMARK 924 INTRA-LIGAND FREE ENERGY PREDICTED BY IDOCK:   -0.40 KCAL/MOL
REMARK 927      BINDING AFFINITY PREDICTED BY RF-SCORE:    0.00 PKD
ROOT
HETATM    1  N   UNL     1     -13.407   9.807  71.330  1.00  0.00    -0.375 NA 
HETATM    2  C   UNL     1     -12.473  10.238  70.795  1.00  0.00    -0.346 C  
HETATM    3  C   UNL     1     -11.327  10.822  70.081  1.00  0.00    -0.390 C  
ENDROOT
BRANCH   3   4
HETATM    4  C   UNL     1     -10.965  10.031  68.796  1.00  0.00    -0.202 C  
BRANCH   4   5
HETATM    5  C   UNL     1      -9.715   9.112  69.013  1.00  0.00    -0.166 C  
HETATM    6  C   UNL     1      -9.959   7.602  68.834  1.00  0.00    -0.178 C  
HETATM    7  C   UNL     1      -9.024   6.867  69.786  1.00  0.00    -0.141 C  
HETATM    8  C   UNL     1      -9.148   9.172  70.440  1.00  0.00    -0.270 C  
HETATM    9  C   UNL     1      -8.259   7.942  70.533  1.00  0.00    -0.118 C  
ENDBRANCH   4   5
BRANCH   4  10
HETATM   10  N   UNL     1     -10.897  10.934  67.634  1.00  0.00    -0.245 NA 
HETATM   11  C   UNL     1     -10.819  12.685  66.289  1.00  0.00    -0.300 A  
HETATM   12  C   UNL     1     -10.759  12.287  67.605  1.00  0.00    -0.220 A  
HETATM   13  C   UNL     1     -10.870  11.472  65.581  1.00  0.00    -0.252 A  
HETATM   14  N   UNL     1     -10.879  10.406  66.388  1.00  0.00    -0.060 NA 
BRANCH  11  15
HETATM   15  C   UNL     1     -10.833  14.073  65.896  1.00  0.00    -0.288 A  
HETATM   16  C   UNL     1     -10.019  15.026  66.512  1.00  0.00    -0.276 A  
HETATM   17  C   UNL     1      -9.073  15.080  67.574  1.00  0.00    -0.189 A  
HETATM   18  C   UNL     1      -8.577  16.365  67.633  1.00  0.00    -0.174 A  
HETATM   19  N   UNL     1      -9.183  17.092  66.641  1.00  0.00    -0.250 NA 
HETATM   20  C   UNL     1     -10.052  16.295  65.949  1.00  0.00    -0.357 A  
HETATM   21  H   UNL     1      -9.012  18.079  66.449  1.00  0.00     0.000 HD 
HETATM   22  N   UNL     1     -10.780  16.699  64.898  1.00  0.00    -0.717 NA 
HETATM   23  C   UNL     1     -11.517  15.698  64.390  1.00  0.00    -0.262 A  
HETATM   24  N   UNL     1     -11.582  14.423  64.816  1.00  0.00    -0.388 NA 
ENDBRANCH  11  15
ENDBRANCH   4  10
ENDBRANCH   3   4
TORSDOF 4
ENDMDL
MODEL      156
REMARK 921   NORMALIZED FREE ENERGY PREDICTED BY IDOCK:   -4.98 KCAL/MOL
REMARK 922        TOTAL FREE ENERGY PREDICTED BY IDOCK:   -6.55 KCAL/MOL
REMARK 923 INTER-LIGAND FREE ENERGY PREDICTED BY IDOCK:   -6.66 KCAL/MOL
REMARK 924 INTRA-LIGAND FREE ENERGY PREDICTED BY IDOCK:    0.11 KCAL/MOL
REMARK 927      BINDING AFFINITY PREDICTED BY RF-SCORE:    0.00 PKD
ROOT
HETATM    1  N   UNL     1     -11.195  15.290  65.370  1.00  0.00    -0.331 NA 
HETATM    2  C   UNL     1     -11.228  14.487  66.206  1.00  0.00    -0.342 C  
HETATM    3  C   UNL     1     -11.323  13.497  67.290  1.00  0.00    -0.339 C  
ENDROOT
BRANCH   3   4
HETATM    4  C   UNL     1     -10.574  13.948  68.571  1.00  0.00    -0.252 C  
BRANCH   4   5
HETATM    5  C   UNL     1     -11.564  14.466  69.670  1.00  0.00    -0.343 C  
HETATM    6  C   UNL     1     -10.987  15.505  70.649  1.00  0.00    -0.370 C  
HETATM    7  C   UNL     1     -11.672  15.302  71.995  1.00  0.00    -0.529 C  
HETATM    8  C   UNL     1     -12.049  13.366  70.628  1.00  0.00    -0.374 C  
HETATM    9  C   UNL     1     -12.622  14.135  71.807  1.00  0.00    -0.400 C  
ENDBRANCH   4   5
BRANCH   4  10
HETATM   10  N   UNL     1      -9.468  14.860  68.231  1.00  0.00    -0.204 NA 
HETATM   11  C   UNL     1      -8.201  16.621  67.811  1.00  0.00    -0.184 A  
HETATM   12  C   UNL     1      -9.421  16.217  68.306  1.00  0.00    -0.214 A  
HETATM   13  C   UNL     1      -7.526  15.410  67.577  1.00  0.00    -0.189 A  
HETATM   14  N   UNL     1      -8.274  14.340  67.865  1.00  0.00    -0.143 NA 
BRANCH  11  15
HETATM   15  C   UNL     1      -7.858  18.009  67.624  1.00  0.00    -0.220 A  
HETATM   16  C   UNL     1      -7.039  18.697  68.521  1.00  0.00    -0.297 A  
HETATM   17  C   UNL     1      -6.369  18.442  69.751  1.00  0.00    -0.143 A  
HETATM   18  C   UNL     1      -5.663  19.577  70.091  1.00  0.00    -0.251 A  
HETATM   19  N   UNL     1      -5.874  20.509  69.109  1.00  0.00    -0.338 NA 
HETATM   20  C   UNL     1      -6.698  19.991  68.149  1.00  0.00    -0.291 A  
HETATM   21  H   UNL     1      -5.477  21.449  69.097  1.00  0.00     0.000 HD 
HETATM   22  N   UNL     1      -7.075  20.643  67.039  1.00  0.00    -0.304 NA 
HETATM   23  C   UNL     1      -7.854  19.880  66.255  1.00  0.00    -0.321 A  
HETATM   24  N   UNL     1      -8.258  18.616  66.475  1.00  0.00    -0.279 NA 
ENDBRANCH  11  15
ENDBRANCH   4  10
ENDBRANCH   3   4
TORSDOF 4
ENDMDL
MODEL      157
REMARK 921   NORMALIZED FREE ENERGY PREDICTED BY IDOCK:   -4.97 KCAL/MOL
REMARK 922        TOTAL FREE ENERGY PREDICTED BY IDOCK:   -6.55 KCAL/MOL
REMARK 923 INTER-LIGAND FREE ENERGY PREDICTED BY IDOCK:   -6.22 KCAL/MOL
REMARK 924 INTRA-LIGAND FREE ENERGY PREDICTED BY IDOCK:   -0.32 KCAL/MOL
REMARK 927      BINDING AFFINITY PREDICTED BY RF-SCORE:    0.00 PKD
ROOT
HETATM    1  N   UNL     1      -9.242  15.012  69.229  1.00  0.00    -0.191 NA 
HETATM    2  C   UNL     1      -9.081  14.099  68.532  1.00  0.00    -0.176 C  
HETATM    3  C   UNL     1      -8.884  12.980  67.597  1.00  0.00    -0.191 C  
ENDROOT
BRANCH   3   4
HETATM    4  C   UNL     1     -10.218  12.286  67.215  1.00  0.00    -0.210 C  
BRANCH   4   5
HETATM    5  C   UNL     1     -11.142  13.229  66.372  1.00  0.00    -0.313 C  
HETATM    6  C   UNL     1     -12.072  12.525  65.366  1.00  0.00    -0.494 C  
HETATM    7  C   UNL     1     -12.254  13.457  64.174  1.00  0.00    -0.457 C  
HETATM    8  C   UNL     1     -10.368  14.196  65.461  1.00  0.00    -0.368 C  
HETATM    9  C   UNL     1     -11.414  14.684  64.472  1.00  0.00    -0.340 C  
ENDBRANCH   4   5
BRANCH   4  10
HETATM   10  N   UNL     1     -10.844  11.678  68.402  1.00  0.00    -0.206 NA 
HETATM   11  C   UNL     1     -11.448  10.334  70.049  1.00  0.00    -0.367 A  
HETATM   12  C   UNL     1     -10.537  10.512  69.031  1.00  0.00    -0.222 A  
HETATM   13  C   UNL     1     -12.196  11.525  70.031  1.00  0.00    -0.278 A  
HETATM   14  N   UNL     1     -11.811  12.359  69.060  1.00  0.00    -0.310 NA 
BRANCH  11  15
HETATM   15  C   UNL     1     -11.498   9.134  70.847  1.00  0.00    -0.296 A  
HETATM   16  C   UNL     1     -10.360   8.600  71.455  1.00  0.00    -0.341 A  
HETATM   17  C   UNL     1      -8.966   8.882  71.521  1.00  0.00    -0.275 A  
HETATM   18  C   UNL     1      -8.390   7.961  72.371  1.00  0.00    -0.138 A  
HETATM   19  N   UNL     1      -9.383   7.134  72.827  1.00  0.00    -0.138 NA 
HETATM   20  C   UNL     1     -10.582   7.512  72.289  1.00  0.00    -0.236 A  
HETATM   21  H   UNL     1      -9.249   6.354  73.471  1.00  0.00     0.000 HD 
HETATM   22  N   UNL     1     -11.755   6.922  72.560  1.00  0.00    -0.205 NA 
HETATM   23  C   UNL     1     -12.773   7.524  71.923  1.00  0.00    -0.289 A  
HETATM   24  N   UNL     1     -12.717   8.584  71.097  1.00  0.00    -0.182 NA 
ENDBRANCH  11  15
ENDBRANCH   4  10
ENDBRANCH   3   4
TORSDOF 4
ENDMDL
MODEL      158
REMARK 921   NORMALIZED FREE ENERGY PREDICTED BY IDOCK:   -4.97 KCAL/MOL
REMARK 922        TOTAL FREE ENERGY PREDICTED BY IDOCK:   -6.54 KCAL/MOL
REMARK 923 INTER-LIGAND FREE ENERGY PREDICTED BY IDOCK:   -5.95 KCAL/MOL
REMARK 924 INTRA-LIGAND FREE ENERGY PREDICTED BY IDOCK:   -0.59 KCAL/MOL
REMARK 927      BINDING AFFINITY PREDICTED BY RF-SCORE:    0.00 PKD
ROOT
HETATM    1  N   UNL     1     -10.286  12.598  64.247  1.00  0.00    -0.353 NA 
HETATM    2  C   UNL     1     -11.086  12.896  65.031  1.00  0.00    -0.292 C  
HETATM    3  C   UNL     1     -12.082  13.336  66.021  1.00  0.00    -0.491 C  
ENDROOT
BRANCH   3   4
HETATM    4  C   UNL     1     -11.514  13.357  67.464  1.00  0.00    -0.323 C  
BRANCH   4   5
HETATM    5  C   UNL     1     -10.652  14.638  67.730  1.00  0.00    -0.251 C  
HETATM    6  C   UNL     1     -10.638  15.140  69.186  1.00  0.00    -0.256 C  
HETATM    7  C   UNL     1     -10.501  16.658  69.150  1.00  0.00    -0.333 C  
HETATM    8  C   UNL     1     -11.147  15.880  66.973  1.00  0.00    -0.119 C  
HETATM    9  C   UNL     1     -10.462  17.038  67.682  1.00  0.00    -0.343 C  
ENDBRANCH   4   5
BRANCH   4  10
HETATM   10  N   UNL     1     -10.863  12.075  67.783  1.00  0.00    -0.207 NA 
HETATM   11  C   UNL     1     -10.412   9.999  68.391  1.00  0.00    -0.235 A  
HETATM   12  C   UNL     1     -11.430  10.882  68.110  1.00  0.00    -0.295 A  
HETATM   13  C   UNL     1      -9.250  10.728  68.081  1.00  0.00    -0.151 A  
HETATM   14  N   UNL     1      -9.518  11.973  67.676  1.00  0.00    -0.180 NA 
BRANCH  11  15
HETATM   15  C   UNL     1     -10.653   8.670  68.897  1.00  0.00    -0.144 A  
HETATM   16  C   UNL     1     -10.541   7.537  68.088  1.00  0.00    -0.201 A  
HETATM   17  C   UNL     1     -10.259   7.235  66.726  1.00  0.00    -0.305 A  
HETATM   18  C   UNL     1     -10.253   5.862  66.591  1.00  0.00    -0.205 A  
HETATM   19  N   UNL     1     -10.514   5.321  67.822  1.00  0.00    -0.139 NA 
HETATM   20  C   UNL     1     -10.683   6.320  68.741  1.00  0.00    -0.297 A  
HETATM   21  H   UNL     1     -10.574   4.322  68.024  1.00  0.00     0.000 HD 
HETATM   22  N   UNL     1     -10.925   6.119  70.044  1.00  0.00    -0.339 NA 
HETATM   23  C   UNL     1     -11.007   7.278  70.718  1.00  0.00    -0.251 A  
HETATM   24  N   UNL     1     -10.882   8.526  70.230  1.00  0.00    -0.238 NA 
ENDBRANCH  11  15
ENDBRANCH   4  10
ENDBRANCH   3   4
TORSDOF 4
ENDMDL
MODEL      159
REMARK 921   NORMALIZED FREE ENERGY PREDICTED BY IDOCK:   -4.96 KCAL/MOL
REMARK 922        TOTAL FREE ENERGY PREDICTED BY IDOCK:   -6.53 KCAL/MOL
REMARK 923 INTER-LIGAND FREE ENERGY PREDICTED BY IDOCK:   -5.80 KCAL/MOL
REMARK 924 INTRA-LIGAND FREE ENERGY PREDICTED BY IDOCK:   -0.74 KCAL/MOL
REMARK 927      BINDING AFFINITY PREDICTED BY RF-SCORE:    0.00 PKD
ROOT
HETATM    1  N   UNL     1     -12.955  14.335  64.865  1.00  0.00    -0.634 NA 
HETATM    2  C   UNL     1     -12.402  13.399  65.268  1.00  0.00    -0.469 C  
HETATM    3  C   UNL     1     -11.758  12.186  65.795  1.00  0.00    -0.391 C  
ENDROOT
BRANCH   3   4
HETATM    4  C   UNL     1     -11.448  12.291  67.311  1.00  0.00    -0.357 C  
BRANCH   4   5
HETATM    5  C   UNL     1     -10.732  13.637  67.666  1.00  0.00    -0.253 C  
HETATM    6  C   UNL     1      -9.194  13.574  67.741  1.00  0.00    -0.213 C  
HETATM    7  C   UNL     1      -8.741  14.579  68.794  1.00  0.00    -0.147 C  
HETATM    8  C   UNL     1     -11.093  14.179  69.059  1.00  0.00    -0.292 C  
HETATM    9  C   UNL     1     -10.008  15.204  69.345  1.00  0.00    -0.232 C  
ENDBRANCH   4   5
BRANCH   4  10
HETATM   10  N   UNL     1     -10.778  11.069  67.788  1.00  0.00    -0.210 NA 
HETATM   11  C   UNL     1     -10.002   9.387  68.993  1.00  0.00    -0.182 A  
HETATM   12  C   UNL     1     -10.871  10.455  68.998  1.00  0.00    -0.234 A  
HETATM   13  C   UNL     1      -9.517   9.366  67.674  1.00  0.00    -0.132 A  
HETATM   14  N   UNL     1     -10.012  10.359  66.928  1.00  0.00    -0.198 NA 
BRANCH  11  15
HETATM   15  C   UNL     1      -9.749   8.584  70.164  1.00  0.00    -0.170 A  
HETATM   16  C   UNL     1      -9.955   7.203  70.175  1.00  0.00    -0.190 A  
HETATM   17  C   UNL     1     -10.434   6.199  69.287  1.00  0.00    -0.314 A  
HETATM   18  C   UNL     1     -10.325   4.982  69.927  1.00  0.00    -0.228 A  
HETATM   19  N   UNL     1      -9.792   5.210  71.169  1.00  0.00    -0.177 NA 
HETATM   20  C   UNL     1      -9.555   6.547  71.332  1.00  0.00    -0.165 A  
HETATM   21  H   UNL     1      -9.601   4.491  71.867  1.00  0.00     0.000 HD 
HETATM   22  N   UNL     1      -9.009   7.093  72.428  1.00  0.00    -0.128 NA 
HETATM   23  C   UNL     1      -8.857   8.421  72.298  1.00  0.00    -0.220 A  
HETATM   24  N   UNL     1      -9.184   9.190  71.243  1.00  0.00    -0.261 NA 
ENDBRANCH  11  15
ENDBRANCH   4  10
ENDBRANCH   3   4
TORSDOF 4
ENDMDL
MODEL      160
REMARK 921   NORMALIZED FREE ENERGY PREDICTED BY IDOCK:   -4.94 KCAL/MOL
REMARK 922        TOTAL FREE ENERGY PREDICTED BY IDOCK:   -6.50 KCAL/MOL
REMARK 923 INTER-LIGAND FREE ENERGY PREDICTED BY IDOCK:   -6.14 KCAL/MOL
REMARK 924 INTRA-LIGAND FREE ENERGY PREDICTED BY IDOCK:   -0.37 KCAL/MOL
REMARK 927      BINDING AFFINITY PREDICTED BY RF-SCORE:    0.00 PKD
ROOT
HETATM    1  N   UNL     1      -8.413  17.326  67.594  1.00  0.00    -0.207 NA 
HETATM    2  C   UNL     1      -9.004  16.347  67.781  1.00  0.00    -0.198 C  
HETATM    3  C   UNL     1      -9.701  15.078  68.047  1.00  0.00    -0.213 C  
ENDROOT
BRANCH   3   4
HETATM    4  C   UNL     1      -9.491  14.038  66.915  1.00  0.00    -0.265 C  
BRANCH   4   5
HETATM    5  C   UNL     1     -10.600  14.147  65.814  1.00  0.00    -0.306 C  
HETATM    6  C   UNL     1     -12.008  13.691  66.240  1.00  0.00    -0.461 C  
HETATM    7  C   UNL     1     -12.696  13.108  65.011  1.00  0.00    -0.456 C  
HETATM    8  C   UNL     1     -10.339  13.259  64.587  1.00  0.00    -0.394 C  
HETATM    9  C   UNL     1     -11.685  13.200  63.884  1.00  0.00    -0.515 C  
ENDBRANCH   4   5
BRANCH   4  10
HETATM   10  N   UNL     1      -9.285  12.694  67.479  1.00  0.00    -0.183 NA 
HETATM   11  C   UNL     1      -9.207  10.910  68.782  1.00  0.00    -0.187 A  
HETATM   12  C   UNL     1      -9.704  12.189  68.671  1.00  0.00    -0.081 A  
HETATM   13  C   UNL     1      -8.597  10.686  67.534  1.00  0.00    -0.122 A  
HETATM   14  N   UNL     1      -8.674  11.749  66.726  1.00  0.00    -0.188 NA 
BRANCH  11  15
HETATM   15  C   UNL     1      -9.350  10.121  69.980  1.00  0.00    -0.013 A  
HETATM   16  C   UNL     1     -10.600   9.837  70.535  1.00  0.00    -0.376 A  
HETATM   17  C   UNL     1     -11.966  10.149  70.279  1.00  0.00    -0.315 A  
HETATM   18  C   UNL     1     -12.732   9.480  71.211  1.00  0.00    -0.332 A  
HETATM   19  N   UNL     1     -11.883   8.769  72.017  1.00  0.00    -0.356 NA 
HETATM   20  C   UNL     1     -10.591   8.967  71.617  1.00  0.00    -0.364 A  
HETATM   21  H   UNL     1     -12.172   8.180  72.799  1.00  0.00     0.000 HD 
HETATM   22  N   UNL     1      -9.523   8.388  72.185  1.00  0.00    -0.262 NA 
HETATM   23  C   UNL     1      -8.383   8.732  71.564  1.00  0.00    -0.152 A  
HETATM   24  N   UNL     1      -8.234   9.549  70.506  1.00  0.00    -0.188 NA 
ENDBRANCH  11  15
ENDBRANCH   4  10
ENDBRANCH   3   4
TORSDOF 4
ENDMDL
MODEL      161
REMARK 921   NORMALIZED FREE ENERGY PREDICTED BY IDOCK:   -4.92 KCAL/MOL
REMARK 922        TOTAL FREE ENERGY PREDICTED BY IDOCK:   -6.48 KCAL/MOL
REMARK 923 INTER-LIGAND FREE ENERGY PREDICTED BY IDOCK:   -6.05 KCAL/MOL
REMARK 924 INTRA-LIGAND FREE ENERGY PREDICTED BY IDOCK:   -0.43 KCAL/MOL
REMARK 927      BINDING AFFINITY PREDICTED BY RF-SCORE:    0.00 PKD
ROOT
HETATM    1  N   UNL     1     -11.152   6.119  67.618  1.00  0.00    -0.298 NA 
HETATM    2  C   UNL     1     -10.569   7.074  67.313  1.00  0.00    -0.325 C  
HETATM    3  C   UNL     1      -9.774   8.254  66.940  1.00  0.00    -0.291 C  
ENDROOT
BRANCH   3   4
HETATM    4  C   UNL     1      -9.504   9.192  68.146  1.00  0.00    -0.142 C  
BRANCH   4   5
HETATM    5  C   UNL     1      -9.699   8.452  69.512  1.00  0.00    -0.177 C  
HETATM    6  C   UNL     1     -11.028   8.733  70.239  1.00  0.00    -0.255 C  
HETATM    7  C   UNL     1     -10.760   8.658  71.737  1.00  0.00    -0.392 C  
HETATM    8  C   UNL     1      -8.667   8.848  70.580  1.00  0.00    -0.213 C  
HETATM    9  C   UNL     1      -9.280   8.360  71.882  1.00  0.00    -0.306 C  
ENDBRANCH   4   5
BRANCH   4  10
HETATM   10  N   UNL     1     -10.248  10.455  67.995  1.00  0.00    -0.162 NA 
HETATM   11  C   UNL     1     -11.115  12.470  68.259  1.00  0.00    -0.294 A  
HETATM   12  C   UNL     1     -10.175  11.589  68.743  1.00  0.00    -0.192 A  
HETATM   13  C   UNL     1     -11.625  11.815  67.124  1.00  0.00    -0.266 A  
HETATM   14  N   UNL     1     -11.077  10.610  66.937  1.00  0.00    -0.198 NA 
BRANCH  11  15
HETATM   15  C   UNL     1     -11.401  13.731  68.897  1.00  0.00    -0.288 A  
HETATM   16  C   UNL     1     -10.981  14.948  68.356  1.00  0.00    -0.266 A  
HETATM   17  C   UNL     1     -10.227  15.404  67.238  1.00  0.00    -0.254 A  
HETATM   18  C   UNL     1     -10.230  16.783  67.260  1.00  0.00    -0.292 A  
HETATM   19  N   UNL     1     -10.964  17.181  68.347  1.00  0.00    -0.296 NA 
HETATM   20  C   UNL     1     -11.432  16.084  69.016  1.00  0.00    -0.360 A  
HETATM   21  H   UNL     1     -11.136  18.150  68.616  1.00  0.00     0.000 HD 
HETATM   22  N   UNL     1     -12.208  16.135  70.108  1.00  0.00    -0.077 NA 
HETATM   23  C   UNL     1     -12.550  14.907  70.532  1.00  0.00    -0.360 A  
HETATM   24  N   UNL     1     -12.203  13.723  69.996  1.00  0.00    -0.344 NA 
ENDBRANCH  11  15
ENDBRANCH   4  10
ENDBRANCH   3   4
TORSDOF 4
ENDMDL
MODEL      162
REMARK 921   NORMALIZED FREE ENERGY PREDICTED BY IDOCK:   -4.91 KCAL/MOL
REMARK 922        TOTAL FREE ENERGY PREDICTED BY IDOCK:   -6.47 KCAL/MOL
REMARK 923 INTER-LIGAND FREE ENERGY PREDICTED BY IDOCK:   -5.75 KCAL/MOL
REMARK 924 INTRA-LIGAND FREE ENERGY PREDICTED BY IDOCK:   -0.72 KCAL/MOL
REMARK 927      BINDING AFFINITY PREDICTED BY RF-SCORE:    0.00 PKD
ROOT
HETATM    1  N   UNL     1      -8.766  19.127  68.160  1.00  0.00    -0.312 NA 
HETATM    2  C   UNL     1      -8.004  18.258  68.080  1.00  0.00    -0.264 C  
HETATM    3  C   UNL     1      -7.070  17.131  67.927  1.00  0.00    -0.170 C  
ENDROOT
BRANCH   3   4
HETATM    4  C   UNL     1      -7.527  15.872  68.710  1.00  0.00    -0.170 C  
BRANCH   4   5
HETATM    5  C   UNL     1      -6.354  14.853  68.905  1.00  0.00    -0.087 C  
HETATM    6  C   UNL     1      -5.775  14.248  67.612  1.00  0.00     0.014 C  
HETATM    7  C   UNL     1      -5.310  12.833  67.932  1.00  0.00    -0.106 C  
HETATM    8  C   UNL     1      -6.757  13.593  69.688  1.00  0.00     0.011 C  
HETATM    9  C   UNL     1      -5.640  12.606  69.394  1.00  0.00    -0.084 C  
ENDBRANCH   4   5
BRANCH   4  10
HETATM   10  N   UNL     1      -8.760  15.318  68.126  1.00  0.00    -0.159 NA 
HETATM   11  C   UNL     1     -10.324  14.547  66.768  1.00  0.00    -0.269 A  
HETATM   12  C   UNL     1      -9.004  14.928  66.846  1.00  0.00    -0.253 A  
HETATM   13  C   UNL     1     -10.766  14.626  68.101  1.00  0.00    -0.242 A  
HETATM   14  N   UNL     1      -9.814  15.056  68.934  1.00  0.00    -0.227 NA 
BRANCH  11  15
HETATM   15  C   UNL     1     -10.960  14.193  65.523  1.00  0.00    -0.310 A  
HETATM   16  C   UNL     1     -10.781  12.942  64.929  1.00  0.00    -0.333 A  
HETATM   17  C   UNL     1     -10.041  11.751  65.176  1.00  0.00    -0.298 A  
HETATM   18  C   UNL     1     -10.368  10.840  64.193  1.00  0.00    -0.311 A  
HETATM   19  N   UNL     1     -11.283  11.433  63.362  1.00  0.00    -0.791 NA 
HETATM   20  C   UNL     1     -11.549  12.701  63.798  1.00  0.00    -0.476 A  
HETATM   21  H   UNL     1     -11.702  10.994  62.542  1.00  0.00     0.000 HD 
HETATM   22  N   UNL     1     -12.425  13.535  63.218  1.00  0.00    -0.765 NA 
HETATM   23  C   UNL     1     -12.514  14.700  63.879  1.00  0.00     0.147 A  
HETATM   24  N   UNL     1     -11.847  15.073  64.987  1.00  0.00    -0.293 NA 
ENDBRANCH  11  15
ENDBRANCH   4  10
ENDBRANCH   3   4
TORSDOF 4
ENDMDL
MODEL      163
REMARK 921   NORMALIZED FREE ENERGY PREDICTED BY IDOCK:   -4.91 KCAL/MOL
REMARK 922        TOTAL FREE ENERGY PREDICTED BY IDOCK:   -6.46 KCAL/MOL
REMARK 923 INTER-LIGAND FREE ENERGY PREDICTED BY IDOCK:   -5.91 KCAL/MOL
REMARK 924 INTRA-LIGAND FREE ENERGY PREDICTED BY IDOCK:   -0.55 KCAL/MOL
REMARK 927      BINDING AFFINITY PREDICTED BY RF-SCORE:    0.00 PKD
ROOT
HETATM    1  N   UNL     1     -10.835  11.366  65.568  1.00  0.00    -0.253 NA 
HETATM    2  C   UNL     1     -10.540  11.367  66.689  1.00  0.00    -0.258 C  
HETATM    3  C   UNL     1     -10.137  11.310  68.103  1.00  0.00    -0.195 C  
ENDROOT
BRANCH   3   4
HETATM    4  C   UNL     1     -11.172  10.564  68.985  1.00  0.00    -0.259 C  
BRANCH   4   5
HETATM    5  C   UNL     1     -12.204  11.552  69.628  1.00  0.00    -0.296 C  
HETATM    6  C   UNL     1     -11.827  13.044  69.565  1.00  0.00    -0.385 C  
HETATM    7  C   UNL     1     -12.396  13.717  70.808  1.00  0.00    -0.451 C  
HETATM    8  C   UNL     1     -12.399  11.340  71.138  1.00  0.00    -0.429 C  
HETATM    9  C   UNL     1     -13.077  12.620  71.603  1.00  0.00    -0.421 C  
ENDBRANCH   4   5
BRANCH   4  10
HETATM   10  N   UNL     1     -10.492   9.655  69.924  1.00  0.00    -0.233 NA 
HETATM   11  C   UNL     1      -9.965   8.020  71.313  1.00  0.00    -0.211 A  
HETATM   12  C   UNL     1     -10.912   8.458  70.415  1.00  0.00    -0.239 A  
HETATM   13  C   UNL     1      -8.939   8.974  71.199  1.00  0.00    -0.235 A  
HETATM   14  N   UNL     1      -9.235   9.947  70.331  1.00  0.00    -0.099 NA 
BRANCH  11  15
HETATM   15  C   UNL     1     -10.146   6.839  72.121  1.00  0.00    -0.181 A  
HETATM   16  C   UNL     1      -9.998   5.553  71.598  1.00  0.00    -0.233 A  
HETATM   17  C   UNL     1      -9.720   4.950  70.338  1.00  0.00    -0.284 A  
HETATM   18  C   UNL     1      -9.661   3.585  70.528  1.00  0.00    -0.176 A  
HETATM   19  N   UNL     1      -9.887   3.338  71.857  1.00  0.00    -0.169 NA 
HETATM   20  C   UNL     1     -10.085   4.518  72.519  1.00  0.00    -0.176 A  
HETATM   21  H   UNL     1      -9.904   2.413  72.288  1.00  0.00     0.000 HD 
HETATM   22  N   UNL     1     -10.303   4.621  73.839  1.00  0.00    -0.203 NA 
HETATM   23  C   UNL     1     -10.424   5.901  74.223  1.00  0.00    -0.208 A  
HETATM   24  N   UNL     1     -10.354   7.004  73.455  1.00  0.00    -0.321 NA 
ENDBRANCH  11  15
ENDBRANCH   4  10
ENDBRANCH   3   4
TORSDOF 4
ENDMDL
MODEL      164
REMARK 921   NORMALIZED FREE ENERGY PREDICTED BY IDOCK:   -4.89 KCAL/MOL
REMARK 922        TOTAL FREE ENERGY PREDICTED BY IDOCK:   -6.44 KCAL/MOL
REMARK 923 INTER-LIGAND FREE ENERGY PREDICTED BY IDOCK:   -5.80 KCAL/MOL
REMARK 924 INTRA-LIGAND FREE ENERGY PREDICTED BY IDOCK:   -0.64 KCAL/MOL
REMARK 927      BINDING AFFINITY PREDICTED BY RF-SCORE:    0.00 PKD
ROOT
HETATM    1  N   UNL     1      -5.463  11.881  66.484  1.00  0.00    -0.308 NA 
HETATM    2  C   UNL     1      -6.287  11.141  66.143  1.00  0.00    -0.056 C  
HETATM    3  C   UNL     1      -7.362  10.250  65.678  1.00  0.00    -0.149 C  
ENDROOT
BRANCH   3   4
HETATM    4  C   UNL     1      -8.577  10.234  66.643  1.00  0.00    -0.127 C  
BRANCH   4   5
HETATM    5  C   UNL     1      -9.510   9.003  66.381  1.00  0.00    -0.288 C  
HETATM    6  C   UNL     1     -10.386   8.566  67.571  1.00  0.00    -0.334 C  
HETATM    7  C   UNL     1     -10.567   7.056  67.481  1.00  0.00    -0.351 C  
HETATM    8  C   UNL     1      -8.745   7.709  66.062  1.00  0.00    -0.178 C  
HETATM    9  C   UNL     1      -9.780   6.613  66.263  1.00  0.00    -0.057 C  
ENDBRANCH   4   5
BRANCH   4  10
HETATM   10  N   UNL     1      -9.245  11.547  66.657  1.00  0.00    -0.181 NA 
HETATM   11  C   UNL     1      -9.990  13.562  67.174  1.00  0.00    -0.246 A  
HETATM   12  C   UNL     1      -9.103  12.574  67.537  1.00  0.00    -0.187 A  
HETATM   13  C   UNL     1     -10.541  13.082  65.973  1.00  0.00    -0.279 A  
HETATM   14  N   UNL     1     -10.066  11.879  65.634  1.00  0.00    -0.236 NA 
BRANCH  11  15
HETATM   15  C   UNL     1     -10.199  14.749  67.966  1.00  0.00    -0.226 A  
HETATM   16  C   UNL     1     -10.263  16.020  67.392  1.00  0.00    -0.273 A  
HETATM   17  C   UNL     1     -10.136  16.604  66.100  1.00  0.00    -0.361 A  
HETATM   18  C   UNL     1     -10.372  17.958  66.223  1.00  0.00    -0.364 A  
HETATM   19  N   UNL     1     -10.642  18.216  67.542  1.00  0.00    -0.413 NA 
HETATM   20  C   UNL     1     -10.588  17.053  68.261  1.00  0.00    -0.372 A  
HETATM   21  H   UNL     1     -10.852  19.136  67.929  1.00  0.00     0.000 HD 
HETATM   22  N   UNL     1     -10.833  16.963  69.576  1.00  0.00    -0.248 NA 
HETATM   23  C   UNL     1     -10.746  15.695  70.011  1.00  0.00    -0.335 A  
HETATM   24  N   UNL     1     -10.453  14.595  69.293  1.00  0.00    -0.235 NA 
ENDBRANCH  11  15
ENDBRANCH   4  10
ENDBRANCH   3   4
TORSDOF 4
ENDMDL
MODEL      165
REMARK 921   NORMALIZED FREE ENERGY PREDICTED BY IDOCK:   -4.89 KCAL/MOL
REMARK 922        TOTAL FREE ENERGY PREDICTED BY IDOCK:   -6.44 KCAL/MOL
REMARK 923 INTER-LIGAND FREE ENERGY PREDICTED BY IDOCK:   -6.16 KCAL/MOL
REMARK 924 INTRA-LIGAND FREE ENERGY PREDICTED BY IDOCK:   -0.28 KCAL/MOL
REMARK 927      BINDING AFFINITY PREDICTED BY RF-SCORE:    0.00 PKD
ROOT
HETATM    1  N   UNL     1      -7.140   9.596  64.576  1.00  0.00    -0.115 NA 
HETATM    2  C   UNL     1      -7.138   9.129  65.637  1.00  0.00    -0.082 C  
HETATM    3  C   UNL     1      -7.178   8.493  66.963  1.00  0.00    -0.079 C  
ENDROOT
BRANCH   3   4
HETATM    4  C   UNL     1      -8.290   9.083  67.870  1.00  0.00    -0.117 C  
BRANCH   4   5
HETATM    5  C   UNL     1      -9.453   8.060  68.102  1.00  0.00    -0.152 C  
HETATM    6  C   UNL     1     -10.003   7.992  69.540  1.00  0.00    -0.186 C  
HETATM    7  C   UNL     1     -10.455   6.559  69.794  1.00  0.00    -0.256 C  
HETATM    8  C   UNL     1      -9.047   6.599  67.851  1.00  0.00    -0.114 C  
HETATM    9  C   UNL     1     -10.147   5.793  68.522  1.00  0.00    -0.226 C  
ENDBRANCH   4   5
BRANCH   4  10
HETATM   10  N   UNL     1      -8.700  10.413  67.387  1.00  0.00    -0.125 NA 
HETATM   11  C   UNL     1      -9.716  12.112  66.405  1.00  0.00    -0.243 A  
HETATM   12  C   UNL     1      -9.811  10.768  66.688  1.00  0.00    -0.200 A  
HETATM   13  C   UNL     1      -8.556  12.510  67.092  1.00  0.00    -0.200 A  
HETATM   14  N   UNL     1      -7.956  11.494  67.721  1.00  0.00    -0.122 NA 
BRANCH  11  15
HETATM   15  C   UNL     1     -10.665  12.799  65.564  1.00  0.00    -0.278 A  
HETATM   16  C   UNL     1     -10.633  14.184  65.390  1.00  0.00    -0.358 A  
HETATM   17  C   UNL     1      -9.880  15.293  65.870  1.00  0.00    -0.385 A  
HETATM   18  C   UNL     1     -10.347  16.426  65.236  1.00  0.00    -0.181 A  
HETATM   19  N   UNL     1     -11.350  16.044  64.384  1.00  0.00    -0.847 NA 
HETATM   20  C   UNL     1     -11.531  14.691  64.459  1.00  0.00    -0.335 A  
HETATM   21  H   UNL     1     -11.883  16.675  63.785  1.00  0.00     0.000 HD 
HETATM   22  N   UNL     1     -12.420  14.002  63.729  1.00  0.00    -0.796 NA 
HETATM   23  C   UNL     1     -12.353  12.684  63.979  1.00  0.00    -0.443 A  
HETATM   24  N   UNL     1     -11.536  12.048  64.838  1.00  0.00    -0.316 NA 
ENDBRANCH  11  15
ENDBRANCH   4  10
ENDBRANCH   3   4
TORSDOF 4
ENDMDL
MODEL      166
REMARK 921   NORMALIZED FREE ENERGY PREDICTED BY IDOCK:   -4.89 KCAL/MOL
REMARK 922        TOTAL FREE ENERGY PREDICTED BY IDOCK:   -6.44 KCAL/MOL
REMARK 923 INTER-LIGAND FREE ENERGY PREDICTED BY IDOCK:   -5.76 KCAL/MOL
REMARK 924 INTRA-LIGAND FREE ENERGY PREDICTED BY IDOCK:   -0.68 KCAL/MOL
REMARK 927      BINDING AFFINITY PREDICTED BY RF-SCORE:    0.00 PKD
ROOT
HETATM    1  N   UNL     1     -11.526   6.065  69.544  1.00  0.00    -0.275 NA 
HETATM    2  C   UNL     1     -11.110   7.099  69.225  1.00  0.00    -0.080 C  
HETATM    3  C   UNL     1     -10.622   8.409  68.768  1.00  0.00    -0.154 C  
ENDROOT
BRANCH   3   4
HETATM    4  C   UNL     1      -9.426   8.287  67.787  1.00  0.00    -0.149 C  
BRANCH   4   5
HETATM    5  C   UNL     1      -8.052   8.410  68.530  1.00  0.00    -0.123 C  
HETATM    6  C   UNL     1      -7.343   7.078  68.844  1.00  0.00    -0.093 C  
HETATM    7  C   UNL     1      -6.569   7.263  70.143  1.00  0.00    -0.043 C  
HETATM    8  C   UNL     1      -8.161   9.045  69.925  1.00  0.00    -0.117 C  
HETATM    9  C   UNL     1      -6.846   8.683  70.596  1.00  0.00    -0.045 C  
ENDBRANCH   4   5
BRANCH   4  10
HETATM   10  N   UNL     1      -9.608   9.186  66.635  1.00  0.00    -0.185 NA 
HETATM   11  C   UNL     1     -10.243  10.788  65.252  1.00  0.00    -0.351 A  
HETATM   12  C   UNL     1     -10.307  10.350  66.555  1.00  0.00    -0.224 A  
HETATM   13  C   UNL     1      -9.367   9.873  64.641  1.00  0.00    -0.277 A  
HETATM   14  N   UNL     1      -8.949   8.922  65.482  1.00  0.00    -0.200 NA 
BRANCH  11  15
HETATM   15  C   UNL     1     -10.982  11.933  64.779  1.00  0.00    -0.312 A  
HETATM   16  C   UNL     1     -10.701  13.228  65.217  1.00  0.00    -0.322 A  
HETATM   17  C   UNL     1      -9.818  13.866  66.135  1.00  0.00    -0.316 A  
HETATM   18  C   UNL     1     -10.026  15.226  66.045  1.00  0.00    -0.319 A  
HETATM   19  N   UNL     1     -10.998  15.438  65.102  1.00  0.00    -0.399 NA 
HETATM   20  C   UNL     1     -11.411  14.241  64.586  1.00  0.00    -0.373 A  
HETATM   21  H   UNL     1     -11.359  16.352  64.827  1.00  0.00     0.000 HD 
HETATM   22  N   UNL     1     -12.333  14.108  63.622  1.00  0.00    -0.751 NA 
HETATM   23  C   UNL     1     -12.513  12.821  63.282  1.00  0.00    -0.240 A  
HETATM   24  N   UNL     1     -11.897  11.739  63.792  1.00  0.00    -0.415 NA 
ENDBRANCH  11  15
ENDBRANCH   4  10
ENDBRANCH   3   4
TORSDOF 4
ENDMDL
MODEL      167
REMARK 921   NORMALIZED FREE ENERGY PREDICTED BY IDOCK:   -4.86 KCAL/MOL
REMARK 922        TOTAL FREE ENERGY PREDICTED BY IDOCK:   -6.40 KCAL/MOL
REMARK 923 INTER-LIGAND FREE ENERGY PREDICTED BY IDOCK:   -6.03 KCAL/MOL
REMARK 924 INTRA-LIGAND FREE ENERGY PREDICTED BY IDOCK:   -0.37 KCAL/MOL
REMARK 927      BINDING AFFINITY PREDICTED BY RF-SCORE:    0.00 PKD
ROOT
HETATM    1  N   UNL     1      -9.985  11.049  64.173  1.00  0.00    -0.299 NA 
HETATM    2  C   UNL     1      -9.898  10.199  64.957  1.00  0.00    -0.322 C  
HETATM    3  C   UNL     1      -9.851   9.126  65.961  1.00  0.00    -0.342 C  
ENDROOT
BRANCH   3   4
HETATM    4  C   UNL     1      -9.655   9.669  67.401  1.00  0.00    -0.148 C  
BRANCH   4   5
HETATM    5  C   UNL     1     -10.041   8.602  68.481  1.00  0.00    -0.211 C  
HETATM    6  C   UNL     1      -8.860   7.953  69.227  1.00  0.00    -0.142 C  
HETATM    7  C   UNL     1      -9.261   6.523  69.572  1.00  0.00    -0.142 C  
HETATM    8  C   UNL     1     -10.762   7.374  67.903  1.00  0.00    -0.217 C  
HETATM    9  C   UNL     1     -10.656   6.334  69.007  1.00  0.00    -0.322 C  
ENDBRANCH   4   5
BRANCH   4  10
HETATM   10  N   UNL     1     -10.299  10.986  67.549  1.00  0.00    -0.191 NA 
HETATM   11  C   UNL     1     -10.750  13.113  67.940  1.00  0.00    -0.249 A  
HETATM   12  C   UNL     1      -9.734  12.190  67.833  1.00  0.00    -0.200 A  
HETATM   13  C   UNL     1     -11.895  12.384  67.575  1.00  0.00    -0.284 A  
HETATM   14  N   UNL     1     -11.624  11.104  67.301  1.00  0.00    -0.511 NA 
BRANCH  11  15
HETATM   15  C   UNL     1     -10.523  14.475  68.358  1.00  0.00    -0.246 A  
HETATM   16  C   UNL     1      -9.844  15.393  67.556  1.00  0.00    -0.217 A  
HETATM   17  C   UNL     1      -9.181  15.409  66.295  1.00  0.00    -0.354 A  
HETATM   18  C   UNL     1      -8.756  16.700  66.059  1.00  0.00    -0.204 A  
HETATM   19  N   UNL     1      -9.140  17.469  67.126  1.00  0.00    -0.238 NA 
HETATM   20  C   UNL     1      -9.806  16.696  68.036  1.00  0.00    -0.245 A  
HETATM   21  H   UNL     1      -8.957  18.467  67.226  1.00  0.00     0.000 HD 
HETATM   22  N   UNL     1     -10.337  17.156  69.179  1.00  0.00    -0.317 NA 
HETATM   23  C   UNL     1     -10.966  16.184  69.860  1.00  0.00    -0.362 A  
HETATM   24  N   UNL     1     -11.094  14.889  69.521  1.00  0.00    -0.271 NA 
ENDBRANCH  11  15
ENDBRANCH   4  10
ENDBRANCH   3   4
TORSDOF 4
ENDMDL
MODEL      168
REMARK 921   NORMALIZED FREE ENERGY PREDICTED BY IDOCK:   -4.85 KCAL/MOL
REMARK 922        TOTAL FREE ENERGY PREDICTED BY IDOCK:   -6.39 KCAL/MOL
REMARK 923 INTER-LIGAND FREE ENERGY PREDICTED BY IDOCK:   -5.83 KCAL/MOL
REMARK 924 INTRA-LIGAND FREE ENERGY PREDICTED BY IDOCK:   -0.57 KCAL/MOL
REMARK 927      BINDING AFFINITY PREDICTED BY RF-SCORE:    0.00 PKD
ROOT
HETATM    1  N   UNL     1      -5.354  12.716  67.089  1.00  0.00    -0.336 NA 
HETATM    2  C   UNL     1      -6.011  11.839  66.710  1.00  0.00    -0.107 C  
HETATM    3  C   UNL     1      -6.870  10.766  66.185  1.00  0.00    -0.126 C  
ENDROOT
BRANCH   3   4
HETATM    4  C   UNL     1      -8.261  10.730  66.871  1.00  0.00    -0.130 C  
BRANCH   4   5
HETATM    5  C   UNL     1      -9.101   9.490  66.416  1.00  0.00    -0.195 C  
HETATM    6  C   UNL     1     -10.338   9.170  67.277  1.00  0.00    -0.338 C  
HETATM    7  C   UNL     1     -10.537   7.659  67.257  1.00  0.00    -0.388 C  
HETATM    8  C   UNL     1      -8.324   8.164  66.477  1.00  0.00    -0.113 C  
HETATM    9  C   UNL     1      -9.409   7.101  66.412  1.00  0.00    -0.190 C  
ENDBRANCH   4   5
BRANCH   4  10
HETATM   10  N   UNL     1      -8.933  12.035  66.745  1.00  0.00    -0.195 NA 
HETATM   11  C   UNL     1      -9.747  14.062  67.078  1.00  0.00    -0.256 A  
HETATM   12  C   UNL     1      -8.904  13.101  67.589  1.00  0.00    -0.191 A  
HETATM   13  C   UNL     1     -10.147  13.524  65.842  1.00  0.00    -0.303 A  
HETATM   14  N   UNL     1      -9.627  12.313  65.617  1.00  0.00    -0.189 NA 
BRANCH  11  15
HETATM   15  C   UNL     1     -10.058  15.280  67.785  1.00  0.00    -0.230 A  
HETATM   16  C   UNL     1     -10.844  15.288  68.939  1.00  0.00    -0.247 A  
HETATM   17  C   UNL     1     -11.565  14.352  69.733  1.00  0.00    -0.352 A  
HETATM   18  C   UNL     1     -12.100  15.033  70.806  1.00  0.00    -0.322 A  
HETATM   19  N   UNL     1     -11.724  16.346  70.697  1.00  0.00    -0.495 NA 
HETATM   20  C   UNL     1     -10.958  16.516  69.577  1.00  0.00    -0.289 A  
HETATM   21  H   UNL     1     -11.978  17.086  71.352  1.00  0.00     0.000 HD 
HETATM   22  N   UNL     1     -10.409  17.681  69.202  1.00  0.00    -0.305 NA 
HETATM   23  C   UNL     1      -9.676  17.547  68.086  1.00  0.00    -0.302 A  
HETATM   24  N   UNL     1      -9.464  16.430  67.366  1.00  0.00    -0.226 NA 
ENDBRANCH  11  15
ENDBRANCH   4  10
ENDBRANCH   3   4
TORSDOF 4
ENDMDL
MODEL      169
REMARK 921   NORMALIZED FREE ENERGY PREDICTED BY IDOCK:   -4.85 KCAL/MOL
REMARK 922        TOTAL FREE ENERGY PREDICTED BY IDOCK:   -6.39 KCAL/MOL
REMARK 923 INTER-LIGAND FREE ENERGY PREDICTED BY IDOCK:   -5.68 KCAL/MOL
REMARK 924 INTRA-LIGAND FREE ENERGY PREDICTED BY IDOCK:   -0.71 KCAL/MOL
REMARK 927      BINDING AFFINITY PREDICTED BY RF-SCORE:    0.00 PKD
ROOT
HETATM    1  N   UNL     1     -10.657  18.969  67.174  1.00  0.00    -0.443 NA 
HETATM    2  C   UNL     1      -9.644  19.201  67.688  1.00  0.00    -0.311 C  
HETATM    3  C   UNL     1      -8.346  19.539  68.294  1.00  0.00    -0.375 C  
ENDROOT
BRANCH   3   4
HETATM    4  C   UNL     1      -7.187  18.674  67.732  1.00  0.00    -0.228 C  
BRANCH   4   5
HETATM    5  C   UNL     1      -7.002  18.881  66.191  1.00  0.00    -0.278 C  
HETATM    6  C   UNL     1      -5.699  18.315  65.595  1.00  0.00    -0.247 C  
HETATM    7  C   UNL     1      -5.293  19.215  64.434  1.00  0.00    -0.267 C  
HETATM    8  C   UNL     1      -6.923  20.358  65.774  1.00  0.00    -0.262 C  
HETATM    9  C   UNL     1      -6.338  20.312  64.372  1.00  0.00    -0.296 C  
ENDBRANCH   4   5
BRANCH   4  10
HETATM   10  N   UNL     1      -7.325  17.275  68.174  1.00  0.00    -0.192 NA 
HETATM   11  C   UNL     1      -7.838  15.134  68.367  1.00  0.00    -0.127 A  
HETATM   12  C   UNL     1      -7.878  16.219  67.519  1.00  0.00    -0.146 A  
HETATM   13  C   UNL     1      -7.120  15.612  69.477  1.00  0.00    -0.195 A  
HETATM   14  N   UNL     1      -6.773  16.897  69.350  1.00  0.00    -0.238 NA 
BRANCH  11  15
HETATM   15  C   UNL     1      -8.456  13.872  68.044  1.00  0.00    -0.173 A  
HETATM   16  C   UNL     1      -9.811  13.629  68.279  1.00  0.00    -0.232 A  
HETATM   17  C   UNL     1     -10.925  14.311  68.845  1.00  0.00    -0.275 A  
HETATM   18  C   UNL     1     -12.030  13.496  68.715  1.00  0.00    -0.339 A  
HETATM   19  N   UNL     1     -11.628  12.346  68.086  1.00  0.00    -0.321 NA 
HETATM   20  C   UNL     1     -10.291  12.414  67.808  1.00  0.00    -0.216 A  
HETATM   21  H   UNL     1     -12.236  11.558  67.859  1.00  0.00     0.000 HD 
HETATM   22  N   UNL     1      -9.599  11.458  67.171  1.00  0.00    -0.178 NA 
HETATM   23  C   UNL     1      -8.313  11.807  67.000  1.00  0.00    -0.172 A  
HETATM   24  N   UNL     1      -7.709  12.944  67.389  1.00  0.00    -0.168 NA 
ENDBRANCH  11  15
ENDBRANCH   4  10
ENDBRANCH   3   4
TORSDOF 4
ENDMDL
MODEL      170
REMARK 921   NORMALIZED FREE ENERGY PREDICTED BY IDOCK:   -4.83 KCAL/MOL
REMARK 922        TOTAL FREE ENERGY PREDICTED BY IDOCK:   -6.36 KCAL/MOL
REMARK 923 INTER-LIGAND FREE ENERGY PREDICTED BY IDOCK:   -6.71 KCAL/MOL
REMARK 924 INTRA-LIGAND FREE ENERGY PREDICTED BY IDOCK:    0.35 KCAL/MOL
REMARK 927      BINDING AFFINITY PREDICTED BY RF-SCORE:    0.00 PKD
ROOT
HETATM    1  N   UNL     1     -13.222  12.340  64.289  1.00  0.00    -0.761 NA 
HETATM    2  C   UNL     1     -12.239  12.099  63.725  1.00  0.00    -0.531 C  
HETATM    3  C   UNL     1     -11.004  11.730  63.016  1.00  0.00    -0.111 C  
ENDROOT
BRANCH   3   4
HETATM    4  C   UNL     1      -9.803  11.535  63.979  1.00  0.00    -0.274 C  
BRANCH   4   5
HETATM    5  C   UNL     1      -9.255  10.068  63.934  1.00  0.00    -0.317 C  
HETATM    6  C   UNL     1      -7.828   9.874  64.479  1.00  0.00    -0.142 C  
HETATM    7  C   UNL     1      -7.183   8.740  63.691  1.00  0.00    -0.094 C  
HETATM    8  C   UNL     1      -9.128   9.503  62.510  1.00  0.00    -0.236 C  
HETATM    9  C   UNL     1      -8.218   8.296  62.676  1.00  0.00    -0.154 C  
ENDBRANCH   4   5
BRANCH   4  10
HETATM   10  N   UNL     1     -10.126  12.052  65.320  1.00  0.00    -0.256 NA 
HETATM   11  C   UNL     1     -10.474  13.320  67.096  1.00  0.00    -0.248 A  
HETATM   12  C   UNL     1     -10.219  13.342  65.743  1.00  0.00    -0.292 A  
HETATM   13  C   UNL     1     -10.643  11.952  67.376  1.00  0.00    -0.225 A  
HETATM   14  N   UNL     1     -10.471  11.182  66.297  1.00  0.00    -0.253 NA 
BRANCH  11  15
HETATM   15  C   UNL     1     -10.509  14.517  67.900  1.00  0.00    -0.242 A  
HETATM   16  C   UNL     1     -10.470  15.792  67.333  1.00  0.00    -0.297 A  
HETATM   17  C   UNL     1     -10.357  16.369  66.036  1.00  0.00    -0.365 A  
HETATM   18  C   UNL     1     -10.439  17.739  66.176  1.00  0.00    -0.301 A  
HETATM   19  N   UNL     1     -10.604  18.014  67.508  1.00  0.00    -0.403 NA 
HETATM   20  C   UNL     1     -10.632  16.847  68.221  1.00  0.00    -0.363 A  
HETATM   21  H   UNL     1     -10.691  18.948  67.909  1.00  0.00     0.000 HD 
HETATM   22  N   UNL     1     -10.809  16.772  69.548  1.00  0.00    -0.293 NA 
HETATM   23  C   UNL     1     -10.833  15.499  69.975  1.00  0.00    -0.318 A  
HETATM   24  N   UNL     1     -10.701  14.380  69.239  1.00  0.00    -0.235 NA 
ENDBRANCH  11  15
ENDBRANCH   4  10
ENDBRANCH   3   4
TORSDOF 4
ENDMDL
MODEL      171
REMARK 921   NORMALIZED FREE ENERGY PREDICTED BY IDOCK:   -4.81 KCAL/MOL
REMARK 922        TOTAL FREE ENERGY PREDICTED BY IDOCK:   -6.34 KCAL/MOL
REMARK 923 INTER-LIGAND FREE ENERGY PREDICTED BY IDOCK:   -5.73 KCAL/MOL
REMARK 924 INTRA-LIGAND FREE ENERGY PREDICTED BY IDOCK:   -0.61 KCAL/MOL
REMARK 927      BINDING AFFINITY PREDICTED BY RF-SCORE:    0.00 PKD
ROOT
HETATM    1  N   UNL     1     -12.057  12.229  66.309  1.00  0.00    -0.620 NA 
HETATM    2  C   UNL     1     -10.923  12.272  66.073  1.00  0.00    -0.292 C  
HETATM    3  C   UNL     1      -9.477  12.270  65.803  1.00  0.00    -0.128 C  
ENDROOT
BRANCH   3   4
HETATM    4  C   UNL     1      -8.658  12.909  66.955  1.00  0.00    -0.169 C  
BRANCH   4   5
HETATM    5  C   UNL     1      -8.433  11.904  68.135  1.00  0.00    -0.163 C  
HETATM    6  C   UNL     1      -7.125  12.088  68.927  1.00  0.00    -0.104 C  
HETATM    7  C   UNL     1      -6.678  10.713  69.409  1.00  0.00    -0.083 C  
HETATM    8  C   UNL     1      -8.323  10.439  67.683  1.00  0.00    -0.114 C  
HETATM    9  C   UNL     1      -7.706   9.732  68.878  1.00  0.00    -0.082 C  
ENDBRANCH   4   5
BRANCH   4  10
HETATM   10  N   UNL     1      -9.227  14.215  67.332  1.00  0.00    -0.196 NA 
HETATM   11  C   UNL     1      -9.786  16.349  67.452  1.00  0.00    -0.244 A  
HETATM   12  C   UNL     1      -9.166  15.401  66.670  1.00  0.00    -0.275 A  
HETATM   13  C   UNL     1     -10.304  15.601  68.524  1.00  0.00    -0.219 A  
HETATM   14  N   UNL     1     -10.002  14.302  68.438  1.00  0.00    -0.235 NA 
BRANCH  11  15
HETATM   15  C   UNL     1      -9.796  17.751  67.115  1.00  0.00    -0.311 A  
HETATM   16  C   UNL     1      -8.833  18.637  67.603  1.00  0.00    -0.292 A  
HETATM   17  C   UNL     1      -7.708  18.601  68.475  1.00  0.00    -0.342 A  
HETATM   18  C   UNL     1      -7.141  19.859  68.484  1.00  0.00    -0.301 A  
HETATM   19  N   UNL     1      -7.877  20.655  67.645  1.00  0.00    -0.248 NA 
HETATM   20  C   UNL     1      -8.899  19.929  67.098  1.00  0.00    -0.330 A  
HETATM   21  H   UNL     1      -7.690  21.640  67.457  1.00  0.00     0.000 HD 
HETATM   22  N   UNL     1      -9.783  20.412  66.213  1.00  0.00    -0.310 NA 
HETATM   23  C   UNL     1     -10.652  19.469  65.815  1.00  0.00    -0.427 A  
HETATM   24  N   UNL     1     -10.708  18.182  66.203  1.00  0.00    -0.250 NA 
ENDBRANCH  11  15
ENDBRANCH   4  10
ENDBRANCH   3   4
TORSDOF 4
ENDMDL
MODEL      172
REMARK 921   NORMALIZED FREE ENERGY PREDICTED BY IDOCK:   -4.80 KCAL/MOL
REMARK 922        TOTAL FREE ENERGY PREDICTED BY IDOCK:   -6.33 KCAL/MOL
REMARK 923 INTER-LIGAND FREE ENERGY PREDICTED BY IDOCK:   -5.72 KCAL/MOL
REMARK 924 INTRA-LIGAND FREE ENERGY PREDICTED BY IDOCK:   -0.61 KCAL/MOL
REMARK 927      BINDING AFFINITY PREDICTED BY RF-SCORE:    0.00 PKD
ROOT
HETATM    1  N   UNL     1      -6.505  11.642  69.385  1.00  0.00    -0.102 NA 
HETATM    2  C   UNL     1      -6.926  11.237  68.383  1.00  0.00    -0.070 C  
HETATM    3  C   UNL     1      -7.501  10.774  67.111  1.00  0.00    -0.102 C  
ENDROOT
BRANCH   3   4
HETATM    4  C   UNL     1      -8.726   9.845  67.317  1.00  0.00    -0.128 C  
BRANCH   4   5
HETATM    5  C   UNL     1      -8.983   8.937  66.067  1.00  0.00    -0.235 C  
HETATM    6  C   UNL     1      -8.453   7.494  66.171  1.00  0.00    -0.147 C  
HETATM    7  C   UNL     1      -8.049   7.049  64.771  1.00  0.00    -0.096 C  
HETATM    8  C   UNL     1      -8.288   9.436  64.791  1.00  0.00    -0.159 C  
HETATM    9  C   UNL     1      -8.318   8.233  63.863  1.00  0.00    -0.032 C  
ENDBRANCH   4   5
BRANCH   4  10
HETATM   10  N   UNL     1      -9.887  10.617  67.792  1.00  0.00    -0.164 NA 
HETATM   11  C   UNL     1     -11.414  11.653  69.009  1.00  0.00    -0.356 A  
HETATM   12  C   UNL     1     -10.190  11.023  69.055  1.00  0.00    -0.200 A  
HETATM   13  C   UNL     1     -11.713  11.687  67.635  1.00  0.00    -0.228 A  
HETATM   14  N   UNL     1     -10.775  11.095  66.889  1.00  0.00    -0.262 NA 
BRANCH  11  15
HETATM   15  C   UNL     1     -12.103  12.100  70.194  1.00  0.00    -0.290 A  
HETATM   16  C   UNL     1     -12.322  13.454  70.457  1.00  0.00    -0.401 A  
HETATM   17  C   UNL     1     -12.010  14.710  69.864  1.00  0.00    -0.381 A  
HETATM   18  C   UNL     1     -12.590  15.696  70.634  1.00  0.00    -0.414 A  
HETATM   19  N   UNL     1     -13.249  15.084  71.669  1.00  0.00    -0.345 NA 
HETATM   20  C   UNL     1     -13.103  13.728  71.572  1.00  0.00    -0.357 A  
HETATM   21  H   UNL     1     -13.769  15.568  72.401  1.00  0.00     0.000 HD 
HETATM   22  N   UNL     1     -13.653  12.844  72.417  1.00  0.00    -0.564 NA 
HETATM   23  C   UNL     1     -13.377  11.579  72.059  1.00  0.00    -0.292 A  
HETATM   24  N   UNL     1     -12.649  11.158  71.009  1.00  0.00    -0.393 NA 
ENDBRANCH  11  15
ENDBRANCH   4  10
ENDBRANCH   3   4
TORSDOF 4
ENDMDL
MODEL      173
REMARK 921   NORMALIZED FREE ENERGY PREDICTED BY IDOCK:   -4.79 KCAL/MOL
REMARK 922        TOTAL FREE ENERGY PREDICTED BY IDOCK:   -6.31 KCAL/MOL
REMARK 923 INTER-LIGAND FREE ENERGY PREDICTED BY IDOCK:   -6.35 KCAL/MOL
REMARK 924 INTRA-LIGAND FREE ENERGY PREDICTED BY IDOCK:    0.03 KCAL/MOL
REMARK 927      BINDING AFFINITY PREDICTED BY RF-SCORE:    0.00 PKD
ROOT
HETATM    1  N   UNL     1     -10.982  15.945  65.293  1.00  0.00    -0.350 NA 
HETATM    2  C   UNL     1     -11.345  14.937  65.735  1.00  0.00    -0.314 C  
HETATM    3  C   UNL     1     -11.854  13.689  66.326  1.00  0.00    -0.426 C  
ENDROOT
BRANCH   3   4
HETATM    4  C   UNL     1     -11.258  13.413  67.732  1.00  0.00    -0.279 C  
BRANCH   4   5
HETATM    5  C   UNL     1     -12.217  13.895  68.873  1.00  0.00    -0.257 C  
HETATM    6  C   UNL     1     -12.154  15.398  69.205  1.00  0.00    -0.270 C  
HETATM    7  C   UNL     1     -12.444  15.555  70.693  1.00  0.00    -0.483 C  
HETATM    8  C   UNL     1     -11.917  13.258  70.239  1.00  0.00    -0.372 C  
HETATM    9  C   UNL     1     -12.649  14.151  71.228  1.00  0.00    -0.438 C  
ENDBRANCH   4   5
BRANCH   4  10
HETATM   10  N   UNL     1      -9.874  13.908  67.814  1.00  0.00    -0.231 NA 
HETATM   11  C   UNL     1      -8.036  15.059  68.237  1.00  0.00    -0.128 A  
HETATM   12  C   UNL     1      -9.371  14.936  68.549  1.00  0.00    -0.196 A  
HETATM   13  C   UNL     1      -7.795  13.966  67.386  1.00  0.00    -0.161 A  
HETATM   14  N   UNL     1      -8.895  13.243  67.156  1.00  0.00    -0.216 NA 
BRANCH  11  15
HETATM   15  C   UNL     1      -7.215  16.133  68.741  1.00  0.00    -0.170 A  
HETATM   16  C   UNL     1      -7.553  17.475  68.552  1.00  0.00    -0.266 A  
HETATM   17  C   UNL     1      -8.573  18.227  67.902  1.00  0.00    -0.267 A  
HETATM   18  C   UNL     1      -8.338  19.562  68.154  1.00  0.00    -0.324 A  
HETATM   19  N   UNL     1      -7.217  19.648  68.938  1.00  0.00    -0.351 NA 
HETATM   20  C   UNL     1      -6.735  18.394  69.195  1.00  0.00    -0.260 A  
HETATM   21  H   UNL     1      -6.805  20.517  69.280  1.00  0.00     0.000 HD 
HETATM   22  N   UNL     1      -5.663  18.135  69.958  1.00  0.00    -0.243 NA 
HETATM   23  C   UNL     1      -5.441  16.815  70.069  1.00  0.00    -0.206 A  
HETATM   24  N   UNL     1      -6.147  15.811  69.518  1.00  0.00    -0.138 NA 
ENDBRANCH  11  15
ENDBRANCH   4  10
ENDBRANCH   3   4
TORSDOF 4
ENDMDL
MODEL      174
REMARK 921   NORMALIZED FREE ENERGY PREDICTED BY IDOCK:   -4.76 KCAL/MOL
REMARK 922        TOTAL FREE ENERGY PREDICTED BY IDOCK:   -6.29 KCAL/MOL
REMARK 923 INTER-LIGAND FREE ENERGY PREDICTED BY IDOCK:   -5.74 KCAL/MOL
REMARK 924 INTRA-LIGAND FREE ENERGY PREDICTED BY IDOCK:   -0.55 KCAL/MOL
REMARK 927      BINDING AFFINITY PREDICTED BY RF-SCORE:    0.00 PKD
ROOT
HETATM    1  N   UNL     1      -9.116   7.283  65.973  1.00  0.00    -0.122 NA 
HETATM    2  C   UNL     1      -9.833   7.971  66.570  1.00  0.00    -0.219 C  
HETATM    3  C   UNL     1     -10.737   8.889  67.281  1.00  0.00    -0.219 C  
ENDROOT
BRANCH   3   4
HETATM    4  C   UNL     1      -9.976   9.852  68.230  1.00  0.00    -0.151 C  
BRANCH   4   5
HETATM    5  C   UNL     1     -10.182   9.467  69.734  1.00  0.00    -0.238 C  
HETATM    6  C   UNL     1     -10.674   8.030  69.993  1.00  0.00    -0.244 C  
HETATM    7  C   UNL     1     -11.543   8.057  71.244  1.00  0.00    -0.306 C  
HETATM    8  C   UNL     1     -11.263  10.301  70.441  1.00  0.00    -0.407 C  
HETATM    9  C   UNL     1     -11.578   9.504  71.697  1.00  0.00    -0.451 C  
ENDBRANCH   4   5
BRANCH   4  10
HETATM   10  N   UNL     1     -10.269  11.254  67.887  1.00  0.00    -0.177 NA 
HETATM   11  C   UNL     1     -10.265  13.457  67.704  1.00  0.00    -0.228 A  
HETATM   12  C   UNL     1      -9.551  12.375  68.169  1.00  0.00    -0.218 A  
HETATM   13  C   UNL     1     -11.355  12.868  67.038  1.00  0.00    -0.309 A  
HETATM   14  N   UNL     1     -11.343  11.534  67.112  1.00  0.00    -0.414 NA 
BRANCH  11  15
HETATM   15  C   UNL     1      -9.859  14.819  67.946  1.00  0.00    -0.212 A  
HETATM   16  C   UNL     1     -10.052  15.828  67.001  1.00  0.00    -0.261 A  
HETATM   17  C   UNL     1     -10.562  15.954  65.677  1.00  0.00    -0.393 A  
HETATM   18  C   UNL     1     -10.513  17.288  65.331  1.00  0.00    -0.035 A  
HETATM   19  N   UNL     1      -9.998  17.978  66.398  1.00  0.00    -0.351 NA 
HETATM   20  C   UNL     1      -9.721  17.111  67.419  1.00  0.00    -0.253 A  
HETATM   21  H   UNL     1      -9.844  18.986  66.426  1.00  0.00     0.000 HD 
HETATM   22  N   UNL     1      -9.233  17.476  68.613  1.00  0.00    -0.280 NA 
HETATM   23  C   UNL     1      -9.095  16.423  69.436  1.00  0.00    -0.037 A  
HETATM   24  N   UNL     1      -9.380  15.133  69.179  1.00  0.00    -0.215 NA 
ENDBRANCH  11  15
ENDBRANCH   4  10
ENDBRANCH   3   4
TORSDOF 4
ENDMDL
MODEL      175
REMARK 921   NORMALIZED FREE ENERGY PREDICTED BY IDOCK:   -4.76 KCAL/MOL
REMARK 922        TOTAL FREE ENERGY PREDICTED BY IDOCK:   -6.28 KCAL/MOL
REMARK 923 INTER-LIGAND FREE ENERGY PREDICTED BY IDOCK:   -6.40 KCAL/MOL
REMARK 924 INTRA-LIGAND FREE ENERGY PREDICTED BY IDOCK:    0.11 KCAL/MOL
REMARK 927      BINDING AFFINITY PREDICTED BY RF-SCORE:    0.00 PKD
ROOT
HETATM    1  N   UNL     1     -13.243  12.502  64.366  1.00  0.00    -0.719 NA 
HETATM    2  C   UNL     1     -12.260  12.028  63.975  1.00  0.00    -0.403 C  
HETATM    3  C   UNL     1     -11.034  11.369  63.499  1.00  0.00    -0.406 C  
ENDROOT
BRANCH   3   4
HETATM    4  C   UNL     1      -9.939  11.292  64.596  1.00  0.00    -0.281 C  
BRANCH   4   5
HETATM    5  C   UNL     1      -8.902  10.155  64.301  1.00  0.00    -0.244 C  
HETATM    6  C   UNL     1      -7.610  10.199  65.139  1.00  0.00    -0.141 C  
HETATM    7  C   UNL     1      -6.481   9.648  64.276  1.00  0.00    -0.106 C  
HETATM    8  C   UNL     1      -8.348  10.184  62.867  1.00  0.00    -0.169 C  
HETATM    9  C   UNL     1      -7.107   9.310  62.937  1.00  0.00    -0.094 C  
ENDBRANCH   4   5
BRANCH   4  10
HETATM   10  N   UNL     1     -10.549  11.264  65.936  1.00  0.00    -0.262 NA 
HETATM   11  C   UNL     1     -11.392  11.777  67.913  1.00  0.00    -0.362 A  
HETATM   12  C   UNL     1     -10.948  12.301  66.720  1.00  0.00    -0.276 A  
HETATM   13  C   UNL     1     -11.336  10.388  67.702  1.00  0.00    -0.082 A  
HETATM   14  N   UNL     1     -10.862  10.071  66.493  1.00  0.00    -0.024 NA 
BRANCH  11  15
HETATM   15  C   UNL     1     -11.773  12.604  69.032  1.00  0.00    -0.318 A  
HETATM   16  C   UNL     1     -12.264  12.061  70.221  1.00  0.00    -0.348 A  
HETATM   17  C   UNL     1     -12.585  10.776  70.743  1.00  0.00    -0.476 A  
HETATM   18  C   UNL     1     -12.990  10.941  72.051  1.00  0.00    -0.313 A  
HETATM   19  N   UNL     1     -12.921  12.278  72.344  1.00  0.00    -0.219 NA 
HETATM   20  C   UNL     1     -12.476  12.968  71.250  1.00  0.00    -0.218 A  
HETATM   21  H   UNL     1     -13.164  12.695  73.242  1.00  0.00     0.000 HD 
HETATM   22  N   UNL     1     -12.272  14.293  71.221  1.00  0.00    -0.347 NA 
HETATM   23  C   UNL     1     -11.797  14.696  70.031  1.00  0.00    -0.308 A  
HETATM   24  N   UNL     1     -11.533  13.940  68.950  1.00  0.00    -0.279 NA 
ENDBRANCH  11  15
ENDBRANCH   4  10
ENDBRANCH   3   4
TORSDOF 4
ENDMDL
MODEL      176
REMARK 921   NORMALIZED FREE ENERGY PREDICTED BY IDOCK:   -4.75 KCAL/MOL
REMARK 922        TOTAL FREE ENERGY PREDICTED BY IDOCK:   -6.27 KCAL/MOL
REMARK 923 INTER-LIGAND FREE ENERGY PREDICTED BY IDOCK:   -5.78 KCAL/MOL
REMARK 924 INTRA-LIGAND FREE ENERGY PREDICTED BY IDOCK:   -0.49 KCAL/MOL
REMARK 927      BINDING AFFINITY PREDICTED BY RF-SCORE:    0.00 PKD
ROOT
HETATM    1  N   UNL     1      -7.799  16.670  67.326  1.00  0.00    -0.157 NA 
HETATM    2  C   UNL     1      -8.932  16.866  67.177  1.00  0.00    -0.206 C  
HETATM    3  C   UNL     1     -10.373  17.131  67.050  1.00  0.00    -0.308 C  
ENDROOT
BRANCH   3   4
HETATM    4  C   UNL     1     -11.237  15.889  67.396  1.00  0.00    -0.134 C  
BRANCH   4   5
HETATM    5  C   UNL     1     -11.214  15.576  68.931  1.00  0.00    -0.306 C  
HETATM    6  C   UNL     1     -12.419  14.781  69.466  1.00  0.00    -0.135 C  
HETATM    7  C   UNL     1     -12.671  15.234  70.900  1.00  0.00    -0.496 C  
HETATM    8  C   UNL     1     -11.247  16.832  69.816  1.00  0.00     0.110 C  
HETATM    9  C   UNL     1     -11.636  16.304  71.187  1.00  0.00    -0.376 C  
ENDBRANCH   4   5
BRANCH   4  10
HETATM   10  N   UNL     1     -10.900  14.761  66.511  1.00  0.00    -0.313 NA 
HETATM   11  C   UNL     1     -10.202  12.844  65.662  1.00  0.00    -0.295 A  
HETATM   12  C   UNL     1     -10.438  13.523  66.836  1.00  0.00    -0.271 A  
HETATM   13  C   UNL     1     -10.676  13.724  64.673  1.00  0.00    -0.414 A  
HETATM   14  N   UNL     1     -11.135  14.871  65.183  1.00  0.00    -0.371 NA 
BRANCH  11  15
HETATM   15  C   UNL     1      -9.586  11.540  65.628  1.00  0.00    -0.231 A  
HETATM   16  C   UNL     1      -9.477  10.803  64.447  1.00  0.00    -0.300 A  
HETATM   17  C   UNL     1      -9.862  10.930  63.082  1.00  0.00    -0.392 A  
HETATM   18  C   UNL     1      -9.381   9.829  62.404  1.00  0.00    -0.191 A  
HETATM   19  N   UNL     1      -8.713   9.043  63.306  1.00  0.00    -0.401 NA 
HETATM   20  C   UNL     1      -8.755   9.621  64.544  1.00  0.00    -0.202 A  
HETATM   21  H   UNL     1      -8.254   8.158  63.087  1.00  0.00     0.000 HD 
HETATM   22  N   UNL     1      -8.169   9.114  65.639  1.00  0.00    -0.116 NA 
HETATM   23  C   UNL     1      -8.339   9.911  66.707  1.00  0.00    -0.125 A  
HETATM   24  N   UNL     1      -8.999  11.082  66.766  1.00  0.00    -0.154 NA 
ENDBRANCH  11  15
ENDBRANCH   4  10
ENDBRANCH   3   4
TORSDOF 4
ENDMDL
MODEL      177
REMARK 921   NORMALIZED FREE ENERGY PREDICTED BY IDOCK:   -4.70 KCAL/MOL
REMARK 922        TOTAL FREE ENERGY PREDICTED BY IDOCK:   -6.21 KCAL/MOL
REMARK 923 INTER-LIGAND FREE ENERGY PREDICTED BY IDOCK:   -6.55 KCAL/MOL
REMARK 924 INTRA-LIGAND FREE ENERGY PREDICTED BY IDOCK:    0.34 KCAL/MOL
REMARK 927      BINDING AFFINITY PREDICTED BY RF-SCORE:    0.00 PKD
ROOT
HETATM    1  N   UNL     1      -9.282   8.508  66.466  1.00  0.00    -0.176 NA 
HETATM    2  C   UNL     1      -9.033   9.628  66.300  1.00  0.00    -0.155 C  
HETATM    3  C   UNL     1      -8.688  11.050  66.148  1.00  0.00    -0.188 C  
ENDROOT
BRANCH   3   4
HETATM    4  C   UNL     1      -9.772  11.990  66.737  1.00  0.00    -0.207 C  
BRANCH   4   5
HETATM    5  C   UNL     1     -11.058  12.024  65.843  1.00  0.00    -0.369 C  
HETATM    6  C   UNL     1     -10.811  12.094  64.324  1.00  0.00    -0.388 C  
HETATM    7  C   UNL     1     -11.956  12.889  63.706  1.00  0.00    -0.582 C  
HETATM    8  C   UNL     1     -11.936  13.264  66.076  1.00  0.00    -0.473 C  
HETATM    9  C   UNL     1     -12.848  13.301  64.860  1.00  0.00    -0.321 C  
ENDBRANCH   4   5
BRANCH   4  10
HETATM   10  N   UNL     1      -9.194  13.303  67.070  1.00  0.00    -0.231 NA 
HETATM   11  C   UNL     1      -8.846  15.451  67.454  1.00  0.00    -0.196 A  
HETATM   12  C   UNL     1      -9.816  14.504  67.211  1.00  0.00    -0.236 A  
HETATM   13  C   UNL     1      -7.668  14.692  67.567  1.00  0.00    -0.195 A  
HETATM   14  N   UNL     1      -7.877  13.386  67.373  1.00  0.00    -0.163 NA 
BRANCH  11  15
HETATM   15  C   UNL     1      -9.138  16.862  67.531  1.00  0.00    -0.222 A  
HETATM   16  C   UNL     1      -8.302  17.755  68.203  1.00  0.00    -0.264 A  
HETATM   17  C   UNL     1      -7.105  17.709  68.973  1.00  0.00    -0.227 A  
HETATM   18  C   UNL     1      -6.771  19.003  69.312  1.00  0.00    -0.296 A  
HETATM   19  N   UNL     1      -7.717  19.834  68.771  1.00  0.00    -0.286 NA 
HETATM   20  C   UNL     1      -8.646  19.096  68.091  1.00  0.00    -0.324 A  
HETATM   21  H   UNL     1      -7.727  20.850  68.862  1.00  0.00     0.000 HD 
HETATM   22  N   UNL     1      -9.687  19.615  67.423  1.00  0.00    -0.335 NA 
HETATM   23  C   UNL     1     -10.412  18.662  66.817  1.00  0.00    -0.408 A  
HETATM   24  N   UNL     1     -10.201  17.333  66.825  1.00  0.00    -0.311 NA 
ENDBRANCH  11  15
ENDBRANCH   4  10
ENDBRANCH   3   4
TORSDOF 4
ENDMDL
MODEL      178
REMARK 921   NORMALIZED FREE ENERGY PREDICTED BY IDOCK:   -4.69 KCAL/MOL
REMARK 922        TOTAL FREE ENERGY PREDICTED BY IDOCK:   -6.19 KCAL/MOL
REMARK 923 INTER-LIGAND FREE ENERGY PREDICTED BY IDOCK:   -6.85 KCAL/MOL
REMARK 924 INTRA-LIGAND FREE ENERGY PREDICTED BY IDOCK:    0.66 KCAL/MOL
REMARK 927      BINDING AFFINITY PREDICTED BY RF-SCORE:    0.00 PKD
ROOT
HETATM    1  N   UNL     1      -7.662   8.004  71.331  1.00  0.00    -0.083 NA 
HETATM    2  C   UNL     1      -8.750   8.353  71.528  1.00  0.00    -0.176 C  
HETATM    3  C   UNL     1     -10.147   8.734  71.788  1.00  0.00    -0.403 C  
ENDROOT
BRANCH   3   4
HETATM    4  C   UNL     1     -11.027   8.670  70.511  1.00  0.00    -0.238 C  
BRANCH   4   5
HETATM    5  C   UNL     1     -10.415   7.714  69.432  1.00  0.00    -0.220 C  
HETATM    6  C   UNL     1     -10.580   8.168  67.969  1.00  0.00    -0.188 C  
HETATM    7  C   UNL     1     -10.702   6.916  67.109  1.00  0.00    -0.436 C  
HETATM    8  C   UNL     1     -11.065   6.321  69.405  1.00  0.00    -0.477 C  
HETATM    9  C   UNL     1     -10.635   5.743  68.066  1.00  0.00    -0.295 C  
ENDBRANCH   4   5
BRANCH   4  10
HETATM   10  N   UNL     1     -11.359  10.027  70.044  1.00  0.00    -0.266 NA 
HETATM   11  C   UNL     1     -11.519  11.921  68.916  1.00  0.00    -0.358 A  
HETATM   12  C   UNL     1     -11.057  10.625  68.860  1.00  0.00    -0.261 A  
HETATM   13  C   UNL     1     -12.204  11.971  70.143  1.00  0.00    -0.231 A  
HETATM   14  N   UNL     1     -12.144  10.816  70.813  1.00  0.00    -0.344 NA 
BRANCH  11  15
HETATM   15  C   UNL     1     -11.258  12.886  67.876  1.00  0.00    -0.269 A  
HETATM   16  C   UNL     1     -10.787  12.509  66.617  1.00  0.00    -0.277 A  
HETATM   17  C   UNL     1     -10.396  11.314  65.949  1.00  0.00    -0.304 A  
HETATM   18  C   UNL     1     -10.071  11.644  64.650  1.00  0.00    -0.262 A  
HETATM   19  N   UNL     1     -10.256  12.994  64.503  1.00  0.00    -0.547 NA 
HETATM   20  C   UNL     1     -10.697  13.531  65.681  1.00  0.00    -0.281 A  
HETATM   21  H   UNL     1     -10.091  13.520  63.644  1.00  0.00     0.000 HD 
HETATM   22  N   UNL     1     -10.999  14.825  65.860  1.00  0.00    -0.327 NA 
HETATM   23  C   UNL     1     -11.443  15.064  67.104  1.00  0.00    -0.297 A  
HETATM   24  N   UNL     1     -11.594  14.182  68.110  1.00  0.00    -0.311 NA 
ENDBRANCH  11  15
ENDBRANCH   4  10
ENDBRANCH   3   4
TORSDOF 4
ENDMDL
MODEL      179
REMARK 921   NORMALIZED FREE ENERGY PREDICTED BY IDOCK:   -4.69 KCAL/MOL
REMARK 922        TOTAL FREE ENERGY PREDICTED BY IDOCK:   -6.19 KCAL/MOL
REMARK 923 INTER-LIGAND FREE ENERGY PREDICTED BY IDOCK:   -5.49 KCAL/MOL
REMARK 924 INTRA-LIGAND FREE ENERGY PREDICTED BY IDOCK:   -0.70 KCAL/MOL
REMARK 927      BINDING AFFINITY PREDICTED BY RF-SCORE:    0.00 PKD
ROOT
HETATM    1  N   UNL     1      -6.878   7.377  64.953  1.00  0.00    -0.050 NA 
HETATM    2  C   UNL     1      -7.424   8.280  65.434  1.00  0.00    -0.085 C  
HETATM    3  C   UNL     1      -8.119   9.392  66.100  1.00  0.00    -0.111 C  
ENDROOT
BRANCH   3   4
HETATM    4  C   UNL     1      -9.663   9.271  65.998  1.00  0.00    -0.289 C  
BRANCH   4   5
HETATM    5  C   UNL     1     -10.356  10.676  66.009  1.00  0.00    -0.290 C  
HETATM    6  C   UNL     1     -10.551  11.333  64.629  1.00  0.00    -0.392 C  
HETATM    7  C   UNL     1     -10.450  12.842  64.818  1.00  0.00    -0.357 C  
HETATM    8  C   UNL     1      -9.556  11.752  66.760  1.00  0.00    -0.212 C  
HETATM    9  C   UNL     1     -10.173  13.060  66.293  1.00  0.00    -0.291 C  
ENDBRANCH   4   5
BRANCH   4  10
HETATM   10  N   UNL     1     -10.172   8.303  66.985  1.00  0.00    -0.282 NA 
HETATM   11  C   UNL     1     -10.780   7.249  68.829  1.00  0.00    -0.168 A  
HETATM   12  C   UNL     1     -10.349   8.455  68.325  1.00  0.00    -0.199 A  
HETATM   13  C   UNL     1     -10.954   6.457  67.681  1.00  0.00    -0.349 A  
HETATM   14  N   UNL     1     -10.624   7.101  66.557  1.00  0.00    -0.065 NA 
BRANCH  11  15
HETATM   15  C   UNL     1     -10.948   7.012  70.242  1.00  0.00    -0.271 A  
HETATM   16  C   UNL     1     -10.548   5.818  70.845  1.00  0.00    -0.329 A  
HETATM   17  C   UNL     1      -9.978   4.574  70.452  1.00  0.00    -0.284 A  
HETATM   18  C   UNL     1      -9.779   3.822  71.591  1.00  0.00    -0.168 A  
HETATM   19  N   UNL     1     -10.201   4.566  72.661  1.00  0.00    -0.174 NA 
HETATM   20  C   UNL     1     -10.661   5.779  72.229  1.00  0.00    -0.234 A  
HETATM   21  H   UNL     1     -10.175   4.262  73.635  1.00  0.00     0.000 HD 
HETATM   22  N   UNL     1     -11.118   6.749  73.034  1.00  0.00    -0.248 NA 
HETATM   23  C   UNL     1     -11.468   7.845  72.342  1.00  0.00    -0.376 A  
HETATM   24  N   UNL     1     -11.406   8.035  71.011  1.00  0.00    -0.270 NA 
ENDBRANCH  11  15
ENDBRANCH   4  10
ENDBRANCH   3   4
TORSDOF 4
ENDMDL
MODEL      180
REMARK 921   NORMALIZED FREE ENERGY PREDICTED BY IDOCK:   -4.68 KCAL/MOL
REMARK 922        TOTAL FREE ENERGY PREDICTED BY IDOCK:   -6.18 KCAL/MOL
REMARK 923 INTER-LIGAND FREE ENERGY PREDICTED BY IDOCK:   -5.55 KCAL/MOL
REMARK 924 INTRA-LIGAND FREE ENERGY PREDICTED BY IDOCK:   -0.64 KCAL/MOL
REMARK 927      BINDING AFFINITY PREDICTED BY RF-SCORE:    0.00 PKD
ROOT
HETATM    1  N   UNL     1     -11.171  11.737  64.233  1.00  0.00    -0.346 NA 
HETATM    2  C   UNL     1     -11.749  12.452  64.939  1.00  0.00    -0.365 C  
HETATM    3  C   UNL     1     -12.448  13.409  65.810  1.00  0.00    -0.496 C  
ENDROOT
BRANCH   3   4
HETATM    4  C   UNL     1     -11.707  13.638  67.154  1.00  0.00    -0.383 C  
BRANCH   4   5
HETATM    5  C   UNL     1     -10.653  14.793  67.046  1.00  0.00    -0.290 C  
HETATM    6  C   UNL     1     -10.650  15.802  68.210  1.00  0.00    -0.271 C  
HETATM    7  C   UNL     1     -10.247  17.158  67.644  1.00  0.00    -0.329 C  
HETATM    8  C   UNL     1     -10.871  15.712  65.833  1.00  0.00    -0.297 C  
HETATM    9  C   UNL     1     -10.043  16.946  66.157  1.00  0.00    -0.347 C  
ENDBRANCH   4   5
BRANCH   4  10
HETATM   10  N   UNL     1     -11.200  12.363  67.689  1.00  0.00    -0.269 NA 
HETATM   11  C   UNL     1      -9.941  10.675  68.362  1.00  0.00    -0.176 A  
HETATM   12  C   UNL     1      -9.916  11.983  67.932  1.00  0.00    -0.197 A  
HETATM   13  C   UNL     1     -11.314  10.391  68.466  1.00  0.00    -0.220 A  
HETATM   14  N   UNL     1     -12.082  11.421  68.097  1.00  0.00    -0.617 NA 
BRANCH  11  15
HETATM   15  C   UNL     1      -8.742   9.908  68.591  1.00  0.00    -0.124 A  
HETATM   16  C   UNL     1      -8.532   8.665  67.991  1.00  0.00    -0.127 A  
HETATM   17  C   UNL     1      -9.235   7.773  67.133  1.00  0.00    -0.174 A  
HETATM   18  C   UNL     1      -8.408   6.701  66.870  1.00  0.00    -0.114 A  
HETATM   19  N   UNL     1      -7.227   6.912  67.531  1.00  0.00    -0.088 NA 
HETATM   20  C   UNL     1      -7.282   8.100  68.208  1.00  0.00    -0.093 A  
HETATM   21  H   UNL     1      -6.426   6.279  67.521  1.00  0.00     0.000 HD 
HETATM   22  N   UNL     1      -6.274   8.609  68.931  1.00  0.00    -0.044 NA 
HETATM   23  C   UNL     1      -6.592   9.805  69.452  1.00  0.00    -0.049 A  
HETATM   24  N   UNL     1      -7.748  10.480  69.323  1.00  0.00    -0.133 NA 
ENDBRANCH  11  15
ENDBRANCH   4  10
ENDBRANCH   3   4
TORSDOF 4
ENDMDL
MODEL      181
REMARK 921   NORMALIZED FREE ENERGY PREDICTED BY IDOCK:   -4.67 KCAL/MOL
REMARK 922        TOTAL FREE ENERGY PREDICTED BY IDOCK:   -6.17 KCAL/MOL
REMARK 923 INTER-LIGAND FREE ENERGY PREDICTED BY IDOCK:   -6.21 KCAL/MOL
REMARK 924 INTRA-LIGAND FREE ENERGY PREDICTED BY IDOCK:    0.04 KCAL/MOL
REMARK 927      BINDING AFFINITY PREDICTED BY RF-SCORE:    0.00 PKD
ROOT
HETATM    1  N   UNL     1     -10.943  16.079  67.309  1.00  0.00    -0.261 NA 
HETATM    2  C   UNL     1     -10.952  15.313  68.179  1.00  0.00    -0.292 C  
HETATM    3  C   UNL     1     -10.915  14.309  69.254  1.00  0.00    -0.271 C  
ENDROOT
BRANCH   3   4
HETATM    4  C   UNL     1     -11.824  13.087  68.955  1.00  0.00    -0.316 C  
BRANCH   4   5
HETATM    5  C   UNL     1     -11.633  11.949  70.015  1.00  0.00    -0.301 C  
HETATM    6  C   UNL     1     -10.567  10.892  69.672  1.00  0.00    -0.178 C  
HETATM    7  C   UNL     1     -11.025   9.565  70.266  1.00  0.00    -0.317 C  
HETATM    8  C   UNL     1     -12.885  11.080  70.217  1.00  0.00    -0.178 C  
HETATM    9  C   UNL     1     -12.361   9.843  70.927  1.00  0.00    -0.403 C  
ENDBRANCH   4   5
BRANCH   4  10
HETATM   10  N   UNL     1     -11.689  12.674  67.548  1.00  0.00    -0.363 NA 
HETATM   11  C   UNL     1     -10.991  11.861  65.615  1.00  0.00    -0.353 A  
HETATM   12  C   UNL     1     -10.725  11.911  66.965  1.00  0.00    -0.240 A  
HETATM   13  C   UNL     1     -12.222  12.530  65.498  1.00  0.00    -0.377 A  
HETATM   14  N   UNL     1     -12.669  12.992  66.670  1.00  0.00     0.041 NA 
BRANCH  11  15
HETATM   15  C   UNL     1     -10.098  11.239  64.669  1.00  0.00    -0.290 A  
HETATM   16  C   UNL     1      -9.494  10.005  64.921  1.00  0.00    -0.355 A  
HETATM   17  C   UNL     1      -9.446   9.047  65.973  1.00  0.00    -0.323 A  
HETATM   18  C   UNL     1      -8.678   7.985  65.541  1.00  0.00    -0.102 A  
HETATM   19  N   UNL     1      -8.265   8.261  64.264  1.00  0.00    -0.284 NA 
HETATM   20  C   UNL     1      -8.756   9.475  63.871  1.00  0.00    -0.216 A  
HETATM   21  H   UNL     1      -7.679   7.652  63.692  1.00  0.00     0.000 HD 
HETATM   22  N   UNL     1      -8.555  10.020  62.662  1.00  0.00    -0.168 NA 
HETATM   23  C   UNL     1      -9.186  11.199  62.538  1.00  0.00    -0.276 A  
HETATM   24  N   UNL     1      -9.940  11.831  63.455  1.00  0.00    -0.389 NA 
ENDBRANCH  11  15
ENDBRANCH   4  10
ENDBRANCH   3   4
TORSDOF 4
ENDMDL
MODEL      182
REMARK 921   NORMALIZED FREE ENERGY PREDICTED BY IDOCK:   -4.67 KCAL/MOL
REMARK 922        TOTAL FREE ENERGY PREDICTED BY IDOCK:   -6.17 KCAL/MOL
REMARK 923 INTER-LIGAND FREE ENERGY PREDICTED BY IDOCK:   -6.09 KCAL/MOL
REMARK 924 INTRA-LIGAND FREE ENERGY PREDICTED BY IDOCK:   -0.08 KCAL/MOL
REMARK 927      BINDING AFFINITY PREDICTED BY RF-SCORE:    0.00 PKD
ROOT
HETATM    1  N   UNL     1     -10.929   7.421  73.142  1.00  0.00    -0.374 NA 
HETATM    2  C   UNL     1     -10.817   8.247  72.337  1.00  0.00    -0.351 C  
HETATM    3  C   UNL     1     -10.739   9.309  71.322  1.00  0.00    -0.422 C  
ENDROOT
BRANCH   3   4
HETATM    4  C   UNL     1     -11.026   8.783  69.891  1.00  0.00    -0.179 C  
BRANCH   4   5
HETATM    5  C   UNL     1     -10.196   7.494  69.569  1.00  0.00    -0.207 C  
HETATM    6  C   UNL     1      -9.233   7.604  68.372  1.00  0.00    -0.140 C  
HETATM    7  C   UNL     1      -9.148   6.230  67.719  1.00  0.00    -0.114 C  
HETATM    8  C   UNL     1     -11.061   6.289  69.167  1.00  0.00    -0.457 C  
HETATM    9  C   UNL     1     -10.076   5.332  68.515  1.00  0.00    -0.232 C  
ENDBRANCH   4   5
BRANCH   4  10
HETATM   10  N   UNL     1     -10.916   9.873  68.906  1.00  0.00    -0.207 NA 
HETATM   11  C   UNL     1     -10.662  11.818  67.889  1.00  0.00    -0.241 A  
HETATM   12  C   UNL     1     -10.541  11.166  69.096  1.00  0.00    -0.204 A  
HETATM   13  C   UNL     1     -11.002  10.789  66.994  1.00  0.00    -0.227 A  
HETATM   14  N   UNL     1     -11.120   9.601  67.596  1.00  0.00    -0.122 NA 
BRANCH  11  15
HETATM   15  C   UNL     1     -10.467  13.240  67.750  1.00  0.00    -0.239 A  
HETATM   16  C   UNL     1     -11.102  14.161  68.587  1.00  0.00    -0.283 A  
HETATM   17  C   UNL     1     -12.038  14.144  69.660  1.00  0.00    -0.400 A  
HETATM   18  C   UNL     1     -12.210  15.443  70.090  1.00  0.00    -0.375 A  
HETATM   19  N   UNL     1     -11.409  16.247  69.322  1.00  0.00    -0.314 NA 
HETATM   20  C   UNL     1     -10.726  15.486  68.413  1.00  0.00    -0.263 A  
HETATM   21  H   UNL     1     -11.333  17.260  69.414  1.00  0.00     0.000 HD 
HETATM   22  N   UNL     1      -9.838  15.970  67.533  1.00  0.00    -0.233 NA 
HETATM   23  C   UNL     1      -9.293  14.994  66.790  1.00  0.00    -0.251 A  
HETATM   24  N   UNL     1      -9.546  13.673  66.849  1.00  0.00    -0.254 NA 
ENDBRANCH  11  15
ENDBRANCH   4  10
ENDBRANCH   3   4
TORSDOF 4
ENDMDL
MODEL      183
REMARK 921   NORMALIZED FREE ENERGY PREDICTED BY IDOCK:   -4.67 KCAL/MOL
REMARK 922        TOTAL FREE ENERGY PREDICTED BY IDOCK:   -6.16 KCAL/MOL
REMARK 923 INTER-LIGAND FREE ENERGY PREDICTED BY IDOCK:   -5.49 KCAL/MOL
REMARK 924 INTRA-LIGAND FREE ENERGY PREDICTED BY IDOCK:   -0.68 KCAL/MOL
REMARK 927      BINDING AFFINITY PREDICTED BY RF-SCORE:    0.00 PKD
ROOT
HETATM    1  N   UNL     1      -8.323   7.506  66.725  1.00  0.00    -0.122 NA 
HETATM    2  C   UNL     1      -8.120   7.442  67.864  1.00  0.00    -0.119 C  
HETATM    3  C   UNL     1      -7.914   7.322  69.316  1.00  0.00    -0.118 C  
ENDROOT
BRANCH   3   4
HETATM    4  C   UNL     1      -8.688   8.403  70.116  1.00  0.00    -0.136 C  
BRANCH   4   5
HETATM    5  C   UNL     1     -10.107   7.899  70.549  1.00  0.00    -0.192 C  
HETATM    6  C   UNL     1     -10.646   8.483  71.868  1.00  0.00    -0.392 C  
HETATM    7  C   UNL     1     -11.513   7.415  72.525  1.00  0.00    -0.346 C  
HETATM    8  C   UNL     1     -10.165   6.388  70.825  1.00  0.00    -0.228 C  
HETATM    9  C   UNL     1     -11.456   6.209  71.607  1.00  0.00    -0.331 C  
ENDBRANCH   4   5
BRANCH   4  10
HETATM   10  N   UNL     1      -8.661   9.692  69.404  1.00  0.00    -0.145 NA 
HETATM   11  C   UNL     1      -9.165  11.514  68.259  1.00  0.00    -0.186 A  
HETATM   12  C   UNL     1      -9.696  10.416  68.898  1.00  0.00    -0.198 A  
HETATM   13  C   UNL     1      -7.791  11.427  68.545  1.00  0.00    -0.140 A  
HETATM   14  N   UNL     1      -7.484  10.347  69.270  1.00  0.00    -0.106 NA 
BRANCH  11  15
HETATM   15  C   UNL     1      -9.972  12.436  67.497  1.00  0.00    -0.196 A  
HETATM   16  C   UNL     1     -10.853  13.329  68.110  1.00  0.00    -0.270 A  
HETATM   17  C   UNL     1     -11.297  13.641  69.426  1.00  0.00    -0.303 A  
HETATM   18  C   UNL     1     -12.171  14.705  69.335  1.00  0.00    -0.235 A  
HETATM   19  N   UNL     1     -12.269  15.053  68.013  1.00  0.00    -0.498 NA 
HETATM   20  C   UNL     1     -11.472  14.236  67.260  1.00  0.00    -0.352 A  
HETATM   21  H   UNL     1     -12.849  15.808  67.646  1.00  0.00     0.000 HD 
HETATM   22  N   UNL     1     -11.323  14.336  65.931  1.00  0.00    -0.322 NA 
HETATM   23  C   UNL     1     -10.451  13.431  65.459  1.00  0.00    -0.291 A  
HETATM   24  N   UNL     1      -9.770  12.501  66.154  1.00  0.00    -0.257 NA 
ENDBRANCH  11  15
ENDBRANCH   4  10
ENDBRANCH   3   4
TORSDOF 4
ENDMDL
MODEL      184
REMARK 921   NORMALIZED FREE ENERGY PREDICTED BY IDOCK:   -4.62 KCAL/MOL
REMARK 922        TOTAL FREE ENERGY PREDICTED BY IDOCK:   -6.10 KCAL/MOL
REMARK 923 INTER-LIGAND FREE ENERGY PREDICTED BY IDOCK:   -5.66 KCAL/MOL
REMARK 924 INTRA-LIGAND FREE ENERGY PREDICTED BY IDOCK:   -0.45 KCAL/MOL
REMARK 927      BINDING AFFINITY PREDICTED BY RF-SCORE:    0.00 PKD
ROOT
HETATM    1  N   UNL     1      -8.408   8.734  72.215  1.00  0.00    -0.389 NA 
HETATM    2  C   UNL     1      -9.422   8.914  71.682  1.00  0.00    -0.281 C  
HETATM    3  C   UNL     1     -10.720   9.078  71.010  1.00  0.00    -0.339 C  
ENDROOT
BRANCH   3   4
HETATM    4  C   UNL     1     -10.621   8.883  69.474  1.00  0.00    -0.228 C  
BRANCH   4   5
HETATM    5  C   UNL     1      -9.327   8.099  69.071  1.00  0.00    -0.147 C  
HETATM    6  C   UNL     1      -8.356   8.850  68.140  1.00  0.00    -0.125 C  
HETATM    7  C   UNL     1      -7.675   7.816  67.252  1.00  0.00    -0.113 C  
HETATM    8  C   UNL     1      -9.608   6.820  68.266  1.00  0.00    -0.127 C  
HETATM    9  C   UNL     1      -8.264   6.475  67.645  1.00  0.00    -0.122 C  
ENDBRANCH   4   5
BRANCH   4  10
HETATM   10  N   UNL     1     -10.833  10.162  68.775  1.00  0.00    -0.217 NA 
HETATM   11  C   UNL     1     -10.990  12.295  68.220  1.00  0.00    -0.268 A  
HETATM   12  C   UNL     1     -10.541  11.425  69.188  1.00  0.00    -0.160 A  
HETATM   13  C   UNL     1     -11.432  11.444  67.193  1.00  0.00    -0.190 A  
HETATM   14  N   UNL     1     -11.305  10.150  67.507  1.00  0.00    -0.221 NA 
BRANCH  11  15
HETATM   15  C   UNL     1     -10.957  13.728  68.387  1.00  0.00    -0.254 A  
HETATM   16  C   UNL     1     -10.635  14.589  67.336  1.00  0.00    -0.271 A  
HETATM   17  C   UNL     1     -10.240  14.490  65.972  1.00  0.00    -0.329 A  
HETATM   18  C   UNL     1     -10.126  15.770  65.472  1.00  0.00    -0.351 A  
HETATM   19  N   UNL     1     -10.444  16.642  66.480  1.00  0.00    -0.290 NA 
HETATM   20  C   UNL     1     -10.761  15.944  67.612  1.00  0.00    -0.312 A  
HETATM   21  H   UNL     1     -10.443  17.659  66.399  1.00  0.00     0.000 HD 
HETATM   22  N   UNL     1     -11.144  16.505  68.768  1.00  0.00    -0.330 NA 
HETATM   23  C   UNL     1     -11.431  15.580  69.698  1.00  0.00    -0.329 A  
HETATM   24  N   UNL     1     -11.367  14.242  69.578  1.00  0.00    -0.265 NA 
ENDBRANCH  11  15
ENDBRANCH   4  10
ENDBRANCH   3   4
TORSDOF 4
ENDMDL
MODEL      185
REMARK 921   NORMALIZED FREE ENERGY PREDICTED BY IDOCK:   -4.58 KCAL/MOL
REMARK 922        TOTAL FREE ENERGY PREDICTED BY IDOCK:   -6.06 KCAL/MOL
REMARK 923 INTER-LIGAND FREE ENERGY PREDICTED BY IDOCK:   -5.32 KCAL/MOL
REMARK 924 INTRA-LIGAND FREE ENERGY PREDICTED BY IDOCK:   -0.74 KCAL/MOL
REMARK 927      BINDING AFFINITY PREDICTED BY RF-SCORE:    0.00 PKD
ROOT
HETATM    1  N   UNL     1     -11.224  14.962  67.134  1.00  0.00    -0.336 NA 
HETATM    2  C   UNL     1     -11.036  14.445  68.154  1.00  0.00    -0.264 C  
HETATM    3  C   UNL     1     -10.789  13.732  69.417  1.00  0.00    -0.081 C  
ENDROOT
BRANCH   3   4
HETATM    4  C   UNL     1     -12.082  13.118  70.014  1.00  0.00    -0.305 C  
BRANCH   4   5
HETATM    5  C   UNL     1     -12.616  13.954  71.226  1.00  0.00    -0.450 C  
HETATM    6  C   UNL     1     -13.868  14.806  70.947  1.00  0.00    -0.144 C  
HETATM    7  C   UNL     1     -13.781  16.054  71.817  1.00  0.00     0.266 C  
HETATM    8  C   UNL     1     -11.621  15.012  71.729  1.00  0.00    -0.425 C  
HETATM    9  C   UNL     1     -12.474  15.942  72.577  1.00  0.00    -0.566 C  
ENDBRANCH   4   5
BRANCH   4  10
HETATM   10  N   UNL     1     -11.902  11.677  70.265  1.00  0.00    -0.345 NA 
HETATM   11  C   UNL     1     -11.235   9.571  70.249  1.00  0.00    -0.307 A  
HETATM   12  C   UNL     1     -10.942  10.837  69.795  1.00  0.00    -0.252 A  
HETATM   13  C   UNL     1     -12.336   9.774  71.099  1.00  0.00    -0.359 A  
HETATM   14  N   UNL     1     -12.722  11.054  71.143  1.00  0.00    -0.402 NA 
BRANCH  11  15
HETATM   15  C   UNL     1     -10.493   8.405  69.836  1.00  0.00    -0.222 A  
HETATM   16  C   UNL     1      -9.596   7.758  70.688  1.00  0.00    -0.166 A  
HETATM   17  C   UNL     1      -9.083   7.923  72.006  1.00  0.00    -0.198 A  
HETATM   18  C   UNL     1      -8.237   6.865  72.265  1.00  0.00    -0.104 A  
HETATM   19  N   UNL     1      -8.223   6.060  71.156  1.00  0.00    -0.121 NA 
HETATM   20  C   UNL     1      -9.046   6.581  70.196  1.00  0.00    -0.155 A  
HETATM   21  H   UNL     1      -7.681   5.201  71.061  1.00  0.00     0.000 HD 
HETATM   22  N   UNL     1      -9.274   6.015  69.002  1.00  0.00    -0.121 NA 
HETATM   23  C   UNL     1     -10.154   6.723  68.276  1.00  0.00    -0.161 A  
HETATM   24  N   UNL     1     -10.774   7.867  68.619  1.00  0.00    -0.101 NA 
ENDBRANCH  11  15
ENDBRANCH   4  10
ENDBRANCH   3   4
TORSDOF 4
ENDMDL
MODEL      186
REMARK 921   NORMALIZED FREE ENERGY PREDICTED BY IDOCK:   -4.57 KCAL/MOL
REMARK 922        TOTAL FREE ENERGY PREDICTED BY IDOCK:   -6.05 KCAL/MOL
REMARK 923 INTER-LIGAND FREE ENERGY PREDICTED BY IDOCK:   -5.78 KCAL/MOL
REMARK 924 INTRA-LIGAND FREE ENERGY PREDICTED BY IDOCK:   -0.27 KCAL/MOL
REMARK 927      BINDING AFFINITY PREDICTED BY RF-SCORE:    0.00 PKD
ROOT
HETATM    1  N   UNL     1     -10.646  12.101  63.427  1.00  0.00    -0.442 NA 
HETATM    2  C   UNL     1     -10.232  11.162  63.965  1.00  0.00    -0.361 C  
HETATM    3  C   UNL     1      -9.762   9.966  64.682  1.00  0.00    -0.265 C  
ENDROOT
BRANCH   3   4
HETATM    4  C   UNL     1      -9.047  10.316  66.014  1.00  0.00    -0.161 C  
BRANCH   4   5
HETATM    5  C   UNL     1      -8.233   9.101  66.572  1.00  0.00    -0.111 C  
HETATM    6  C   UNL     1      -9.003   7.770  66.666  1.00  0.00    -0.175 C  
HETATM    7  C   UNL     1      -8.452   7.001  67.861  1.00  0.00    -0.124 C  
HETATM    8  C   UNL     1      -7.758   9.292  68.021  1.00  0.00    -0.088 C  
HETATM    9  C   UNL     1      -7.387   7.889  68.474  1.00  0.00    -0.097 C  
ENDBRANCH   4   5
BRANCH   4  10
HETATM   10  N   UNL     1      -9.990  10.939  66.959  1.00  0.00    -0.187 NA 
HETATM   11  C   UNL     1     -11.048  12.304  68.337  1.00  0.00    -0.283 A  
HETATM   12  C   UNL     1     -10.030  12.220  67.414  1.00  0.00    -0.201 A  
HETATM   13  C   UNL     1     -11.651  11.035  68.277  1.00  0.00    -0.284 A  
HETATM   14  N   UNL     1     -11.039  10.215  67.417  1.00  0.00    -0.237 NA 
BRANCH  11  15
HETATM   15  C   UNL     1     -11.295  13.493  69.117  1.00  0.00    -0.282 A  
HETATM   16  C   UNL     1     -10.891  14.758  68.686  1.00  0.00    -0.257 A  
HETATM   17  C   UNL     1     -10.186  15.326  67.587  1.00  0.00    -0.242 A  
HETATM   18  C   UNL     1     -10.179  16.695  67.753  1.00  0.00    -0.292 A  
HETATM   19  N   UNL     1     -10.858  16.979  68.908  1.00  0.00    -0.279 NA 
HETATM   20  C   UNL     1     -11.303  15.820  69.481  1.00  0.00    -0.328 A  
HETATM   21  H   UNL     1     -11.010  17.916  69.285  1.00  0.00     0.000 HD 
HETATM   22  N   UNL     1     -12.027  15.759  70.608  1.00  0.00    -0.379 NA 
HETATM   23  C   UNL     1     -12.358  14.494  70.917  1.00  0.00    -0.345 A  
HETATM   24  N   UNL     1     -12.044  13.372  70.245  1.00  0.00    -0.358 NA 
ENDBRANCH  11  15
ENDBRANCH   4  10
ENDBRANCH   3   4
TORSDOF 4
ENDMDL
MODEL      187
REMARK 921   NORMALIZED FREE ENERGY PREDICTED BY IDOCK:   -4.55 KCAL/MOL
REMARK 922        TOTAL FREE ENERGY PREDICTED BY IDOCK:   -6.02 KCAL/MOL
REMARK 923 INTER-LIGAND FREE ENERGY PREDICTED BY IDOCK:   -5.62 KCAL/MOL
REMARK 924 INTRA-LIGAND FREE ENERGY PREDICTED BY IDOCK:   -0.40 KCAL/MOL
REMARK 927      BINDING AFFINITY PREDICTED BY RF-SCORE:    0.00 PKD
ROOT
HETATM    1  N   UNL     1     -10.068  17.623  67.882  1.00  0.00    -0.327 NA 
HETATM    2  C   UNL     1     -10.054  16.890  68.780  1.00  0.00    -0.295 C  
HETATM    3  C   UNL     1     -10.005  15.917  69.883  1.00  0.00    -0.143 C  
ENDROOT
BRANCH   3   4
HETATM    4  C   UNL     1     -11.216  14.946  69.871  1.00  0.00    -0.275 C  
BRANCH   4   5
HETATM    5  C   UNL     1     -11.961  14.932  71.249  1.00  0.00    -0.393 C  
HETATM    6  C   UNL     1     -13.500  14.930  71.173  1.00  0.00    -0.474 C  
HETATM    7  C   UNL     1     -14.024  15.689  72.386  1.00  0.00    -0.602 C  
HETATM    8  C   UNL     1     -11.691  16.178  72.107  1.00  0.00    -0.569 C  
HETATM    9  C   UNL     1     -12.798  16.152  73.149  1.00  0.00    -0.559 C  
ENDBRANCH   4   5
BRANCH   4  10
HETATM   10  N   UNL     1     -10.816  13.628  69.351  1.00  0.00    -0.086 NA 
HETATM   11  C   UNL     1      -9.813  11.949  68.321  1.00  0.00    -0.199 A  
HETATM   12  C   UNL     1      -9.707  13.284  68.643  1.00  0.00    -0.069 A  
HETATM   13  C   UNL     1     -10.978  11.541  68.995  1.00  0.00    -0.234 A  
HETATM   14  N   UNL     1     -11.569  12.544  69.652  1.00  0.00    -0.277 NA 
BRANCH  11  15
HETATM   15  C   UNL     1      -8.869  11.279  67.461  1.00  0.00    -0.140 A  
HETATM   16  C   UNL     1      -9.106   9.999  66.957  1.00  0.00    -0.159 A  
HETATM   17  C   UNL     1     -10.105   8.990  67.061  1.00  0.00    -0.318 A  
HETATM   18  C   UNL     1      -9.740   7.947  66.235  1.00  0.00    -0.100 A  
HETATM   19  N   UNL     1      -8.559   8.289  65.629  1.00  0.00    -0.161 NA 
HETATM   20  C   UNL     1      -8.166   9.530  66.048  1.00  0.00    -0.115 A  
HETATM   21  H   UNL     1      -8.049   7.706  64.964  1.00  0.00     0.000 HD 
HETATM   22  N   UNL     1      -7.065  10.163  65.619  1.00  0.00    -0.126 NA 
HETATM   23  C   UNL     1      -6.947  11.383  66.169  1.00  0.00     0.151 A  
HETATM   24  N   UNL     1      -7.775  11.974  67.049  1.00  0.00    -0.153 NA 
ENDBRANCH  11  15
ENDBRANCH   4  10
ENDBRANCH   3   4
TORSDOF 4
ENDMDL
MODEL      188
REMARK 921   NORMALIZED FREE ENERGY PREDICTED BY IDOCK:   -4.53 KCAL/MOL
REMARK 922        TOTAL FREE ENERGY PREDICTED BY IDOCK:   -5.99 KCAL/MOL
REMARK 923 INTER-LIGAND FREE ENERGY PREDICTED BY IDOCK:   -5.42 KCAL/MOL
REMARK 924 INTRA-LIGAND FREE ENERGY PREDICTED BY IDOCK:   -0.57 KCAL/MOL
REMARK 927      BINDING AFFINITY PREDICTED BY RF-SCORE:    0.00 PKD
ROOT
HETATM    1  N   UNL     1     -10.046  12.339  64.141  1.00  0.00    -0.319 NA 
HETATM    2  C   UNL     1     -10.238  11.546  64.964  1.00  0.00    -0.280 C  
HETATM    3  C   UNL     1     -10.509  10.586  66.045  1.00  0.00    -0.226 C  
ENDROOT
BRANCH   3   4
HETATM    4  C   UNL     1      -9.376  10.549  67.104  1.00  0.00    -0.154 C  
BRANCH   4   5
HETATM    5  C   UNL     1      -9.756   9.651  68.330  1.00  0.00    -0.162 C  
HETATM    6  C   UNL     1     -11.179   9.852  68.886  1.00  0.00    -0.126 C  
HETATM    7  C   UNL     1     -11.128   9.595  70.388  1.00  0.00    -0.346 C  
HETATM    8  C   UNL     1      -8.892   9.911  69.574  1.00  0.00    -0.208 C  
HETATM    9  C   UNL     1      -9.681   9.273  70.707  1.00  0.00    -0.348 C  
ENDBRANCH   4   5
BRANCH   4  10
HETATM   10  N   UNL     1      -8.929  11.914  67.430  1.00  0.00    -0.167 NA 
HETATM   11  C   UNL     1      -8.806  14.045  68.001  1.00  0.00    -0.181 A  
HETATM   12  C   UNL     1      -9.644  12.955  67.936  1.00  0.00    -0.215 A  
HETATM   13  C   UNL     1      -7.557  13.522  67.625  1.00  0.00    -0.177 A  
HETATM   14  N   UNL     1      -7.616  12.223  67.314  1.00  0.00    -0.156 NA 
BRANCH  11  15
HETATM   15  C   UNL     1      -9.268  15.360  68.374  1.00  0.00    -0.192 A  
HETATM   16  C   UNL     1      -8.841  16.511  67.709  1.00  0.00    -0.197 A  
HETATM   17  C   UNL     1      -7.945  16.853  66.657  1.00  0.00    -0.300 A  
HETATM   18  C   UNL     1      -8.036  18.214  66.451  1.00  0.00    -0.261 A  
HETATM   19  N   UNL     1      -8.959  18.709  67.335  1.00  0.00    -0.271 NA 
HETATM   20  C   UNL     1      -9.461  17.691  68.098  1.00  0.00    -0.286 A  
HETATM   21  H   UNL     1      -9.230  19.690  67.413  1.00  0.00     0.000 HD 
HETATM   22  N   UNL     1     -10.405  17.842  69.038  1.00  0.00    -0.325 NA 
HETATM   23  C   UNL     1     -10.735  16.669  69.602  1.00  0.00    -0.286 A  
HETATM   24  N   UNL     1     -10.234  15.451  69.326  1.00  0.00    -0.235 NA 
ENDBRANCH  11  15
ENDBRANCH   4  10
ENDBRANCH   3   4
TORSDOF 4
ENDMDL
MODEL      189
REMARK 921   NORMALIZED FREE ENERGY PREDICTED BY IDOCK:   -4.53 KCAL/MOL
REMARK 922        TOTAL FREE ENERGY PREDICTED BY IDOCK:   -5.99 KCAL/MOL
REMARK 923 INTER-LIGAND FREE ENERGY PREDICTED BY IDOCK:   -5.22 KCAL/MOL
REMARK 924 INTRA-LIGAND FREE ENERGY PREDICTED BY IDOCK:   -0.77 KCAL/MOL
REMARK 927      BINDING AFFINITY PREDICTED BY RF-SCORE:    0.00 PKD
ROOT
HETATM    1  N   UNL     1      -9.320   2.314  70.932  1.00  0.00    -0.127 NA 
HETATM    2  C   UNL     1      -9.055   3.052  70.078  1.00  0.00    -0.124 C  
HETATM    3  C   UNL     1      -8.705   4.033  69.039  1.00  0.00    -0.130 C  
ENDROOT
BRANCH   3   4
HETATM    4  C   UNL     1      -9.908   4.927  68.638  1.00  0.00    -0.152 C  
BRANCH   4   5
HETATM    5  C   UNL     1      -9.920   5.229  67.101  1.00  0.00    -0.211 C  
HETATM    6  C   UNL     1      -9.776   4.003  66.180  1.00  0.00    -0.198 C  
HETATM    7  C   UNL     1      -9.031   4.451  64.928  1.00  0.00    -0.147 C  
HETATM    8  C   UNL     1      -8.748   6.110  66.639  1.00  0.00    -0.124 C  
HETATM    9  C   UNL     1      -8.721   5.921  65.131  1.00  0.00    -0.043 C  
ENDBRANCH   4   5
BRANCH   4  10
HETATM   10  N   UNL     1      -9.994   6.104  69.519  1.00  0.00    -0.160 NA 
HETATM   11  C   UNL     1     -10.643   7.901  70.630  1.00  0.00    -0.221 A  
HETATM   12  C   UNL     1     -11.074   6.874  69.821  1.00  0.00    -0.271 A  
HETATM   13  C   UNL     1      -9.292   7.589  70.863  1.00  0.00    -0.154 A  
HETATM   14  N   UNL     1      -8.902   6.481  70.224  1.00  0.00    -0.150 NA 
BRANCH  11  15
HETATM   15  C   UNL     1     -11.504   8.983  71.040  1.00  0.00    -0.295 A  
HETATM   16  C   UNL     1     -11.458  10.238  70.431  1.00  0.00    -0.415 A  
HETATM   17  C   UNL     1     -10.705  10.894  69.415  1.00  0.00    -0.265 A  
HETATM   18  C   UNL     1     -11.223  12.162  69.259  1.00  0.00    -0.226 A  
HETATM   19  N   UNL     1     -12.266  12.299  70.138  1.00  0.00    -0.267 NA 
HETATM   20  C   UNL     1     -12.427  11.141  70.848  1.00  0.00    -0.409 A  
HETATM   21  H   UNL     1     -12.837  13.138  70.246  1.00  0.00     0.000 HD 
HETATM   22  N   UNL     1     -13.381  10.942  71.769  1.00  0.00    -0.362 NA 
HETATM   23  C   UNL     1     -13.327   9.701  72.279  1.00  0.00    -0.408 A  
HETATM   24  N   UNL     1     -12.460   8.720  71.970  1.00  0.00    -0.359 NA 
ENDBRANCH  11  15
ENDBRANCH   4  10
ENDBRANCH   3   4
TORSDOF 4
ENDMDL
MODEL      190
REMARK 921   NORMALIZED FREE ENERGY PREDICTED BY IDOCK:   -4.51 KCAL/MOL
REMARK 922        TOTAL FREE ENERGY PREDICTED BY IDOCK:   -5.97 KCAL/MOL
REMARK 923 INTER-LIGAND FREE ENERGY PREDICTED BY IDOCK:   -5.59 KCAL/MOL
REMARK 924 INTRA-LIGAND FREE ENERGY PREDICTED BY IDOCK:   -0.38 KCAL/MOL
REMARK 927      BINDING AFFINITY PREDICTED BY RF-SCORE:    0.00 PKD
ROOT
HETATM    1  N   UNL     1      -9.403   4.690  65.320  1.00  0.00    -0.155 NA 
HETATM    2  C   UNL     1      -8.751   5.571  65.697  1.00  0.00    -0.153 C  
HETATM    3  C   UNL     1      -7.896   6.649  66.218  1.00  0.00    -0.105 C  
ENDROOT
BRANCH   3   4
HETATM    4  C   UNL     1      -8.540   7.388  67.420  1.00  0.00    -0.118 C  
BRANCH   4   5
HETATM    5  C   UNL     1      -9.451   6.435  68.267  1.00  0.00    -0.121 C  
HETATM    6  C   UNL     1     -10.940   6.825  68.336  1.00  0.00    -0.257 C  
HETATM    7  C   UNL     1     -11.469   6.386  69.696  1.00  0.00    -0.446 C  
HETATM    8  C   UNL     1      -9.071   6.381  69.755  1.00  0.00    -0.141 C  
HETATM    9  C   UNL     1     -10.291   5.769  70.423  1.00  0.00    -0.310 C  
ENDBRANCH   4   5
BRANCH   4  10
HETATM   10  N   UNL     1      -9.171   8.644  66.979  1.00  0.00    -0.145 NA 
HETATM   11  C   UNL     1     -10.103  10.645  66.866  1.00  0.00    -0.260 A  
HETATM   12  C   UNL     1      -9.444   9.766  67.697  1.00  0.00    -0.144 A  
HETATM   13  C   UNL     1     -10.068  10.001  65.616  1.00  0.00    -0.251 A  
HETATM   14  N   UNL     1      -9.472   8.806  65.669  1.00  0.00    -0.163 NA 
BRANCH  11  15
HETATM   15  C   UNL     1     -10.656  11.892  67.333  1.00  0.00    -0.225 A  
HETATM   16  C   UNL     1     -10.654  13.045  66.546  1.00  0.00    -0.292 A  
HETATM   17  C   UNL     1     -10.184  13.448  65.264  1.00  0.00    -0.312 A  
HETATM   18  C   UNL     1     -10.569  14.758  65.066  1.00  0.00    -0.429 A  
HETATM   19  N   UNL     1     -11.260  15.162  66.179  1.00  0.00    -0.313 NA 
HETATM   20  C   UNL     1     -11.327  14.135  67.079  1.00  0.00    -0.332 A  
HETATM   21  H   UNL     1     -11.664  16.089  66.314  1.00  0.00     0.000 HD 
HETATM   22  N   UNL     1     -11.961  14.201  68.259  1.00  0.00    -0.351 NA 
HETATM   23  C   UNL     1     -11.899  13.035  68.922  1.00  0.00    -0.316 A  
HETATM   24  N   UNL     1     -11.297  11.896  68.533  1.00  0.00    -0.250 NA 
ENDBRANCH  11  15
ENDBRANCH   4  10
ENDBRANCH   3   4
TORSDOF 4
ENDMDL
MODEL      191
REMARK 921   NORMALIZED FREE ENERGY PREDICTED BY IDOCK:   -4.51 KCAL/MOL
REMARK 922        TOTAL FREE ENERGY PREDICTED BY IDOCK:   -5.97 KCAL/MOL
REMARK 923 INTER-LIGAND FREE ENERGY PREDICTED BY IDOCK:   -5.82 KCAL/MOL
REMARK 924 INTRA-LIGAND FREE ENERGY PREDICTED BY IDOCK:   -0.15 KCAL/MOL
REMARK 927      BINDING AFFINITY PREDICTED BY RF-SCORE:    0.00 PKD
ROOT
HETATM    1  N   UNL     1     -10.096  11.157  65.366  1.00  0.00    -0.250 NA 
HETATM    2  C   UNL     1     -10.899  11.798  65.902  1.00  0.00    -0.291 C  
HETATM    3  C   UNL     1     -11.895  12.664  66.552  1.00  0.00    -0.463 C  
ENDROOT
BRANCH   3   4
HETATM    4  C   UNL     1     -11.368  13.286  67.872  1.00  0.00    -0.284 C  
BRANCH   4   5
HETATM    5  C   UNL     1      -9.908  13.830  67.714  1.00  0.00    -0.234 C  
HETATM    6  C   UNL     1      -9.366  14.639  68.908  1.00  0.00    -0.160 C  
HETATM    7  C   UNL     1      -8.413  15.694  68.358  1.00  0.00    -0.164 C  
HETATM    8  C   UNL     1      -9.744  14.829  66.558  1.00  0.00    -0.295 C  
HETATM    9  C   UNL     1      -8.421  15.517  66.852  1.00  0.00    -0.289 C  
ENDBRANCH   4   5
BRANCH   4  10
HETATM   10  N   UNL     1     -11.586  12.366  69.001  1.00  0.00    -0.290 NA 
HETATM   11  C   UNL     1     -11.569  10.654  70.399  1.00  0.00    -0.441 A  
HETATM   12  C   UNL     1     -10.980  11.179  69.270  1.00  0.00    -0.247 A  
HETATM   13  C   UNL     1     -12.446  11.673  70.813  1.00  0.00    -0.330 A  
HETATM   14  N   UNL     1     -12.433  12.728  69.993  1.00  0.00    -0.078 NA 
BRANCH  11  15
HETATM   15  C   UNL     1     -11.258   9.338  70.899  1.00  0.00    -0.306 A  
HETATM   16  C   UNL     1     -10.765   8.328  70.070  1.00  0.00    -0.239 A  
HETATM   17  C   UNL     1     -10.462   8.146  68.691  1.00  0.00    -0.195 A  
HETATM   18  C   UNL     1      -9.940   6.878  68.538  1.00  0.00    -0.148 A  
HETATM   19  N   UNL     1      -9.910   6.287  69.774  1.00  0.00    -0.163 NA 
HETATM   20  C   UNL     1     -10.398   7.153  70.713  1.00  0.00    -0.206 A  
HETATM   21  H   UNL     1      -9.574   5.342  69.965  1.00  0.00     0.000 HD 
HETATM   22  N   UNL     1     -10.476   6.885  72.025  1.00  0.00    -0.204 NA 
HETATM   23  C   UNL     1     -10.959   7.930  72.716  1.00  0.00    -0.393 A  
HETATM   24  N   UNL     1     -11.345   9.128  72.240  1.00  0.00    -0.150 NA 
ENDBRANCH  11  15
ENDBRANCH   4  10
ENDBRANCH   3   4
TORSDOF 4
ENDMDL
MODEL      192
REMARK 921   NORMALIZED FREE ENERGY PREDICTED BY IDOCK:   -4.50 KCAL/MOL
REMARK 922        TOTAL FREE ENERGY PREDICTED BY IDOCK:   -5.96 KCAL/MOL
REMARK 923 INTER-LIGAND FREE ENERGY PREDICTED BY IDOCK:   -5.48 KCAL/MOL
REMARK 924 INTRA-LIGAND FREE ENERGY PREDICTED BY IDOCK:   -0.48 KCAL/MOL
REMARK 927      BINDING AFFINITY PREDICTED BY RF-SCORE:    0.00 PKD
ROOT
HETATM    1  N   UNL     1      -8.871   9.505  63.742  1.00  0.00    -0.226 NA 
HETATM    2  C   UNL     1      -8.513   8.787  64.579  1.00  0.00    -0.140 C  
HETATM    3  C   UNL     1      -8.119   7.853  65.646  1.00  0.00    -0.130 C  
ENDROOT
BRANCH   3   4
HETATM    4  C   UNL     1      -8.307   8.458  67.062  1.00  0.00    -0.114 C  
BRANCH   4   5
HETATM    5  C   UNL     1      -9.443   7.731  67.858  1.00  0.00    -0.158 C  
HETATM    6  C   UNL     1      -8.972   6.783  68.977  1.00  0.00    -0.131 C  
HETATM    7  C   UNL     1      -9.981   5.645  69.074  1.00  0.00    -0.233 C  
HETATM    8  C   UNL     1     -10.298   6.793  66.991  1.00  0.00    -0.338 C  
HETATM    9  C   UNL     1     -11.018   5.915  68.001  1.00  0.00    -0.252 C  
ENDBRANCH   4   5
BRANCH   4  10
HETATM   10  N   UNL     1      -8.420   9.925  66.988  1.00  0.00    -0.121 NA 
HETATM   11  C   UNL     1      -9.140  12.009  66.845  1.00  0.00    -0.196 A  
HETATM   12  C   UNL     1      -9.536  10.702  67.017  1.00  0.00    -0.169 A  
HETATM   13  C   UNL     1      -7.736  11.929  66.846  1.00  0.00    -0.106 A  
HETATM   14  N   UNL     1      -7.293  10.674  66.970  1.00  0.00    -0.098 NA 
BRANCH  11  15
HETATM   15  C   UNL     1     -10.078  13.094  66.697  1.00  0.00    -0.264 A  
HETATM   16  C   UNL     1     -10.879  13.232  65.561  1.00  0.00    -0.297 A  
HETATM   17  C   UNL     1     -11.067  12.571  64.314  1.00  0.00    -0.403 A  
HETATM   18  C   UNL     1     -12.091  13.211  63.648  1.00  0.00    -0.513 A  
HETATM   19  N   UNL     1     -12.536  14.232  64.448  1.00  0.00    -0.679 NA 
HETATM   20  C   UNL     1     -11.819  14.253  65.612  1.00  0.00    -0.373 A  
HETATM   21  H   UNL     1     -13.289  14.878  64.210  1.00  0.00     0.000 HD 
HETATM   22  N   UNL     1     -12.029  15.115  66.617  1.00  0.00     0.022 NA 
HETATM   23  C   UNL     1     -11.205  14.882  67.651  1.00  0.00    -0.323 A  
HETATM   24  N   UNL     1     -10.258  13.932  67.753  1.00  0.00    -0.234 NA 
ENDBRANCH  11  15
ENDBRANCH   4  10
ENDBRANCH   3   4
TORSDOF 4
ENDMDL
MODEL      193
REMARK 921   NORMALIZED FREE ENERGY PREDICTED BY IDOCK:   -4.49 KCAL/MOL
REMARK 922        TOTAL FREE ENERGY PREDICTED BY IDOCK:   -5.95 KCAL/MOL
REMARK 923 INTER-LIGAND FREE ENERGY PREDICTED BY IDOCK:   -5.59 KCAL/MOL
REMARK 924 INTRA-LIGAND FREE ENERGY PREDICTED BY IDOCK:   -0.35 KCAL/MOL
REMARK 927      BINDING AFFINITY PREDICTED BY RF-SCORE:    0.00 PKD
ROOT
HETATM    1  N   UNL     1      -8.126  15.322  69.326  1.00  0.00    -0.223 NA 
HETATM    2  C   UNL     1      -7.726  14.479  68.637  1.00  0.00    -0.137 C  
HETATM    3  C   UNL     1      -7.233  13.446  67.713  1.00  0.00    -0.156 C  
ENDROOT
BRANCH   3   4
HETATM    4  C   UNL     1      -8.360  12.494  67.232  1.00  0.00    -0.185 C  
BRANCH   4   5
HETATM    5  C   UNL     1      -9.692  13.268  66.949  1.00  0.00    -0.248 C  
HETATM    6  C   UNL     1     -10.824  13.037  67.968  1.00  0.00    -0.261 C  
HETATM    7  C   UNL     1     -12.147  13.137  67.218  1.00  0.00    -0.329 C  
HETATM    8  C   UNL     1     -10.369  12.866  65.629  1.00  0.00    -0.295 C  
HETATM    9  C   UNL     1     -11.787  13.398  65.768  1.00  0.00    -0.412 C  
ENDBRANCH   4   5
BRANCH   4  10
HETATM   10  N   UNL     1      -8.476  11.334  68.132  1.00  0.00    -0.138 NA 
HETATM   11  C   UNL     1      -9.138   9.522  69.210  1.00  0.00    -0.161 A  
HETATM   12  C   UNL     1      -9.404  10.339  68.134  1.00  0.00    -0.139 A  
HETATM   13  C   UNL     1      -7.940  10.044  69.729  1.00  0.00    -0.180 A  
HETATM   14  N   UNL     1      -7.513  11.118  69.058  1.00  0.00    -0.124 NA 
BRANCH  11  15
HETATM   15  C   UNL     1     -10.002   8.433  69.592  1.00  0.00    -0.193 A  
HETATM   16  C   UNL     1     -11.121   8.625  70.404  1.00  0.00    -0.250 A  
HETATM   17  C   UNL     1     -11.751   9.695  71.101  1.00  0.00    -0.450 A  
HETATM   18  C   UNL     1     -12.894   9.199  71.692  1.00  0.00    -0.363 A  
HETATM   19  N   UNL     1     -12.986   7.869  71.374  1.00  0.00    -0.459 NA 
HETATM   20  C   UNL     1     -11.925   7.508  70.589  1.00  0.00    -0.133 A  
HETATM   21  H   UNL     1     -13.732   7.243  71.677  1.00  0.00     0.000 HD 
HETATM   22  N   UNL     1     -11.738   6.279  70.086  1.00  0.00    -0.335 NA 
HETATM   23  C   UNL     1     -10.636   6.219  69.321  1.00  0.00    -0.273 A  
HETATM   24  N   UNL     1      -9.770   7.211  69.042  1.00  0.00    -0.149 NA 
ENDBRANCH  11  15
ENDBRANCH   4  10
ENDBRANCH   3   4
TORSDOF 4
ENDMDL
MODEL      194
REMARK 921   NORMALIZED FREE ENERGY PREDICTED BY IDOCK:   -4.48 KCAL/MOL
REMARK 922        TOTAL FREE ENERGY PREDICTED BY IDOCK:   -5.93 KCAL/MOL
REMARK 923 INTER-LIGAND FREE ENERGY PREDICTED BY IDOCK:   -5.18 KCAL/MOL
REMARK 924 INTRA-LIGAND FREE ENERGY PREDICTED BY IDOCK:   -0.75 KCAL/MOL
REMARK 927      BINDING AFFINITY PREDICTED BY RF-SCORE:    0.00 PKD
ROOT
HETATM    1  N   UNL     1      -9.556   1.797  69.317  1.00  0.00    -0.058 NA 
HETATM    2  C   UNL     1      -9.114   2.761  68.849  1.00  0.00    -0.147 C  
HETATM    3  C   UNL     1      -8.557   4.013  68.313  1.00  0.00    -0.112 C  
ENDROOT
BRANCH   3   4
HETATM    4  C   UNL     1      -9.658   4.990  67.824  1.00  0.00    -0.146 C  
BRANCH   4   5
HETATM    5  C   UNL     1      -9.527   5.292  66.293  1.00  0.00    -0.166 C  
HETATM    6  C   UNL     1     -10.317   4.355  65.359  1.00  0.00    -0.238 C  
HETATM    7  C   UNL     1      -9.529   4.224  64.061  1.00  0.00    -0.127 C  
HETATM    8  C   UNL     1      -8.095   5.137  65.755  1.00  0.00    -0.110 C  
HETATM    9  C   UNL     1      -8.277   5.058  64.248  1.00  0.00    -0.128 C  
ENDBRANCH   4   5
BRANCH   4  10
HETATM   10  N   UNL     1      -9.729   6.171  68.701  1.00  0.00    -0.126 NA 
HETATM   11  C   UNL     1     -10.286   8.060  69.703  1.00  0.00    -0.220 A  
HETATM   12  C   UNL     1     -10.703   7.116  68.792  1.00  0.00    -0.169 A  
HETATM   13  C   UNL     1      -9.088   7.524  70.206  1.00  0.00    -0.154 A  
HETATM   14  N   UNL     1      -8.764   6.361  69.631  1.00  0.00    -0.137 NA 
BRANCH  11  15
HETATM   15  C   UNL     1     -11.020   9.276  69.955  1.00  0.00    -0.213 A  
HETATM   16  C   UNL     1     -12.029   9.346  70.917  1.00  0.00    -0.351 A  
HETATM   17  C   UNL     1     -12.680   8.472  71.833  1.00  0.00    -0.401 A  
HETATM   18  C   UNL     1     -13.587   9.217  72.556  1.00  0.00    -0.436 A  
HETATM   19  N   UNL     1     -13.507  10.513  72.118  1.00  0.00    -0.529 NA 
HETATM   20  C   UNL     1     -12.564  10.610  71.132  1.00  0.00    -0.423 A  
HETATM   21  H   UNL     1     -14.067  11.289  72.473  1.00  0.00     0.000 HD 
HETATM   22  N   UNL     1     -12.226  11.751  70.515  1.00  0.00    -0.365 NA 
HETATM   23  C   UNL     1     -11.246  11.559  69.618  1.00  0.00    -0.204 A  
HETATM   24  N   UNL     1     -10.626  10.405  69.308  1.00  0.00    -0.216 NA 
ENDBRANCH  11  15
ENDBRANCH   4  10
ENDBRANCH   3   4
TORSDOF 4
ENDMDL
MODEL      195
REMARK 921   NORMALIZED FREE ENERGY PREDICTED BY IDOCK:   -4.46 KCAL/MOL
REMARK 922        TOTAL FREE ENERGY PREDICTED BY IDOCK:   -5.91 KCAL/MOL
REMARK 923 INTER-LIGAND FREE ENERGY PREDICTED BY IDOCK:   -5.31 KCAL/MOL
REMARK 924 INTRA-LIGAND FREE ENERGY PREDICTED BY IDOCK:   -0.60 KCAL/MOL
REMARK 927      BINDING AFFINITY PREDICTED BY RF-SCORE:    0.00 PKD
ROOT
HETATM    1  N   UNL     1     -11.069  12.783  64.743  1.00  0.00    -0.290 NA 
HETATM    2  C   UNL     1     -11.244  13.711  65.415  1.00  0.00    -0.298 C  
HETATM    3  C   UNL     1     -11.414  14.917  66.241  1.00  0.00    -0.269 C  
ENDROOT
BRANCH   3   4
HETATM    4  C   UNL     1     -10.619  14.840  67.571  1.00  0.00    -0.259 C  
BRANCH   4   5
HETATM    5  C   UNL     1      -9.166  15.403  67.411  1.00  0.00    -0.204 C  
HETATM    6  C   UNL     1      -8.737  16.448  68.459  1.00  0.00    -0.223 C  
HETATM    7  C   UNL     1      -7.775  17.415  67.781  1.00  0.00    -0.200 C  
HETATM    8  C   UNL     1      -8.943  16.167  66.096  1.00  0.00    -0.372 C  
HETATM    9  C   UNL     1      -7.664  16.952  66.341  1.00  0.00    -0.345 C  
ENDBRANCH   4   5
BRANCH   4  10
HETATM   10  N   UNL     1     -10.718  13.493  68.157  1.00  0.00    -0.245 NA 
HETATM   11  C   UNL     1     -10.367  11.404  68.786  1.00  0.00    -0.222 A  
HETATM   12  C   UNL     1      -9.785  12.504  68.198  1.00  0.00    -0.222 A  
HETATM   13  C   UNL     1     -11.631  11.875  69.182  1.00  0.00    -0.312 A  
HETATM   14  N   UNL     1     -11.836  13.150  68.838  1.00  0.00    -0.317 NA 
BRANCH  11  15
HETATM   15  C   UNL     1      -9.702  10.127  68.879  1.00  0.00    -0.187 A  
HETATM   16  C   UNL     1      -9.398   9.366  67.748  1.00  0.00    -0.144 A  
HETATM   17  C   UNL     1      -9.592   9.441  66.340  1.00  0.00    -0.285 A  
HETATM   18  C   UNL     1      -8.978   8.346  65.770  1.00  0.00    -0.159 A  
HETATM   19  N   UNL     1      -8.413   7.612  66.781  1.00  0.00    -0.123 NA 
HETATM   20  C   UNL     1      -8.651   8.219  67.982  1.00  0.00    -0.132 A  
HETATM   21  H   UNL     1      -7.893   6.743  66.655  1.00  0.00     0.000 HD 
HETATM   22  N   UNL     1      -8.206   7.766  69.163  1.00  0.00    -0.128 NA 
HETATM   23  C   UNL     1      -8.556   8.581  70.171  1.00  0.00    -0.132 A  
HETATM   24  N   UNL     1      -9.263   9.723  70.101  1.00  0.00    -0.238 NA 
ENDBRANCH  11  15
ENDBRANCH   4  10
ENDBRANCH   3   4
TORSDOF 4
ENDMDL
MODEL      196
REMARK 921   NORMALIZED FREE ENERGY PREDICTED BY IDOCK:   -4.46 KCAL/MOL
REMARK 922        TOTAL FREE ENERGY PREDICTED BY IDOCK:   -5.91 KCAL/MOL
REMARK 923 INTER-LIGAND FREE ENERGY PREDICTED BY IDOCK:   -5.09 KCAL/MOL
REMARK 924 INTRA-LIGAND FREE ENERGY PREDICTED BY IDOCK:   -0.81 KCAL/MOL
REMARK 927      BINDING AFFINITY PREDICTED BY RF-SCORE:    0.00 PKD
ROOT
HETATM    1  N   UNL     1      -8.239   9.430  66.982  1.00  0.00    -0.115 NA 
HETATM    2  C   UNL     1      -8.730   9.809  67.962  1.00  0.00    -0.118 C  
HETATM    3  C   UNL     1      -9.307  10.260  69.238  1.00  0.00    -0.221 C  
ENDROOT
BRANCH   3   4
HETATM    4  C   UNL     1     -10.332   9.248  69.814  1.00  0.00    -0.218 C  
BRANCH   4   5
HETATM    5  C   UNL     1     -11.178   9.876  70.973  1.00  0.00    -0.435 C  
HETATM    6  C   UNL     1     -12.102   8.901  71.728  1.00  0.00    -0.432 C  
HETATM    7  C   UNL     1     -13.330   9.682  72.178  1.00  0.00    -0.545 C  
HETATM    8  C   UNL     1     -12.173  10.947  70.499  1.00  0.00    -0.459 C  
HETATM    9  C   UNL     1     -13.136  11.096  71.666  1.00  0.00    -0.529 C  
ENDBRANCH   4   5
BRANCH   4  10
HETATM   10  N   UNL     1      -9.676   7.967  70.128  1.00  0.00    -0.175 NA 
HETATM   11  C   UNL     1      -9.113   5.837  70.294  1.00  0.00    -0.160 A  
HETATM   12  C   UNL     1      -9.949   6.723  69.652  1.00  0.00    -0.173 A  
HETATM   13  C   UNL     1      -8.276   6.670  71.057  1.00  0.00    -0.120 A  
HETATM   14  N   UNL     1      -8.587   7.964  70.932  1.00  0.00    -0.126 NA 
BRANCH  11  15
HETATM   15  C   UNL     1      -9.216   4.408  70.124  1.00  0.00    -0.132 A  
HETATM   16  C   UNL     1      -9.616   3.566  71.163  1.00  0.00    -0.240 A  
HETATM   17  C   UNL     1      -9.973   3.677  72.537  1.00  0.00    -0.227 A  
HETATM   18  C   UNL     1     -10.329   2.422  72.983  1.00  0.00    -0.144 A  
HETATM   19  N   UNL     1     -10.207   1.554  71.930  1.00  0.00    -0.153 NA 
HETATM   20  C   UNL     1      -9.785   2.231  70.819  1.00  0.00    -0.031 A  
HETATM   21  H   UNL     1     -10.402   0.553  71.968  1.00  0.00     0.000 HD 
HETATM   22  N   UNL     1      -9.596   1.671  69.615  1.00  0.00    -0.051 NA 
HETATM   23  C   UNL     1      -9.217   2.578  68.700  1.00  0.00    -0.180 A  
HETATM   24  N   UNL     1      -9.024   3.898  68.878  1.00  0.00    -0.108 NA 
ENDBRANCH  11  15
ENDBRANCH   4  10
ENDBRANCH   3   4
TORSDOF 4
ENDMDL
MODEL      197
REMARK 921   NORMALIZED FREE ENERGY PREDICTED BY IDOCK:   -4.45 KCAL/MOL
REMARK 922        TOTAL FREE ENERGY PREDICTED BY IDOCK:   -5.89 KCAL/MOL
REMARK 923 INTER-LIGAND FREE ENERGY PREDICTED BY IDOCK:   -5.56 KCAL/MOL
REMARK 924 INTRA-LIGAND FREE ENERGY PREDICTED BY IDOCK:   -0.33 KCAL/MOL
REMARK 927      BINDING AFFINITY PREDICTED BY RF-SCORE:    0.00 PKD
ROOT
HETATM    1  N   UNL     1     -10.153  12.300  63.178  1.00  0.00    -0.322 NA 
HETATM    2  C   UNL     1      -9.670  11.260  63.350  1.00  0.00    -0.360 C  
HETATM    3  C   UNL     1      -9.111   9.923  63.600  1.00  0.00    -0.294 C  
ENDROOT
BRANCH   3   4
HETATM    4  C   UNL     1      -8.354   9.840  64.951  1.00  0.00    -0.148 C  
BRANCH   4   5
HETATM    5  C   UNL     1      -7.255   8.724  64.934  1.00  0.00    -0.084 C  
HETATM    6  C   UNL     1      -5.847   9.182  64.508  1.00  0.00    -0.069 C  
HETATM    7  C   UNL     1      -5.178   8.014  63.793  1.00  0.00    -0.041 C  
HETATM    8  C   UNL     1      -7.538   7.598  63.926  1.00  0.00    -0.118 C  
HETATM    9  C   UNL     1      -6.199   6.893  63.779  1.00  0.00    -0.043 C  
ENDBRANCH   4   5
BRANCH   4  10
HETATM   10  N   UNL     1      -9.304   9.779  66.075  1.00  0.00    -0.180 NA 
HETATM   11  C   UNL     1     -10.588  10.227  67.816  1.00  0.00    -0.296 A  
HETATM   12  C   UNL     1      -9.781  10.788  66.852  1.00  0.00    -0.178 A  
HETATM   13  C   UNL     1     -10.635   8.869  67.455  1.00  0.00    -0.237 A  
HETATM   14  N   UNL     1      -9.890   8.597  66.379  1.00  0.00    -0.269 NA 
BRANCH  11  15
HETATM   15  C   UNL     1     -11.163  10.996  68.893  1.00  0.00    -0.265 A  
HETATM   16  C   UNL     1     -11.466  12.352  68.756  1.00  0.00    -0.350 A  
HETATM   17  C   UNL     1     -11.341  13.368  67.767  1.00  0.00    -0.325 A  
HETATM   18  C   UNL     1     -11.906  14.520  68.272  1.00  0.00    -0.312 A  
HETATM   19  N   UNL     1     -12.376  14.239  69.528  1.00  0.00    -0.492 NA 
HETATM   20  C   UNL     1     -12.125  12.930  69.833  1.00  0.00    -0.265 A  
HETATM   21  H   UNL     1     -12.842  14.906  70.144  1.00  0.00     0.000 HD 
HETATM   22  N   UNL     1     -12.486  12.335  70.979  1.00  0.00    -0.336 NA 
HETATM   23  C   UNL     1     -12.146  11.036  70.992  1.00  0.00    -0.301 A  
HETATM   24  N   UNL     1     -11.519  10.337  70.028  1.00  0.00    -0.278 NA 
ENDBRANCH  11  15
ENDBRANCH   4  10
ENDBRANCH   3   4
TORSDOF 4
ENDMDL
MODEL      198
REMARK 921   NORMALIZED FREE ENERGY PREDICTED BY IDOCK:   -4.44 KCAL/MOL
REMARK 922        TOTAL FREE ENERGY PREDICTED BY IDOCK:   -5.88 KCAL/MOL
REMARK 923 INTER-LIGAND FREE ENERGY PREDICTED BY IDOCK:   -5.19 KCAL/MOL
REMARK 924 INTRA-LIGAND FREE ENERGY PREDICTED BY IDOCK:   -0.69 KCAL/MOL
REMARK 927      BINDING AFFINITY PREDICTED BY RF-SCORE:    0.00 PKD
ROOT
HETATM    1  N   UNL     1      -8.814  13.418  67.169  1.00  0.00    -0.217 NA 
HETATM    2  C   UNL     1      -7.938  12.660  67.227  1.00  0.00    -0.166 C  
HETATM    3  C   UNL     1      -6.827  11.696  67.237  1.00  0.00    -0.129 C  
ENDROOT
BRANCH   3   4
HETATM    4  C   UNL     1      -7.320  10.224  67.247  1.00  0.00    -0.090 C  
BRANCH   4   5
HETATM    5  C   UNL     1      -8.026   9.840  65.902  1.00  0.00    -0.111 C  
HETATM    6  C   UNL     1      -8.215   8.331  65.657  1.00  0.00    -0.134 C  
HETATM    7  C   UNL     1      -8.129   8.094  64.154  1.00  0.00    -0.128 C  
HETATM    8  C   UNL     1      -7.242  10.267  64.651  1.00  0.00    -0.082 C  
HETATM    9  C   UNL     1      -7.866   9.451  63.531  1.00  0.00    -0.130 C  
ENDBRANCH   4   5
BRANCH   4  10
HETATM   10  N   UNL     1      -8.088   9.944  68.472  1.00  0.00    -0.099 NA 
HETATM   11  C   UNL     1      -9.677   9.661  69.982  1.00  0.00    -0.280 A  
HETATM   12  C   UNL     1      -9.436   9.881  68.644  1.00  0.00    -0.153 A  
HETATM   13  C   UNL     1      -8.391   9.479  70.520  1.00  0.00    -0.163 A  
HETATM   14  N   UNL     1      -7.426   9.611  69.604  1.00  0.00    -0.088 NA 
BRANCH  11  15
HETATM   15  C   UNL     1     -11.005   9.664  70.544  1.00  0.00    -0.313 A  
HETATM   16  C   UNL     1     -11.566   8.525  71.125  1.00  0.00    -0.325 A  
HETATM   17  C   UNL     1     -11.210   7.163  71.340  1.00  0.00    -0.278 A  
HETATM   18  C   UNL     1     -12.233   6.566  72.047  1.00  0.00    -0.295 A  
HETATM   19  N   UNL     1     -13.193   7.517  72.276  1.00  0.00    -0.499 NA 
HETATM   20  C   UNL     1     -12.801   8.709  71.732  1.00  0.00    -0.359 A  
HETATM   21  H   UNL     1     -14.068   7.360  72.776  1.00  0.00     0.000 HD 
HETATM   22  N   UNL     1     -13.508   9.847  71.808  1.00  0.00    -0.375 NA 
HETATM   23  C   UNL     1     -12.866  10.869  71.219  1.00  0.00    -0.433 A  
HETATM   24  N   UNL     1     -11.670  10.848  70.605  1.00  0.00    -0.340 NA 
ENDBRANCH  11  15
ENDBRANCH   4  10
ENDBRANCH   3   4
TORSDOF 4
ENDMDL
MODEL      199
REMARK 921   NORMALIZED FREE ENERGY PREDICTED BY IDOCK:   -4.43 KCAL/MOL
REMARK 922        TOTAL FREE ENERGY PREDICTED BY IDOCK:   -5.87 KCAL/MOL
REMARK 923 INTER-LIGAND FREE ENERGY PREDICTED BY IDOCK:   -5.51 KCAL/MOL
REMARK 924 INTRA-LIGAND FREE ENERGY PREDICTED BY IDOCK:   -0.37 KCAL/MOL
REMARK 927      BINDING AFFINITY PREDICTED BY RF-SCORE:    0.00 PKD
ROOT
HETATM    1  N   UNL     1     -10.048  18.952  69.046  1.00  0.00    -0.350 NA 
HETATM    2  C   UNL     1     -10.036  17.818  68.805  1.00  0.00    -0.381 C  
HETATM    3  C   UNL     1     -10.036  16.394  68.438  1.00  0.00    -0.238 C  
ENDROOT
BRANCH   3   4
HETATM    4  C   UNL     1     -11.444  15.753  68.548  1.00  0.00    -0.379 C  
BRANCH   4   5
HETATM    5  C   UNL     1     -12.049  15.925  69.983  1.00  0.00    -0.264 C  
HETATM    6  C   UNL     1     -11.180  15.399  71.140  1.00  0.00    -0.410 C  
HETATM    7  C   UNL     1     -12.118  14.903  72.234  1.00  0.00    -0.407 C  
HETATM    8  C   UNL     1     -13.359  15.149  70.195  1.00  0.00     0.192 C  
HETATM    9  C   UNL     1     -13.523  15.115  71.706  1.00  0.00    -0.529 C  
ENDBRANCH   4   5
BRANCH   4  10
HETATM   10  N   UNL     1     -11.428  14.375  68.026  1.00  0.00    -0.294 NA 
HETATM   11  C   UNL     1     -11.031  12.233  67.656  1.00  0.00    -0.287 A  
HETATM   12  C   UNL     1     -10.819  13.271  68.536  1.00  0.00    -0.265 A  
HETATM   13  C   UNL     1     -11.895  12.789  66.696  1.00  0.00    -0.393 A  
HETATM   14  N   UNL     1     -12.171  14.075  66.935  1.00  0.00    -0.426 NA 
BRANCH  11  15
HETATM   15  C   UNL     1     -10.417  10.938  67.818  1.00  0.00    -0.203 A  
HETATM   16  C   UNL     1      -9.120  10.790  68.313  1.00  0.00    -0.157 A  
HETATM   17  C   UNL     1      -8.048  11.626  68.736  1.00  0.00    -0.072 A  
HETATM   18  C   UNL     1      -7.025  10.811  69.175  1.00  0.00    -0.091 A  
HETATM   19  N   UNL     1      -7.439   9.512  69.040  1.00  0.00    -0.072 NA 
HETATM   20  C   UNL     1      -8.707   9.482  68.528  1.00  0.00    -0.124 A  
HETATM   21  H   UNL     1      -6.885   8.690  69.284  1.00  0.00     0.000 HD 
HETATM   22  N   UNL     1      -9.408   8.361  68.303  1.00  0.00    -0.135 NA 
HETATM   23  C   UNL     1     -10.637   8.630  67.833  1.00  0.00    -0.161 A  
HETATM   24  N   UNL     1     -11.180   9.837  67.586  1.00  0.00    -0.062 NA 
ENDBRANCH  11  15
ENDBRANCH   4  10
ENDBRANCH   3   4
TORSDOF 4
ENDMDL
MODEL      200
REMARK 921   NORMALIZED FREE ENERGY PREDICTED BY IDOCK:   -4.41 KCAL/MOL
REMARK 922        TOTAL FREE ENERGY PREDICTED BY IDOCK:   -5.85 KCAL/MOL
REMARK 923 INTER-LIGAND FREE ENERGY PREDICTED BY IDOCK:   -5.34 KCAL/MOL
REMARK 924 INTRA-LIGAND FREE ENERGY PREDICTED BY IDOCK:   -0.52 KCAL/MOL
REMARK 927      BINDING AFFINITY PREDICTED BY RF-SCORE:    0.00 PKD
ROOT
HETATM    1  N   UNL     1     -12.119  14.300  68.996  1.00  0.00    -0.315 NA 
HETATM    2  C   UNL     1     -11.145  14.023  68.433  1.00  0.00    -0.253 C  
HETATM    3  C   UNL     1      -9.933  13.699  67.665  1.00  0.00    -0.239 C  
ENDROOT
BRANCH   3   4
HETATM    4  C   UNL     1     -10.034  12.327  66.948  1.00  0.00    -0.213 C  
BRANCH   4   5
HETATM    5  C   UNL     1     -11.099  12.349  65.800  1.00  0.00    -0.351 C  
HETATM    6  C   UNL     1     -10.841  11.376  64.634  1.00  0.00    -0.359 C  
HETATM    7  C   UNL     1     -11.387  12.021  63.365  1.00  0.00    -0.484 C  
HETATM    8  C   UNL     1     -11.190  13.698  65.070  1.00  0.00    -0.329 C  
HETATM    9  C   UNL     1     -11.934  13.371  63.786  1.00  0.00    -0.517 C  
ENDBRANCH   4   5
BRANCH   4  10
HETATM   10  N   UNL     1     -10.181  11.240  67.932  1.00  0.00    -0.177 NA 
HETATM   11  C   UNL     1      -9.840   9.623  69.399  1.00  0.00    -0.203 A  
HETATM   12  C   UNL     1      -9.227  10.627  68.683  1.00  0.00    -0.181 A  
HETATM   13  C   UNL     1     -11.203   9.794  69.101  1.00  0.00    -0.061 A  
HETATM   14  N   UNL     1     -11.421  10.795  68.243  1.00  0.00    -0.389 NA 
BRANCH  11  15
HETATM   15  C   UNL     1      -9.103   8.684  70.209  1.00  0.00    -0.162 A  
HETATM   16  C   UNL     1      -8.619   7.480  69.693  1.00  0.00    -0.136 A  
HETATM   17  C   UNL     1      -8.654   6.768  68.460  1.00  0.00    -0.125 A  
HETATM   18  C   UNL     1      -7.904   5.621  68.614  1.00  0.00    -0.096 A  
HETATM   19  N   UNL     1      -7.411   5.614  69.893  1.00  0.00    -0.068 NA 
HETATM   20  C   UNL     1      -7.827   6.735  70.556  1.00  0.00    -0.105 A  
HETATM   21  H   UNL     1      -6.821   4.882  70.290  1.00  0.00     0.000 HD 
HETATM   22  N   UNL     1      -7.491   7.039  71.818  1.00  0.00    -0.086 NA 
HETATM   23  C   UNL     1      -8.010   8.217  72.199  1.00  0.00    -0.140 A  
HETATM   24  N   UNL     1      -8.781   9.051  71.478  1.00  0.00    -0.346 NA 
ENDBRANCH  11  15
ENDBRANCH   4  10
ENDBRANCH   3   4
TORSDOF 4
ENDMDL
MODEL      201
REMARK 921   NORMALIZED FREE ENERGY PREDICTED BY IDOCK:   -4.37 KCAL/MOL
REMARK 922        TOTAL FREE ENERGY PREDICTED BY IDOCK:   -5.80 KCAL/MOL
REMARK 923 INTER-LIGAND FREE ENERGY PREDICTED BY IDOCK:   -5.56 KCAL/MOL
REMARK 924 INTRA-LIGAND FREE ENERGY PREDICTED BY IDOCK:   -0.24 KCAL/MOL
REMARK 927      BINDING AFFINITY PREDICTED BY RF-SCORE:    0.00 PKD
ROOT
HETATM    1  N   UNL     1      -7.298   9.537  65.530  1.00  0.00    -0.092 NA 
HETATM    2  C   UNL     1      -7.997  10.413  65.823  1.00  0.00    -0.152 C  
HETATM    3  C   UNL     1      -8.852  11.532  66.250  1.00  0.00    -0.186 C  
ENDROOT
BRANCH   3   4
HETATM    4  C   UNL     1     -10.069  11.061  67.090  1.00  0.00    -0.193 C  
BRANCH   4   5
HETATM    5  C   UNL     1     -11.177  12.165  67.176  1.00  0.00    -0.372 C  
HETATM    6  C   UNL     1     -12.025  12.357  65.905  1.00  0.00    -0.434 C  
HETATM    7  C   UNL     1     -12.417  13.828  65.829  1.00  0.00    -0.527 C  
HETATM    8  C   UNL     1     -10.619  13.580  67.399  1.00  0.00    -0.254 C  
HETATM    9  C   UNL     1     -11.779  14.492  67.034  1.00  0.00    -0.412 C  
ENDBRANCH   4   5
BRANCH   4  10
HETATM   10  N   UNL     1      -9.623  10.505  68.380  1.00  0.00    -0.154 NA 
HETATM   11  C   UNL     1      -9.480   9.474  70.328  1.00  0.00    -0.307 A  
HETATM   12  C   UNL     1     -10.266   9.643  69.211  1.00  0.00    -0.205 A  
HETATM   13  C   UNL     1      -8.309  10.188  70.016  1.00  0.00    -0.018 A  
HETATM   14  N   UNL     1      -8.374  10.784  68.821  1.00  0.00    -0.140 NA 
BRANCH  11  15
HETATM   15  C   UNL     1      -9.913   8.719  71.478  1.00  0.00    -0.300 A  
HETATM   16  C   UNL     1      -9.035   8.361  72.503  1.00  0.00    -0.308 A  
HETATM   17  C   UNL     1      -7.649   8.492  72.802  1.00  0.00    -0.056 A  
HETATM   18  C   UNL     1      -7.433   7.943  74.049  1.00  0.00    -0.158 A  
HETATM   19  N   UNL     1      -8.637   7.489  74.520  1.00  0.00    -0.353 NA 
HETATM   20  C   UNL     1      -9.618   7.741  73.601  1.00  0.00    -0.217 A  
HETATM   21  H   UNL     1      -8.780   7.032  75.421  1.00  0.00     0.000 HD 
HETATM   22  N   UNL     1     -10.914   7.444  73.774  1.00  0.00    -0.145 NA 
HETATM   23  C   UNL     1     -11.657   7.839  72.727  1.00  0.00    -0.314 A  
HETATM   24  N   UNL     1     -11.241   8.456  71.606  1.00  0.00    -0.261 NA 
ENDBRANCH  11  15
ENDBRANCH   4  10
ENDBRANCH   3   4
TORSDOF 4
ENDMDL
MODEL      202
REMARK 921   NORMALIZED FREE ENERGY PREDICTED BY IDOCK:   -4.37 KCAL/MOL
REMARK 922        TOTAL FREE ENERGY PREDICTED BY IDOCK:   -5.79 KCAL/MOL
REMARK 923 INTER-LIGAND FREE ENERGY PREDICTED BY IDOCK:   -5.56 KCAL/MOL
REMARK 924 INTRA-LIGAND FREE ENERGY PREDICTED BY IDOCK:   -0.24 KCAL/MOL
REMARK 927      BINDING AFFINITY PREDICTED BY RF-SCORE:    0.00 PKD
ROOT
HETATM    1  N   UNL     1     -10.596   7.618  73.168  1.00  0.00    -0.372 NA 
HETATM    2  C   UNL     1     -10.678   8.415  72.331  1.00  0.00    -0.335 C  
HETATM    3  C   UNL     1     -10.846   9.432  71.281  1.00  0.00    -0.431 C  
ENDROOT
BRANCH   3   4
HETATM    4  C   UNL     1     -11.216   8.811  69.909  1.00  0.00    -0.051 C  
BRANCH   4   5
HETATM    5  C   UNL     1     -10.343   7.551  69.587  1.00  0.00    -0.225 C  
HETATM    6  C   UNL     1      -8.904   7.840  69.120  1.00  0.00    -0.138 C  
HETATM    7  C   UNL     1      -8.504   6.738  68.147  1.00  0.00    -0.121 C  
HETATM    8  C   UNL     1     -10.887   6.706  68.424  1.00  0.00    -0.320 C  
HETATM    9  C   UNL     1      -9.711   5.828  68.028  1.00  0.00    -0.142 C  
ENDBRANCH   4   5
BRANCH   4  10
HETATM   10  N   UNL     1     -11.246   9.848  68.863  1.00  0.00    -0.136 NA 
HETATM   11  C   UNL     1     -11.075  10.991  66.979  1.00  0.00    -0.311 A  
HETATM   12  C   UNL     1     -10.989   9.733  67.532  1.00  0.00    -0.138 A  
HETATM   13  C   UNL     1     -11.517  11.789  68.049  1.00  0.00    -0.319 A  
HETATM   14  N   UNL     1     -11.659  11.097  69.183  1.00  0.00    -0.294 NA 
BRANCH  11  15
HETATM   15  C   UNL     1     -10.737  11.261  65.603  1.00  0.00    -0.217 A  
HETATM   16  C   UNL     1      -9.519  10.863  65.048  1.00  0.00    -0.274 A  
HETATM   17  C   UNL     1      -8.324  10.216  65.473  1.00  0.00    -0.160 A  
HETATM   18  C   UNL     1      -7.504  10.079  64.373  1.00  0.00    -0.141 A  
HETATM   19  N   UNL     1      -8.160  10.613  63.295  1.00  0.00    -0.328 NA 
HETATM   20  C   UNL     1      -9.383  11.085  63.684  1.00  0.00    -0.238 A  
HETATM   21  H   UNL     1      -7.791  10.653  62.344  1.00  0.00     0.000 HD 
HETATM   22  N   UNL     1     -10.280  11.642  62.857  1.00  0.00    -0.224 NA 
HETATM   23  C   UNL     1     -11.408  11.978  63.503  1.00  0.00    -0.442 A  
HETATM   24  N   UNL     1     -11.690  11.818  64.809  1.00  0.00    -0.201 NA 
ENDBRANCH  11  15
ENDBRANCH   4  10
ENDBRANCH   3   4
TORSDOF 4
ENDMDL
MODEL      203
REMARK 921   NORMALIZED FREE ENERGY PREDICTED BY IDOCK:   -4.36 KCAL/MOL
REMARK 922        TOTAL FREE ENERGY PREDICTED BY IDOCK:   -5.79 KCAL/MOL
REMARK 923 INTER-LIGAND FREE ENERGY PREDICTED BY IDOCK:   -5.43 KCAL/MOL
REMARK 924 INTRA-LIGAND FREE ENERGY PREDICTED BY IDOCK:   -0.37 KCAL/MOL
REMARK 927      BINDING AFFINITY PREDICTED BY RF-SCORE:    0.00 PKD
ROOT
HETATM    1  N   UNL     1     -11.461  15.394  66.116  1.00  0.00    -0.095 NA 
HETATM    2  C   UNL     1     -11.089  14.719  66.982  1.00  0.00    -0.333 C  
HETATM    3  C   UNL     1     -10.578  13.833  68.039  1.00  0.00    -0.258 C  
ENDROOT
BRANCH   3   4
HETATM    4  C   UNL     1     -11.389  12.515  68.151  1.00  0.00    -0.295 C  
BRANCH   4   5
HETATM    5  C   UNL     1     -11.561  12.063  69.641  1.00  0.00    -0.371 C  
HETATM    6  C   UNL     1     -12.432  10.812  69.861  1.00  0.00    -0.277 C  
HETATM    7  C   UNL     1     -13.135  10.969  71.204  1.00  0.00    -0.326 C  
HETATM    8  C   UNL     1     -12.276  13.102  70.520  1.00  0.00    -0.405 C  
HETATM    9  C   UNL     1     -12.697  12.314  71.749  1.00  0.00    -0.257 C  
ENDBRANCH   4   5
BRANCH   4  10
HETATM   10  N   UNL     1     -10.848  11.495  67.236  1.00  0.00    -0.241 NA 
HETATM   11  C   UNL     1      -9.828   9.751  66.341  1.00  0.00    -0.298 A  
HETATM   12  C   UNL     1     -10.209  10.330  67.530  1.00  0.00    -0.210 A  
HETATM   13  C   UNL     1     -10.399  10.591  65.369  1.00  0.00    -0.222 A  
HETATM   14  N   UNL     1     -11.051  11.629  65.905  1.00  0.00    -0.292 NA 
BRANCH  11  15
HETATM   15  C   UNL     1      -9.014   8.562  66.280  1.00  0.00    -0.168 A  
HETATM   16  C   UNL     1      -9.539   7.291  66.524  1.00  0.00    -0.211 A  
HETATM   17  C   UNL     1     -10.787   6.717  66.899  1.00  0.00    -0.402 A  
HETATM   18  C   UNL     1     -10.632   5.347  66.917  1.00  0.00    -0.250 A  
HETATM   19  N   UNL     1      -9.338   5.068  66.561  1.00  0.00    -0.133 NA 
HETATM   20  C   UNL     1      -8.666   6.232  66.312  1.00  0.00    -0.142 A  
HETATM   21  H   UNL     1      -8.937   4.132  66.491  1.00  0.00     0.000 HD 
HETATM   22  N   UNL     1      -7.387   6.300  65.914  1.00  0.00    -0.078 NA 
HETATM   23  C   UNL     1      -6.998   7.569  65.708  1.00  0.00    -0.061 A  
HETATM   24  N   UNL     1      -7.727   8.690  65.859  1.00  0.00    -0.098 NA 
ENDBRANCH  11  15
ENDBRANCH   4  10
ENDBRANCH   3   4
TORSDOF 4
ENDMDL
MODEL      204
REMARK 921   NORMALIZED FREE ENERGY PREDICTED BY IDOCK:   -4.34 KCAL/MOL
REMARK 922        TOTAL FREE ENERGY PREDICTED BY IDOCK:   -5.76 KCAL/MOL
REMARK 923 INTER-LIGAND FREE ENERGY PREDICTED BY IDOCK:   -5.17 KCAL/MOL
REMARK 924 INTRA-LIGAND FREE ENERGY PREDICTED BY IDOCK:   -0.59 KCAL/MOL
REMARK 927      BINDING AFFINITY PREDICTED BY RF-SCORE:    0.00 PKD
ROOT
HETATM    1  N   UNL     1     -10.857  19.523  66.304  1.00  0.00    -0.384 NA 
HETATM    2  C   UNL     1     -10.476  18.458  66.052  1.00  0.00    -0.374 C  
HETATM    3  C   UNL     1     -10.051  17.084  65.745  1.00  0.00    -0.219 C  
ENDROOT
BRANCH   3   4
HETATM    4  C   UNL     1      -9.562  16.319  67.003  1.00  0.00    -0.231 C  
BRANCH   4   5
HETATM    5  C   UNL     1      -8.097  16.715  67.389  1.00  0.00    -0.187 C  
HETATM    6  C   UNL     1      -7.964  17.835  68.438  1.00  0.00    -0.293 C  
HETATM    7  C   UNL     1      -6.691  18.613  68.124  1.00  0.00    -0.235 C  
HETATM    8  C   UNL     1      -7.283  17.284  66.216  1.00  0.00    -0.335 C  
HETATM    9  C   UNL     1      -6.102  17.966  66.886  1.00  0.00    -0.183 C  
ENDBRANCH   4   5
BRANCH   4  10
HETATM   10  N   UNL     1      -9.815  14.875  66.861  1.00  0.00    -0.235 NA 
HETATM   11  C   UNL     1     -10.164  12.721  67.210  1.00  0.00    -0.232 A  
HETATM   12  C   UNL     1     -10.066  13.948  67.825  1.00  0.00    -0.241 A  
HETATM   13  C   UNL     1     -10.080  13.032  65.842  1.00  0.00    -0.288 A  
HETATM   14  N   UNL     1      -9.907  14.340  65.622  1.00  0.00    -0.302 NA 
BRANCH  11  15
HETATM   15  C   UNL     1     -10.301  11.489  67.948  1.00  0.00    -0.183 A  
HETATM   16  C   UNL     1      -9.273  10.547  68.014  1.00  0.00    -0.143 A  
HETATM   17  C   UNL     1      -7.963  10.372  67.485  1.00  0.00    -0.106 A  
HETATM   18  C   UNL     1      -7.450   9.202  68.005  1.00  0.00    -0.084 A  
HETATM   19  N   UNL     1      -8.398   8.663  68.835  1.00  0.00    -0.123 NA 
HETATM   20  C   UNL     1      -9.504   9.468  68.858  1.00  0.00    -0.155 A  
HETATM   21  H   UNL     1      -8.295   7.793  69.358  1.00  0.00     0.000 HD 
HETATM   22  N   UNL     1     -10.598   9.234  69.597  1.00  0.00    -0.224 NA 
HETATM   23  C   UNL     1     -11.511  10.208  69.454  1.00  0.00    -0.142 A  
HETATM   24  N   UNL     1     -11.428  11.311  68.688  1.00  0.00    -0.269 NA 
ENDBRANCH  11  15
ENDBRANCH   4  10
ENDBRANCH   3   4
TORSDOF 4
ENDMDL
MODEL      205
REMARK 921   NORMALIZED FREE ENERGY PREDICTED BY IDOCK:   -4.33 KCAL/MOL
REMARK 922        TOTAL FREE ENERGY PREDICTED BY IDOCK:   -5.75 KCAL/MOL
REMARK 923 INTER-LIGAND FREE ENERGY PREDICTED BY IDOCK:   -5.38 KCAL/MOL
REMARK 924 INTRA-LIGAND FREE ENERGY PREDICTED BY IDOCK:   -0.37 KCAL/MOL
REMARK 927      BINDING AFFINITY PREDICTED BY RF-SCORE:    0.00 PKD
ROOT
HETATM    1  N   UNL     1      -6.874   6.528  70.324  1.00  0.00    -0.056 NA 
HETATM    2  C   UNL     1      -7.994   6.826  70.362  1.00  0.00    -0.115 C  
HETATM    3  C   UNL     1      -9.430   7.143  70.406  1.00  0.00    -0.162 C  
ENDROOT
BRANCH   3   4
HETATM    4  C   UNL     1     -10.042   7.316  68.991  1.00  0.00    -0.186 C  
BRANCH   4   5
HETATM    5  C   UNL     1      -9.548   6.203  68.005  1.00  0.00    -0.115 C  
HETATM    6  C   UNL     1     -10.182   6.229  66.601  1.00  0.00    -0.226 C  
HETATM    7  C   UNL     1     -10.261   4.791  66.103  1.00  0.00    -0.313 C  
HETATM    8  C   UNL     1      -9.877   4.777  68.472  1.00  0.00    -0.198 C  
HETATM    9  C   UNL     1      -9.702   3.932  67.221  1.00  0.00    -0.178 C  
ENDBRANCH   4   5
BRANCH   4  10
HETATM   10  N   UNL     1      -9.875   8.702  68.521  1.00  0.00    -0.165 NA 
HETATM   11  C   UNL     1     -10.176  10.807  67.920  1.00  0.00    -0.203 A  
HETATM   12  C   UNL     1     -10.771   9.725  68.529  1.00  0.00    -0.215 A  
HETATM   13  C   UNL     1      -8.860  10.369  67.687  1.00  0.00    -0.124 A  
HETATM   14  N   UNL     1      -8.660   9.108  68.083  1.00  0.00    -0.128 NA 
BRANCH  11  15
HETATM   15  C   UNL     1     -10.886  12.031  67.642  1.00  0.00    -0.231 A  
HETATM   16  C   UNL     1     -11.464  12.799  68.655  1.00  0.00    -0.341 A  
HETATM   17  C   UNL     1     -11.629  12.733  70.068  1.00  0.00    -0.194 A  
HETATM   18  C   UNL     1     -12.273  13.884  70.472  1.00  0.00    -0.373 A  
HETATM   19  N   UNL     1     -12.499  14.648  69.357  1.00  0.00    -0.572 NA 
HETATM   20  C   UNL     1     -12.009  14.010  68.251  1.00  0.00    -0.349 A  
HETATM   21  H   UNL     1     -12.964  15.557  69.352  1.00  0.00     0.000 HD 
HETATM   22  N   UNL     1     -12.048  14.509  67.007  1.00  0.00    -0.354 NA 
HETATM   23  C   UNL     1     -11.460  13.687  66.124  1.00  0.00    -0.325 A  
HETATM   24  N   UNL     1     -10.883  12.495  66.364  1.00  0.00    -0.255 NA 
ENDBRANCH  11  15
ENDBRANCH   4  10
ENDBRANCH   3   4
TORSDOF 4
ENDMDL
MODEL      206
REMARK 921   NORMALIZED FREE ENERGY PREDICTED BY IDOCK:   -4.33 KCAL/MOL
REMARK 922        TOTAL FREE ENERGY PREDICTED BY IDOCK:   -5.74 KCAL/MOL
REMARK 923 INTER-LIGAND FREE ENERGY PREDICTED BY IDOCK:   -5.09 KCAL/MOL
REMARK 924 INTRA-LIGAND FREE ENERGY PREDICTED BY IDOCK:   -0.66 KCAL/MOL
REMARK 927      BINDING AFFINITY PREDICTED BY RF-SCORE:    0.00 PKD
ROOT
HETATM    1  N   UNL     1      -7.183   7.855  64.218  1.00  0.00    -0.078 NA 
HETATM    2  C   UNL     1      -7.515   8.772  64.843  1.00  0.00    -0.095 C  
HETATM    3  C   UNL     1      -7.938   9.899  65.690  1.00  0.00    -0.130 C  
ENDROOT
BRANCH   3   4
HETATM    4  C   UNL     1      -9.482  10.019  65.789  1.00  0.00    -0.214 C  
BRANCH   4   5
HETATM    5  C   UNL     1      -9.944  11.513  65.866  1.00  0.00    -0.267 C  
HETATM    6  C   UNL     1      -9.055  12.442  66.714  1.00  0.00    -0.212 C  
HETATM    7  C   UNL     1      -9.955  13.504  67.335  1.00  0.00    -0.234 C  
HETATM    8  C   UNL     1     -11.317  11.699  66.533  1.00  0.00    -0.331 C  
HETATM    9  C   UNL     1     -11.362  13.179  66.873  1.00  0.00    -0.355 C  
ENDBRANCH   4   5
BRANCH   4  10
HETATM   10  N   UNL     1     -10.003   9.136  66.847  1.00  0.00    -0.216 NA 
HETATM   11  C   UNL     1     -10.488   8.154  68.766  1.00  0.00    -0.198 A  
HETATM   12  C   UNL     1      -9.909   9.266  68.197  1.00  0.00    -0.162 A  
HETATM   13  C   UNL     1     -11.020   7.462  67.664  1.00  0.00    -0.066 A  
HETATM   14  N   UNL     1     -10.763   8.071  66.502  1.00  0.00     0.133 NA 
BRANCH  11  15
HETATM   15  C   UNL     1     -10.453   7.899  70.185  1.00  0.00    -0.231 A  
HETATM   16  C   UNL     1     -11.463   8.342  71.042  1.00  0.00    -0.303 A  
HETATM   17  C   UNL     1     -12.666   9.099  70.956  1.00  0.00    -0.185 A  
HETATM   18  C   UNL     1     -13.238   9.125  72.211  1.00  0.00    -0.461 A  
HETATM   19  N   UNL     1     -12.431   8.406  73.053  1.00  0.00    -0.589 NA 
HETATM   20  C   UNL     1     -11.357   7.919  72.361  1.00  0.00    -0.369 A  
HETATM   21  H   UNL     1     -12.604   8.257  74.048  1.00  0.00     0.000 HD 
HETATM   22  N   UNL     1     -10.395   7.152  72.893  1.00  0.00    -0.223 NA 
HETATM   23  C   UNL     1      -9.486   6.786  71.974  1.00  0.00    -0.141 A  
HETATM   24  N   UNL     1      -9.460   7.105  70.667  1.00  0.00    -0.162 NA 
ENDBRANCH  11  15
ENDBRANCH   4  10
ENDBRANCH   3   4
TORSDOF 4
ENDMDL
MODEL      207
REMARK 921   NORMALIZED FREE ENERGY PREDICTED BY IDOCK:   -4.28 KCAL/MOL
REMARK 922        TOTAL FREE ENERGY PREDICTED BY IDOCK:   -5.69 KCAL/MOL
REMARK 923 INTER-LIGAND FREE ENERGY PREDICTED BY IDOCK:   -5.94 KCAL/MOL
REMARK 924 INTRA-LIGAND FREE ENERGY PREDICTED BY IDOCK:    0.25 KCAL/MOL
REMARK 927      BINDING AFFINITY PREDICTED BY RF-SCORE:    0.00 PKD
ROOT
HETATM    1  N   UNL     1      -7.941   9.964  66.399  1.00  0.00    -0.109 NA 
HETATM    2  C   UNL     1      -7.546  10.954  66.854  1.00  0.00    -0.128 C  
HETATM    3  C   UNL     1      -7.042  12.182  67.488  1.00  0.00    -0.135 C  
ENDROOT
BRANCH   3   4
HETATM    4  C   UNL     1      -8.181  13.060  68.070  1.00  0.00    -0.161 C  
BRANCH   4   5
HETATM    5  C   UNL     1      -9.594  12.502  67.691  1.00  0.00    -0.190 C  
HETATM    6  C   UNL     1     -10.658  13.561  67.347  1.00  0.00    -0.254 C  
HETATM    7  C   UNL     1     -12.012  13.017  67.786  1.00  0.00    -0.344 C  
HETATM    8  C   UNL     1     -10.277  11.730  68.832  1.00  0.00    -0.119 C  
HETATM    9  C   UNL     1     -11.735  11.661  68.406  1.00  0.00    -0.374 C  
ENDBRANCH   4   5
BRANCH   4  10
HETATM   10  N   UNL     1      -7.952  14.480  67.755  1.00  0.00    -0.144 NA 
HETATM   11  C   UNL     1      -8.122  16.669  67.503  1.00  0.00    -0.184 A  
HETATM   12  C   UNL     1      -8.705  15.564  68.083  1.00  0.00    -0.164 A  
HETATM   13  C   UNL     1      -6.939  16.158  66.942  1.00  0.00    -0.152 A  
HETATM   14  N   UNL     1      -6.810  14.840  67.123  1.00  0.00    -0.181 NA 
BRANCH  11  15
HETATM   15  C   UNL     1      -8.728  17.977  67.539  1.00  0.00    -0.248 A  
HETATM   16  C   UNL     1      -7.971  19.147  67.446  1.00  0.00    -0.283 A  
HETATM   17  C   UNL     1      -6.598  19.513  67.347  1.00  0.00    -0.216 A  
HETATM   18  C   UNL     1      -6.535  20.886  67.234  1.00  0.00    -0.327 A  
HETATM   19  N   UNL     1      -7.818  21.366  67.254  1.00  0.00    -0.640 NA 
HETATM   20  C   UNL     1      -8.699  20.327  67.374  1.00  0.00    -0.341 A  
HETATM   21  H   UNL     1      -8.077  22.351  67.190  1.00  0.00     0.000 HD 
HETATM   22  N   UNL     1     -10.033  20.461  67.395  1.00  0.00    -0.435 NA 
HETATM   23  C   UNL     1     -10.650  19.272  67.482  1.00  0.00    -0.474 A  
HETATM   24  N   UNL     1     -10.086  18.053  67.549  1.00  0.00    -0.335 NA 
ENDBRANCH  11  15
ENDBRANCH   4  10
ENDBRANCH   3   4
TORSDOF 4
ENDMDL
MODEL      208
REMARK 921   NORMALIZED FREE ENERGY PREDICTED BY IDOCK:   -4.26 KCAL/MOL
REMARK 922        TOTAL FREE ENERGY PREDICTED BY IDOCK:   -5.67 KCAL/MOL
REMARK 923 INTER-LIGAND FREE ENERGY PREDICTED BY IDOCK:   -4.98 KCAL/MOL
REMARK 924 INTRA-LIGAND FREE ENERGY PREDICTED BY IDOCK:   -0.69 KCAL/MOL
REMARK 927      BINDING AFFINITY PREDICTED BY RF-SCORE:    0.00 PKD
ROOT
HETATM    1  N   UNL     1      -6.473   9.998  69.691  1.00  0.00    -0.050 NA 
HETATM    2  C   UNL     1      -6.690   9.268  68.817  1.00  0.00    -0.053 C  
HETATM    3  C   UNL     1      -6.989   8.391  67.674  1.00  0.00    -0.075 C  
ENDROOT
BRANCH   3   4
HETATM    4  C   UNL     1      -8.427   7.811  67.733  1.00  0.00    -0.121 C  
BRANCH   4   5
HETATM    5  C   UNL     1      -8.625   6.648  66.702  1.00  0.00    -0.123 C  
HETATM    6  C   UNL     1     -10.057   6.090  66.595  1.00  0.00    -0.226 C  
HETATM    7  C   UNL     1      -9.952   4.608  66.257  1.00  0.00    -0.268 C  
HETATM    8  C   UNL     1      -7.820   5.383  67.039  1.00  0.00    -0.101 C  
HETATM    9  C   UNL     1      -8.469   4.299  66.194  1.00  0.00    -0.112 C  
ENDBRANCH   4   5
BRANCH   4  10
HETATM   10  N   UNL     1      -9.424   8.892  67.671  1.00  0.00    -0.136 NA 
HETATM   11  C   UNL     1     -10.660  10.631  67.094  1.00  0.00    -0.312 A  
HETATM   12  C   UNL     1      -9.694   9.755  66.654  1.00  0.00    -0.201 A  
HETATM   13  C   UNL     1     -11.002  10.131  68.363  1.00  0.00    -0.244 A  
HETATM   14  N   UNL     1     -10.285   9.056  68.703  1.00  0.00    -0.200 NA 
BRANCH  11  15
HETATM   15  C   UNL     1     -11.097  11.763  66.314  1.00  0.00    -0.311 A  
HETATM   16  C   UNL     1     -11.462  12.974  66.906  1.00  0.00    -0.387 A  
HETATM   17  C   UNL     1     -11.592  13.513  68.218  1.00  0.00    -0.381 A  
HETATM   18  C   UNL     1     -11.958  14.837  68.096  1.00  0.00    -0.230 A  
HETATM   19  N   UNL     1     -12.050  15.123  66.758  1.00  0.00    -0.035 NA 
HETATM   20  C   UNL     1     -11.745  14.009  66.025  1.00  0.00    -0.369 A  
HETATM   21  H   UNL     1     -12.306  16.030  66.368  1.00  0.00     0.000 HD 
HETATM   22  N   UNL     1     -11.716  13.967  64.685  1.00  0.00    -0.385 NA 
HETATM   23  C   UNL     1     -11.348  12.757  64.235  1.00  0.00    -0.367 A  
HETATM   24  N   UNL     1     -11.035  11.667  64.959  1.00  0.00    -0.293 NA 
ENDBRANCH  11  15
ENDBRANCH   4  10
ENDBRANCH   3   4
TORSDOF 4
ENDMDL
MODEL      209
REMARK 921   NORMALIZED FREE ENERGY PREDICTED BY IDOCK:   -4.26 KCAL/MOL
REMARK 922        TOTAL FREE ENERGY PREDICTED BY IDOCK:   -5.67 KCAL/MOL
REMARK 923 INTER-LIGAND FREE ENERGY PREDICTED BY IDOCK:   -5.20 KCAL/MOL
REMARK 924 INTRA-LIGAND FREE ENERGY PREDICTED BY IDOCK:   -0.47 KCAL/MOL
REMARK 927      BINDING AFFINITY PREDICTED BY RF-SCORE:    0.00 PKD
ROOT
HETATM    1  N   UNL     1      -6.869   6.522  70.332  1.00  0.00    -0.060 NA 
HETATM    2  C   UNL     1      -7.985   6.827  70.384  1.00  0.00    -0.115 C  
HETATM    3  C   UNL     1      -9.419   7.153  70.448  1.00  0.00    -0.162 C  
ENDROOT
BRANCH   3   4
HETATM    4  C   UNL     1     -10.059   7.290  69.042  1.00  0.00    -0.186 C  
BRANCH   4   5
HETATM    5  C   UNL     1      -9.629   6.122  68.091  1.00  0.00    -0.117 C  
HETATM    6  C   UNL     1     -10.299   6.110  66.705  1.00  0.00    -0.249 C  
HETATM    7  C   UNL     1     -10.438   4.656  66.271  1.00  0.00    -0.249 C  
HETATM    8  C   UNL     1      -9.991   4.728  68.628  1.00  0.00    -0.170 C  
HETATM    9  C   UNL     1      -9.877   3.826  67.409  1.00  0.00    -0.026 C  
ENDBRANCH   4   5
BRANCH   4  10
HETATM   10  N   UNL     1      -9.856   8.649  68.511  1.00  0.00    -0.165 NA 
HETATM   11  C   UNL     1     -10.097  10.741  67.839  1.00  0.00    -0.197 A  
HETATM   12  C   UNL     1     -10.709   9.709  68.513  1.00  0.00    -0.200 A  
HETATM   13  C   UNL     1      -8.810  10.240  67.574  1.00  0.00    -0.128 A  
HETATM   14  N   UNL     1      -8.645   8.988  68.011  1.00  0.00    -0.129 NA 
BRANCH  11  15
HETATM   15  C   UNL     1     -10.768  11.982  67.540  1.00  0.00    -0.226 A  
HETATM   16  C   UNL     1     -10.974  12.415  66.229  1.00  0.00    -0.323 A  
HETATM   17  C   UNL     1     -10.659  11.981  64.910  1.00  0.00    -0.334 A  
HETATM   18  C   UNL     1     -11.223  12.876  64.025  1.00  0.00    -0.412 A  
HETATM   19  N   UNL     1     -11.872  13.835  64.758  1.00  0.00    -0.372 NA 
HETATM   20  C   UNL     1     -11.738  13.566  66.092  1.00  0.00    -0.365 A  
HETATM   21  H   UNL     1     -12.380  14.629  64.367  1.00  0.00     0.000 HD 
HETATM   22  N   UNL     1     -12.283  14.301  67.073  1.00  0.00    -0.390 NA 
HETATM   23  C   UNL     1     -12.021  13.784  68.284  1.00  0.00    -0.357 A  
HETATM   24  N   UNL     1     -11.310  12.680  68.574  1.00  0.00    -0.272 NA 
ENDBRANCH  11  15
ENDBRANCH   4  10
ENDBRANCH   3   4
TORSDOF 4
ENDMDL
MODEL      210
REMARK 921   NORMALIZED FREE ENERGY PREDICTED BY IDOCK:   -4.22 KCAL/MOL
REMARK 922        TOTAL FREE ENERGY PREDICTED BY IDOCK:   -5.62 KCAL/MOL
REMARK 923 INTER-LIGAND FREE ENERGY PREDICTED BY IDOCK:   -4.97 KCAL/MOL
REMARK 924 INTRA-LIGAND FREE ENERGY PREDICTED BY IDOCK:   -0.64 KCAL/MOL
REMARK 927      BINDING AFFINITY PREDICTED BY RF-SCORE:    0.00 PKD
ROOT
HETATM    1  N   UNL     1      -8.382   9.535  66.526  1.00  0.00    -0.118 NA 
HETATM    2  C   UNL     1      -8.997  10.068  67.351  1.00  0.00    -0.131 C  
HETATM    3  C   UNL     1      -9.733  10.727  68.441  1.00  0.00    -0.179 C  
ENDROOT
BRANCH   3   4
HETATM    4  C   UNL     1     -10.714   9.764  69.161  1.00  0.00    -0.221 C  
BRANCH   4   5
HETATM    5  C   UNL     1     -11.937  10.530  69.769  1.00  0.00    -0.309 C  
HETATM    6  C   UNL     1     -11.778  12.058  69.881  1.00  0.00    -0.374 C  
HETATM    7  C   UNL     1     -12.558  12.516  71.107  1.00  0.00    -0.349 C  
HETATM    8  C   UNL     1     -12.247  10.139  71.223  1.00  0.00    -0.496 C  
HETATM    9  C   UNL     1     -13.146  11.260  71.720  1.00  0.00    -0.527 C  
ENDBRANCH   4   5
BRANCH   4  10
HETATM   10  N   UNL     1      -9.987   8.885  70.093  1.00  0.00    -0.179 NA 
HETATM   11  C   UNL     1      -9.168   7.163  71.210  1.00  0.00    -0.151 A  
HETATM   12  C   UNL     1      -9.903   7.527  70.103  1.00  0.00    -0.180 A  
HETATM   13  C   UNL     1      -8.744   8.393  71.741  1.00  0.00    -0.180 A  
HETATM   14  N   UNL     1      -9.204   9.439  71.047  1.00  0.00    -0.235 NA 
BRANCH  11  15
HETATM   15  C   UNL     1      -8.986   5.788  71.604  1.00  0.00    -0.136 A  
HETATM   16  C   UNL     1      -9.939   5.102  72.360  1.00  0.00    -0.225 A  
HETATM   17  C   UNL     1     -11.191   5.373  72.981  1.00  0.00    -0.370 A  
HETATM   18  C   UNL     1     -11.645   4.199  73.545  1.00  0.00    -0.055 A  
HETATM   19  N   UNL     1     -10.718   3.224  73.284  1.00  0.00    -0.183 NA 
HETATM   20  C   UNL     1      -9.684   3.751  72.561  1.00  0.00    -0.145 A  
HETATM   21  H   UNL     1     -10.788   2.251  73.584  1.00  0.00     0.000 HD 
HETATM   22  N   UNL     1      -8.629   3.049  72.122  1.00  0.00    -0.073 NA 
HETATM   23  C   UNL     1      -7.788   3.813  71.407  1.00  0.00    -0.060 A  
HETATM   24  N   UNL     1      -7.904   5.122  71.120  1.00  0.00    -0.099 NA 
ENDBRANCH  11  15
ENDBRANCH   4  10
ENDBRANCH   3   4
TORSDOF 4
ENDMDL
MODEL      211
REMARK 921   NORMALIZED FREE ENERGY PREDICTED BY IDOCK:   -4.22 KCAL/MOL
REMARK 922        TOTAL FREE ENERGY PREDICTED BY IDOCK:   -5.61 KCAL/MOL
REMARK 923 INTER-LIGAND FREE ENERGY PREDICTED BY IDOCK:   -5.33 KCAL/MOL
REMARK 924 INTRA-LIGAND FREE ENERGY PREDICTED BY IDOCK:   -0.28 KCAL/MOL
REMARK 927      BINDING AFFINITY PREDICTED BY RF-SCORE:    0.00 PKD
ROOT
HETATM    1  N   UNL     1     -12.955  14.336  64.865  1.00  0.00    -0.634 NA 
HETATM    2  C   UNL     1     -12.405  13.400  65.273  1.00  0.00    -0.469 C  
HETATM    3  C   UNL     1     -11.764  12.188  65.806  1.00  0.00    -0.391 C  
ENDROOT
BRANCH   3   4
HETATM    4  C   UNL     1     -11.458  12.298  67.323  1.00  0.00    -0.357 C  
BRANCH   4   5
HETATM    5  C   UNL     1     -10.738  13.645  67.674  1.00  0.00    -0.253 C  
HETATM    6  C   UNL     1      -9.201  13.577  67.753  1.00  0.00    -0.213 C  
HETATM    7  C   UNL     1      -8.748  14.585  68.802  1.00  0.00    -0.147 C  
HETATM    8  C   UNL     1     -11.101  14.193  69.063  1.00  0.00    -0.292 C  
HETATM    9  C   UNL     1     -10.014  15.216  69.348  1.00  0.00    -0.232 C  
ENDBRANCH   4   5
BRANCH   4  10
HETATM   10  N   UNL     1     -10.793  11.077  67.807  1.00  0.00    -0.229 NA 
HETATM   11  C   UNL     1      -9.860   9.083  67.998  1.00  0.00    -0.197 A  
HETATM   12  C   UNL     1     -10.344  10.006  67.099  1.00  0.00    -0.241 A  
HETATM   13  C   UNL     1      -9.947   9.751  69.232  1.00  0.00    -0.192 A  
HETATM   14  N   UNL     1     -10.476  10.973  69.119  1.00  0.00    -0.222 NA 
BRANCH  11  15
HETATM   15  C   UNL     1      -9.418   7.768  67.602  1.00  0.00    -0.144 A  
HETATM   16  C   UNL     1      -9.395   6.694  68.495  1.00  0.00    -0.125 A  
HETATM   17  C   UNL     1      -9.674   6.457  69.871  1.00  0.00    -0.185 A  
HETATM   18  C   UNL     1      -9.490   5.112  70.113  1.00  0.00    -0.168 A  
HETATM   19  N   UNL     1      -9.116   4.523  68.933  1.00  0.00    -0.114 NA 
HETATM   20  C   UNL     1      -9.061   5.465  67.943  1.00  0.00    -0.109 A  
HETATM   21  H   UNL     1      -8.909   3.531  68.812  1.00  0.00     0.000 HD 
HETATM   22  N   UNL     1      -8.753   5.204  66.664  1.00  0.00    -0.110 NA 
HETATM   23  C   UNL     1      -8.813   6.310  65.904  1.00  0.00    -0.139 A  
HETATM   24  N   UNL     1      -9.129   7.560  66.290  1.00  0.00    -0.168 NA 
ENDBRANCH  11  15
ENDBRANCH   4  10
ENDBRANCH   3   4
TORSDOF 4
ENDMDL
MODEL      212
REMARK 921   NORMALIZED FREE ENERGY PREDICTED BY IDOCK:   -4.22 KCAL/MOL
REMARK 922        TOTAL FREE ENERGY PREDICTED BY IDOCK:   -5.61 KCAL/MOL
REMARK 923 INTER-LIGAND FREE ENERGY PREDICTED BY IDOCK:   -5.02 KCAL/MOL
REMARK 924 INTRA-LIGAND FREE ENERGY PREDICTED BY IDOCK:   -0.59 KCAL/MOL
REMARK 927      BINDING AFFINITY PREDICTED BY RF-SCORE:    0.00 PKD
ROOT
HETATM    1  N   UNL     1     -10.173  10.043  65.619  1.00  0.00    -0.240 NA 
HETATM    2  C   UNL     1      -9.207   9.403  65.652  1.00  0.00    -0.226 C  
HETATM    3  C   UNL     1      -8.013   8.544  65.661  1.00  0.00    -0.107 C  
ENDROOT
BRANCH   3   4
HETATM    4  C   UNL     1      -7.990   7.573  66.870  1.00  0.00    -0.115 C  
BRANCH   4   5
HETATM    5  C   UNL     1      -8.700   6.217  66.539  1.00  0.00    -0.133 C  
HETATM    6  C   UNL     1      -8.185   4.988  67.313  1.00  0.00    -0.107 C  
HETATM    7  C   UNL     1      -8.331   3.775  66.403  1.00  0.00    -0.105 C  
HETATM    8  C   UNL     1      -8.519   5.767  65.080  1.00  0.00    -0.138 C  
HETATM    9  C   UNL     1      -8.902   4.297  65.100  1.00  0.00    -0.134 C  
ENDBRANCH   4   5
BRANCH   4  10
HETATM   10  N   UNL     1      -8.457   8.254  68.090  1.00  0.00    -0.131 NA 
HETATM   11  C   UNL     1      -9.550   8.873  69.908  1.00  0.00    -0.185 A  
HETATM   12  C   UNL     1      -9.426   7.877  68.966  1.00  0.00    -0.151 A  
HETATM   13  C   UNL     1      -8.512   9.763  69.581  1.00  0.00    -0.185 A  
HETATM   14  N   UNL     1      -7.822   9.375  68.504  1.00  0.00    -0.089 NA 
BRANCH  11  15
HETATM   15  C   UNL     1     -10.576   8.863  70.921  1.00  0.00    -0.233 A  
HETATM   16  C   UNL     1     -11.454   9.935  71.097  1.00  0.00    -0.459 A  
HETATM   17  C   UNL     1     -11.669  11.228  70.541  1.00  0.00    -0.345 A  
HETATM   18  C   UNL     1     -12.778  11.772  71.154  1.00  0.00    -0.305 A  
HETATM   19  N   UNL     1     -13.248  10.854  72.057  1.00  0.00    -0.552 NA 
HETATM   20  C   UNL     1     -12.464   9.735  72.029  1.00  0.00    -0.308 A  
HETATM   21  H   UNL     1     -14.061  10.986  72.659  1.00  0.00     0.000 HD 
HETATM   22  N   UNL     1     -12.675   8.641  72.776  1.00  0.00    -0.257 NA 
HETATM   23  C   UNL     1     -11.773   7.680  72.516  1.00  0.00    -0.301 A  
HETATM   24  N   UNL     1     -10.752   7.723  71.641  1.00  0.00    -0.217 NA 
ENDBRANCH  11  15
ENDBRANCH   4  10
ENDBRANCH   3   4
TORSDOF 4
ENDMDL
MODEL      213
REMARK 921   NORMALIZED FREE ENERGY PREDICTED BY IDOCK:   -4.18 KCAL/MOL
REMARK 922        TOTAL FREE ENERGY PREDICTED BY IDOCK:   -5.56 KCAL/MOL
REMARK 923 INTER-LIGAND FREE ENERGY PREDICTED BY IDOCK:   -5.17 KCAL/MOL
REMARK 924 INTRA-LIGAND FREE ENERGY PREDICTED BY IDOCK:   -0.40 KCAL/MOL
REMARK 927      BINDING AFFINITY PREDICTED BY RF-SCORE:    0.00 PKD
ROOT
HETATM    1  N   UNL     1      -6.716  10.898  68.929  1.00  0.00    -0.061 NA 
HETATM    2  C   UNL     1      -6.802  10.115  68.079  1.00  0.00    -0.071 C  
HETATM    3  C   UNL     1      -6.948   9.164  66.966  1.00  0.00    -0.081 C  
ENDROOT
BRANCH   3   4
HETATM    4  C   UNL     1      -8.193   8.252  67.126  1.00  0.00    -0.119 C  
BRANCH   4   5
HETATM    5  C   UNL     1      -8.563   7.534  65.784  1.00  0.00    -0.158 C  
HETATM    6  C   UNL     1      -8.704   6.002  65.864  1.00  0.00    -0.157 C  
HETATM    7  C   UNL     1      -8.265   5.427  64.523  1.00  0.00    -0.133 C  
HETATM    8  C   UNL     1      -7.498   7.695  64.686  1.00  0.00    -0.096 C  
HETATM    9  C   UNL     1      -7.847   6.614  63.677  1.00  0.00    -0.109 C  
ENDBRANCH   4   5
BRANCH   4  10
HETATM   10  N   UNL     1      -9.291   8.985  67.779  1.00  0.00    -0.139 NA 
HETATM   11  C   UNL     1     -10.861   9.700  69.160  1.00  0.00    -0.212 A  
HETATM   12  C   UNL     1      -9.792   8.841  69.035  1.00  0.00    -0.181 A  
HETATM   13  C   UNL     1     -10.847  10.419  67.951  1.00  0.00    -0.279 A  
HETATM   14  N   UNL     1      -9.875  10.017  67.125  1.00  0.00    -0.177 NA 
BRANCH  11  15
HETATM   15  C   UNL     1     -11.711   9.721  70.325  1.00  0.00    -0.190 A  
HETATM   16  C   UNL     1     -12.200  10.912  70.864  1.00  0.00    -0.485 A  
HETATM   17  C   UNL     1     -12.085  12.310  70.618  1.00  0.00    -0.330 A  
HETATM   18  C   UNL     1     -12.898  12.966  71.519  1.00  0.00    -0.282 A  
HETATM   19  N   UNL     1     -13.506  12.017  72.299  1.00  0.00    -0.551 NA 
HETATM   20  C   UNL     1     -13.101  10.770  71.911  1.00  0.00    -0.451 A  
HETATM   21  H   UNL     1     -14.163  12.212  73.055  1.00  0.00     0.000 HD 
HETATM   22  N   UNL     1     -13.537   9.626  72.458  1.00  0.00    -0.338 NA 
HETATM   23  C   UNL     1     -13.002   8.552  71.855  1.00  0.00    -0.362 A  
HETATM   24  N   UNL     1     -12.130   8.530  70.831  1.00  0.00    -0.204 NA 
ENDBRANCH  11  15
ENDBRANCH   4  10
ENDBRANCH   3   4
TORSDOF 4
ENDMDL
MODEL      214
REMARK 921   NORMALIZED FREE ENERGY PREDICTED BY IDOCK:   -4.17 KCAL/MOL
REMARK 922        TOTAL FREE ENERGY PREDICTED BY IDOCK:   -5.55 KCAL/MOL
REMARK 923 INTER-LIGAND FREE ENERGY PREDICTED BY IDOCK:   -5.21 KCAL/MOL
REMARK 924 INTRA-LIGAND FREE ENERGY PREDICTED BY IDOCK:   -0.34 KCAL/MOL
REMARK 927      BINDING AFFINITY PREDICTED BY RF-SCORE:    0.00 PKD
ROOT
HETATM    1  N   UNL     1     -11.644  12.187  63.961  1.00  0.00    -0.391 NA 
HETATM    2  C   UNL     1     -10.811  11.382  63.989  1.00  0.00    -0.383 C  
HETATM    3  C   UNL     1      -9.784  10.332  64.076  1.00  0.00    -0.343 C  
ENDROOT
BRANCH   3   4
HETATM    4  C   UNL     1      -8.634  10.706  65.048  1.00  0.00    -0.160 C  
BRANCH   4   5
HETATM    5  C   UNL     1      -7.370   9.808  64.825  1.00  0.00    -0.130 C  
HETATM    6  C   UNL     1      -6.497  10.177  63.610  1.00  0.00    -0.127 C  
HETATM    7  C   UNL     1      -5.884   8.890  63.074  1.00  0.00    -0.085 C  
HETATM    8  C   UNL     1      -7.704   8.336  64.536  1.00  0.00    -0.123 C  
HETATM    9  C   UNL     1      -6.417   7.776  63.954  1.00  0.00    -0.058 C  
ENDBRANCH   4   5
BRANCH   4  10
HETATM   10  N   UNL     1      -9.130  10.773  66.434  1.00  0.00    -0.167 NA 
HETATM   11  C   UNL     1     -10.008  10.336  68.414  1.00  0.00    -0.173 A  
HETATM   12  C   UNL     1      -9.591   9.771  67.230  1.00  0.00    -0.157 A  
HETATM   13  C   UNL     1      -9.635  11.686  68.282  1.00  0.00    -0.198 A  
HETATM   14  N   UNL     1      -9.069  11.949  67.100  1.00  0.00    -0.173 NA 
BRANCH  11  15
HETATM   15  C   UNL     1     -10.673   9.580  69.446  1.00  0.00    -0.225 A  
HETATM   16  C   UNL     1     -10.771   8.187  69.398  1.00  0.00    -0.164 A  
HETATM   17  C   UNL     1     -10.402   7.132  68.516  1.00  0.00    -0.203 A  
HETATM   18  C   UNL     1     -10.758   5.940  69.113  1.00  0.00    -0.324 A  
HETATM   19  N   UNL     1     -11.323   6.234  70.326  1.00  0.00    -0.384 NA 
HETATM   20  C   UNL     1     -11.331   7.588  70.517  1.00  0.00    -0.260 A  
HETATM   21  H   UNL     1     -11.684   5.545  70.987  1.00  0.00     0.000 HD 
HETATM   22  N   UNL     1     -11.793   8.196  71.620  1.00  0.00    -0.278 NA 
HETATM   23  C   UNL     1     -11.641   9.528  71.552  1.00  0.00    -0.395 A  
HETATM   24  N   UNL     1     -11.111  10.248  70.546  1.00  0.00    -0.315 NA 
ENDBRANCH  11  15
ENDBRANCH   4  10
ENDBRANCH   3   4
TORSDOF 4
ENDMDL
MODEL      215
REMARK 921   NORMALIZED FREE ENERGY PREDICTED BY IDOCK:   -4.14 KCAL/MOL
REMARK 922        TOTAL FREE ENERGY PREDICTED BY IDOCK:   -5.52 KCAL/MOL
REMARK 923 INTER-LIGAND FREE ENERGY PREDICTED BY IDOCK:   -4.99 KCAL/MOL
REMARK 924 INTRA-LIGAND FREE ENERGY PREDICTED BY IDOCK:   -0.53 KCAL/MOL
REMARK 927      BINDING AFFINITY PREDICTED BY RF-SCORE:    0.00 PKD
ROOT
HETATM    1  N   UNL     1      -8.937  11.740  66.816  1.00  0.00    -0.191 NA 
HETATM    2  C   UNL     1      -8.912  11.332  67.901  1.00  0.00    -0.146 C  
HETATM    3  C   UNL     1      -8.839  10.767  69.257  1.00  0.00    -0.039 C  
ENDROOT
BRANCH   3   4
HETATM    4  C   UNL     1      -9.900   9.660  69.496  1.00  0.00    -0.206 C  
BRANCH   4   5
HETATM    5  C   UNL     1     -10.780   9.961  70.756  1.00  0.00    -0.350 C  
HETATM    6  C   UNL     1     -11.532   8.753  71.346  1.00  0.00    -0.366 C  
HETATM    7  C   UNL     1     -12.838   9.268  71.939  1.00  0.00    -0.485 C  
HETATM    8  C   UNL     1     -11.928  10.945  70.484  1.00  0.00    -0.466 C  
HETATM    9  C   UNL     1     -12.858  10.760  71.672  1.00  0.00    -0.562 C  
ENDBRANCH   4   5
BRANCH   4  10
HETATM   10  N   UNL     1      -9.273   8.327  69.461  1.00  0.00    -0.157 NA 
HETATM   11  C   UNL     1      -8.856   6.164  69.284  1.00  0.00    -0.124 A  
HETATM   12  C   UNL     1      -9.805   7.138  69.068  1.00  0.00    -0.156 A  
HETATM   13  C   UNL     1      -7.727   6.893  69.698  1.00  0.00    -0.110 A  
HETATM   14  N   UNL     1      -7.961   8.207  69.770  1.00  0.00    -0.108 NA 
BRANCH  11  15
HETATM   15  C   UNL     1      -9.126   4.760  69.097  1.00  0.00    -0.110 A  
HETATM   16  C   UNL     1      -9.193   4.182  67.827  1.00  0.00    -0.187 A  
HETATM   17  C   UNL     1      -9.102   4.599  66.469  1.00  0.00    -0.123 A  
HETATM   18  C   UNL     1      -9.209   3.476  65.675  1.00  0.00    -0.158 A  
HETATM   19  N   UNL     1      -9.356   2.393  66.501  1.00  0.00    -0.367 NA 
HETATM   20  C   UNL     1      -9.341   2.801  67.806  1.00  0.00    -0.190 A  
HETATM   21  H   UNL     1      -9.461   1.427  66.190  1.00  0.00     0.000 HD 
HETATM   22  N   UNL     1      -9.434   1.977  68.860  1.00  0.00    -0.139 NA 
HETATM   23  C   UNL     1      -9.353   2.646  70.022  1.00  0.00    -0.122 A  
HETATM   24  N   UNL     1      -9.200   3.971  70.202  1.00  0.00    -0.125 NA 
ENDBRANCH  11  15
ENDBRANCH   4  10
ENDBRANCH   3   4
TORSDOF 4
ENDMDL
MODEL      216
REMARK 921   NORMALIZED FREE ENERGY PREDICTED BY IDOCK:   -4.14 KCAL/MOL
REMARK 922        TOTAL FREE ENERGY PREDICTED BY IDOCK:   -5.52 KCAL/MOL
REMARK 923 INTER-LIGAND FREE ENERGY PREDICTED BY IDOCK:   -4.97 KCAL/MOL
REMARK 924 INTRA-LIGAND FREE ENERGY PREDICTED BY IDOCK:   -0.55 KCAL/MOL
REMARK 927      BINDING AFFINITY PREDICTED BY RF-SCORE:    0.00 PKD
ROOT
HETATM    1  N   UNL     1      -9.726   4.392  63.873  1.00  0.00    -0.063 NA 
HETATM    2  C   UNL     1      -8.754   4.807  64.350  1.00  0.00    -0.149 C  
HETATM    3  C   UNL     1      -7.517   5.281  64.990  1.00  0.00    -0.073 C  
ENDROOT
BRANCH   3   4
HETATM    4  C   UNL     1      -7.791   6.070  66.298  1.00  0.00    -0.104 C  
BRANCH   4   5
HETATM    5  C   UNL     1      -8.889   5.376  67.174  1.00  0.00    -0.109 C  
HETATM    6  C   UNL     1      -9.260   6.108  68.478  1.00  0.00    -0.115 C  
HETATM    7  C   UNL     1      -9.638   5.050  69.509  1.00  0.00    -0.237 C  
HETATM    8  C   UNL     1      -8.475   3.991  67.696  1.00  0.00    -0.104 C  
HETATM    9  C   UNL     1      -9.464   3.712  68.817  1.00  0.00    -0.214 C  
ENDBRANCH   4   5
BRANCH   4  10
HETATM   10  N   UNL     1      -8.018   7.495  66.005  1.00  0.00    -0.107 NA 
HETATM   11  C   UNL     1      -8.892   9.465  65.515  1.00  0.00    -0.220 A  
HETATM   12  C   UNL     1      -9.193   8.163  65.848  1.00  0.00    -0.097 A  
HETATM   13  C   UNL     1      -7.491   9.515  65.619  1.00  0.00    -0.094 A  
HETATM   14  N   UNL     1      -6.958   8.335  65.952  1.00  0.00    -0.064 NA 
BRANCH  11  15
HETATM   15  C   UNL     1      -9.902  10.428  65.151  1.00  0.00    -0.313 A  
HETATM   16  C   UNL     1     -10.651  11.114  66.109  1.00  0.00    -0.305 A  
HETATM   17  C   UNL     1     -10.777  11.148  67.527  1.00  0.00    -0.280 A  
HETATM   18  C   UNL     1     -11.697  12.125  67.845  1.00  0.00    -0.336 A  
HETATM   19  N   UNL     1     -12.128  12.690  66.674  1.00  0.00    -0.539 NA 
HETATM   20  C   UNL     1     -11.500  12.096  65.615  1.00  0.00    -0.355 A  
HETATM   21  H   UNL     1     -12.815  13.441  66.602  1.00  0.00     0.000 HD 
HETATM   22  N   UNL     1     -11.682  12.442  64.332  1.00  0.00    -0.346 NA 
HETATM   23  C   UNL     1     -10.908  11.718  63.508  1.00  0.00    -0.426 A  
HETATM   24  N   UNL     1     -10.036  10.747  63.836  1.00  0.00    -0.321 NA 
ENDBRANCH  11  15
ENDBRANCH   4  10
ENDBRANCH   3   4
TORSDOF 4
ENDMDL
MODEL      217
REMARK 921   NORMALIZED FREE ENERGY PREDICTED BY IDOCK:   -4.06 KCAL/MOL
REMARK 922        TOTAL FREE ENERGY PREDICTED BY IDOCK:   -5.41 KCAL/MOL
REMARK 923 INTER-LIGAND FREE ENERGY PREDICTED BY IDOCK:   -4.62 KCAL/MOL
REMARK 924 INTRA-LIGAND FREE ENERGY PREDICTED BY IDOCK:   -0.79 KCAL/MOL
REMARK 927      BINDING AFFINITY PREDICTED BY RF-SCORE:    0.00 PKD
ROOT
HETATM    1  N   UNL     1     -12.249  15.741  69.454  1.00  0.00    -0.238 NA 
HETATM    2  C   UNL     1     -11.639  15.812  68.471  1.00  0.00    -0.362 C  
HETATM    3  C   UNL     1     -10.885  15.844  67.208  1.00  0.00    -0.279 C  
ENDROOT
BRANCH   3   4
HETATM    4  C   UNL     1      -9.463  15.239  67.352  1.00  0.00    -0.199 C  
BRANCH   4   5
HETATM    5  C   UNL     1      -8.438  15.931  66.390  1.00  0.00    -0.348 C  
HETATM    6  C   UNL     1      -6.966  15.886  66.842  1.00  0.00    -0.077 C  
HETATM    7  C   UNL     1      -6.291  17.158  66.344  1.00  0.00    -0.217 C  
HETATM    8  C   UNL     1      -8.671  17.441  66.227  1.00  0.00    -0.242 C  
HETATM    9  C   UNL     1      -7.369  17.950  65.630  1.00  0.00     0.007 C  
ENDBRANCH   4   5
BRANCH   4  10
HETATM   10  N   UNL     1      -9.516  13.769  67.273  1.00  0.00    -0.228 NA 
HETATM   11  C   UNL     1      -9.329  11.599  67.649  1.00  0.00    -0.178 A  
HETATM   12  C   UNL     1      -9.175  12.846  68.212  1.00  0.00    -0.187 A  
HETATM   13  C   UNL     1      -9.895  11.876  66.391  1.00  0.00    -0.213 A  
HETATM   14  N   UNL     1     -10.046  13.186  66.172  1.00  0.00    -0.286 NA 
BRANCH  11  15
HETATM   15  C   UNL     1      -8.936  10.386  68.323  1.00  0.00    -0.135 A  
HETATM   16  C   UNL     1      -9.765   9.750  69.248  1.00  0.00    -0.204 A  
HETATM   17  C   UNL     1     -11.039   9.963  69.848  1.00  0.00    -0.318 A  
HETATM   18  C   UNL     1     -11.303   8.888  70.670  1.00  0.00    -0.259 A  
HETATM   19  N   UNL     1     -10.240   8.028  70.587  1.00  0.00    -0.195 NA 
HETATM   20  C   UNL     1      -9.305   8.530  69.725  1.00  0.00    -0.161 A  
HETATM   21  H   UNL     1     -10.158   7.145  71.092  1.00  0.00     0.000 HD 
HETATM   22  N   UNL     1      -8.159   7.912  69.404  1.00  0.00    -0.123 NA 
HETATM   23  C   UNL     1      -7.450   8.616  68.506  1.00  0.00    -0.093 A  
HETATM   24  N   UNL     1      -7.768   9.798  67.948  1.00  0.00    -0.087 NA 
ENDBRANCH  11  15
ENDBRANCH   4  10
ENDBRANCH   3   4
TORSDOF 4
ENDMDL
MODEL      218
REMARK 921   NORMALIZED FREE ENERGY PREDICTED BY IDOCK:   -4.05 KCAL/MOL
REMARK 922        TOTAL FREE ENERGY PREDICTED BY IDOCK:   -5.41 KCAL/MOL
REMARK 923 INTER-LIGAND FREE ENERGY PREDICTED BY IDOCK:   -4.99 KCAL/MOL
REMARK 924 INTRA-LIGAND FREE ENERGY PREDICTED BY IDOCK:   -0.42 KCAL/MOL
REMARK 927      BINDING AFFINITY PREDICTED BY RF-SCORE:    0.00 PKD
ROOT
HETATM    1  N   UNL     1      -9.327   2.356  69.063  1.00  0.00    -0.149 NA 
HETATM    2  C   UNL     1      -9.422   3.358  69.637  1.00  0.00    -0.153 C  
HETATM    3  C   UNL     1      -9.583   4.652  70.319  1.00  0.00    -0.270 C  
ENDROOT
BRANCH   3   4
HETATM    4  C   UNL     1      -8.555   5.708  69.836  1.00  0.00    -0.125 C  
BRANCH   4   5
HETATM    5  C   UNL     1      -7.334   5.818  70.811  1.00  0.00    -0.084 C  
HETATM    6  C   UNL     1      -7.684   5.903  72.309  1.00  0.00    -0.102 C  
HETATM    7  C   UNL     1      -6.619   6.760  72.984  1.00  0.00    -0.067 C  
HETATM    8  C   UNL     1      -6.499   7.093  70.611  1.00  0.00    -0.043 C  
HETATM    9  C   UNL     1      -5.672   7.193  71.882  1.00  0.00    -0.037 C  
ENDBRANCH   4   5
BRANCH   4  10
HETATM   10  N   UNL     1      -9.230   6.978  69.517  1.00  0.00    -0.149 NA 
HETATM   11  C   UNL     1     -10.430   8.833  69.564  1.00  0.00    -0.222 A  
HETATM   12  C   UNL     1      -9.927   7.810  70.336  1.00  0.00    -0.188 A  
HETATM   13  C   UNL     1      -9.869   8.593  68.297  1.00  0.00    -0.165 A  
HETATM   14  N   UNL     1      -9.110   7.493  68.271  1.00  0.00    -0.133 NA 
BRANCH  11  15
HETATM   15  C   UNL     1     -11.328   9.833  70.087  1.00  0.00    -0.251 A  
HETATM   16  C   UNL     1     -12.282   9.535  71.063  1.00  0.00    -0.385 A  
HETATM   17  C   UNL     1     -12.736   8.394  71.783  1.00  0.00    -0.373 A  
HETATM   18  C   UNL     1     -13.707   8.813  72.669  1.00  0.00    -0.293 A  
HETATM   19  N   UNL     1     -13.853  10.167  72.517  1.00  0.00    -0.465 NA 
HETATM   20  C   UNL     1     -12.993  10.621  71.555  1.00  0.00    -0.461 A  
HETATM   21  H   UNL     1     -14.506  10.750  73.042  1.00  0.00     0.000 HD 
HETATM   22  N   UNL     1     -12.871  11.905  71.191  1.00  0.00    -0.311 NA 
HETATM   23  C   UNL     1     -11.924  12.067  70.252  1.00  0.00    -0.314 A  
HETATM   24  N   UNL     1     -11.151  11.121  69.689  1.00  0.00    -0.250 NA 
ENDBRANCH  11  15
ENDBRANCH   4  10
ENDBRANCH   3   4
TORSDOF 4
ENDMDL
MODEL      219
REMARK 921   NORMALIZED FREE ENERGY PREDICTED BY IDOCK:   -4.04 KCAL/MOL
REMARK 922        TOTAL FREE ENERGY PREDICTED BY IDOCK:   -5.39 KCAL/MOL
REMARK 923 INTER-LIGAND FREE ENERGY PREDICTED BY IDOCK:   -4.85 KCAL/MOL
REMARK 924 INTRA-LIGAND FREE ENERGY PREDICTED BY IDOCK:   -0.54 KCAL/MOL
REMARK 927      BINDING AFFINITY PREDICTED BY RF-SCORE:    0.00 PKD
ROOT
HETATM    1  N   UNL     1      -9.351   2.338  69.061  1.00  0.00    -0.145 NA 
HETATM    2  C   UNL     1      -9.455   3.325  69.660  1.00  0.00    -0.139 C  
HETATM    3  C   UNL     1      -9.630   4.598  70.377  1.00  0.00    -0.271 C  
ENDROOT
BRANCH   3   4
HETATM    4  C   UNL     1      -8.687   5.711  69.848  1.00  0.00    -0.125 C  
BRANCH   4   5
HETATM    5  C   UNL     1      -7.378   5.816  70.702  1.00  0.00    -0.084 C  
HETATM    6  C   UNL     1      -7.578   5.813  72.230  1.00  0.00    -0.101 C  
HETATM    7  C   UNL     1      -6.479   6.674  72.841  1.00  0.00    -0.066 C  
HETATM    8  C   UNL     1      -6.608   7.128  70.488  1.00  0.00    -0.048 C  
HETATM    9  C   UNL     1      -5.661   7.195  71.675  1.00  0.00    -0.036 C  
ENDBRANCH   4   5
BRANCH   4  10
HETATM   10  N   UNL     1      -9.427   6.970  69.661  1.00  0.00    -0.148 NA 
HETATM   11  C   UNL     1     -10.631   8.804  69.930  1.00  0.00    -0.230 A  
HETATM   12  C   UNL     1      -9.986   7.785  70.595  1.00  0.00    -0.186 A  
HETATM   13  C   UNL     1     -10.293   8.581  68.584  1.00  0.00    -0.198 A  
HETATM   14  N   UNL     1      -9.533   7.494  68.417  1.00  0.00    -0.148 NA 
BRANCH  11  15
HETATM   15  C   UNL     1     -11.442   9.785  70.609  1.00  0.00    -0.324 A  
HETATM   16  C   UNL     1     -11.494  11.117  70.194  1.00  0.00    -0.361 A  
HETATM   17  C   UNL     1     -10.893  11.939  69.199  1.00  0.00    -0.196 A  
HETATM   18  C   UNL     1     -11.443  13.200  69.305  1.00  0.00    -0.291 A  
HETATM   19  N   UNL     1     -12.359  13.171  70.324  1.00  0.00    -0.287 NA 
HETATM   20  C   UNL     1     -12.408  11.917  70.867  1.00  0.00    -0.300 A  
HETATM   21  H   UNL     1     -12.920  13.966  70.631  1.00  0.00     0.000 HD 
HETATM   22  N   UNL     1     -13.227  11.554  71.865  1.00  0.00    -0.456 NA 
HETATM   23  C   UNL     1     -13.089  10.254  72.171  1.00  0.00    -0.343 A  
HETATM   24  N   UNL     1     -12.260   9.357  71.607  1.00  0.00    -0.365 NA 
ENDBRANCH  11  15
ENDBRANCH   4  10
ENDBRANCH   3   4
TORSDOF 4
ENDMDL
MODEL      220
REMARK 921   NORMALIZED FREE ENERGY PREDICTED BY IDOCK:   -4.02 KCAL/MOL
REMARK 922        TOTAL FREE ENERGY PREDICTED BY IDOCK:   -5.36 KCAL/MOL
REMARK 923 INTER-LIGAND FREE ENERGY PREDICTED BY IDOCK:   -5.44 KCAL/MOL
REMARK 924 INTRA-LIGAND FREE ENERGY PREDICTED BY IDOCK:    0.07 KCAL/MOL
REMARK 927      BINDING AFFINITY PREDICTED BY RF-SCORE:    0.00 PKD
ROOT
HETATM    1  N   UNL     1      -6.931   6.178  70.176  1.00  0.00    -0.060 NA 
HETATM    2  C   UNL     1      -8.023   6.380  70.509  1.00  0.00    -0.112 C  
HETATM    3  C   UNL     1      -9.423   6.575  70.915  1.00  0.00    -0.179 C  
ENDROOT
BRANCH   3   4
HETATM    4  C   UNL     1     -10.320   7.049  69.742  1.00  0.00    -0.212 C  
BRANCH   4   5
HETATM    5  C   UNL     1      -9.907   6.379  68.388  1.00  0.00    -0.141 C  
HETATM    6  C   UNL     1     -10.941   6.482  67.250  1.00  0.00    -0.475 C  
HETATM    7  C   UNL     1     -10.814   5.226  66.396  1.00  0.00    -0.198 C  
HETATM    8  C   UNL     1      -9.703   4.859  68.491  1.00  0.00    -0.218 C  
HETATM    9  C   UNL     1      -9.732   4.386  67.046  1.00  0.00    -0.232 C  
ENDBRANCH   4   5
BRANCH   4  10
HETATM   10  N   UNL     1     -10.412   8.519  69.721  1.00  0.00    -0.218 NA 
HETATM   11  C   UNL     1     -11.000  10.629  70.012  1.00  0.00    -0.325 A  
HETATM   12  C   UNL     1     -11.240   9.338  70.424  1.00  0.00    -0.247 A  
HETATM   13  C   UNL     1      -9.908  10.496  69.137  1.00  0.00    -0.218 A  
HETATM   14  N   UNL     1      -9.522   9.225  68.985  1.00  0.00    -0.153 NA 
BRANCH  11  15
HETATM   15  C   UNL     1     -11.792  11.748  70.460  1.00  0.00    -0.192 A  
HETATM   16  C   UNL     1     -11.649  13.024  69.910  1.00  0.00    -0.249 A  
HETATM   17  C   UNL     1     -10.835  13.671  68.937  1.00  0.00    -0.264 A  
HETATM   18  C   UNL     1     -11.261  14.978  68.832  1.00  0.00    -0.277 A  
HETATM   19  N   UNL     1     -12.308  15.147  69.701  1.00  0.00    -0.547 NA 
HETATM   20  C   UNL     1     -12.560  13.973  70.355  1.00  0.00    -0.308 A  
HETATM   21  H   UNL     1     -12.821  16.018  69.840  1.00  0.00     0.000 HD 
HETATM   22  N   UNL     1     -13.541  13.799  71.252  1.00  0.00    -0.178 NA 
HETATM   23  C   UNL     1     -13.582  12.536  71.705  1.00  0.00    -0.040 A  
HETATM   24  N   UNL     1     -12.780  11.511  71.363  1.00  0.00    -0.393 NA 
ENDBRANCH  11  15
ENDBRANCH   4  10
ENDBRANCH   3   4
TORSDOF 4
ENDMDL
MODEL      221
REMARK 921   NORMALIZED FREE ENERGY PREDICTED BY IDOCK:   -3.97 KCAL/MOL
REMARK 922        TOTAL FREE ENERGY PREDICTED BY IDOCK:   -5.31 KCAL/MOL
REMARK 923 INTER-LIGAND FREE ENERGY PREDICTED BY IDOCK:   -4.50 KCAL/MOL
REMARK 924 INTRA-LIGAND FREE ENERGY PREDICTED BY IDOCK:   -0.81 KCAL/MOL
REMARK 927      BINDING AFFINITY PREDICTED BY RF-SCORE:    0.00 PKD
ROOT
HETATM    1  N   UNL     1      -6.064  12.620  68.827  1.00  0.00    -0.066 NA 
HETATM    2  C   UNL     1      -6.126  11.564  68.353  1.00  0.00    -0.045 C  
HETATM    3  C   UNL     1      -6.259  10.242  67.723  1.00  0.00    -0.056 C  
ENDROOT
BRANCH   3   4
HETATM    4  C   UNL     1      -7.063   9.246  68.600  1.00  0.00    -0.070 C  
BRANCH   4   5
HETATM    5  C   UNL     1      -6.791   7.759  68.189  1.00  0.00    -0.068 C  
HETATM    6  C   UNL     1      -6.816   7.472  66.676  1.00  0.00    -0.066 C  
HETATM    7  C   UNL     1      -7.331   6.050  66.485  1.00  0.00    -0.081 C  
HETATM    8  C   UNL     1      -7.846   6.772  68.715  1.00  0.00    -0.111 C  
HETATM    9  C   UNL     1      -7.629   5.524  67.875  1.00  0.00    -0.085 C  
ENDBRANCH   4   5
BRANCH   4  10
HETATM   10  N   UNL     1      -8.482   9.639  68.662  1.00  0.00    -0.117 NA 
HETATM   11  C   UNL     1     -10.532  10.154  69.305  1.00  0.00    -0.246 A  
HETATM   12  C   UNL     1      -9.255   9.897  69.751  1.00  0.00    -0.227 A  
HETATM   13  C   UNL     1     -10.398  10.150  67.906  1.00  0.00    -0.194 A  
HETATM   14  N   UNL     1      -9.151   9.876  67.509  1.00  0.00    -0.134 NA 
BRANCH  11  15
HETATM   15  C   UNL     1     -11.645  10.345  70.202  1.00  0.00    -0.312 A  
HETATM   16  C   UNL     1     -12.262   9.276  70.855  1.00  0.00    -0.264 A  
HETATM   17  C   UNL     1     -12.150   7.857  70.899  1.00  0.00    -0.181 A  
HETATM   18  C   UNL     1     -13.060   7.390  71.824  1.00  0.00    -0.317 A  
HETATM   19  N   UNL     1     -13.716   8.474  72.348  1.00  0.00    -0.597 NA 
HETATM   20  C   UNL     1     -13.240   9.622  71.778  1.00  0.00    -0.430 A  
HETATM   21  H   UNL     1     -14.449   8.430  73.056  1.00  0.00     0.000 HD 
HETATM   22  N   UNL     1     -13.656  10.856  72.097  1.00  0.00    -0.165 NA 
HETATM   23  C   UNL     1     -12.989  11.798  71.409  1.00  0.00    -0.306 A  
HETATM   24  N   UNL     1     -12.017  11.619  70.497  1.00  0.00    -0.359 NA 
ENDBRANCH  11  15
ENDBRANCH   4  10
ENDBRANCH   3   4
TORSDOF 4
ENDMDL
MODEL      222
REMARK 921   NORMALIZED FREE ENERGY PREDICTED BY IDOCK:   -3.95 KCAL/MOL
REMARK 922        TOTAL FREE ENERGY PREDICTED BY IDOCK:   -5.29 KCAL/MOL
REMARK 923 INTER-LIGAND FREE ENERGY PREDICTED BY IDOCK:   -4.92 KCAL/MOL
REMARK 924 INTRA-LIGAND FREE ENERGY PREDICTED BY IDOCK:   -0.37 KCAL/MOL
REMARK 927      BINDING AFFINITY PREDICTED BY RF-SCORE:    0.00 PKD
ROOT
HETATM    1  N   UNL     1      -8.373  18.973  68.485  1.00  0.00    -0.342 NA 
HETATM    2  C   UNL     1      -8.113  17.871  68.236  1.00  0.00    -0.293 C  
HETATM    3  C   UNL     1      -7.789  16.487  67.857  1.00  0.00    -0.162 C  
ENDROOT
BRANCH   3   4
HETATM    4  C   UNL     1      -9.054  15.599  67.718  1.00  0.00    -0.181 C  
BRANCH   4   5
HETATM    5  C   UNL     1     -10.167  16.011  68.740  1.00  0.00    -0.225 C  
HETATM    6  C   UNL     1     -10.063  15.363  70.134  1.00  0.00    -0.156 C  
HETATM    7  C   UNL     1     -11.480  15.188  70.668  1.00  0.00    -0.345 C  
HETATM    8  C   UNL     1     -11.583  15.599  68.306  1.00  0.00    -0.326 C  
HETATM    9  C   UNL     1     -12.402  15.706  69.582  1.00  0.00    -0.178 C  
ENDBRANCH   4   5
BRANCH   4  10
HETATM   10  N   UNL     1      -8.687  14.173  67.717  1.00  0.00    -0.172 NA 
HETATM   11  C   UNL     1      -8.684  11.965  67.823  1.00  0.00    -0.158 A  
HETATM   12  C   UNL     1      -9.493  13.079  67.781  1.00  0.00    -0.209 A  
HETATM   13  C   UNL     1      -7.392  12.492  67.651  1.00  0.00    -0.134 A  
HETATM   14  N   UNL     1      -7.390  13.825  67.548  1.00  0.00    -0.174 NA 
BRANCH  11  15
HETATM   15  C   UNL     1      -9.203  10.634  68.021  1.00  0.00    -0.148 A  
HETATM   16  C   UNL     1     -10.228  10.366  68.931  1.00  0.00    -0.220 A  
HETATM   17  C   UNL     1     -11.010  11.080  69.883  1.00  0.00    -0.218 A  
HETATM   18  C   UNL     1     -11.917  10.197  70.430  1.00  0.00    -0.267 A  
HETATM   19  N   UNL     1     -11.718   8.975  69.842  1.00  0.00    -0.413 NA 
HETATM   20  C   UNL     1     -10.705   9.062  68.927  1.00  0.00    -0.123 A  
HETATM   21  H   UNL     1     -12.246   8.128  70.054  1.00  0.00     0.000 HD 
HETATM   22  N   UNL     1     -10.286   8.045  68.160  1.00  0.00    -0.201 NA 
HETATM   23  C   UNL     1      -9.304   8.425  67.326  1.00  0.00    -0.146 A  
HETATM   24  N   UNL     1      -8.748   9.644  67.207  1.00  0.00    -0.132 NA 
ENDBRANCH  11  15
ENDBRANCH   4  10
ENDBRANCH   3   4
TORSDOF 4
ENDMDL
MODEL      223
REMARK 921   NORMALIZED FREE ENERGY PREDICTED BY IDOCK:   -3.93 KCAL/MOL
REMARK 922        TOTAL FREE ENERGY PREDICTED BY IDOCK:   -5.26 KCAL/MOL
REMARK 923 INTER-LIGAND FREE ENERGY PREDICTED BY IDOCK:   -4.69 KCAL/MOL
REMARK 924 INTRA-LIGAND FREE ENERGY PREDICTED BY IDOCK:   -0.57 KCAL/MOL
REMARK 927      BINDING AFFINITY PREDICTED BY RF-SCORE:    0.00 PKD
ROOT
HETATM    1  N   UNL     1      -9.225   8.505  72.777  1.00  0.00    -0.293 NA 
HETATM    2  C   UNL     1     -10.078   8.741  72.028  1.00  0.00    -0.327 C  
HETATM    3  C   UNL     1     -11.164   8.976  71.064  1.00  0.00    -0.361 C  
ENDROOT
BRANCH   3   4
HETATM    4  C   UNL     1     -10.638   9.197  69.621  1.00  0.00    -0.228 C  
BRANCH   4   5
HETATM    5  C   UNL     1     -11.469  10.286  68.862  1.00  0.00    -0.190 C  
HETATM    6  C   UNL     1     -10.983  10.621  67.438  1.00  0.00    -0.361 C  
HETATM    7  C   UNL     1     -11.288  12.091  67.180  1.00  0.00    -0.396 C  
HETATM    8  C   UNL     1     -11.437  11.666  69.537  1.00  0.00    -0.371 C  
HETATM    9  C   UNL     1     -11.922  12.616  68.454  1.00  0.00    -0.268 C  
ENDBRANCH   4   5
BRANCH   4  10
HETATM   10  N   UNL     1     -10.489   7.909  68.923  1.00  0.00    -0.211 NA 
HETATM   11  C   UNL     1      -9.843   6.245  67.619  1.00  0.00    -0.135 A  
HETATM   12  C   UNL     1      -9.509   7.502  68.071  1.00  0.00    -0.142 A  
HETATM   13  C   UNL     1     -10.994   5.925  68.361  1.00  0.00    -0.178 A  
HETATM   14  N   UNL     1     -11.369   6.913  69.180  1.00  0.00    -0.098 NA 
BRANCH  11  15
HETATM   15  C   UNL     1      -9.089   5.559  66.599  1.00  0.00    -0.126 A  
HETATM   16  C   UNL     1      -8.908   4.175  66.617  1.00  0.00    -0.119 A  
HETATM   17  C   UNL     1      -9.250   3.074  67.453  1.00  0.00    -0.225 A  
HETATM   18  C   UNL     1      -8.796   1.924  66.843  1.00  0.00    -0.127 A  
HETATM   19  N   UNL     1      -8.197   2.284  65.665  1.00  0.00    -0.085 NA 
HETATM   20  C   UNL     1      -8.263   3.641  65.509  1.00  0.00    -0.097 A  
HETATM   21  H   UNL     1      -7.766   1.638  65.003  1.00  0.00     0.000 HD 
HETATM   22  N   UNL     1      -7.792   4.307  64.444  1.00  0.00    -0.084 NA 
HETATM   23  C   UNL     1      -8.028   5.625  64.539  1.00  0.00    -0.124 A  
HETATM   24  N   UNL     1      -8.645   6.283  65.538  1.00  0.00    -0.144 NA 
ENDBRANCH  11  15
ENDBRANCH   4  10
ENDBRANCH   3   4
TORSDOF 4
ENDMDL
MODEL      224
REMARK 921   NORMALIZED FREE ENERGY PREDICTED BY IDOCK:   -3.93 KCAL/MOL
REMARK 922        TOTAL FREE ENERGY PREDICTED BY IDOCK:   -5.25 KCAL/MOL
REMARK 923 INTER-LIGAND FREE ENERGY PREDICTED BY IDOCK:   -5.29 KCAL/MOL
REMARK 924 INTRA-LIGAND FREE ENERGY PREDICTED BY IDOCK:    0.04 KCAL/MOL
REMARK 927      BINDING AFFINITY PREDICTED BY RF-SCORE:    0.00 PKD
ROOT
HETATM    1  N   UNL     1     -10.260  15.529  65.107  1.00  0.00    -0.377 NA 
HETATM    2  C   UNL     1     -11.150  15.025  65.654  1.00  0.00    -0.349 C  
HETATM    3  C   UNL     1     -12.285  14.440  66.384  1.00  0.00    -0.363 C  
ENDROOT
BRANCH   3   4
HETATM    4  C   UNL     1     -11.841  13.690  67.667  1.00  0.00    -0.369 C  
BRANCH   4   5
HETATM    5  C   UNL     1     -11.109  14.642  68.672  1.00  0.00    -0.276 C  
HETATM    6  C   UNL     1     -11.051  14.153  70.132  1.00  0.00     0.044 C  
HETATM    7  C   UNL     1     -11.085  15.382  71.032  1.00  0.00    -0.377 C  
HETATM    8  C   UNL     1     -11.787  16.013  68.826  1.00  0.00    -0.210 C  
HETATM    9  C   UNL     1     -11.188  16.577  70.104  1.00  0.00    -0.151 C  
ENDBRANCH   4   5
BRANCH   4  10
HETATM   10  N   UNL     1     -11.118  12.454  67.321  1.00  0.00    -0.266 NA 
HETATM   11  C   UNL     1     -10.367  10.379  67.194  1.00  0.00    -0.290 A  
HETATM   12  C   UNL     1     -11.353  11.178  67.729  1.00  0.00    -0.293 A  
HETATM   13  C   UNL     1      -9.647  11.258  66.366  1.00  0.00    -0.198 A  
HETATM   14  N   UNL     1     -10.119  12.508  66.408  1.00  0.00    -0.238 NA 
BRANCH  11  15
HETATM   15  C   UNL     1     -10.233   8.982  67.525  1.00  0.00    -0.241 A  
HETATM   16  C   UNL     1      -9.560   8.553  68.670  1.00  0.00    -0.153 A  
HETATM   17  C   UNL     1      -8.833   9.132  69.749  1.00  0.00    -0.165 A  
HETATM   18  C   UNL     1      -8.462   8.114  70.602  1.00  0.00    -0.128 A  
HETATM   19  N   UNL     1      -8.942   6.940  70.085  1.00  0.00    -0.148 NA 
HETATM   20  C   UNL     1      -9.615   7.188  68.921  1.00  0.00    -0.142 A  
HETATM   21  H   UNL     1      -8.816   6.018  70.505  1.00  0.00     0.000 HD 
HETATM   22  N   UNL     1     -10.229   6.251  68.184  1.00  0.00    -0.152 NA 
HETATM   23  C   UNL     1     -10.842   6.783  67.115  1.00  0.00    -0.392 A  
HETATM   24  N   UNL     1     -10.886   8.077  66.748  1.00  0.00    -0.051 NA 
ENDBRANCH  11  15
ENDBRANCH   4  10
ENDBRANCH   3   4
TORSDOF 4
ENDMDL
MODEL      225
REMARK 921   NORMALIZED FREE ENERGY PREDICTED BY IDOCK:   -3.88 KCAL/MOL
REMARK 922        TOTAL FREE ENERGY PREDICTED BY IDOCK:   -5.20 KCAL/MOL
REMARK 923 INTER-LIGAND FREE ENERGY PREDICTED BY IDOCK:   -4.90 KCAL/MOL
REMARK 924 INTRA-LIGAND FREE ENERGY PREDICTED BY IDOCK:   -0.31 KCAL/MOL
REMARK 927      BINDING AFFINITY PREDICTED BY RF-SCORE:    0.00 PKD
ROOT
HETATM    1  N   UNL     1      -6.692   7.362  64.137  1.00  0.00    -0.047 NA 
HETATM    2  C   UNL     1      -7.127   8.309  64.645  1.00  0.00    -0.080 C  
HETATM    3  C   UNL     1      -7.683   9.477  65.345  1.00  0.00    -0.109 C  
ENDROOT
BRANCH   3   4
HETATM    4  C   UNL     1      -9.234   9.503  65.316  1.00  0.00    -0.247 C  
BRANCH   4   5
HETATM    5  C   UNL     1      -9.785  10.944  65.047  1.00  0.00    -0.319 C  
HETATM    6  C   UNL     1     -11.051  11.331  65.834  1.00  0.00    -0.168 C  
HETATM    7  C   UNL     1     -11.865  12.280  64.963  1.00  0.00    -0.412 C  
HETATM    8  C   UNL     1     -10.236  11.170  63.595  1.00  0.00    -0.444 C  
HETATM    9  C   UNL     1     -11.090  12.425  63.668  1.00  0.00    -0.535 C  
ENDBRANCH   4   5
BRANCH   4  10
HETATM   10  N   UNL     1      -9.785   8.822  66.499  1.00  0.00    -0.237 NA 
HETATM   11  C   UNL     1     -10.384   8.236  68.544  1.00  0.00    -0.230 A  
HETATM   12  C   UNL     1      -9.845   9.252  67.788  1.00  0.00    -0.171 A  
HETATM   13  C   UNL     1     -10.737   7.268  67.588  1.00  0.00    -0.224 A  
HETATM   14  N   UNL     1     -10.412   7.632  66.343  1.00  0.00     0.060 NA 
BRANCH  11  15
HETATM   15  C   UNL     1     -10.477   8.301  69.982  1.00  0.00    -0.231 A  
HETATM   16  C   UNL     1      -9.349   8.451  70.791  1.00  0.00    -0.191 A  
HETATM   17  C   UNL     1      -7.936   8.537  70.631  1.00  0.00    -0.104 A  
HETATM   18  C   UNL     1      -7.382   8.738  71.878  1.00  0.00    -0.012 A  
HETATM   19  N   UNL     1      -8.406   8.783  72.788  1.00  0.00    -0.390 NA 
HETATM   20  C   UNL     1      -9.602   8.618  72.146  1.00  0.00    -0.307 A  
HETATM   21  H   UNL     1      -8.293   8.918  73.793  1.00  0.00     0.000 HD 
HETATM   22  N   UNL     1     -10.798   8.641  72.753  1.00  0.00    -0.011 NA 
HETATM   23  C   UNL     1     -11.803   8.493  71.874  1.00  0.00    -0.341 A  
HETATM   24  N   UNL     1     -11.716   8.332  70.541  1.00  0.00    -0.143 NA 
ENDBRANCH  11  15
ENDBRANCH   4  10
ENDBRANCH   3   4
TORSDOF 4
ENDMDL
MODEL      226
REMARK 921   NORMALIZED FREE ENERGY PREDICTED BY IDOCK:   -3.88 KCAL/MOL
REMARK 922        TOTAL FREE ENERGY PREDICTED BY IDOCK:   -5.19 KCAL/MOL
REMARK 923 INTER-LIGAND FREE ENERGY PREDICTED BY IDOCK:   -5.30 KCAL/MOL
REMARK 924 INTRA-LIGAND FREE ENERGY PREDICTED BY IDOCK:    0.11 KCAL/MOL
REMARK 927      BINDING AFFINITY PREDICTED BY RF-SCORE:    0.00 PKD
ROOT
HETATM    1  N   UNL     1      -9.532  14.620  67.189  1.00  0.00    -0.221 NA 
HETATM    2  C   UNL     1      -8.800  13.861  67.670  1.00  0.00    -0.191 C  
HETATM    3  C   UNL     1      -7.832  12.904  68.229  1.00  0.00    -0.142 C  
ENDROOT
BRANCH   3   4
HETATM    4  C   UNL     1      -8.125  11.444  67.794  1.00  0.00    -0.121 C  
BRANCH   4   5
HETATM    5  C   UNL     1      -8.395  11.340  66.255  1.00  0.00    -0.142 C  
HETATM    6  C   UNL     1      -9.812  10.885  65.856  1.00  0.00    -0.285 C  
HETATM    7  C   UNL     1      -9.696  10.098  64.556  1.00  0.00    -0.361 C  
HETATM    8  C   UNL     1      -7.519  10.295  65.546  1.00  0.00    -0.149 C  
HETATM    9  C   UNL     1      -8.219  10.072  64.215  1.00  0.00    -0.166 C  
ENDBRANCH   4   5
BRANCH   4  10
HETATM   10  N   UNL     1      -9.152  10.841  68.662  1.00  0.00    -0.166 NA 
HETATM   11  C   UNL     1     -10.297   9.546  70.038  1.00  0.00    -0.284 A  
HETATM   12  C   UNL     1      -9.052   9.771  69.495  1.00  0.00    -0.216 A  
HETATM   13  C   UNL     1     -11.062  10.624  69.561  1.00  0.00    -0.274 A  
HETATM   14  N   UNL     1     -10.365  11.434  68.757  1.00  0.00    -0.206 NA 
BRANCH  11  15
HETATM   15  C   UNL     1     -10.587   8.406  70.873  1.00  0.00    -0.204 A  
HETATM   16  C   UNL     1     -11.888   8.087  71.265  1.00  0.00    -0.321 A  
HETATM   17  C   UNL     1     -13.200   8.621  71.111  1.00  0.00    -0.063 A  
HETATM   18  C   UNL     1     -14.081   7.757  71.727  1.00  0.00    -0.417 A  
HETATM   19  N   UNL     1     -13.354   6.717  72.244  1.00  0.00    -0.485 NA 
HETATM   20  C   UNL     1     -12.028   6.897  71.967  1.00  0.00    -0.306 A  
HETATM   21  H   UNL     1     -13.744   5.927  72.759  1.00  0.00     0.000 HD 
HETATM   22  N   UNL     1     -11.057   6.039  72.312  1.00  0.00    -0.263 NA 
HETATM   23  C   UNL     1      -9.854   6.449  71.878  1.00  0.00    -0.157 A  
HETATM   24  N   UNL     1      -9.565   7.564  71.183  1.00  0.00    -0.159 NA 
ENDBRANCH  11  15
ENDBRANCH   4  10
ENDBRANCH   3   4
TORSDOF 4
ENDMDL
MODEL      227
REMARK 921   NORMALIZED FREE ENERGY PREDICTED BY IDOCK:   -3.86 KCAL/MOL
REMARK 922        TOTAL FREE ENERGY PREDICTED BY IDOCK:   -5.17 KCAL/MOL
REMARK 923 INTER-LIGAND FREE ENERGY PREDICTED BY IDOCK:   -4.70 KCAL/MOL
REMARK 924 INTRA-LIGAND FREE ENERGY PREDICTED BY IDOCK:   -0.47 KCAL/MOL
REMARK 927      BINDING AFFINITY PREDICTED BY RF-SCORE:    0.00 PKD
ROOT
HETATM    1  N   UNL     1      -9.010   3.032  68.491  1.00  0.00    -0.122 NA 
HETATM    2  C   UNL     1      -9.621   3.890  68.974  1.00  0.00    -0.138 C  
HETATM    3  C   UNL     1     -10.393   5.012  69.532  1.00  0.00    -0.231 C  
ENDROOT
BRANCH   3   4
HETATM    4  C   UNL     1      -9.485   6.124  70.119  1.00  0.00    -0.159 C  
BRANCH   4   5
HETATM    5  C   UNL     1     -10.191   6.893  71.287  1.00  0.00    -0.213 C  
HETATM    6  C   UNL     1     -11.665   6.520  71.535  1.00  0.00    -0.376 C  
HETATM    7  C   UNL     1     -12.379   7.769  72.037  1.00  0.00    -0.328 C  
HETATM    8  C   UNL     1     -10.284   8.410  71.057  1.00  0.00    -0.245 C  
HETATM    9  C   UNL     1     -11.334   8.868  72.056  1.00  0.00    -0.427 C  
ENDBRANCH   4   5
BRANCH   4  10
HETATM   10  N   UNL     1      -8.937   6.966  69.042  1.00  0.00    -0.133 NA 
HETATM   11  C   UNL     1      -8.656   8.277  67.285  1.00  0.00    -0.124 A  
HETATM   12  C   UNL     1      -9.596   7.733  68.132  1.00  0.00    -0.151 A  
HETATM   13  C   UNL     1      -7.433   7.874  67.851  1.00  0.00    -0.104 A  
HETATM   14  N   UNL     1      -7.595   7.112  68.937  1.00  0.00    -0.098 NA 
BRANCH  11  15
HETATM   15  C   UNL     1      -9.013   9.046  66.119  1.00  0.00    -0.177 A  
HETATM   16  C   UNL     1      -8.630   8.661  64.832  1.00  0.00    -0.163 A  
HETATM   17  C   UNL     1      -7.865   7.627  64.222  1.00  0.00    -0.135 A  
HETATM   18  C   UNL     1      -7.928   7.807  62.856  1.00  0.00    -0.130 A  
HETATM   19  N   UNL     1      -8.707   8.908  62.614  1.00  0.00    -0.386 NA 
HETATM   20  C   UNL     1      -9.146   9.432  63.799  1.00  0.00    -0.026 A  
HETATM   21  H   UNL     1      -8.927   9.281  61.690  1.00  0.00     0.000 HD 
HETATM   22  N   UNL     1      -9.953  10.498  63.904  1.00  0.00    -0.322 NA 
HETATM   23  C   UNL     1     -10.254  10.767  65.185  1.00  0.00    -0.298 A  
HETATM   24  N   UNL     1      -9.842  10.111  66.285  1.00  0.00    -0.216 NA 
ENDBRANCH  11  15
ENDBRANCH   4  10
ENDBRANCH   3   4
TORSDOF 4
ENDMDL
MODEL      228
REMARK 921   NORMALIZED FREE ENERGY PREDICTED BY IDOCK:   -3.85 KCAL/MOL
REMARK 922        TOTAL FREE ENERGY PREDICTED BY IDOCK:   -5.15 KCAL/MOL
REMARK 923 INTER-LIGAND FREE ENERGY PREDICTED BY IDOCK:   -4.89 KCAL/MOL
REMARK 924 INTRA-LIGAND FREE ENERGY PREDICTED BY IDOCK:   -0.26 KCAL/MOL
REMARK 927      BINDING AFFINITY PREDICTED BY RF-SCORE:    0.00 PKD
ROOT
HETATM    1  N   UNL     1     -10.107  15.306  65.595  1.00  0.00    -0.346 NA 
HETATM    2  C   UNL     1     -10.889  14.458  65.711  1.00  0.00    -0.307 C  
HETATM    3  C   UNL     1     -11.921  13.424  65.890  1.00  0.00    -0.452 C  
ENDROOT
BRANCH   3   4
HETATM    4  C   UNL     1     -11.770  12.662  67.233  1.00  0.00    -0.370 C  
BRANCH   4   5
HETATM    5  C   UNL     1     -11.502  13.638  68.428  1.00  0.00    -0.346 C  
HETATM    6  C   UNL     1     -11.678  13.034  69.834  1.00  0.00    -0.326 C  
HETATM    7  C   UNL     1     -12.173  14.143  70.755  1.00  0.00    -0.435 C  
HETATM    8  C   UNL     1     -12.469  14.832  68.475  1.00  0.00     0.194 C  
HETATM    9  C   UNL     1     -12.309  15.378  69.885  1.00  0.00    -0.324 C  
ENDBRANCH   4   5
BRANCH   4  10
HETATM   10  N   UNL     1     -10.812  11.552  67.092  1.00  0.00    -0.253 NA 
HETATM   11  C   UNL     1      -9.844   9.580  66.846  1.00  0.00    -0.262 A  
HETATM   12  C   UNL     1     -11.048  10.246  66.793  1.00  0.00     0.099 A  
HETATM   13  C   UNL     1      -8.911  10.608  67.065  1.00  0.00    -0.137 A  
HETATM   14  N   UNL     1      -9.486  11.810  67.177  1.00  0.00    -0.173 NA 
BRANCH  11  15
HETATM   15  C   UNL     1      -9.740   8.149  66.705  1.00  0.00    -0.248 A  
HETATM   16  C   UNL     1      -8.667   7.545  66.046  1.00  0.00    -0.178 A  
HETATM   17  C   UNL     1      -7.497   7.948  65.342  1.00  0.00    -0.080 A  
HETATM   18  C   UNL     1      -6.812   6.809  64.975  1.00  0.00    -0.050 A  
HETATM   19  N   UNL     1      -7.519   5.730  65.437  1.00  0.00    -0.076 NA 
HETATM   20  C   UNL     1      -8.640   6.158  66.093  1.00  0.00    -0.141 A  
HETATM   21  H   UNL     1      -7.250   4.754  65.309  1.00  0.00     0.000 HD 
HETATM   22  N   UNL     1      -9.528   5.347  66.687  1.00  0.00    -0.137 NA 
HETATM   23  C   UNL     1     -10.508   6.040  67.288  1.00  0.00    -0.257 A  
HETATM   24  N   UNL     1     -10.663   7.376  67.337  1.00  0.00    -0.288 NA 
ENDBRANCH  11  15
ENDBRANCH   4  10
ENDBRANCH   3   4
TORSDOF 4
ENDMDL
MODEL      229
REMARK 921   NORMALIZED FREE ENERGY PREDICTED BY IDOCK:   -3.83 KCAL/MOL
REMARK 922        TOTAL FREE ENERGY PREDICTED BY IDOCK:   -5.14 KCAL/MOL
REMARK 923 INTER-LIGAND FREE ENERGY PREDICTED BY IDOCK:   -6.14 KCAL/MOL
REMARK 924 INTRA-LIGAND FREE ENERGY PREDICTED BY IDOCK:    1.01 KCAL/MOL
REMARK 927      BINDING AFFINITY PREDICTED BY RF-SCORE:    0.00 PKD
ROOT
HETATM    1  N   UNL     1      -7.085  15.132  69.942  1.00  0.00    -0.163 NA 
HETATM    2  C   UNL     1      -6.892  16.122  69.372  1.00  0.00    -0.214 C  
HETATM    3  C   UNL     1      -6.711  17.389  68.646  1.00  0.00    -0.201 C  
ENDROOT
BRANCH   3   4
HETATM    4  C   UNL     1      -6.740  17.199  67.106  1.00  0.00    -0.176 C  
BRANCH   4   5
HETATM    5  C   UNL     1      -6.243  18.480  66.354  1.00  0.00    -0.208 C  
HETATM    6  C   UNL     1      -7.282  19.608  66.201  1.00  0.00    -0.287 C  
HETATM    7  C   UNL     1      -6.993  20.326  64.888  1.00  0.00    -0.133 C  
HETATM    8  C   UNL     1      -5.844  18.220  64.893  1.00  0.00    -0.076 C  
HETATM    9  C   UNL     1      -5.811  19.606  64.270  1.00  0.00    -0.318 C  
ENDBRANCH   4   5
BRANCH   4  10
HETATM   10  N   UNL     1      -8.047  16.675  66.674  1.00  0.00    -0.242 NA 
HETATM   11  C   UNL     1      -9.837  15.433  66.306  1.00  0.00    -0.320 A  
HETATM   12  C   UNL     1      -8.665  15.515  67.024  1.00  0.00    -0.231 A  
HETATM   13  C   UNL     1      -9.897  16.667  65.634  1.00  0.00    -0.114 A  
HETATM   14  N   UNL     1      -8.835  17.440  65.883  1.00  0.00    -0.534 NA 
BRANCH  11  15
HETATM   15  C   UNL     1     -10.686  14.268  66.334  1.00  0.00    -0.297 A  
HETATM   16  C   UNL     1     -11.438  13.872  65.226  1.00  0.00    -0.319 A  
HETATM   17  C   UNL     1     -11.696  14.334  63.904  1.00  0.00    -0.061 A  
HETATM   18  C   UNL     1     -12.521  13.415  63.289  1.00  0.00    -0.052 A  
HETATM   19  N   UNL     1     -12.768  12.409  64.187  1.00  0.00    -0.707 NA 
HETATM   20  C   UNL     1     -12.114  12.666  65.360  1.00  0.00    -0.462 A  
HETATM   21  H   UNL     1     -13.351  11.592  64.008  1.00  0.00     0.000 HD 
HETATM   22  N   UNL     1     -12.129  11.859  66.431  1.00  0.00    -0.451 NA 
HETATM   23  C   UNL     1     -11.370  12.341  67.427  1.00  0.00    -0.325 A  
HETATM   24  N   UNL     1     -10.653  13.480  67.442  1.00  0.00    -0.251 NA 
ENDBRANCH  11  15
ENDBRANCH   4  10
ENDBRANCH   3   4
TORSDOF 4
ENDMDL
MODEL      230
REMARK 921   NORMALIZED FREE ENERGY PREDICTED BY IDOCK:   -3.82 KCAL/MOL
REMARK 922        TOTAL FREE ENERGY PREDICTED BY IDOCK:   -5.12 KCAL/MOL
REMARK 923 INTER-LIGAND FREE ENERGY PREDICTED BY IDOCK:   -5.35 KCAL/MOL
REMARK 924 INTRA-LIGAND FREE ENERGY PREDICTED BY IDOCK:    0.23 KCAL/MOL
REMARK 927      BINDING AFFINITY PREDICTED BY RF-SCORE:    0.00 PKD
ROOT
HETATM    1  N   UNL     1     -12.189  15.250  64.037  1.00  0.00    -0.571 NA 
HETATM    2  C   UNL     1     -11.246  14.806  64.545  1.00  0.00    -0.274 C  
HETATM    3  C   UNL     1     -10.070  14.183  65.172  1.00  0.00    -0.348 C  
ENDROOT
BRANCH   3   4
HETATM    4  C   UNL     1     -10.327  13.785  66.649  1.00  0.00    -0.279 C  
BRANCH   4   5
HETATM    5  C   UNL     1      -9.745  14.844  67.645  1.00  0.00    -0.212 C  
HETATM    6  C   UNL     1      -9.630  14.387  69.112  1.00  0.00     0.020 C  
HETATM    7  C   UNL     1      -9.844  15.610  69.995  1.00  0.00    -0.092 C  
HETATM    8  C   UNL     1     -10.612  16.107  67.776  1.00  0.00    -0.309 C  
HETATM    9  C   UNL     1     -10.108  16.766  69.050  1.00  0.00    -0.283 C  
ENDBRANCH   4   5
BRANCH   4  10
HETATM   10  N   UNL     1      -9.914  12.392  66.889  1.00  0.00    -0.212 NA 
HETATM   11  C   UNL     1      -9.452  10.421  67.775  1.00  0.00    -0.159 A  
HETATM   12  C   UNL     1     -10.062  11.633  68.008  1.00  0.00    -0.189 A  
HETATM   13  C   UNL     1      -9.070  10.501  66.425  1.00  0.00    -0.162 A  
HETATM   14  N   UNL     1      -9.380  11.677  65.871  1.00  0.00    -0.227 NA 
BRANCH  11  15
HETATM   15  C   UNL     1      -9.307   9.413  68.797  1.00  0.00    -0.146 A  
HETATM   16  C   UNL     1     -10.123   9.385  69.930  1.00  0.00    -0.243 A  
HETATM   17  C   UNL     1     -11.175  10.160  70.495  1.00  0.00    -0.411 A  
HETATM   18  C   UNL     1     -11.592   9.529  71.649  1.00  0.00    -0.381 A  
HETATM   19  N   UNL     1     -10.836   8.396  71.801  1.00  0.00    -0.262 NA 
HETATM   20  C   UNL     1      -9.948   8.290  70.766  1.00  0.00    -0.190 A  
HETATM   21  H   UNL     1     -10.922   7.732  72.570  1.00  0.00     0.000 HD 
HETATM   22  N   UNL     1      -9.084   7.277  70.608  1.00  0.00    -0.156 NA 
HETATM   23  C   UNL     1      -8.361   7.411  69.485  1.00  0.00    -0.132 A  
HETATM   24  N   UNL     1      -8.424   8.403  68.578  1.00  0.00    -0.131 NA 
ENDBRANCH  11  15
ENDBRANCH   4  10
ENDBRANCH   3   4
TORSDOF 4
ENDMDL
MODEL      231
REMARK 921   NORMALIZED FREE ENERGY PREDICTED BY IDOCK:   -3.81 KCAL/MOL
REMARK 922        TOTAL FREE ENERGY PREDICTED BY IDOCK:   -5.11 KCAL/MOL
REMARK 923 INTER-LIGAND FREE ENERGY PREDICTED BY IDOCK:   -5.53 KCAL/MOL
REMARK 924 INTRA-LIGAND FREE ENERGY PREDICTED BY IDOCK:    0.42 KCAL/MOL
REMARK 927      BINDING AFFINITY PREDICTED BY RF-SCORE:    0.00 PKD
ROOT
HETATM    1  N   UNL     1     -10.463  12.989  64.514  1.00  0.00    -0.381 NA 
HETATM    2  C   UNL     1     -10.414  13.583  65.508  1.00  0.00    -0.299 C  
HETATM    3  C   UNL     1     -10.294  14.361  66.751  1.00  0.00    -0.273 C  
ENDROOT
BRANCH   3   4
HETATM    4  C   UNL     1      -9.531  13.592  67.862  1.00  0.00    -0.215 C  
BRANCH   4   5
HETATM    5  C   UNL     1      -8.006  13.459  67.532  1.00  0.00    -0.186 C  
HETATM    6  C   UNL     1      -7.493  12.022  67.316  1.00  0.00    -0.158 C  
HETATM    7  C   UNL     1      -6.049  11.970  67.799  1.00  0.00    -0.081 C  
HETATM    8  C   UNL     1      -7.087  13.955  68.660  1.00  0.00    -0.110 C  
HETATM    9  C   UNL     1      -5.731  13.360  68.316  1.00  0.00    -0.098 C  
ENDBRANCH   4   5
BRANCH   4  10
HETATM   10  N   UNL     1     -10.223  12.333  68.188  1.00  0.00    -0.206 NA 
HETATM   11  C   UNL     1     -11.306  10.684  69.184  1.00  0.00    -0.338 A  
HETATM   12  C   UNL     1     -10.895  11.991  69.320  1.00  0.00    -0.076 A  
HETATM   13  C   UNL     1     -10.936  10.360  67.867  1.00  0.00    -0.297 A  
HETATM   14  N   UNL     1     -10.314  11.367  67.245  1.00  0.00    -0.192 NA 
BRANCH  11  15
HETATM   15  C   UNL     1     -11.942   9.953  70.253  1.00  0.00    -0.138 A  
HETATM   16  C   UNL     1     -11.223   9.112  71.105  1.00  0.00    -0.395 A  
HETATM   17  C   UNL     1      -9.883   8.656  71.256  1.00  0.00    -0.307 A  
HETATM   18  C   UNL     1      -9.836   7.850  72.374  1.00  0.00    -0.225 A  
HETATM   19  N   UNL     1     -11.096   7.805  72.910  1.00  0.00    -0.396 NA 
HETATM   20  C   UNL     1     -11.945   8.570  72.159  1.00  0.00    -0.383 A  
HETATM   21  H   UNL     1     -11.362   7.281  73.744  1.00  0.00     0.000 HD 
HETATM   22  N   UNL     1     -13.244   8.757  72.436  1.00  0.00    -0.403 NA 
HETATM   23  C   UNL     1     -13.826   9.584  71.552  1.00  0.00    -0.194 A  
HETATM   24  N   UNL     1     -13.259  10.191  70.494  1.00  0.00    -0.182 NA 
ENDBRANCH  11  15
ENDBRANCH   4  10
ENDBRANCH   3   4
TORSDOF 4
ENDMDL
MODEL      232
REMARK 921   NORMALIZED FREE ENERGY PREDICTED BY IDOCK:   -3.80 KCAL/MOL
REMARK 922        TOTAL FREE ENERGY PREDICTED BY IDOCK:   -5.10 KCAL/MOL
REMARK 923 INTER-LIGAND FREE ENERGY PREDICTED BY IDOCK:   -5.91 KCAL/MOL
REMARK 924 INTRA-LIGAND FREE ENERGY PREDICTED BY IDOCK:    0.81 KCAL/MOL
REMARK 927      BINDING AFFINITY PREDICTED BY RF-SCORE:    0.00 PKD
ROOT
HETATM    1  N   UNL     1     -14.159  15.942  72.725  1.00  0.00    -0.474 NA 
HETATM    2  C   UNL     1     -13.467  15.092  72.347  1.00  0.00    -0.449 C  
HETATM    3  C   UNL     1     -12.540  14.057  71.863  1.00  0.00    -0.347 C  
ENDROOT
BRANCH   3   4
HETATM    4  C   UNL     1     -12.504  13.970  70.315  1.00  0.00    -0.338 C  
BRANCH   4   5
HETATM    5  C   UNL     1     -12.511  12.485  69.817  1.00  0.00     0.067 C  
HETATM    6  C   UNL     1     -12.518  11.412  70.922  1.00  0.00    -0.478 C  
HETATM    7  C   UNL     1     -11.752  10.204  70.397  1.00  0.00    -0.390 C  
HETATM    8  C   UNL     1     -11.258  12.101  69.013  1.00  0.00    -0.314 C  
HETATM    9  C   UNL     1     -11.280  10.581  69.006  1.00  0.00    -0.316 C  
ENDBRANCH   4   5
BRANCH   4  10
HETATM   10  N   UNL     1     -11.428  14.818  69.773  1.00  0.00    -0.277 NA 
HETATM   11  C   UNL     1      -9.546  15.598  68.918  1.00  0.00    -0.224 A  
HETATM   12  C   UNL     1     -10.252  14.449  69.199  1.00  0.00    -0.127 A  
HETATM   13  C   UNL     1     -10.447  16.625  69.249  1.00  0.00    -0.333 A  
HETATM   14  N   UNL     1     -11.603  16.160  69.732  1.00  0.00    -0.291 NA 
BRANCH  11  15
HETATM   15  C   UNL     1      -8.194  15.577  68.417  1.00  0.00    -0.145 A  
HETATM   16  C   UNL     1      -7.545  14.386  68.085  1.00  0.00    -0.128 A  
HETATM   17  C   UNL     1      -7.817  12.989  68.119  1.00  0.00    -0.145 A  
HETATM   18  C   UNL     1      -6.730  12.334  67.578  1.00  0.00    -0.138 A  
HETATM   19  N   UNL     1      -5.812  13.282  67.211  1.00  0.00    -0.402 NA 
HETATM   20  C   UNL     1      -6.292  14.529  67.503  1.00  0.00    -0.008 A  
HETATM   21  H   UNL     1      -4.906  13.088  66.784  1.00  0.00     0.000 HD 
HETATM   22  N   UNL     1      -5.644  15.673  67.240  1.00  0.00    -0.335 NA 
HETATM   23  C   UNL     1      -6.367  16.746  67.598  1.00  0.00    -0.151 A  
HETATM   24  N   UNL     1      -7.590  16.768  68.158  1.00  0.00    -0.172 NA 
ENDBRANCH  11  15
ENDBRANCH   4  10
ENDBRANCH   3   4
TORSDOF 4
ENDMDL
MODEL      233
REMARK 921   NORMALIZED FREE ENERGY PREDICTED BY IDOCK:   -3.75 KCAL/MOL
REMARK 922        TOTAL FREE ENERGY PREDICTED BY IDOCK:   -5.04 KCAL/MOL
REMARK 923 INTER-LIGAND FREE ENERGY PREDICTED BY IDOCK:   -4.58 KCAL/MOL
REMARK 924 INTRA-LIGAND FREE ENERGY PREDICTED BY IDOCK:   -0.46 KCAL/MOL
REMARK 927      BINDING AFFINITY PREDICTED BY RF-SCORE:    0.00 PKD
ROOT
HETATM    1  N   UNL     1      -9.010   3.023  68.500  1.00  0.00    -0.122 NA 
HETATM    2  C   UNL     1      -9.521   3.925  69.017  1.00  0.00    -0.170 C  
HETATM    3  C   UNL     1     -10.170   5.101  69.617  1.00  0.00    -0.337 C  
ENDROOT
BRANCH   3   4
HETATM    4  C   UNL     1      -9.144   6.143  70.137  1.00  0.00    -0.152 C  
BRANCH   4   5
HETATM    5  C   UNL     1      -9.717   6.974  71.335  1.00  0.00    -0.169 C  
HETATM    6  C   UNL     1     -11.198   6.720  71.673  1.00  0.00    -0.293 C  
HETATM    7  C   UNL     1     -11.782   8.025  72.202  1.00  0.00    -0.399 C  
HETATM    8  C   UNL     1      -9.706   8.492  71.092  1.00  0.00    -0.257 C  
HETATM    9  C   UNL     1     -10.655   9.038  72.146  1.00  0.00    -0.209 C  
ENDBRANCH   4   5
BRANCH   4  10
HETATM   10  N   UNL     1      -8.597   6.932  69.020  1.00  0.00    -0.128 NA 
HETATM   11  C   UNL     1      -8.319   8.217  67.244  1.00  0.00    -0.121 A  
HETATM   12  C   UNL     1      -9.242   7.765  68.160  1.00  0.00    -0.138 A  
HETATM   13  C   UNL     1      -7.104   7.691  67.716  1.00  0.00    -0.085 A  
HETATM   14  N   UNL     1      -7.259   6.944  68.814  1.00  0.00    -0.089 NA 
BRANCH  11  15
HETATM   15  C   UNL     1      -8.684   9.024  66.105  1.00  0.00    -0.147 A  
HETATM   16  C   UNL     1      -9.109  10.347  66.241  1.00  0.00    -0.180 A  
HETATM   17  C   UNL     1      -9.366  11.272  67.292  1.00  0.00    -0.173 A  
HETATM   18  C   UNL     1      -9.725  12.474  66.717  1.00  0.00    -0.234 A  
HETATM   19  N   UNL     1      -9.688  12.314  65.357  1.00  0.00    -0.399 NA 
HETATM   20  C   UNL     1      -9.310  11.035  65.052  1.00  0.00    -0.221 A  
HETATM   21  H   UNL     1      -9.910  13.039  64.674  1.00  0.00     0.000 HD 
HETATM   22  N   UNL     1      -9.152  10.568  63.805  1.00  0.00    -0.216 NA 
HETATM   23  C   UNL     1      -8.738   9.290  63.803  1.00  0.00    -0.167 A  
HETATM   24  N   UNL     1      -8.492   8.501  64.864  1.00  0.00    -0.169 NA 
ENDBRANCH  11  15
ENDBRANCH   4  10
ENDBRANCH   3   4
TORSDOF 4
ENDMDL
MODEL      234
REMARK 921   NORMALIZED FREE ENERGY PREDICTED BY IDOCK:   -3.74 KCAL/MOL
REMARK 922        TOTAL FREE ENERGY PREDICTED BY IDOCK:   -5.03 KCAL/MOL
REMARK 923 INTER-LIGAND FREE ENERGY PREDICTED BY IDOCK:   -4.64 KCAL/MOL
REMARK 924 INTRA-LIGAND FREE ENERGY PREDICTED BY IDOCK:   -0.39 KCAL/MOL
REMARK 927      BINDING AFFINITY PREDICTED BY RF-SCORE:    0.00 PKD
ROOT
HETATM    1  N   UNL     1     -11.097   3.847  64.765  1.00  0.00    -0.130 NA 
HETATM    2  C   UNL     1     -10.117   4.465  64.802  1.00  0.00    -0.083 C  
HETATM    3  C   UNL     1      -8.840   5.194  64.840  1.00  0.00    -0.118 C  
ENDROOT
BRANCH   3   4
HETATM    4  C   UNL     1      -8.242   5.268  66.270  1.00  0.00    -0.109 C  
BRANCH   4   5
HETATM    5  C   UNL     1      -8.721   4.072  67.161  1.00  0.00    -0.118 C  
HETATM    6  C   UNL     1      -9.717   4.432  68.280  1.00  0.00    -0.171 C  
HETATM    7  C   UNL     1      -9.464   3.485  69.447  1.00  0.00    -0.234 C  
HETATM    8  C   UNL     1      -7.586   3.403  67.954  1.00  0.00    -0.064 C  
HETATM    9  C   UNL     1      -8.310   2.598  69.021  1.00  0.00    -0.084 C  
ENDBRANCH   4   5
BRANCH   4  10
HETATM   10  N   UNL     1      -8.441   6.609  66.846  1.00  0.00    -0.113 NA 
HETATM   11  C   UNL     1      -9.263   8.547  67.518  1.00  0.00    -0.151 A  
HETATM   12  C   UNL     1      -9.593   7.317  66.996  1.00  0.00    -0.166 A  
HETATM   13  C   UNL     1      -7.883   8.438  67.767  1.00  0.00    -0.107 A  
HETATM   14  N   UNL     1      -7.386   7.253  67.397  1.00  0.00    -0.089 NA 
BRANCH  11  15
HETATM   15  C   UNL     1     -10.229   9.604  67.690  1.00  0.00    -0.216 A  
HETATM   16  C   UNL     1     -10.838   9.858  68.921  1.00  0.00    -0.239 A  
HETATM   17  C   UNL     1     -10.834   9.310  70.235  1.00  0.00    -0.286 A  
HETATM   18  C   UNL     1     -11.649  10.097  71.023  1.00  0.00    -0.376 A  
HETATM   19  N   UNL     1     -12.141  11.105  70.236  1.00  0.00    -0.347 NA 
HETATM   20  C   UNL     1     -11.654  10.980  68.965  1.00  0.00    -0.323 A  
HETATM   21  H   UNL     1     -12.776  11.839  70.552  1.00  0.00     0.000 HD 
HETATM   22  N   UNL     1     -11.925  11.828  67.961  1.00  0.00    -0.583 NA 
HETATM   23  C   UNL     1     -11.281  11.484  66.834  1.00  0.00    -0.298 A  
HETATM   24  N   UNL     1     -10.456  10.439  66.642  1.00  0.00    -0.234 NA 
ENDBRANCH  11  15
ENDBRANCH   4  10
ENDBRANCH   3   4
TORSDOF 4
ENDMDL
MODEL      235
REMARK 921   NORMALIZED FREE ENERGY PREDICTED BY IDOCK:   -3.74 KCAL/MOL
REMARK 922        TOTAL FREE ENERGY PREDICTED BY IDOCK:   -5.02 KCAL/MOL
REMARK 923 INTER-LIGAND FREE ENERGY PREDICTED BY IDOCK:   -4.74 KCAL/MOL
REMARK 924 INTRA-LIGAND FREE ENERGY PREDICTED BY IDOCK:   -0.28 KCAL/MOL
REMARK 927      BINDING AFFINITY PREDICTED BY RF-SCORE:    0.00 PKD
ROOT
HETATM    1  N   UNL     1      -9.502   4.710  66.081  1.00  0.00    -0.154 NA 
HETATM    2  C   UNL     1      -8.750   5.326  65.451  1.00  0.00    -0.150 C  
HETATM    3  C   UNL     1      -7.747   6.076  64.678  1.00  0.00    -0.099 C  
ENDROOT
BRANCH   3   4
HETATM    4  C   UNL     1      -7.230   7.328  65.434  1.00  0.00    -0.066 C  
BRANCH   4   5
HETATM    5  C   UNL     1      -7.309   7.142  66.987  1.00  0.00    -0.089 C  
HETATM    6  C   UNL     1      -7.137   8.425  67.822  1.00  0.00    -0.083 C  
HETATM    7  C   UNL     1      -6.459   8.037  69.131  1.00  0.00    -0.036 C  
HETATM    8  C   UNL     1      -6.199   6.245  67.557  1.00  0.00    -0.029 C  
HETATM    9  C   UNL     1      -6.215   6.543  69.047  1.00  0.00    -0.030 C  
ENDBRANCH   4   5
BRANCH   4  10
HETATM   10  N   UNL     1      -7.864   8.549  64.907  1.00  0.00    -0.111 NA 
HETATM   11  C   UNL     1      -9.241  10.213  64.441  1.00  0.00    -0.306 A  
HETATM   12  C   UNL     1      -9.040   9.130  65.267  1.00  0.00    -0.195 A  
HETATM   13  C   UNL     1      -8.055  10.277  63.689  1.00  0.00    -0.149 A  
HETATM   14  N   UNL     1      -7.200   9.295  63.993  1.00  0.00    -0.096 NA 
BRANCH  11  15
HETATM   15  C   UNL     1     -10.456  10.990  64.458  1.00  0.00    -0.342 A  
HETATM   16  C   UNL     1     -10.966  11.542  65.635  1.00  0.00    -0.296 A  
HETATM   17  C   UNL     1     -10.643  11.557  67.022  1.00  0.00    -0.277 A  
HETATM   18  C   UNL     1     -11.562  12.365  67.660  1.00  0.00    -0.357 A  
HETATM   19  N   UNL     1     -12.426  12.845  66.711  1.00  0.00    -0.244 NA 
HETATM   20  C   UNL     1     -12.075  12.363  65.480  1.00  0.00    -0.351 A  
HETATM   21  H   UNL     1     -13.212  13.468  66.894  1.00  0.00     0.000 HD 
HETATM   22  N   UNL     1     -12.705  12.669  64.337  1.00  0.00    -0.712 NA 
HETATM   23  C   UNL     1     -12.123  12.085  63.277  1.00  0.00    -0.403 A  
HETATM   24  N   UNL     1     -11.047  11.278  63.268  1.00  0.00    -0.159 NA 
ENDBRANCH  11  15
ENDBRANCH   4  10
ENDBRANCH   3   4
TORSDOF 4
ENDMDL
MODEL      236
REMARK 921   NORMALIZED FREE ENERGY PREDICTED BY IDOCK:   -3.71 KCAL/MOL
REMARK 922        TOTAL FREE ENERGY PREDICTED BY IDOCK:   -4.99 KCAL/MOL
REMARK 923 INTER-LIGAND FREE ENERGY PREDICTED BY IDOCK:   -4.32 KCAL/MOL
REMARK 924 INTRA-LIGAND FREE ENERGY PREDICTED BY IDOCK:   -0.67 KCAL/MOL
REMARK 927      BINDING AFFINITY PREDICTED BY RF-SCORE:    0.00 PKD
ROOT
HETATM    1  N   UNL     1      -7.541   2.637  67.940  1.00  0.00    -0.056 NA 
HETATM    2  C   UNL     1      -7.490   3.675  68.453  1.00  0.00    -0.054 C  
HETATM    3  C   UNL     1      -7.487   4.986  69.122  1.00  0.00    -0.061 C  
ENDROOT
BRANCH   3   4
HETATM    4  C   UNL     1      -7.946   6.132  68.182  1.00  0.00    -0.107 C  
BRANCH   4   5
HETATM    5  C   UNL     1      -6.861   6.469  67.104  1.00  0.00    -0.066 C  
HETATM    6  C   UNL     1      -6.387   7.934  67.072  1.00  0.00    -0.055 C  
HETATM    7  C   UNL     1      -6.036   8.275  65.629  1.00  0.00    -0.045 C  
HETATM    8  C   UNL     1      -7.343   6.262  65.660  1.00  0.00    -0.080 C  
HETATM    9  C   UNL     1      -6.328   7.024  64.822  1.00  0.00    -0.037 C  
ENDBRANCH   4   5
BRANCH   4  10
HETATM   10  N   UNL     1      -8.441   7.277  68.965  1.00  0.00    -0.129 NA 
HETATM   11  C   UNL     1      -9.492   9.084  69.680  1.00  0.00    -0.174 A  
HETATM   12  C   UNL     1      -9.455   8.138  68.681  1.00  0.00    -0.147 A  
HETATM   13  C   UNL     1      -8.530   8.630  70.598  1.00  0.00    -0.157 A  
HETATM   14  N   UNL     1      -7.916   7.514  70.190  1.00  0.00    -0.109 NA 
BRANCH  11  15
HETATM   15  C   UNL     1     -10.367  10.230  69.634  1.00  0.00    -0.248 A  
HETATM   16  C   UNL     1     -11.451  10.369  70.503  1.00  0.00    -0.431 A  
HETATM   17  C   UNL     1     -12.076   9.623  71.542  1.00  0.00    -0.482 A  
HETATM   18  C   UNL     1     -13.111  10.384  72.045  1.00  0.00    -0.416 A  
HETATM   19  N   UNL     1     -13.133  11.567  71.353  1.00  0.00    -0.337 NA 
HETATM   20  C   UNL     1     -12.131  11.578  70.423  1.00  0.00    -0.382 A  
HETATM   21  H   UNL     1     -13.797  12.326  71.509  1.00  0.00     0.000 HD 
HETATM   22  N   UNL     1     -11.867  12.606  69.603  1.00  0.00    -0.320 NA 
HETATM   23  C   UNL     1     -10.805  12.357  68.821  1.00  0.00    -0.226 A  
HETATM   24  N   UNL     1     -10.044  11.247  68.791  1.00  0.00    -0.202 NA 
ENDBRANCH  11  15
ENDBRANCH   4  10
ENDBRANCH   3   4
TORSDOF 4
ENDMDL
MODEL      237
REMARK 921   NORMALIZED FREE ENERGY PREDICTED BY IDOCK:   -3.71 KCAL/MOL
REMARK 922        TOTAL FREE ENERGY PREDICTED BY IDOCK:   -4.99 KCAL/MOL
REMARK 923 INTER-LIGAND FREE ENERGY PREDICTED BY IDOCK:   -4.54 KCAL/MOL
REMARK 924 INTRA-LIGAND FREE ENERGY PREDICTED BY IDOCK:   -0.45 KCAL/MOL
REMARK 927      BINDING AFFINITY PREDICTED BY RF-SCORE:    0.00 PKD
ROOT
HETATM    1  N   UNL     1      -6.478   3.916  64.149  1.00  0.00    -0.040 NA 
HETATM    2  C   UNL     1      -7.013   4.604  64.914  1.00  0.00    -0.061 C  
HETATM    3  C   UNL     1      -7.747   5.445  65.872  1.00  0.00    -0.091 C  
ENDROOT
BRANCH   3   4
HETATM    4  C   UNL     1      -8.360   6.705  65.206  1.00  0.00    -0.111 C  
BRANCH   4   5
HETATM    5  C   UNL     1      -7.323   7.441  64.292  1.00  0.00    -0.090 C  
HETATM    6  C   UNL     1      -6.444   8.492  64.996  1.00  0.00    -0.060 C  
HETATM    7  C   UNL     1      -6.137   9.590  63.984  1.00  0.00    -0.095 C  
HETATM    8  C   UNL     1      -7.970   8.272  63.172  1.00  0.00    -0.158 C  
HETATM    9  C   UNL     1      -6.854   9.194  62.708  1.00  0.00    -0.092 C  
ENDBRANCH   4   5
BRANCH   4  10
HETATM   10  N   UNL     1      -9.033   7.546  66.211  1.00  0.00    -0.165 NA 
HETATM   11  C   UNL     1     -10.135   9.139  67.274  1.00  0.00    -0.295 A  
HETATM   12  C   UNL     1      -9.781   8.668  66.030  1.00  0.00    -0.168 A  
HETATM   13  C   UNL     1      -9.651   8.151  68.149  1.00  0.00    -0.149 A  
HETATM   14  N   UNL     1      -9.015   7.164  67.509  1.00  0.00    -0.122 NA 
BRANCH  11  15
HETATM   15  C   UNL     1     -10.828  10.390  67.463  1.00  0.00    -0.301 A  
HETATM   16  C   UNL     1     -11.328  10.778  68.708  1.00  0.00    -0.352 A  
HETATM   17  C   UNL     1     -11.414  10.246  70.026  1.00  0.00    -0.367 A  
HETATM   18  C   UNL     1     -12.005  11.199  70.828  1.00  0.00    -0.312 A  
HETATM   19  N   UNL     1     -12.275  12.293  70.048  1.00  0.00    -0.241 NA 
HETATM   20  C   UNL     1     -11.865  12.058  68.765  1.00  0.00    -0.302 A  
HETATM   21  H   UNL     1     -12.716  13.153  70.374  1.00  0.00     0.000 HD 
HETATM   22  N   UNL     1     -11.962  12.943  67.762  1.00  0.00    -0.329 NA 
HETATM   23  C   UNL     1     -11.446  12.459  66.621  1.00  0.00    -0.370 A  
HETATM   24  N   UNL     1     -10.887  11.253  66.415  1.00  0.00    -0.270 NA 
ENDBRANCH  11  15
ENDBRANCH   4  10
ENDBRANCH   3   4
TORSDOF 4
ENDMDL
MODEL      238
REMARK 921   NORMALIZED FREE ENERGY PREDICTED BY IDOCK:   -3.70 KCAL/MOL
REMARK 922        TOTAL FREE ENERGY PREDICTED BY IDOCK:   -4.97 KCAL/MOL
REMARK 923 INTER-LIGAND FREE ENERGY PREDICTED BY IDOCK:   -4.99 KCAL/MOL
REMARK 924 INTRA-LIGAND FREE ENERGY PREDICTED BY IDOCK:    0.01 KCAL/MOL
REMARK 927      BINDING AFFINITY PREDICTED BY RF-SCORE:    0.00 PKD
ROOT
HETATM    1  N   UNL     1      -6.883  14.218  69.990  1.00  0.00    -0.044 NA 
HETATM    2  C   UNL     1      -6.909  15.352  69.747  1.00  0.00    -0.162 C  
HETATM    3  C   UNL     1      -7.005  16.789  69.449  1.00  0.00    -0.176 C  
ENDROOT
BRANCH   3   4
HETATM    4  C   UNL     1      -7.285  17.065  67.948  1.00  0.00    -0.154 C  
BRANCH   4   5
HETATM    5  C   UNL     1      -7.240  18.596  67.621  1.00  0.00    -0.225 C  
HETATM    6  C   UNL     1      -8.230  19.475  68.410  1.00  0.00    -0.379 C  
HETATM    7  C   UNL     1      -8.638  20.634  67.508  1.00  0.00    -0.260 C  
HETATM    8  C   UNL     1      -7.616  18.926  66.168  1.00  0.00    -0.286 C  
HETATM    9  C   UNL     1      -7.911  20.417  66.196  1.00  0.00    -0.090 C  
ENDBRANCH   4   5
BRANCH   4  10
HETATM   10  N   UNL     1      -8.500  16.357  67.510  1.00  0.00    -0.167 NA 
HETATM   11  C   UNL     1      -9.952  14.901  66.701  1.00  0.00    -0.267 A  
HETATM   12  C   UNL     1      -8.634  15.082  67.054  1.00  0.00    -0.239 A  
HETATM   13  C   UNL     1     -10.567  16.100  67.102  1.00  0.00    -0.294 A  
HETATM   14  N   UNL     1      -9.701  16.971  67.628  1.00  0.00    -0.253 NA 
BRANCH  11  15
HETATM   15  C   UNL     1     -10.427  13.700  66.058  1.00  0.00    -0.300 A  
HETATM   16  C   UNL     1     -10.793  12.565  66.785  1.00  0.00    -0.281 A  
HETATM   17  C   UNL     1     -10.818  12.144  68.144  1.00  0.00    -0.256 A  
HETATM   18  C   UNL     1     -11.363  10.877  68.183  1.00  0.00    -0.315 A  
HETATM   19  N   UNL     1     -11.675  10.517  66.898  1.00  0.00     0.169 NA 
HETATM   20  C   UNL     1     -11.344  11.530  66.041  1.00  0.00    -0.116 A  
HETATM   21  H   UNL     1     -12.092   9.628  66.622  1.00  0.00     0.000 HD 
HETATM   22  N   UNL     1     -11.549  11.501  64.716  1.00  0.00    -0.099 NA 
HETATM   23  C   UNL     1     -11.164  12.645  64.129  1.00  0.00    -0.386 A  
HETATM   24  N   UNL     1     -10.627  13.732  64.713  1.00  0.00    -0.410 NA 
ENDBRANCH  11  15
ENDBRANCH   4  10
ENDBRANCH   3   4
TORSDOF 4
ENDMDL
MODEL      239
REMARK 921   NORMALIZED FREE ENERGY PREDICTED BY IDOCK:   -3.69 KCAL/MOL
REMARK 922        TOTAL FREE ENERGY PREDICTED BY IDOCK:   -4.96 KCAL/MOL
REMARK 923 INTER-LIGAND FREE ENERGY PREDICTED BY IDOCK:   -4.23 KCAL/MOL
REMARK 924 INTRA-LIGAND FREE ENERGY PREDICTED BY IDOCK:   -0.73 KCAL/MOL
REMARK 927      BINDING AFFINITY PREDICTED BY RF-SCORE:    0.00 PKD
ROOT
HETATM    1  N   UNL     1      -8.768   8.551  71.767  1.00  0.00    -0.186 NA 
HETATM    2  C   UNL     1      -9.559   9.156  71.174  1.00  0.00    -0.277 C  
HETATM    3  C   UNL     1     -10.574   9.872  70.386  1.00  0.00    -0.364 C  
ENDROOT
BRANCH   3   4
HETATM    4  C   UNL     1      -9.977  10.545  69.122  1.00  0.00    -0.220 C  
BRANCH   4   5
HETATM    5  C   UNL     1     -10.851  11.752  68.639  1.00  0.00    -0.259 C  
HETATM    6  C   UNL     1     -10.079  13.043  68.309  1.00  0.00    -0.239 C  
HETATM    7  C   UNL     1     -10.984  14.222  68.646  1.00  0.00    -0.268 C  
HETATM    8  C   UNL     1     -11.854  12.246  69.694  1.00  0.00    -0.393 C  
HETATM    9  C   UNL     1     -12.264  13.621  69.193  1.00  0.00    -0.265 C  
ENDBRANCH   4   5
BRANCH   4  10
HETATM   10  N   UNL     1      -9.666   9.535  68.096  1.00  0.00    -0.144 NA 
HETATM   11  C   UNL     1      -8.763   8.359  66.458  1.00  0.00    -0.151 A  
HETATM   12  C   UNL     1      -8.562   9.421  67.310  1.00  0.00    -0.128 A  
HETATM   13  C   UNL     1      -9.981   7.811  66.898  1.00  0.00    -0.261 A  
HETATM   14  N   UNL     1     -10.514   8.496  67.915  1.00  0.00    -0.221 NA 
BRANCH  11  15
HETATM   15  C   UNL     1      -7.844   8.028  65.396  1.00  0.00    -0.106 A  
HETATM   16  C   UNL     1      -7.708   8.826  64.259  1.00  0.00    -0.125 A  
HETATM   17  C   UNL     1      -8.291  10.007  63.720  1.00  0.00    -0.170 A  
HETATM   18  C   UNL     1      -7.639  10.300  62.540  1.00  0.00    -0.137 A  
HETATM   19  N   UNL     1      -6.678   9.343  62.346  1.00  0.00    -0.095 NA 
HETATM   20  C   UNL     1      -6.701   8.448  63.380  1.00  0.00    -0.085 A  
HETATM   21  H   UNL     1      -6.041   9.303  61.550  1.00  0.00     0.000 HD 
HETATM   22  N   UNL     1      -5.864   7.407  63.502  1.00  0.00    -0.044 NA 
HETATM   23  C   UNL     1      -6.088   6.720  64.633  1.00  0.00    -0.036 A  
HETATM   24  N   UNL     1      -7.012   6.967  65.579  1.00  0.00    -0.055 NA 
ENDBRANCH  11  15
ENDBRANCH   4  10
ENDBRANCH   3   4
TORSDOF 4
ENDMDL
MODEL      240
REMARK 921   NORMALIZED FREE ENERGY PREDICTED BY IDOCK:   -3.68 KCAL/MOL
REMARK 922        TOTAL FREE ENERGY PREDICTED BY IDOCK:   -4.95 KCAL/MOL
REMARK 923 INTER-LIGAND FREE ENERGY PREDICTED BY IDOCK:   -4.91 KCAL/MOL
REMARK 924 INTRA-LIGAND FREE ENERGY PREDICTED BY IDOCK:   -0.04 KCAL/MOL
REMARK 927      BINDING AFFINITY PREDICTED BY RF-SCORE:    0.00 PKD
ROOT
HETATM    1  N   UNL     1      -8.847   6.889  73.084  1.00  0.00    -0.122 NA 
HETATM    2  C   UNL     1      -9.762   7.204  72.446  1.00  0.00    -0.149 C  
HETATM    3  C   UNL     1     -10.940   7.541  71.632  1.00  0.00    -0.263 C  
ENDROOT
BRANCH   3   4
HETATM    4  C   UNL     1     -10.633   7.529  70.111  1.00  0.00    -0.235 C  
BRANCH   4   5
HETATM    5  C   UNL     1      -9.807   6.265  69.696  1.00  0.00    -0.192 C  
HETATM    6  C   UNL     1      -9.881   5.881  68.206  1.00  0.00    -0.162 C  
HETATM    7  C   UNL     1      -9.766   4.364  68.114  1.00  0.00    -0.181 C  
HETATM    8  C   UNL     1     -10.279   4.971  70.378  1.00  0.00    -0.324 C  
HETATM    9  C   UNL     1      -9.653   3.867  69.542  1.00  0.00    -0.248 C  
ENDBRANCH   4   5
BRANCH   4  10
HETATM   10  N   UNL     1     -10.070   8.823  69.687  1.00  0.00    -0.198 NA 
HETATM   11  C   UNL     1      -9.767  10.884  68.950  1.00  0.00    -0.198 A  
HETATM   12  C   UNL     1     -10.717   9.969  69.342  1.00  0.00    -0.233 A  
HETATM   13  C   UNL     1      -8.552  10.229  69.215  1.00  0.00    -0.168 A  
HETATM   14  N   UNL     1      -8.728   8.994  69.697  1.00  0.00    -0.137 NA 
BRANCH  11  15
HETATM   15  C   UNL     1     -10.108  12.172  68.398  1.00  0.00    -0.209 A  
HETATM   16  C   UNL     1      -9.133  13.082  67.982  1.00  0.00    -0.210 A  
HETATM   17  C   UNL     1      -7.713  13.171  67.957  1.00  0.00    -0.146 A  
HETATM   18  C   UNL     1      -7.375  14.359  67.342  1.00  0.00    -0.142 A  
HETATM   19  N   UNL     1      -8.539  14.991  66.989  1.00  0.00    -0.224 NA 
HETATM   20  C   UNL     1      -9.611  14.228  67.361  1.00  0.00    -0.214 A  
HETATM   21  H   UNL     1      -8.596  15.895  66.519  1.00  0.00     0.000 HD 
HETATM   22  N   UNL     1     -10.891  14.555  67.132  1.00  0.00    -0.290 NA 
HETATM   23  C   UNL     1     -11.732  13.605  67.571  1.00  0.00    -0.371 A  
HETATM   24  N   UNL     1     -11.422  12.445  68.177  1.00  0.00    -0.294 NA 
ENDBRANCH  11  15
ENDBRANCH   4  10
ENDBRANCH   3   4
TORSDOF 4
ENDMDL
MODEL      241
REMARK 921   NORMALIZED FREE ENERGY PREDICTED BY IDOCK:   -3.68 KCAL/MOL
REMARK 922        TOTAL FREE ENERGY PREDICTED BY IDOCK:   -4.95 KCAL/MOL
REMARK 923 INTER-LIGAND FREE ENERGY PREDICTED BY IDOCK:   -4.37 KCAL/MOL
REMARK 924 INTRA-LIGAND FREE ENERGY PREDICTED BY IDOCK:   -0.58 KCAL/MOL
REMARK 927      BINDING AFFINITY PREDICTED BY RF-SCORE:    0.00 PKD
ROOT
HETATM    1  N   UNL     1      -8.551   9.351  70.495  1.00  0.00    -0.221 NA 
HETATM    2  C   UNL     1      -8.962   9.962  69.600  1.00  0.00    -0.216 C  
HETATM    3  C   UNL     1      -9.532  10.696  68.460  1.00  0.00    -0.176 C  
ENDROOT
BRANCH   3   4
HETATM    4  C   UNL     1      -9.010  10.171  67.096  1.00  0.00    -0.135 C  
BRANCH   4   5
HETATM    5  C   UNL     1      -9.537  11.036  65.902  1.00  0.00    -0.255 C  
HETATM    6  C   UNL     1     -10.913  11.695  66.113  1.00  0.00    -0.339 C  
HETATM    7  C   UNL     1     -11.602  11.772  64.756  1.00  0.00    -0.241 C  
HETATM    8  C   UNL     1      -9.770  10.229  64.614  1.00  0.00    -0.398 C  
HETATM    9  C   UNL     1     -10.645  11.138  63.766  1.00  0.00    -0.422 C  
ENDBRANCH   4   5
BRANCH   4  10
HETATM   10  N   UNL     1      -9.236   8.720  66.980  1.00  0.00    -0.138 NA 
HETATM   11  C   UNL     1      -9.017   6.534  66.741  1.00  0.00    -0.136 A  
HETATM   12  C   UNL     1      -8.325   7.711  66.920  1.00  0.00    -0.124 A  
HETATM   13  C   UNL     1     -10.363   6.928  66.832  1.00  0.00    -0.262 A  
HETATM   14  N   UNL     1     -10.503   8.245  67.014  1.00  0.00    -0.325 NA 
BRANCH  11  15
HETATM   15  C   UNL     1      -8.357   5.273  66.509  1.00  0.00    -0.108 A  
HETATM   16  C   UNL     1      -8.669   4.128  67.245  1.00  0.00    -0.113 A  
HETATM   17  C   UNL     1      -9.525   3.764  68.324  1.00  0.00    -0.215 A  
HETATM   18  C   UNL     1      -9.381   2.409  68.538  1.00  0.00    -0.192 A  
HETATM   19  N   UNL     1      -8.476   1.936  67.625  1.00  0.00    -0.073 NA 
HETATM   20  C   UNL     1      -8.041   2.960  66.831  1.00  0.00    -0.080 A  
HETATM   21  H   UNL     1      -8.171   0.965  67.550  1.00  0.00     0.000 HD 
HETATM   22  N   UNL     1      -7.171   2.821  65.820  1.00  0.00    -0.065 NA 
HETATM   23  C   UNL     1      -6.955   3.985  65.187  1.00  0.00    -0.058 A  
HETATM   24  N   UNL     1      -7.493   5.187  65.464  1.00  0.00    -0.076 NA 
ENDBRANCH  11  15
ENDBRANCH   4  10
ENDBRANCH   3   4
TORSDOF 4
ENDMDL
MODEL      242
REMARK 921   NORMALIZED FREE ENERGY PREDICTED BY IDOCK:   -3.68 KCAL/MOL
REMARK 922        TOTAL FREE ENERGY PREDICTED BY IDOCK:   -4.95 KCAL/MOL
REMARK 923 INTER-LIGAND FREE ENERGY PREDICTED BY IDOCK:   -4.89 KCAL/MOL
REMARK 924 INTRA-LIGAND FREE ENERGY PREDICTED BY IDOCK:   -0.06 KCAL/MOL
REMARK 927      BINDING AFFINITY PREDICTED BY RF-SCORE:    0.00 PKD
ROOT
HETATM    1  N   UNL     1     -10.099  20.510  68.938  1.00  0.00     0.083 NA 
HETATM    2  C   UNL     1     -10.232  19.472  68.439  1.00  0.00    -0.431 C  
HETATM    3  C   UNL     1     -10.443  18.140  67.853  1.00  0.00    -0.408 C  
ENDROOT
BRANCH   3   4
HETATM    4  C   UNL     1      -9.470  17.078  68.430  1.00  0.00    -0.269 C  
BRANCH   4   5
HETATM    5  C   UNL     1      -8.066  17.692  68.754  1.00  0.00    -0.233 C  
HETATM    6  C   UNL     1      -7.357  18.390  67.577  1.00  0.00    -0.219 C  
HETATM    7  C   UNL     1      -5.856  18.201  67.765  1.00  0.00    -0.154 C  
HETATM    8  C   UNL     1      -7.020  16.649  69.177  1.00  0.00    -0.227 C  
HETATM    9  C   UNL     1      -5.695  17.377  69.028  1.00  0.00    -0.182 C  
ENDBRANCH   4   5
BRANCH   4  10
HETATM   10  N   UNL     1      -9.457  15.873  67.582  1.00  0.00    -0.218 NA 
HETATM   11  C   UNL     1      -9.230  13.829  66.775  1.00  0.00    -0.255 A  
HETATM   12  C   UNL     1      -9.189  14.585  67.925  1.00  0.00    -0.196 A  
HETATM   13  C   UNL     1      -9.658  14.743  65.797  1.00  0.00    -0.254 A  
HETATM   14  N   UNL     1      -9.834  15.975  66.286  1.00  0.00    -0.286 NA 
BRANCH  11  15
HETATM   15  C   UNL     1      -8.869  12.433  66.748  1.00  0.00    -0.189 A  
HETATM   16  C   UNL     1      -9.382  11.553  65.793  1.00  0.00    -0.238 A  
HETATM   17  C   UNL     1     -10.301  11.591  64.706  1.00  0.00    -0.341 A  
HETATM   18  C   UNL     1     -10.313  10.343  64.120  1.00  0.00     0.074 A  
HETATM   19  N   UNL     1      -9.431   9.550  64.807  1.00  0.00    -0.435 NA 
HETATM   20  C   UNL     1      -8.854  10.269  65.817  1.00  0.00    -0.161 A  
HETATM   21  H   UNL     1      -9.235   8.571  64.597  1.00  0.00     0.000 HD 
HETATM   22  N   UNL     1      -7.924   9.788  66.655  1.00  0.00    -0.112 NA 
HETATM   23  C   UNL     1      -7.506  10.725  67.522  1.00  0.00    -0.093 A  
HETATM   24  N   UNL     1      -7.913  12.004  67.615  1.00  0.00    -0.140 NA 
ENDBRANCH  11  15
ENDBRANCH   4  10
ENDBRANCH   3   4
TORSDOF 4
ENDMDL
MODEL      243
REMARK 921   NORMALIZED FREE ENERGY PREDICTED BY IDOCK:   -3.62 KCAL/MOL
REMARK 922        TOTAL FREE ENERGY PREDICTED BY IDOCK:   -4.87 KCAL/MOL
REMARK 923 INTER-LIGAND FREE ENERGY PREDICTED BY IDOCK:   -5.60 KCAL/MOL
REMARK 924 INTRA-LIGAND FREE ENERGY PREDICTED BY IDOCK:    0.72 KCAL/MOL
REMARK 927      BINDING AFFINITY PREDICTED BY RF-SCORE:    0.00 PKD
ROOT
HETATM    1  N   UNL     1     -10.661  16.017  69.833  1.00  0.00    -0.315 NA 
HETATM    2  C   UNL     1      -9.745  15.452  69.403  1.00  0.00    -0.273 C  
HETATM    3  C   UNL     1      -8.570  14.787  68.818  1.00  0.00    -0.170 C  
ENDROOT
BRANCH   3   4
HETATM    4  C   UNL     1      -8.923  13.970  67.547  1.00  0.00    -0.195 C  
BRANCH   4   5
HETATM    5  C   UNL     1      -9.380  14.898  66.371  1.00  0.00    -0.327 C  
HETATM    6  C   UNL     1      -8.769  16.311  66.360  1.00  0.00    -0.354 C  
HETATM    7  C   UNL     1      -9.804  17.258  65.766  1.00  0.00    -0.051 C  
HETATM    8  C   UNL     1     -10.886  15.206  66.380  1.00  0.00    -0.326 C  
HETATM    9  C   UNL     1     -11.020  16.406  65.457  1.00  0.00    -0.124 C  
ENDBRANCH   4   5
BRANCH   4  10
HETATM   10  N   UNL     1      -9.839  12.865  67.879  1.00  0.00    -0.220 NA 
HETATM   11  C   UNL     1     -10.734  10.947  68.511  1.00  0.00    -0.239 A  
HETATM   12  C   UNL     1      -9.568  11.678  68.485  1.00  0.00    -0.178 A  
HETATM   13  C   UNL     1     -11.693  11.840  68.003  1.00  0.00    -0.293 A  
HETATM   14  N   UNL     1     -11.165  13.017  67.653  1.00  0.00    -0.266 NA 
BRANCH  11  15
HETATM   15  C   UNL     1     -10.785   9.581  68.972  1.00  0.00    -0.202 A  
HETATM   16  C   UNL     1     -11.212   9.248  70.259  1.00  0.00    -0.267 A  
HETATM   17  C   UNL     1     -11.639   9.922  71.438  1.00  0.00    -0.428 A  
HETATM   18  C   UNL     1     -11.979   8.965  72.371  1.00  0.00    -0.250 A  
HETATM   19  N   UNL     1     -11.779   7.735  71.800  1.00  0.00    -0.273 NA 
HETATM   20  C   UNL     1     -11.323   7.889  70.520  1.00  0.00    -0.234 A  
HETATM   21  H   UNL     1     -11.946   6.840  72.260  1.00  0.00     0.000 HD 
HETATM   22  N   UNL     1     -11.057   6.876  69.682  1.00  0.00    -0.268 NA 
HETATM   23  C   UNL     1     -10.661   7.319  68.478  1.00  0.00    -0.126 A  
HETATM   24  N   UNL     1     -10.516   8.594  68.075  1.00  0.00    -0.218 NA 
ENDBRANCH  11  15
ENDBRANCH   4  10
ENDBRANCH   3   4
TORSDOF 4
ENDMDL
MODEL      244
REMARK 921   NORMALIZED FREE ENERGY PREDICTED BY IDOCK:   -3.61 KCAL/MOL
REMARK 922        TOTAL FREE ENERGY PREDICTED BY IDOCK:   -4.86 KCAL/MOL
REMARK 923 INTER-LIGAND FREE ENERGY PREDICTED BY IDOCK:   -4.38 KCAL/MOL
REMARK 924 INTRA-LIGAND FREE ENERGY PREDICTED BY IDOCK:   -0.47 KCAL/MOL
REMARK 927      BINDING AFFINITY PREDICTED BY RF-SCORE:    0.00 PKD
ROOT
HETATM    1  N   UNL     1     -12.238  15.884  69.287  1.00  0.00    -0.172 NA 
HETATM    2  C   UNL     1     -11.610  16.029  68.324  1.00  0.00    -0.232 C  
HETATM    3  C   UNL     1     -10.848  16.165  67.073  1.00  0.00    -0.194 C  
ENDROOT
BRANCH   3   4
HETATM    4  C   UNL     1      -9.619  15.219  67.022  1.00  0.00    -0.224 C  
BRANCH   4   5
HETATM    5  C   UNL     1      -8.376  15.917  66.373  1.00  0.00    -0.310 C  
HETATM    6  C   UNL     1      -7.183  16.164  67.316  1.00  0.00    -0.232 C  
HETATM    7  C   UNL     1      -6.489  17.441  66.857  1.00  0.00    -0.219 C  
HETATM    8  C   UNL     1      -8.667  17.335  65.855  1.00  0.00     0.012 C  
HETATM    9  C   UNL     1      -7.288  17.948  65.672  1.00  0.00     0.007 C  
ENDBRANCH   4   5
BRANCH   4  10
HETATM   10  N   UNL     1      -9.992  13.917  66.443  1.00  0.00    -0.289 NA 
HETATM   11  C   UNL     1     -10.013  11.961  65.415  1.00  0.00    -0.281 A  
HETATM   12  C   UNL     1      -9.198  12.972  65.873  1.00  0.00     0.172 A  
HETATM   13  C   UNL     1     -11.289  12.337  65.873  1.00  0.00    -0.360 A  
HETATM   14  N   UNL     1     -11.277  13.501  66.529  1.00  0.00    -0.301 NA 
BRANCH  11  15
HETATM   15  C   UNL     1      -9.516  10.850  64.641  1.00  0.00    -0.244 A  
HETATM   16  C   UNL     1      -9.234   9.612  65.221  1.00  0.00    -0.295 A  
HETATM   17  C   UNL     1      -9.250   9.022  66.517  1.00  0.00    -0.226 A  
HETATM   18  C   UNL     1      -8.894   7.697  66.382  1.00  0.00    -0.156 A  
HETATM   19  N   UNL     1      -8.669   7.458  65.051  1.00  0.00    -0.355 NA 
HETATM   20  C   UNL     1      -8.877   8.604  64.334  1.00  0.00     0.138 A  
HETATM   21  H   UNL     1      -8.387   6.561  64.655  1.00  0.00     0.000 HD 
HETATM   22  N   UNL     1      -8.766   8.696  63.001  1.00  0.00    -0.041 NA 
HETATM   23  C   UNL     1      -9.066   9.929  62.562  1.00  0.00    -0.286 A  
HETATM   24  N   UNL     1      -9.434  10.997  63.292  1.00  0.00    -0.293 NA 
ENDBRANCH  11  15
ENDBRANCH   4  10
ENDBRANCH   3   4
TORSDOF 4
ENDMDL
MODEL      245
REMARK 921   NORMALIZED FREE ENERGY PREDICTED BY IDOCK:   -3.59 KCAL/MOL
REMARK 922        TOTAL FREE ENERGY PREDICTED BY IDOCK:   -4.83 KCAL/MOL
REMARK 923 INTER-LIGAND FREE ENERGY PREDICTED BY IDOCK:   -4.13 KCAL/MOL
REMARK 924 INTRA-LIGAND FREE ENERGY PREDICTED BY IDOCK:   -0.70 KCAL/MOL
REMARK 927      BINDING AFFINITY PREDICTED BY RF-SCORE:    0.00 PKD
ROOT
HETATM    1  N   UNL     1     -10.226  11.676  68.232  1.00  0.00    -0.193 NA 
HETATM    2  C   UNL     1      -9.955  10.760  68.889  1.00  0.00    -0.202 C  
HETATM    3  C   UNL     1      -9.580   9.572  69.671  1.00  0.00    -0.216 C  
ENDROOT
BRANCH   3   4
HETATM    4  C   UNL     1     -10.604   8.416  69.522  1.00  0.00    -0.213 C  
BRANCH   4   5
HETATM    5  C   UNL     1     -10.786   7.625  70.861  1.00  0.00    -0.250 C  
HETATM    6  C   UNL     1     -10.879   8.486  72.135  1.00  0.00    -0.427 C  
HETATM    7  C   UNL     1     -10.265   7.687  73.279  1.00  0.00    -0.398 C  
HETATM    8  C   UNL     1      -9.606   6.698  71.194  1.00  0.00    -0.177 C  
HETATM    9  C   UNL     1      -9.794   6.382  72.669  1.00  0.00    -0.175 C  
ENDBRANCH   4   5
BRANCH   4  10
HETATM   10  N   UNL     1     -10.290   7.597  68.338  1.00  0.00    -0.196 NA 
HETATM   11  C   UNL     1      -9.369   6.703  66.539  1.00  0.00    -0.191 A  
HETATM   12  C   UNL     1      -9.162   7.583  67.578  1.00  0.00    -0.128 A  
HETATM   13  C   UNL     1     -10.621   6.136  66.835  1.00  0.00    -0.312 A  
HETATM   14  N   UNL     1     -11.168   6.645  67.943  1.00  0.00    -0.210 NA 
BRANCH  11  15
HETATM   15  C   UNL     1      -8.423   6.533  65.464  1.00  0.00    -0.136 A  
HETATM   16  C   UNL     1      -8.067   7.584  64.617  1.00  0.00    -0.101 A  
HETATM   17  C   UNL     1      -8.412   8.953  64.428  1.00  0.00    -0.170 A  
HETATM   18  C   UNL     1      -7.623   9.450  63.412  1.00  0.00    -0.114 A  
HETATM   19  N   UNL     1      -6.807   8.436  62.982  1.00  0.00    -0.089 NA 
HETATM   20  C   UNL     1      -7.057   7.303  63.706  1.00  0.00    -0.069 A  
HETATM   21  H   UNL     1      -6.117   8.515  62.235  1.00  0.00     0.000 HD 
HETATM   22  N   UNL     1      -6.405   6.142  63.548  1.00  0.00    -0.028 NA 
HETATM   23  C   UNL     1      -6.830   5.212  64.418  1.00  0.00    -0.048 A  
HETATM   24  N   UNL     1      -7.784   5.337  65.359  1.00  0.00    -0.086 NA 
ENDBRANCH  11  15
ENDBRANCH   4  10
ENDBRANCH   3   4
TORSDOF 4
ENDMDL
MODEL      246
REMARK 921   NORMALIZED FREE ENERGY PREDICTED BY IDOCK:   -3.56 KCAL/MOL
REMARK 922        TOTAL FREE ENERGY PREDICTED BY IDOCK:   -4.80 KCAL/MOL
REMARK 923 INTER-LIGAND FREE ENERGY PREDICTED BY IDOCK:   -4.54 KCAL/MOL
REMARK 924 INTRA-LIGAND FREE ENERGY PREDICTED BY IDOCK:   -0.26 KCAL/MOL
REMARK 927      BINDING AFFINITY PREDICTED BY RF-SCORE:    0.00 PKD
ROOT
HETATM    1  N   UNL     1     -10.745  15.343  67.506  1.00  0.00    -0.288 NA 
HETATM    2  C   UNL     1     -10.715  14.351  68.106  1.00  0.00    -0.236 C  
HETATM    3  C   UNL     1     -10.631  13.070  68.825  1.00  0.00    -0.218 C  
ENDROOT
BRANCH   3   4
HETATM    4  C   UNL     1     -11.594  12.001  68.246  1.00  0.00    -0.334 C  
BRANCH   4   5
HETATM    5  C   UNL     1     -12.345  11.222  69.378  1.00  0.00    -0.216 C  
HETATM    6  C   UNL     1     -12.892  12.086  70.531  1.00  0.00     0.051 C  
HETATM    7  C   UNL     1     -12.836  11.248  71.802  1.00  0.00    -0.466 C  
HETATM    8  C   UNL     1     -11.455  10.221  70.131  1.00  0.00    -0.383 C  
HETATM    9  C   UNL     1     -12.237   9.915  71.398  1.00  0.00    -0.499 C  
ENDBRANCH   4   5
BRANCH   4  10
HETATM   10  N   UNL     1     -10.900  11.164  67.251  1.00  0.00    -0.258 NA 
HETATM   11  C   UNL     1      -9.722   9.609  66.214  1.00  0.00    -0.303 A  
HETATM   12  C   UNL     1     -10.289   9.960  67.418  1.00  0.00    -0.246 A  
HETATM   13  C   UNL     1     -10.158  10.619  65.339  1.00  0.00    -0.291 A  
HETATM   14  N   UNL     1     -10.903  11.544  65.952  1.00  0.00    -0.275 NA 
BRANCH  11  15
HETATM   15  C   UNL     1      -8.884   8.446  66.059  1.00  0.00    -0.167 A  
HETATM   16  C   UNL     1      -7.499   8.502  66.232  1.00  0.00    -0.090 A  
HETATM   17  C   UNL     1      -6.509   9.483  66.518  1.00  0.00    -0.067 A  
HETATM   18  C   UNL     1      -5.291   8.841  66.606  1.00  0.00    -0.039 A  
HETATM   19  N   UNL     1      -5.507   7.505  66.389  1.00  0.00    -0.024 NA 
HETATM   20  C   UNL     1      -6.838   7.282  66.169  1.00  0.00    -0.057 A  
HETATM   21  H   UNL     1      -4.784   6.785  66.392  1.00  0.00     0.000 HD 
HETATM   22  N   UNL     1      -7.380   6.074  65.953  1.00  0.00    -0.075 NA 
HETATM   23  C   UNL     1      -8.713   6.147  65.807  1.00  0.00    -0.145 A  
HETATM   24  N   UNL     1      -9.489   7.246  65.852  1.00  0.00     0.090 NA 
ENDBRANCH  11  15
ENDBRANCH   4  10
ENDBRANCH   3   4
TORSDOF 4
ENDMDL
MODEL      247
REMARK 921   NORMALIZED FREE ENERGY PREDICTED BY IDOCK:   -3.52 KCAL/MOL
REMARK 922        TOTAL FREE ENERGY PREDICTED BY IDOCK:   -4.75 KCAL/MOL
REMARK 923 INTER-LIGAND FREE ENERGY PREDICTED BY IDOCK:   -4.04 KCAL/MOL
REMARK 924 INTRA-LIGAND FREE ENERGY PREDICTED BY IDOCK:   -0.71 KCAL/MOL
REMARK 927      BINDING AFFINITY PREDICTED BY RF-SCORE:    0.00 PKD
ROOT
HETATM    1  N   UNL     1      -7.489   1.901  66.634  1.00  0.00    -0.060 NA 
HETATM    2  C   UNL     1      -7.711   2.768  67.371  1.00  0.00    -0.069 C  
HETATM    3  C   UNL     1      -8.051   3.844  68.315  1.00  0.00    -0.078 C  
ENDROOT
BRANCH   3   4
HETATM    4  C   UNL     1      -8.706   5.063  67.613  1.00  0.00    -0.103 C  
BRANCH   4   5
HETATM    5  C   UNL     1      -7.896   5.508  66.349  1.00  0.00    -0.100 C  
HETATM    6  C   UNL     1      -7.535   7.004  66.281  1.00  0.00    -0.080 C  
HETATM    7  C   UNL     1      -7.519   7.410  64.813  1.00  0.00    -0.088 C  
HETATM    8  C   UNL     1      -8.658   5.309  65.029  1.00  0.00    -0.150 C  
HETATM    9  C   UNL     1      -7.894   6.165  64.032  1.00  0.00    -0.117 C  
ENDBRANCH   4   5
BRANCH   4  10
HETATM   10  N   UNL     1      -8.996   6.127  68.589  1.00  0.00    -0.126 NA 
HETATM   11  C   UNL     1      -9.853   7.836  69.698  1.00  0.00    -0.182 A  
HETATM   12  C   UNL     1     -10.064   6.968  68.651  1.00  0.00    -0.166 A  
HETATM   13  C   UNL     1      -8.674   7.352  70.293  1.00  0.00    -0.146 A  
HETATM   14  N   UNL     1      -8.171   6.294  69.649  1.00  0.00    -0.122 NA 
BRANCH  11  15
HETATM   15  C   UNL     1     -10.729   8.948  69.976  1.00  0.00    -0.228 A  
HETATM   16  C   UNL     1     -10.759  10.087  69.169  1.00  0.00    -0.244 A  
HETATM   17  C   UNL     1     -10.084  10.586  68.019  1.00  0.00    -0.190 A  
HETATM   18  C   UNL     1     -10.653  11.798  67.688  1.00  0.00    -0.205 A  
HETATM   19  N   UNL     1     -11.653  12.050  68.592  1.00  0.00    -0.294 NA 
HETATM   20  C   UNL     1     -11.735  11.021  69.489  1.00  0.00    -0.329 A  
HETATM   21  H   UNL     1     -12.246  12.880  68.594  1.00  0.00     0.000 HD 
HETATM   22  N   UNL     1     -12.632  10.952  70.483  1.00  0.00    -0.333 NA 
HETATM   23  C   UNL     1     -12.508   9.813  71.185  1.00  0.00    -0.350 A  
HETATM   24  N   UNL     1     -11.625   8.817  70.990  1.00  0.00    -0.282 NA 
ENDBRANCH  11  15
ENDBRANCH   4  10
ENDBRANCH   3   4
TORSDOF 4
ENDMDL
MODEL      248
REMARK 921   NORMALIZED FREE ENERGY PREDICTED BY IDOCK:   -3.47 KCAL/MOL
REMARK 922        TOTAL FREE ENERGY PREDICTED BY IDOCK:   -4.69 KCAL/MOL
REMARK 923 INTER-LIGAND FREE ENERGY PREDICTED BY IDOCK:   -4.31 KCAL/MOL
REMARK 924 INTRA-LIGAND FREE ENERGY PREDICTED BY IDOCK:   -0.38 KCAL/MOL
REMARK 927      BINDING AFFINITY PREDICTED BY RF-SCORE:    0.00 PKD
ROOT
HETATM    1  N   UNL     1     -10.344  12.664  64.529  1.00  0.00    -0.341 NA 
HETATM    2  C   UNL     1     -10.217  12.783  65.675  1.00  0.00    -0.279 C  
HETATM    3  C   UNL     1     -10.006  12.973  67.118  1.00  0.00    -0.235 C  
ENDROOT
BRANCH   3   4
HETATM    4  C   UNL     1      -9.011  11.941  67.712  1.00  0.00    -0.173 C  
BRANCH   4   5
HETATM    5  C   UNL     1      -7.843  11.622  66.719  1.00  0.00    -0.130 C  
HETATM    6  C   UNL     1      -7.661  10.135  66.361  1.00  0.00    -0.108 C  
HETATM    7  C   UNL     1      -6.175   9.897  66.120  1.00  0.00    -0.072 C  
HETATM    8  C   UNL     1      -6.454  11.987  67.265  1.00  0.00    -0.149 C  
HETATM    9  C   UNL     1      -5.494  11.230  66.361  1.00  0.00    -0.139 C  
ENDBRANCH   4   5
BRANCH   4  10
HETATM   10  N   UNL     1      -9.734  10.771  68.241  1.00  0.00    -0.159 NA 
HETATM   11  C   UNL     1     -10.511   9.123  69.492  1.00  0.00    -0.226 A  
HETATM   12  C   UNL     1      -9.745  10.267  69.504  1.00  0.00    -0.211 A  
HETATM   13  C   UNL     1     -11.027   9.090  68.184  1.00  0.00     0.076 A  
HETATM   14  N   UNL     1     -10.591  10.105  67.433  1.00  0.00    -0.256 NA 
BRANCH  11  15
HETATM   15  C   UNL     1     -10.637   8.258  70.639  1.00  0.00    -0.215 A  
HETATM   16  C   UNL     1      -9.894   7.083  70.765  1.00  0.00    -0.190 A  
HETATM   17  C   UNL     1      -8.945   6.345  70.002  1.00  0.00    -0.146 A  
HETATM   18  C   UNL     1      -8.550   5.259  70.756  1.00  0.00    -0.130 A  
HETATM   19  N   UNL     1      -9.220   5.315  71.951  1.00  0.00    -0.137 NA 
HETATM   20  C   UNL     1     -10.030   6.416  71.975  1.00  0.00    -0.167 A  
HETATM   21  H   UNL     1      -9.128   4.637  72.707  1.00  0.00     0.000 HD 
HETATM   22  N   UNL     1     -10.798   6.770  73.016  1.00  0.00    -0.275 NA 
HETATM   23  C   UNL     1     -11.458   7.915  72.779  1.00  0.00    -0.368 A  
HETATM   24  N   UNL     1     -11.420   8.674  71.669  1.00  0.00    -0.282 NA 
ENDBRANCH  11  15
ENDBRANCH   4  10
ENDBRANCH   3   4
TORSDOF 4
ENDMDL
MODEL      249
REMARK 921   NORMALIZED FREE ENERGY PREDICTED BY IDOCK:   -3.46 KCAL/MOL
REMARK 922        TOTAL FREE ENERGY PREDICTED BY IDOCK:   -4.68 KCAL/MOL
REMARK 923 INTER-LIGAND FREE ENERGY PREDICTED BY IDOCK:   -4.26 KCAL/MOL
REMARK 924 INTRA-LIGAND FREE ENERGY PREDICTED BY IDOCK:   -0.41 KCAL/MOL
REMARK 927      BINDING AFFINITY PREDICTED BY RF-SCORE:    0.00 PKD
ROOT
HETATM    1  N   UNL     1     -10.704  11.428  66.809  1.00  0.00    -0.259 NA 
HETATM    2  C   UNL     1     -10.198  10.595  67.436  1.00  0.00    -0.204 C  
HETATM    3  C   UNL     1      -9.539   9.508  68.176  1.00  0.00    -0.153 C  
ENDROOT
BRANCH   3   4
HETATM    4  C   UNL     1     -10.491   8.313  68.447  1.00  0.00    -0.162 C  
BRANCH   4   5
HETATM    5  C   UNL     1     -10.575   7.972  69.973  1.00  0.00    -0.242 C  
HETATM    6  C   UNL     1     -11.528   6.821  70.347  1.00  0.00    -0.419 C  
HETATM    7  C   UNL     1     -12.099   7.125  71.727  1.00  0.00    -0.363 C  
HETATM    8  C   UNL     1     -11.121   9.124  70.832  1.00  0.00    -0.356 C  
HETATM    9  C   UNL     1     -11.503   8.455  72.142  1.00  0.00    -0.442 C  
ENDBRANCH   4   5
BRANCH   4  10
HETATM   10  N   UNL     1     -10.166   7.182  67.560  1.00  0.00    -0.191 NA 
HETATM   11  C   UNL     1      -9.191   5.757  66.181  1.00  0.00    -0.169 A  
HETATM   12  C   UNL     1      -8.979   6.858  66.980  1.00  0.00    -0.120 A  
HETATM   13  C   UNL     1     -10.527   5.411  66.447  1.00  0.00    -0.267 A  
HETATM   14  N   UNL     1     -11.113   6.248  67.310  1.00  0.00    -0.349 NA 
BRANCH  11  15
HETATM   15  C   UNL     1      -8.172   5.217  65.315  1.00  0.00    -0.130 A  
HETATM   16  C   UNL     1      -7.588   3.970  65.547  1.00  0.00    -0.082 A  
HETATM   17  C   UNL     1      -7.663   2.931  66.518  1.00  0.00    -0.076 A  
HETATM   18  C   UNL     1      -6.829   1.911  66.109  1.00  0.00    -0.042 A  
HETATM   19  N   UNL     1      -6.256   2.290  64.923  1.00  0.00    -0.019 NA 
HETATM   20  C   UNL     1      -6.710   3.529  64.565  1.00  0.00    -0.043 A  
HETATM   21  H   UNL     1      -5.591   1.731  64.388  1.00  0.00     0.000 HD 
HETATM   22  N   UNL     1      -6.361   4.169  63.440  1.00  0.00    -0.022 NA 
HETATM   23  C   UNL     1      -6.988   5.351  63.326  1.00  0.00    -0.041 A  
HETATM   24  N   UNL     1      -7.866   5.905  64.183  1.00  0.00    -0.113 NA 
ENDBRANCH  11  15
ENDBRANCH   4  10
ENDBRANCH   3   4
TORSDOF 4
ENDMDL
MODEL      250
REMARK 921   NORMALIZED FREE ENERGY PREDICTED BY IDOCK:   -3.43 KCAL/MOL
REMARK 922        TOTAL FREE ENERGY PREDICTED BY IDOCK:   -4.64 KCAL/MOL
REMARK 923 INTER-LIGAND FREE ENERGY PREDICTED BY IDOCK:   -4.68 KCAL/MOL
REMARK 924 INTRA-LIGAND FREE ENERGY PREDICTED BY IDOCK:    0.04 KCAL/MOL
REMARK 927      BINDING AFFINITY PREDICTED BY RF-SCORE:    0.00 PKD
ROOT
HETATM    1  N   UNL     1     -10.894   5.509  66.271  1.00  0.00    -0.164 NA 
HETATM    2  C   UNL     1     -10.286   4.961  67.092  1.00  0.00    -0.123 C  
HETATM    3  C   UNL     1      -9.571   4.249  68.162  1.00  0.00    -0.196 C  
ENDROOT
BRANCH   3   4
HETATM    4  C   UNL     1      -9.301   5.150  69.396  1.00  0.00    -0.126 C  
BRANCH   4   5
HETATM    5  C   UNL     1     -10.599   5.378  70.243  1.00  0.00    -0.329 C  
HETATM    6  C   UNL     1     -11.514   6.522  69.765  1.00  0.00    -0.443 C  
HETATM    7  C   UNL     1     -12.187   7.120  70.994  1.00  0.00    -0.384 C  
HETATM    8  C   UNL     1     -10.321   5.786  71.699  1.00  0.00    -0.266 C  
HETATM    9  C   UNL     1     -11.648   6.347  72.182  1.00  0.00    -0.357 C  
ENDBRANCH   4   5
BRANCH   4  10
HETATM   10  N   UNL     1      -8.579   6.371  68.998  1.00  0.00    -0.124 NA 
HETATM   11  C   UNL     1      -8.016   8.402  68.335  1.00  0.00    -0.118 A  
HETATM   12  C   UNL     1      -9.070   7.612  68.737  1.00  0.00    -0.139 A  
HETATM   13  C   UNL     1      -6.897   7.569  68.507  1.00  0.00    -0.066 A  
HETATM   14  N   UNL     1      -7.227   6.349  68.945  1.00  0.00    -0.082 NA 
BRANCH  11  15
HETATM   15  C   UNL     1      -8.194   9.751  67.856  1.00  0.00    -0.113 A  
HETATM   16  C   UNL     1      -8.844  10.031  66.652  1.00  0.00    -0.145 A  
HETATM   17  C   UNL     1      -9.440   9.308  65.580  1.00  0.00    -0.309 A  
HETATM   18  C   UNL     1      -9.967  10.225  64.695  1.00  0.00    -0.307 A  
HETATM   19  N   UNL     1      -9.718  11.477  65.193  1.00  0.00    -0.239 NA 
HETATM   20  C   UNL     1      -9.046  11.377  66.380  1.00  0.00    -0.193 A  
HETATM   21  H   UNL     1      -9.992  12.352  64.746  1.00  0.00     0.000 HD 
HETATM   22  N   UNL     1      -8.680  12.423  67.135  1.00  0.00    -0.189 NA 
HETATM   23  C   UNL     1      -8.070  12.030  68.265  1.00  0.00    -0.155 A  
HETATM   24  N   UNL     1      -7.813  10.772  68.669  1.00  0.00    -0.114 NA 
ENDBRANCH  11  15
ENDBRANCH   4  10
ENDBRANCH   3   4
TORSDOF 4
ENDMDL
MODEL      251
REMARK 921   NORMALIZED FREE ENERGY PREDICTED BY IDOCK:   -3.38 KCAL/MOL
REMARK 922        TOTAL FREE ENERGY PREDICTED BY IDOCK:   -4.57 KCAL/MOL
REMARK 923 INTER-LIGAND FREE ENERGY PREDICTED BY IDOCK:   -4.57 KCAL/MOL
REMARK 924 INTRA-LIGAND FREE ENERGY PREDICTED BY IDOCK:   -0.00 KCAL/MOL
REMARK 927      BINDING AFFINITY PREDICTED BY RF-SCORE:    0.00 PKD
ROOT
HETATM    1  N   UNL     1     -10.725  20.423  68.495  1.00  0.00     0.104 NA 
HETATM    2  C   UNL     1     -10.659  19.327  68.123  1.00  0.00    -0.265 C  
HETATM    3  C   UNL     1     -10.624  17.922  67.689  1.00  0.00    -0.398 C  
ENDROOT
BRANCH   3   4
HETATM    4  C   UNL     1      -9.733  17.041  68.604  1.00  0.00    -0.282 C  
BRANCH   4   5
HETATM    5  C   UNL     1      -8.229  17.472  68.539  1.00  0.00    -0.278 C  
HETATM    6  C   UNL     1      -7.882  18.517  67.461  1.00  0.00    -0.241 C  
HETATM    7  C   UNL     1      -6.459  18.240  66.990  1.00  0.00    -0.198 C  
HETATM    8  C   UNL     1      -7.274  16.322  68.181  1.00  0.00    -0.147 C  
HETATM    9  C   UNL     1      -5.991  17.027  67.770  1.00  0.00    -0.147 C  
ENDBRANCH   4   5
BRANCH   4  10
HETATM   10  N   UNL     1      -9.996  15.612  68.361  1.00  0.00    -0.208 NA 
HETATM   11  C   UNL     1     -10.157  13.413  68.504  1.00  0.00    -0.208 A  
HETATM   12  C   UNL     1      -9.860  14.557  69.209  1.00  0.00    -0.009 A  
HETATM   13  C   UNL     1     -10.586  13.898  67.256  1.00  0.00    -0.276 A  
HETATM   14  N   UNL     1     -10.528  15.231  67.175  1.00  0.00    -0.274 NA 
BRANCH  11  15
HETATM   15  C   UNL     1      -9.993  12.092  69.060  1.00  0.00     0.137 A  
HETATM   16  C   UNL     1     -10.984  11.487  69.835  1.00  0.00     0.044 A  
HETATM   17  C   UNL     1     -12.270  11.815  70.352  1.00  0.00    -0.416 A  
HETATM   18  C   UNL     1     -12.752  10.708  71.019  1.00  0.00    -0.415 A  
HETATM   19  N   UNL     1     -11.809   9.718  70.920  1.00  0.00    -0.313 NA 
HETATM   20  C   UNL     1     -10.737  10.170  70.201  1.00  0.00    -0.300 A  
HETATM   21  H   UNL     1     -11.893   8.784  71.323  1.00  0.00     0.000 HD 
HETATM   22  N   UNL     1      -9.658   9.432  69.902  1.00  0.00    -0.196 NA 
HETATM   23  C   UNL     1      -8.780  10.118  69.152  1.00  0.00    -0.170 A  
HETATM   24  N   UNL     1      -8.884  11.386  68.714  1.00  0.00    -0.119 NA 
ENDBRANCH  11  15
ENDBRANCH   4  10
ENDBRANCH   3   4
TORSDOF 4
ENDMDL
MODEL      252
REMARK 921   NORMALIZED FREE ENERGY PREDICTED BY IDOCK:   -3.34 KCAL/MOL
REMARK 922        TOTAL FREE ENERGY PREDICTED BY IDOCK:   -4.53 KCAL/MOL
REMARK 923 INTER-LIGAND FREE ENERGY PREDICTED BY IDOCK:   -4.43 KCAL/MOL
REMARK 924 INTRA-LIGAND FREE ENERGY PREDICTED BY IDOCK:   -0.10 KCAL/MOL
REMARK 927      BINDING AFFINITY PREDICTED BY RF-SCORE:    0.00 PKD
ROOT
HETATM    1  N   UNL     1      -6.855   2.582  65.324  1.00  0.00    -0.043 NA 
HETATM    2  C   UNL     1      -6.714   3.732  65.348  1.00  0.00    -0.048 C  
HETATM    3  C   UNL     1      -6.481   5.184  65.412  1.00  0.00    -0.036 C  
ENDROOT
BRANCH   3   4
HETATM    4  C   UNL     1      -7.138   5.834  66.658  1.00  0.00    -0.069 C  
BRANCH   4   5
HETATM    5  C   UNL     1      -7.939   4.788  67.505  1.00  0.00    -0.094 C  
HETATM    6  C   UNL     1      -9.451   5.053  67.634  1.00  0.00    -0.154 C  
HETATM    7  C   UNL     1      -9.896   4.536  68.997  1.00  0.00    -0.202 C  
HETATM    8  C   UNL     1      -7.504   4.725  68.977  1.00  0.00    -0.057 C  
HETATM    9  C   UNL     1      -8.646   3.997  69.666  1.00  0.00    -0.105 C  
ENDBRANCH   4   5
BRANCH   4  10
HETATM   10  N   UNL     1      -7.882   7.047  66.276  1.00  0.00    -0.101 NA 
HETATM   11  C   UNL     1      -9.126   8.873  66.251  1.00  0.00    -0.236 A  
HETATM   12  C   UNL     1      -8.510   7.955  67.071  1.00  0.00    -0.124 A  
HETATM   13  C   UNL     1      -8.701   8.500  64.964  1.00  0.00    -0.088 A  
HETATM   14  N   UNL     1      -7.916   7.418  64.975  1.00  0.00    -0.125 NA 
BRANCH  11  15
HETATM   15  C   UNL     1      -9.991   9.911  66.756  1.00  0.00    -0.214 A  
HETATM   16  C   UNL     1     -10.608  10.837  65.913  1.00  0.00    -0.216 A  
HETATM   17  C   UNL     1     -10.633  11.150  64.524  1.00  0.00    -0.397 A  
HETATM   18  C   UNL     1     -11.522  12.188  64.341  1.00  0.00    -0.350 A  
HETATM   19  N   UNL     1     -12.043  12.512  65.567  1.00  0.00    -0.534 NA 
HETATM   20  C   UNL     1     -11.506  11.700  66.527  1.00  0.00    -0.187 A  
HETATM   21  H   UNL     1     -12.727  13.249  65.737  1.00  0.00     0.000 HD 
HETATM   22  N   UNL     1     -11.832  11.744  67.827  1.00  0.00    -0.592 NA 
HETATM   23  C   UNL     1     -11.180  10.806  68.534  1.00  0.00    -0.279 A  
HETATM   24  N   UNL     1     -10.295   9.900  68.082  1.00  0.00    -0.183 NA 
ENDBRANCH  11  15
ENDBRANCH   4  10
ENDBRANCH   3   4
TORSDOF 4
ENDMDL
MODEL      253
REMARK 921   NORMALIZED FREE ENERGY PREDICTED BY IDOCK:   -3.30 KCAL/MOL
REMARK 922        TOTAL FREE ENERGY PREDICTED BY IDOCK:   -4.48 KCAL/MOL
REMARK 923 INTER-LIGAND FREE ENERGY PREDICTED BY IDOCK:   -4.20 KCAL/MOL
REMARK 924 INTRA-LIGAND FREE ENERGY PREDICTED BY IDOCK:   -0.28 KCAL/MOL
REMARK 927      BINDING AFFINITY PREDICTED BY RF-SCORE:    0.00 PKD
ROOT
HETATM    1  N   UNL     1     -10.894   4.460  65.345  1.00  0.00    -0.171 NA 
HETATM    2  C   UNL     1      -9.775   4.712  65.512  1.00  0.00    -0.181 C  
HETATM    3  C   UNL     1      -8.343   4.969  65.733  1.00  0.00    -0.118 C  
ENDROOT
BRANCH   3   4
HETATM    4  C   UNL     1      -8.000   5.160  67.234  1.00  0.00    -0.100 C  
BRANCH   4   5
HETATM    5  C   UNL     1      -8.478   3.944  68.098  1.00  0.00    -0.106 C  
HETATM    6  C   UNL     1      -7.767   3.770  69.453  1.00  0.00    -0.052 C  
HETATM    7  C   UNL     1      -7.712   2.277  69.757  1.00  0.00    -0.046 C  
HETATM    8  C   UNL     1      -8.227   2.581  67.433  1.00  0.00    -0.080 C  
HETATM    9  C   UNL     1      -8.363   1.586  68.575  1.00  0.00    -0.072 C  
ENDBRANCH   4   5
BRANCH   4  10
HETATM   10  N   UNL     1      -8.442   6.485  67.701  1.00  0.00    -0.117 NA 
HETATM   11  C   UNL     1      -9.373   8.167  68.790  1.00  0.00    -0.143 A  
HETATM   12  C   UNL     1      -9.132   6.812  68.827  1.00  0.00    -0.132 A  
HETATM   13  C   UNL     1      -8.670   8.594  67.650  1.00  0.00    -0.136 A  
HETATM   14  N   UNL     1      -8.073   7.586  67.006  1.00  0.00    -0.115 NA 
BRANCH  11  15
HETATM   15  C   UNL     1     -10.194   8.838  69.768  1.00  0.00    -0.202 A  
HETATM   16  C   UNL     1     -10.833  10.049  69.493  1.00  0.00    -0.283 A  
HETATM   17  C   UNL     1     -10.919  10.979  68.418  1.00  0.00    -0.281 A  
HETATM   18  C   UNL     1     -11.797  11.975  68.792  1.00  0.00    -0.302 A  
HETATM   19  N   UNL     1     -12.252  11.680  70.050  1.00  0.00    -0.285 NA 
HETATM   20  C   UNL     1     -11.685  10.514  70.486  1.00  0.00    -0.350 A  
HETATM   21  H   UNL     1     -12.914  12.245  70.583  1.00  0.00     0.000 HD 
HETATM   22  N   UNL     1     -11.947   9.939  71.668  1.00  0.00    -0.388 NA 
HETATM   23  C   UNL     1     -11.279   8.783  71.816  1.00  0.00    -0.340 A  
HETATM   24  N   UNL     1     -10.433   8.202  70.946  1.00  0.00    -0.201 NA 
ENDBRANCH  11  15
ENDBRANCH   4  10
ENDBRANCH   3   4
TORSDOF 4
ENDMDL
MODEL      254
REMARK 921   NORMALIZED FREE ENERGY PREDICTED BY IDOCK:   -3.27 KCAL/MOL
REMARK 922        TOTAL FREE ENERGY PREDICTED BY IDOCK:   -4.45 KCAL/MOL
REMARK 923 INTER-LIGAND FREE ENERGY PREDICTED BY IDOCK:   -3.76 KCAL/MOL
REMARK 924 INTRA-LIGAND FREE ENERGY PREDICTED BY IDOCK:   -0.69 KCAL/MOL
REMARK 927      BINDING AFFINITY PREDICTED BY RF-SCORE:    0.00 PKD
ROOT
HETATM    1  N   UNL     1      -8.094  17.172  68.361  1.00  0.00    -0.245 NA 
HETATM    2  C   UNL     1      -8.159  16.169  67.783  1.00  0.00    -0.146 C  
HETATM    3  C   UNL     1      -8.250  14.930  66.995  1.00  0.00    -0.228 C  
ENDROOT
BRANCH   3   4
HETATM    4  C   UNL     1      -9.711  14.432  66.839  1.00  0.00    -0.262 C  
BRANCH   4   5
HETATM    5  C   UNL     1     -10.545  14.664  68.144  1.00  0.00    -0.237 C  
HETATM    6  C   UNL     1     -10.684  13.443  69.072  1.00  0.00    -0.160 C  
HETATM    7  C   UNL     1     -12.041  13.537  69.760  1.00  0.00    -0.381 C  
HETATM    8  C   UNL     1     -12.015  15.026  67.878  1.00  0.00    -0.140 C  
HETATM    9  C   UNL     1     -12.698  14.791  69.216  1.00  0.00     0.256 C  
ENDBRANCH   4   5
BRANCH   4  10
HETATM   10  N   UNL     1      -9.735  13.059  66.305  1.00  0.00    -0.270 NA 
HETATM   11  C   UNL     1      -9.255  10.982  65.723  1.00  0.00    -0.226 A  
HETATM   12  C   UNL     1      -8.835  12.055  66.477  1.00  0.00    -0.172 A  
HETATM   13  C   UNL     1     -10.502  11.401  65.225  1.00  0.00    -0.283 A  
HETATM   14  N   UNL     1     -10.816  12.644  65.605  1.00  0.00    -0.269 NA 
BRANCH  11  15
HETATM   15  C   UNL     1      -8.469   9.783  65.569  1.00  0.00    -0.142 A  
HETATM   16  C   UNL     1      -8.482   8.762  66.522  1.00  0.00    -0.120 A  
HETATM   17  C   UNL     1      -9.078   8.506  67.789  1.00  0.00    -0.143 A  
HETATM   18  C   UNL     1      -8.706   7.237  68.182  1.00  0.00    -0.128 A  
HETATM   19  N   UNL     1      -7.910   6.712  67.197  1.00  0.00    -0.104 NA 
HETATM   20  C   UNL     1      -7.771   7.619  66.183  1.00  0.00    -0.089 A  
HETATM   21  H   UNL     1      -7.485   5.785  67.218  1.00  0.00     0.000 HD 
HETATM   22  N   UNL     1      -7.075   7.398  65.058  1.00  0.00    -0.062 NA 
HETATM   23  C   UNL     1      -7.141   8.445  64.220  1.00  0.00    -0.082 A  
HETATM   24  N   UNL     1      -7.793   9.608  64.403  1.00  0.00    -0.122 NA 
ENDBRANCH  11  15
ENDBRANCH   4  10
ENDBRANCH   3   4
TORSDOF 4
ENDMDL
MODEL      255
REMARK 921   NORMALIZED FREE ENERGY PREDICTED BY IDOCK:   -3.26 KCAL/MOL
REMARK 922        TOTAL FREE ENERGY PREDICTED BY IDOCK:   -4.43 KCAL/MOL
REMARK 923 INTER-LIGAND FREE ENERGY PREDICTED BY IDOCK:   -3.98 KCAL/MOL
REMARK 924 INTRA-LIGAND FREE ENERGY PREDICTED BY IDOCK:   -0.46 KCAL/MOL
REMARK 927      BINDING AFFINITY PREDICTED BY RF-SCORE:    0.00 PKD
ROOT
HETATM    1  N   UNL     1      -6.390   2.743  64.964  1.00  0.00    -0.026 NA 
HETATM    2  C   UNL     1      -6.901   3.339  65.817  1.00  0.00    -0.049 C  
HETATM    3  C   UNL     1      -7.603   4.062  66.889  1.00  0.00    -0.084 C  
ENDROOT
BRANCH   3   4
HETATM    4  C   UNL     1      -8.364   5.308  66.363  1.00  0.00    -0.109 C  
BRANCH   4   5
HETATM    5  C   UNL     1      -7.397   6.333  65.679  1.00  0.00    -0.080 C  
HETATM    6  C   UNL     1      -6.919   7.495  66.571  1.00  0.00    -0.070 C  
HETATM    7  C   UNL     1      -6.721   8.712  65.676  1.00  0.00    -0.064 C  
HETATM    8  C   UNL     1      -8.031   7.083  64.498  1.00  0.00    -0.104 C  
HETATM    9  C   UNL     1      -7.106   8.269  64.278  1.00  0.00    -0.082 C  
ENDBRANCH   4   5
BRANCH   4  10
HETATM   10  N   UNL     1      -9.238   5.861  67.412  1.00  0.00    -0.110 NA 
HETATM   11  C   UNL     1     -10.141   6.503  69.324  1.00  0.00    -0.192 A  
HETATM   12  C   UNL     1      -8.997   6.004  68.743  1.00  0.00    -0.118 A  
HETATM   13  C   UNL     1     -10.985   6.748  68.227  1.00  0.00    -0.197 A  
HETATM   14  N   UNL     1     -10.430   6.397  67.062  1.00  0.00    -0.245 NA 
BRANCH  11  15
HETATM   15  C   UNL     1     -10.285   6.661  70.750  1.00  0.00    -0.196 A  
HETATM   16  C   UNL     1     -11.154   7.601  71.308  1.00  0.00    -0.268 A  
HETATM   17  C   UNL     1     -12.043   8.617  70.856  1.00  0.00    -0.173 A  
HETATM   18  C   UNL     1     -12.659   9.162  71.964  1.00  0.00    -0.390 A  
HETATM   19  N   UNL     1     -12.181   8.509  73.070  1.00  0.00    -0.430 NA 
HETATM   20  C   UNL     1     -11.277   7.556  72.690  1.00  0.00    -0.348 A  
HETATM   21  H   UNL     1     -12.459   8.704  74.033  1.00  0.00     0.000 HD 
HETATM   22  N   UNL     1     -10.649   6.726  73.536  1.00  0.00    -0.323 NA 
HETATM   23  C   UNL     1      -9.846   5.869  72.884  1.00  0.00    -0.167 A  
HETATM   24  N   UNL     1      -9.633   5.784  71.559  1.00  0.00    -0.153 NA 
ENDBRANCH  11  15
ENDBRANCH   4  10
ENDBRANCH   3   4
TORSDOF 4
ENDMDL
MODEL      256
REMARK 921   NORMALIZED FREE ENERGY PREDICTED BY IDOCK:   -3.26 KCAL/MOL
REMARK 922        TOTAL FREE ENERGY PREDICTED BY IDOCK:   -4.43 KCAL/MOL
REMARK 923 INTER-LIGAND FREE ENERGY PREDICTED BY IDOCK:   -4.11 KCAL/MOL
REMARK 924 INTRA-LIGAND FREE ENERGY PREDICTED BY IDOCK:   -0.32 KCAL/MOL
REMARK 927      BINDING AFFINITY PREDICTED BY RF-SCORE:    0.00 PKD
ROOT
HETATM    1  N   UNL     1      -6.189   3.166  63.860  1.00  0.00    -0.018 NA 
HETATM    2  C   UNL     1      -6.637   3.842  64.689  1.00  0.00    -0.043 C  
HETATM    3  C   UNL     1      -7.263   4.678  65.724  1.00  0.00    -0.076 C  
ENDROOT
BRANCH   3   4
HETATM    4  C   UNL     1      -7.680   6.073  65.187  1.00  0.00    -0.095 C  
BRANCH   4   5
HETATM    5  C   UNL     1      -6.481   6.814  64.505  1.00  0.00    -0.042 C  
HETATM    6  C   UNL     1      -5.725   7.819  65.395  1.00  0.00    -0.037 C  
HETATM    7  C   UNL     1      -5.220   8.942  64.498  1.00  0.00    -0.050 C  
HETATM    8  C   UNL     1      -6.899   7.698  63.319  1.00  0.00    -0.067 C  
HETATM    9  C   UNL     1      -5.701   8.608  63.100  1.00  0.00    -0.073 C  
ENDBRANCH   4   5
BRANCH   4  10
HETATM   10  N   UNL     1      -8.391   6.836  66.227  1.00  0.00    -0.120 NA 
HETATM   11  C   UNL     1      -9.555   8.334  67.361  1.00  0.00    -0.205 A  
HETATM   12  C   UNL     1      -9.170   7.943  66.098  1.00  0.00    -0.152 A  
HETATM   13  C   UNL     1      -9.053   7.312  68.186  1.00  0.00    -0.134 A  
HETATM   14  N   UNL     1      -8.380   6.382  67.502  1.00  0.00    -0.117 NA 
BRANCH  11  15
HETATM   15  C   UNL     1     -10.288   9.551  67.609  1.00  0.00    -0.244 A  
HETATM   16  C   UNL     1     -10.542  10.482  66.600  1.00  0.00    -0.263 A  
HETATM   17  C   UNL     1     -10.238  10.655  65.220  1.00  0.00    -0.351 A  
HETATM   18  C   UNL     1     -10.861  11.809  64.792  1.00  0.00    -0.302 A  
HETATM   19  N   UNL     1     -11.537  12.339  65.860  1.00  0.00    -0.385 NA 
HETATM   20  C   UNL     1     -11.361  11.544  66.959  1.00  0.00    -0.269 A  
HETATM   21  H   UNL     1     -12.088  13.197  65.838  1.00  0.00     0.000 HD 
HETATM   22  N   UNL     1     -11.917  11.773  68.158  1.00  0.00    -0.557 NA 
HETATM   23  C   UNL     1     -11.605  10.811  69.041  1.00  0.00    -0.299 A  
HETATM   24  N   UNL     1     -10.839   9.724  68.841  1.00  0.00    -0.214 NA 
ENDBRANCH  11  15
ENDBRANCH   4  10
ENDBRANCH   3   4
TORSDOF 4
ENDMDL
MODEL      257
REMARK 921   NORMALIZED FREE ENERGY PREDICTED BY IDOCK:   -3.26 KCAL/MOL
REMARK 922        TOTAL FREE ENERGY PREDICTED BY IDOCK:   -4.43 KCAL/MOL
REMARK 923 INTER-LIGAND FREE ENERGY PREDICTED BY IDOCK:   -3.84 KCAL/MOL
REMARK 924 INTRA-LIGAND FREE ENERGY PREDICTED BY IDOCK:   -0.58 KCAL/MOL
REMARK 927      BINDING AFFINITY PREDICTED BY RF-SCORE:    0.00 PKD
ROOT
HETATM    1  N   UNL     1      -7.116   1.599  65.771  1.00  0.00    -0.046 NA 
HETATM    2  C   UNL     1      -7.437   2.367  66.578  1.00  0.00    -0.070 C  
HETATM    3  C   UNL     1      -7.905   3.315  67.601  1.00  0.00    -0.076 C  
ENDROOT
BRANCH   3   4
HETATM    4  C   UNL     1      -8.492   4.611  66.982  1.00  0.00    -0.105 C  
BRANCH   4   5
HETATM    5  C   UNL     1      -7.377   5.507  66.344  1.00  0.00    -0.079 C  
HETATM    6  C   UNL     1      -6.271   5.980  67.305  1.00  0.00    -0.033 C  
HETATM    7  C   UNL     1      -5.804   7.352  66.833  1.00  0.00    -0.034 C  
HETATM    8  C   UNL     1      -7.902   6.840  65.787  1.00  0.00    -0.102 C  
HETATM    9  C   UNL     1      -6.650   7.685  65.620  1.00  0.00    -0.045 C  
ENDBRANCH   4   5
BRANCH   4  10
HETATM   10  N   UNL     1      -9.378   5.289  67.945  1.00  0.00    -0.113 NA 
HETATM   11  C   UNL     1     -10.319   6.132  69.758  1.00  0.00    -0.269 A  
HETATM   12  C   UNL     1      -9.178   5.539  69.267  1.00  0.00    -0.113 A  
HETATM   13  C   UNL     1     -11.114   6.312  68.612  1.00  0.00    -0.325 A  
HETATM   14  N   UNL     1     -10.534   5.838  67.505  1.00  0.00    -0.227 NA 
BRANCH  11  15
HETATM   15  C   UNL     1     -10.505   6.421  71.159  1.00  0.00    -0.221 A  
HETATM   16  C   UNL     1     -10.510   5.416  72.128  1.00  0.00    -0.273 A  
HETATM   17  C   UNL     1     -10.410   3.996  72.180  1.00  0.00    -0.155 A  
HETATM   18  C   UNL     1     -10.435   3.620  73.506  1.00  0.00    -0.179 A  
HETATM   19  N   UNL     1     -10.540   4.758  74.262  1.00  0.00    -0.288 NA 
HETATM   20  C   UNL     1     -10.579   5.854  73.444  1.00  0.00    -0.258 A  
HETATM   21  H   UNL     1     -10.583   4.785  75.281  1.00  0.00     0.000 HD 
HETATM   22  N   UNL     1     -10.651   7.121  73.876  1.00  0.00    -0.292 NA 
HETATM   23  C   UNL     1     -10.634   7.995  72.856  1.00  0.00    -0.329 A  
HETATM   24  N   UNL     1     -10.561   7.725  71.540  1.00  0.00    -0.212 NA 
ENDBRANCH  11  15
ENDBRANCH   4  10
ENDBRANCH   3   4
TORSDOF 4
ENDMDL
MODEL      258
REMARK 921   NORMALIZED FREE ENERGY PREDICTED BY IDOCK:   -3.24 KCAL/MOL
REMARK 922        TOTAL FREE ENERGY PREDICTED BY IDOCK:   -4.41 KCAL/MOL
REMARK 923 INTER-LIGAND FREE ENERGY PREDICTED BY IDOCK:   -4.58 KCAL/MOL
REMARK 924 INTRA-LIGAND FREE ENERGY PREDICTED BY IDOCK:    0.17 KCAL/MOL
REMARK 927      BINDING AFFINITY PREDICTED BY RF-SCORE:    0.00 PKD
ROOT
HETATM    1  N   UNL     1      -8.525  15.595  69.462  1.00  0.00    -0.237 NA 
HETATM    2  C   UNL     1      -9.487  15.671  68.820  1.00  0.00    -0.214 C  
HETATM    3  C   UNL     1     -10.742  15.779  68.059  1.00  0.00    -0.296 C  
ENDROOT
BRANCH   3   4
HETATM    4  C   UNL     1     -11.511  14.434  67.989  1.00  0.00    -0.310 C  
BRANCH   4   5
HETATM    5  C   UNL     1     -12.398  14.206  69.260  1.00  0.00    -0.206 C  
HETATM    6  C   UNL     1     -12.822  15.481  70.013  1.00  0.00    -0.047 C  
HETATM    7  C   UNL     1     -12.924  15.130  71.493  1.00  0.00    -0.458 C  
HETATM    8  C   UNL     1     -11.692  13.406  70.367  1.00  0.00    -0.184 C  
HETATM    9  C   UNL     1     -12.537  13.668  71.603  1.00  0.00    -0.343 C  
ENDBRANCH   4   5
BRANCH   4  10
HETATM   10  N   UNL     1     -10.596  13.332  67.646  1.00  0.00    -0.234 NA 
HETATM   11  C   UNL     1      -9.282  11.555  67.676  1.00  0.00    -0.171 A  
HETATM   12  C   UNL     1     -10.198  12.278  68.408  1.00  0.00    -0.217 A  
HETATM   13  C   UNL     1      -9.288  12.192  66.422  1.00  0.00    -0.224 A  
HETATM   14  N   UNL     1     -10.111  13.245  66.385  1.00  0.00    -0.283 NA 
BRANCH  11  15
HETATM   15  C   UNL     1      -8.555  10.437  68.225  1.00  0.00    -0.128 A  
HETATM   16  C   UNL     1      -9.123   9.166  68.333  1.00  0.00    -0.132 A  
HETATM   17  C   UNL     1     -10.374   8.541  68.069  1.00  0.00    -0.272 A  
HETATM   18  C   UNL     1     -10.246   7.199  68.361  1.00  0.00    -0.174 A  
HETATM   19  N   UNL     1      -8.961   6.986  68.787  1.00  0.00    -0.132 NA 
HETATM   20  C   UNL     1      -8.266   8.163  68.768  1.00  0.00    -0.125 A  
HETATM   21  H   UNL     1      -8.580   6.084  69.074  1.00  0.00     0.000 HD 
HETATM   22  N   UNL     1      -6.973   8.287  69.102  1.00  0.00    -0.062 NA 
HETATM   23  C   UNL     1      -6.541   9.549  68.954  1.00  0.00    -0.047 A  
HETATM   24  N   UNL     1      -7.244  10.618  68.536  1.00  0.00    -0.082 NA 
ENDBRANCH  11  15
ENDBRANCH   4  10
ENDBRANCH   3   4
TORSDOF 4
ENDMDL
MODEL      259
REMARK 921   NORMALIZED FREE ENERGY PREDICTED BY IDOCK:   -3.20 KCAL/MOL
REMARK 922        TOTAL FREE ENERGY PREDICTED BY IDOCK:   -4.35 KCAL/MOL
REMARK 923 INTER-LIGAND FREE ENERGY PREDICTED BY IDOCK:   -3.74 KCAL/MOL
REMARK 924 INTRA-LIGAND FREE ENERGY PREDICTED BY IDOCK:   -0.61 KCAL/MOL
REMARK 927      BINDING AFFINITY PREDICTED BY RF-SCORE:    0.00 PKD
ROOT
HETATM    1  N   UNL     1      -8.557   8.597  71.485  1.00  0.00    -0.183 NA 
HETATM    2  C   UNL     1      -8.941   9.215  70.582  1.00  0.00    -0.244 C  
HETATM    3  C   UNL     1      -9.469   9.950  69.422  1.00  0.00    -0.226 C  
ENDROOT
BRANCH   3   4
HETATM    4  C   UNL     1      -8.703   9.622  68.114  1.00  0.00    -0.119 C  
BRANCH   4   5
HETATM    5  C   UNL     1      -8.687  10.841  67.130  1.00  0.00    -0.131 C  
HETATM    6  C   UNL     1      -8.663  12.231  67.793  1.00  0.00    -0.174 C  
HETATM    7  C   UNL     1      -9.422  13.190  66.882  1.00  0.00    -0.244 C  
HETATM    8  C   UNL     1      -9.941  10.935  66.246  1.00  0.00    -0.274 C  
HETATM    9  C   UNL     1      -9.906  12.357  65.711  1.00  0.00    -0.253 C  
ENDBRANCH   4   5
BRANCH   4  10
HETATM   10  N   UNL     1      -9.175   8.350  67.542  1.00  0.00    -0.139 NA 
HETATM   11  C   UNL     1      -9.346   6.393  66.528  1.00  0.00    -0.181 A  
HETATM   12  C   UNL     1      -8.455   7.339  66.984  1.00  0.00    -0.118 A  
HETATM   13  C   UNL     1     -10.590   6.872  66.976  1.00  0.00    -0.333 A  
HETATM   14  N   UNL     1     -10.489   8.037  67.624  1.00  0.00    -0.240 NA 
BRANCH  11  15
HETATM   15  C   UNL     1      -8.934   5.240  65.766  1.00  0.00    -0.154 A  
HETATM   16  C   UNL     1      -8.333   5.358  64.511  1.00  0.00    -0.138 A  
HETATM   17  C   UNL     1      -7.977   6.395  63.602  1.00  0.00    -0.084 A  
HETATM   18  C   UNL     1      -7.343   5.813  62.525  1.00  0.00    -0.052 A  
HETATM   19  N   UNL     1      -7.295   4.461  62.750  1.00  0.00    -0.047 NA 
HETATM   20  C   UNL     1      -7.882   4.171  63.950  1.00  0.00    -0.084 A  
HETATM   21  H   UNL     1      -6.883   3.775  62.117  1.00  0.00     0.000 HD 
HETATM   22  N   UNL     1      -7.971   2.939  64.473  1.00  0.00    -0.081 NA 
HETATM   23  C   UNL     1      -8.562   2.954  65.679  1.00  0.00    -0.116 A  
HETATM   24  N   UNL     1      -9.038   4.017  66.351  1.00  0.00    -0.129 NA 
ENDBRANCH  11  15
ENDBRANCH   4  10
ENDBRANCH   3   4
TORSDOF 4
ENDMDL
MODEL      260
REMARK 921   NORMALIZED FREE ENERGY PREDICTED BY IDOCK:   -3.18 KCAL/MOL
REMARK 922        TOTAL FREE ENERGY PREDICTED BY IDOCK:   -4.33 KCAL/MOL
REMARK 923 INTER-LIGAND FREE ENERGY PREDICTED BY IDOCK:   -4.30 KCAL/MOL
REMARK 924 INTRA-LIGAND FREE ENERGY PREDICTED BY IDOCK:   -0.02 KCAL/MOL
REMARK 927      BINDING AFFINITY PREDICTED BY RF-SCORE:    0.00 PKD
ROOT
HETATM    1  N   UNL     1      -6.670  21.306  68.256  1.00  0.00     0.048 NA 
HETATM    2  C   UNL     1      -7.489  20.519  68.491  1.00  0.00     0.151 C  
HETATM    3  C   UNL     1      -8.505  19.518  68.851  1.00  0.00    -0.291 C  
ENDROOT
BRANCH   3   4
HETATM    4  C   UNL     1      -7.997  18.064  68.664  1.00  0.00    -0.294 C  
BRANCH   4   5
HETATM    5  C   UNL     1      -6.685  18.013  67.810  1.00  0.00    -0.200 C  
HETATM    6  C   UNL     1      -6.832  18.440  66.337  1.00  0.00    -0.252 C  
HETATM    7  C   UNL     1      -5.833  17.631  65.519  1.00  0.00     0.080 C  
HETATM    8  C   UNL     1      -6.096  16.600  67.670  1.00  0.00    -0.164 C  
HETATM    9  C   UNL     1      -5.127  16.721  66.505  1.00  0.00     0.089 C  
ENDBRANCH   4   5
BRANCH   4  10
HETATM   10  N   UNL     1      -9.089  17.189  68.204  1.00  0.00    -0.240 NA 
HETATM   11  C   UNL     1     -10.419  15.479  67.765  1.00  0.00    -0.273 A  
HETATM   12  C   UNL     1      -9.313  15.876  68.483  1.00  0.00    -0.206 A  
HETATM   13  C   UNL     1     -10.871  16.672  67.173  1.00  0.00    -0.126 A  
HETATM   14  N   UNL     1     -10.092  17.719  67.466  1.00  0.00    -0.325 NA 
BRANCH  11  15
HETATM   15  C   UNL     1     -10.869  14.110  67.723  1.00  0.00    -0.252 A  
HETATM   16  C   UNL     1     -11.548  13.520  68.790  1.00  0.00    -0.362 A  
HETATM   17  C   UNL     1     -11.969  13.878  70.103  1.00  0.00    -0.402 A  
HETATM   18  C   UNL     1     -12.665  12.810  70.629  1.00  0.00    -0.077 A  
HETATM   19  N   UNL     1     -12.689  11.820  69.681  1.00  0.00     0.242 NA 
HETATM   20  C   UNL     1     -12.025  12.236  68.561  1.00  0.00    -0.219 A  
HETATM   21  H   UNL     1     -13.134  10.909  69.795  1.00  0.00     0.000 HD 
HETATM   22  N   UNL     1     -11.893  11.509  67.442  1.00  0.00    -0.620 NA 
HETATM   23  C   UNL     1     -11.228  12.180  66.488  1.00  0.00    -0.328 A  
HETATM   24  N   UNL     1     -10.718  13.424  66.558  1.00  0.00    -0.284 NA 
ENDBRANCH  11  15
ENDBRANCH   4  10
ENDBRANCH   3   4
TORSDOF 4
ENDMDL
MODEL      261
REMARK 921   NORMALIZED FREE ENERGY PREDICTED BY IDOCK:   -3.17 KCAL/MOL
REMARK 922        TOTAL FREE ENERGY PREDICTED BY IDOCK:   -4.32 KCAL/MOL
REMARK 923 INTER-LIGAND FREE ENERGY PREDICTED BY IDOCK:   -4.68 KCAL/MOL
REMARK 924 INTRA-LIGAND FREE ENERGY PREDICTED BY IDOCK:    0.36 KCAL/MOL
REMARK 927      BINDING AFFINITY PREDICTED BY RF-SCORE:    0.00 PKD
ROOT
HETATM    1  N   UNL     1     -14.395  15.708  70.486  1.00  0.00     0.365 NA 
HETATM    2  C   UNL     1     -13.597  14.868  70.497  1.00  0.00     0.103 C  
HETATM    3  C   UNL     1     -12.592  13.796  70.575  1.00  0.00    -0.361 C  
ENDROOT
BRANCH   3   4
HETATM    4  C   UNL     1     -11.171  14.336  70.883  1.00  0.00     0.352 C  
BRANCH   4   5
HETATM    5  C   UNL     1     -11.148  15.196  72.192  1.00  0.00    -0.006 C  
HETATM    6  C   UNL     1     -11.932  14.615  73.384  1.00  0.00    -0.144 C  
HETATM    7  C   UNL     1     -12.479  15.786  74.191  1.00  0.00    -0.793 C  
HETATM    8  C   UNL     1     -11.799  16.579  72.031  1.00  0.00    -0.321 C  
HETATM    9  C   UNL     1     -12.039  17.039  73.460  1.00  0.00     0.052 C  
ENDBRANCH   4   5
BRANCH   4  10
HETATM   10  N   UNL     1     -10.592  14.978  69.690  1.00  0.00    -0.251 NA 
HETATM   11  C   UNL     1      -9.424  16.221  68.285  1.00  0.00    -0.214 A  
HETATM   12  C   UNL     1      -9.542  15.838  69.602  1.00  0.00    -0.233 A  
HETATM   13  C   UNL     1     -10.383  15.432  67.627  1.00  0.00    -0.262 A  
HETATM   14  N   UNL     1     -11.069  14.649  68.467  1.00  0.00    -0.249 NA 
BRANCH  11  15
HETATM   15  C   UNL     1      -8.489  17.229  67.848  1.00  0.00    -0.218 A  
HETATM   16  C   UNL     1      -8.896  18.523  67.518  1.00  0.00    -0.276 A  
HETATM   17  C   UNL     1     -10.112  19.259  67.430  1.00  0.00    -0.486 A  
HETATM   18  C   UNL     1      -9.796  20.556  67.083  1.00  0.00    -0.426 A  
HETATM   19  N   UNL     1      -8.433  20.636  66.964  1.00  0.00    -0.551 NA 
HETATM   20  C   UNL     1      -7.873  19.417  67.231  1.00  0.00    -0.257 A  
HETATM   21  H   UNL     1      -7.914  21.478  66.713  1.00  0.00     0.000 HD 
HETATM   22  N   UNL     1      -6.555  19.170  67.227  1.00  0.00    -0.193 NA 
HETATM   23  C   UNL     1      -6.288  17.898  67.563  1.00  0.00    -0.167 A  
HETATM   24  N   UNL     1      -7.164  16.925  67.875  1.00  0.00    -0.146 NA 
ENDBRANCH  11  15
ENDBRANCH   4  10
ENDBRANCH   3   4
TORSDOF 4
ENDMDL
MODEL      262
REMARK 921   NORMALIZED FREE ENERGY PREDICTED BY IDOCK:   -3.00 KCAL/MOL
REMARK 922        TOTAL FREE ENERGY PREDICTED BY IDOCK:   -4.11 KCAL/MOL
REMARK 923 INTER-LIGAND FREE ENERGY PREDICTED BY IDOCK:   -3.50 KCAL/MOL
REMARK 924 INTRA-LIGAND FREE ENERGY PREDICTED BY IDOCK:   -0.61 KCAL/MOL
REMARK 927      BINDING AFFINITY PREDICTED BY RF-SCORE:    0.00 PKD
ROOT
HETATM    1  N   UNL     1      -8.083  17.172  68.371  1.00  0.00    -0.245 NA 
HETATM    2  C   UNL     1      -8.092  16.147  67.830  1.00  0.00    -0.145 C  
HETATM    3  C   UNL     1      -8.115  14.877  67.088  1.00  0.00    -0.239 C  
ENDROOT
BRANCH   3   4
HETATM    4  C   UNL     1      -9.543  14.280  66.978  1.00  0.00    -0.257 C  
BRANCH   4   5
HETATM    5  C   UNL     1     -10.368  14.505  68.290  1.00  0.00    -0.236 C  
HETATM    6  C   UNL     1     -10.390  13.320  69.275  1.00  0.00     0.248 C  
HETATM    7  C   UNL     1     -11.737  13.337  69.988  1.00  0.00    -0.295 C  
HETATM    8  C   UNL     1     -11.868  14.735  68.042  1.00  0.00    -0.324 C  
HETATM    9  C   UNL     1     -12.504  14.508  69.404  1.00  0.00    -0.113 C  
ENDBRANCH   4   5
BRANCH   4  10
HETATM   10  N   UNL     1      -9.487  12.891  66.493  1.00  0.00    -0.257 NA 
HETATM   11  C   UNL     1      -8.882  10.831  65.970  1.00  0.00    -0.192 A  
HETATM   12  C   UNL     1      -8.516  11.955  66.675  1.00  0.00    -0.143 A  
HETATM   13  C   UNL     1     -10.166  11.146  65.492  1.00  0.00    -0.263 A  
HETATM   14  N   UNL     1     -10.555  12.378  65.836  1.00  0.00    -0.252 NA 
BRANCH  11  15
HETATM   15  C   UNL     1      -8.020   9.682  65.836  1.00  0.00    -0.112 A  
HETATM   16  C   UNL     1      -7.716   9.124  64.593  1.00  0.00    -0.113 A  
HETATM   17  C   UNL     1      -8.060   9.335  63.227  1.00  0.00    -0.159 A  
HETATM   18  C   UNL     1      -7.342   8.434  62.468  1.00  0.00    -0.097 A  
HETATM   19  N   UNL     1      -6.572   7.689  63.322  1.00  0.00    -0.058 NA 
HETATM   20  C   UNL     1      -6.780   8.099  64.610  1.00  0.00    -0.067 A  
HETATM   21  H   UNL     1      -5.938   6.940  63.039  1.00  0.00     0.000 HD 
HETATM   22  N   UNL     1      -6.154   7.587  65.680  1.00  0.00    -0.038 NA 
HETATM   23  C   UNL     1      -6.523   8.205  66.813  1.00  0.00    -0.056 A  
HETATM   24  N   UNL     1      -7.404   9.213  66.954  1.00  0.00    -0.089 NA 
ENDBRANCH  11  15
ENDBRANCH   4  10
ENDBRANCH   3   4
TORSDOF 4
ENDMDL
MODEL      263
REMARK 921   NORMALIZED FREE ENERGY PREDICTED BY IDOCK:   -2.99 KCAL/MOL
REMARK 922        TOTAL FREE ENERGY PREDICTED BY IDOCK:   -4.09 KCAL/MOL
REMARK 923 INTER-LIGAND FREE ENERGY PREDICTED BY IDOCK:   -4.32 KCAL/MOL
REMARK 924 INTRA-LIGAND FREE ENERGY PREDICTED BY IDOCK:    0.23 KCAL/MOL
REMARK 927      BINDING AFFINITY PREDICTED BY RF-SCORE:    0.00 PKD
ROOT
HETATM    1  N   UNL     1     -10.020   4.354  65.220  1.00  0.00    -0.204 NA 
HETATM    2  C   UNL     1      -9.636   4.030  66.265  1.00  0.00    -0.199 C  
HETATM    3  C   UNL     1      -9.209   3.616  67.610  1.00  0.00    -0.225 C  
ENDROOT
BRANCH   3   4
HETATM    4  C   UNL     1      -8.995   4.822  68.562  1.00  0.00    -0.111 C  
BRANCH   4   5
HETATM    5  C   UNL     1     -10.191   4.994  69.559  1.00  0.00    -0.286 C  
HETATM    6  C   UNL     1     -11.297   5.968  69.111  1.00  0.00    -0.196 C  
HETATM    7  C   UNL     1     -11.876   6.617  70.362  1.00  0.00    -0.407 C  
HETATM    8  C   UNL     1      -9.780   5.588  70.916  1.00  0.00    -0.231 C  
HETATM    9  C   UNL     1     -11.094   6.045  71.528  1.00  0.00    -0.336 C  
ENDBRANCH   4   5
BRANCH   4  10
HETATM   10  N   UNL     1      -8.627   6.026  67.796  1.00  0.00    -0.107 NA 
HETATM   11  C   UNL     1      -8.587   8.003  66.809  1.00  0.00    -0.133 A  
HETATM   12  C   UNL     1      -9.283   7.214  67.697  1.00  0.00    -0.125 A  
HETATM   13  C   UNL     1      -7.443   7.238  66.519  1.00  0.00    -0.088 A  
HETATM   14  N   UNL     1      -7.442   6.056  67.143  1.00  0.00    -0.083 NA 
BRANCH  11  15
HETATM   15  C   UNL     1      -9.068   9.288  66.367  1.00  0.00    -0.160 A  
HETATM   16  C   UNL     1      -8.652  10.480  66.964  1.00  0.00    -0.127 A  
HETATM   17  C   UNL     1      -7.814  10.887  68.041  1.00  0.00    -0.107 A  
HETATM   18  C   UNL     1      -7.795  12.266  68.063  1.00  0.00    -0.147 A  
HETATM   19  N   UNL     1      -8.586  12.711  67.036  1.00  0.00    -0.245 NA 
HETATM   20  C   UNL     1      -9.105  11.644  66.356  1.00  0.00    -0.206 A  
HETATM   21  H   UNL     1      -8.761  13.691  66.812  1.00  0.00     0.000 HD 
HETATM   22  N   UNL     1      -9.897  11.743  65.279  1.00  0.00    -0.242 NA 
HETATM   23  C   UNL     1     -10.227  10.535  64.793  1.00  0.00    -0.303 A  
HETATM   24  N   UNL     1      -9.860   9.329  65.262  1.00  0.00    -0.054 NA 
ENDBRANCH  11  15
ENDBRANCH   4  10
ENDBRANCH   3   4
TORSDOF 4
ENDMDL
MODEL      264
REMARK 921   NORMALIZED FREE ENERGY PREDICTED BY IDOCK:   -2.98 KCAL/MOL
REMARK 922        TOTAL FREE ENERGY PREDICTED BY IDOCK:   -4.09 KCAL/MOL
REMARK 923 INTER-LIGAND FREE ENERGY PREDICTED BY IDOCK:   -3.81 KCAL/MOL
REMARK 924 INTRA-LIGAND FREE ENERGY PREDICTED BY IDOCK:   -0.28 KCAL/MOL
REMARK 927      BINDING AFFINITY PREDICTED BY RF-SCORE:    0.00 PKD
ROOT
HETATM    1  N   UNL     1      -8.329  18.584  68.776  1.00  0.00    -0.288 NA 
HETATM    2  C   UNL     1      -7.900  17.548  68.483  1.00  0.00    -0.274 C  
HETATM    3  C   UNL     1      -7.336  16.258  68.055  1.00  0.00    -0.141 C  
ENDROOT
BRANCH   3   4
HETATM    4  C   UNL     1      -8.352  15.404  67.251  1.00  0.00    -0.199 C  
BRANCH   4   5
HETATM    5  C   UNL     1      -9.831  15.739  67.645  1.00  0.00    -0.232 C  
HETATM    6  C   UNL     1     -10.334  15.094  68.950  1.00  0.00    -0.243 C  
HETATM    7  C   UNL     1     -11.826  14.826  68.787  1.00  0.00    -0.330 C  
HETATM    8  C   UNL     1     -10.867  15.238  66.626  1.00  0.00    -0.310 C  
HETATM    9  C   UNL     1     -12.182  15.287  67.388  1.00  0.00     0.530 C  
ENDBRANCH   4   5
BRANCH   4  10
HETATM   10  N   UNL     1      -7.987  13.978  67.306  1.00  0.00    -0.168 NA 
HETATM   11  C   UNL     1      -7.983  11.769  67.266  1.00  0.00    -0.161 A  
HETATM   12  C   UNL     1      -8.732  12.888  66.980  1.00  0.00    -0.195 A  
HETATM   13  C   UNL     1      -6.737  12.298  67.648  1.00  0.00    -0.126 A  
HETATM   14  N   UNL     1      -6.720  13.634  67.638  1.00  0.00    -0.172 NA 
BRANCH  11  15
HETATM   15  C   UNL     1      -8.511  10.431  67.161  1.00  0.00    -0.126 A  
HETATM   16  C   UNL     1      -8.413   9.686  65.985  1.00  0.00    -0.131 A  
HETATM   17  C   UNL     1      -7.920   9.861  64.661  1.00  0.00    -0.141 A  
HETATM   18  C   UNL     1      -8.091   8.670  63.986  1.00  0.00    -0.163 A  
HETATM   19  N   UNL     1      -8.664   7.777  64.854  1.00  0.00    -0.374 NA 
HETATM   20  C   UNL     1      -8.858   8.373  66.069  1.00  0.00    -0.167 A  
HETATM   21  H   UNL     1      -8.909   6.813  64.627  1.00  0.00     0.000 HD 
HETATM   22  N   UNL     1      -9.375   7.758  67.142  1.00  0.00    -0.143 NA 
HETATM   23  C   UNL     1      -9.415   8.571  68.210  1.00  0.00    -0.134 A  
HETATM   24  N   UNL     1      -9.014   9.853  68.285  1.00  0.00    -0.119 NA 
ENDBRANCH  11  15
ENDBRANCH   4  10
ENDBRANCH   3   4
TORSDOF 4
ENDMDL
MODEL      265
REMARK 921   NORMALIZED FREE ENERGY PREDICTED BY IDOCK:   -2.95 KCAL/MOL
REMARK 922        TOTAL FREE ENERGY PREDICTED BY IDOCK:   -4.04 KCAL/MOL
REMARK 923 INTER-LIGAND FREE ENERGY PREDICTED BY IDOCK:   -4.69 KCAL/MOL
REMARK 924 INTRA-LIGAND FREE ENERGY PREDICTED BY IDOCK:    0.64 KCAL/MOL
REMARK 927      BINDING AFFINITY PREDICTED BY RF-SCORE:    0.00 PKD
ROOT
HETATM    1  N   UNL     1      -7.005  15.272  69.869  1.00  0.00    -0.161 NA 
HETATM    2  C   UNL     1      -6.809  16.270  69.313  1.00  0.00    -0.211 C  
HETATM    3  C   UNL     1      -6.624  17.546  68.603  1.00  0.00    -0.206 C  
ENDROOT
BRANCH   3   4
HETATM    4  C   UNL     1      -6.624  17.371  67.062  1.00  0.00    -0.178 C  
BRANCH   4   5
HETATM    5  C   UNL     1      -5.953  18.589  66.340  1.00  0.00    -0.188 C  
HETATM    6  C   UNL     1      -6.852  19.825  66.145  1.00  0.00    -0.252 C  
HETATM    7  C   UNL     1      -6.425  20.508  64.851  1.00  0.00    -0.333 C  
HETATM    8  C   UNL     1      -5.518  18.287  64.898  1.00  0.00    -0.105 C  
HETATM    9  C   UNL     1      -5.302  19.661  64.284  1.00  0.00    -0.244 C  
ENDBRANCH   4   5
BRANCH   4  10
HETATM   10  N   UNL     1      -7.968  17.009  66.581  1.00  0.00    -0.238 NA 
HETATM   11  C   UNL     1      -9.852  15.968  66.082  1.00  0.00    -0.351 A  
HETATM   12  C   UNL     1      -8.678  15.869  66.795  1.00  0.00    -0.269 A  
HETATM   13  C   UNL     1      -9.812  17.274  65.565  1.00  0.00     0.254 A  
HETATM   14  N   UNL     1      -8.692  17.924  65.894  1.00  0.00    -0.501 NA 
BRANCH  11  15
HETATM   15  C   UNL     1     -10.793  14.879  65.978  1.00  0.00    -0.328 A  
HETATM   16  C   UNL     1     -11.399  14.314  67.102  1.00  0.00    -0.352 A  
HETATM   17  C   UNL     1     -11.354  14.467  68.517  1.00  0.00    -0.309 A  
HETATM   18  C   UNL     1     -12.278  13.601  69.064  1.00  0.00    -0.208 A  
HETATM   19  N   UNL     1     -12.885  12.932  68.033  1.00  0.00     0.984 NA 
HETATM   20  C   UNL     1     -12.371  13.358  66.840  1.00  0.00    -0.207 A  
HETATM   21  H   UNL     1     -13.612  12.224  68.140  1.00  0.00     0.000 HD 
HETATM   22  N   UNL     1     -12.776  12.918  65.639  1.00  0.00    -0.488 NA 
HETATM   23  C   UNL     1     -12.126  13.535  64.640  1.00  0.00    -0.409 A  
HETATM   24  N   UNL     1     -11.175  14.482  64.735  1.00  0.00    -0.389 NA 
ENDBRANCH  11  15
ENDBRANCH   4  10
ENDBRANCH   3   4
TORSDOF 4
ENDMDL
MODEL      266
REMARK 921   NORMALIZED FREE ENERGY PREDICTED BY IDOCK:   -2.94 KCAL/MOL
REMARK 922        TOTAL FREE ENERGY PREDICTED BY IDOCK:   -4.04 KCAL/MOL
REMARK 923 INTER-LIGAND FREE ENERGY PREDICTED BY IDOCK:   -3.41 KCAL/MOL
REMARK 924 INTRA-LIGAND FREE ENERGY PREDICTED BY IDOCK:   -0.62 KCAL/MOL
REMARK 927      BINDING AFFINITY PREDICTED BY RF-SCORE:    0.00 PKD
ROOT
HETATM    1  N   UNL     1     -11.471  14.031  67.248  1.00  0.00    -0.330 NA 
HETATM    2  C   UNL     1     -10.394  13.621  67.115  1.00  0.00    -0.250 C  
HETATM    3  C   UNL     1      -9.051  13.062  66.900  1.00  0.00    -0.227 C  
ENDROOT
BRANCH   3   4
HETATM    4  C   UNL     1      -8.789  11.801  67.765  1.00  0.00    -0.163 C  
BRANCH   4   5
HETATM    5  C   UNL     1      -7.375  11.842  68.437  1.00  0.00    -0.095 C  
HETATM    6  C   UNL     1      -6.191  11.468  67.524  1.00  0.00    -0.075 C  
HETATM    7  C   UNL     1      -5.134  10.796  68.391  1.00  0.00    -0.033 C  
HETATM    8  C   UNL     1      -7.212  10.838  69.590  1.00  0.00    -0.127 C  
HETATM    9  C   UNL     1      -5.708  10.755  69.794  1.00  0.00    -0.053 C  
ENDBRANCH   4   5
BRANCH   4  10
HETATM   10  N   UNL     1      -9.094  10.578  67.002  1.00  0.00    -0.143 NA 
HETATM   11  C   UNL     1      -9.441   8.496  66.350  1.00  0.00    -0.297 A  
HETATM   12  C   UNL     1      -9.223   9.299  67.446  1.00  0.00    -0.126 A  
HETATM   13  C   UNL     1      -9.553   9.412  65.289  1.00  0.00    -0.180 A  
HETATM   14  N   UNL     1      -9.382  10.678  65.683  1.00  0.00    -0.190 NA 
BRANCH  11  15
HETATM   15  C   UNL     1      -9.498   7.057  66.438  1.00  0.00    -0.124 A  
HETATM   16  C   UNL     1      -8.451   6.246  65.996  1.00  0.00    -0.143 A  
HETATM   17  C   UNL     1      -7.183   6.404  65.369  1.00  0.00    -0.070 A  
HETATM   18  C   UNL     1      -6.610   5.155  65.254  1.00  0.00    -0.040 A  
HETATM   19  N   UNL     1      -7.481   4.245  65.794  1.00  0.00    -0.080 NA 
HETATM   20  C   UNL     1      -8.595   4.889  66.255  1.00  0.00    -0.115 A  
HETATM   21  H   UNL     1      -7.321   3.238  65.845  1.00  0.00     0.000 HD 
HETATM   22  N   UNL     1      -9.624   4.283  66.865  1.00  0.00    -0.191 NA 
HETATM   23  C   UNL     1     -10.564   5.164  67.247  1.00  0.00    -0.066 A  
HETATM   24  N   UNL     1     -10.560   6.498  67.077  1.00  0.00    -0.294 NA 
ENDBRANCH  11  15
ENDBRANCH   4  10
ENDBRANCH   3   4
TORSDOF 4
ENDMDL
MODEL      267
REMARK 921   NORMALIZED FREE ENERGY PREDICTED BY IDOCK:   -2.71 KCAL/MOL
REMARK 922        TOTAL FREE ENERGY PREDICTED BY IDOCK:   -3.75 KCAL/MOL
REMARK 923 INTER-LIGAND FREE ENERGY PREDICTED BY IDOCK:   -3.42 KCAL/MOL
REMARK 924 INTRA-LIGAND FREE ENERGY PREDICTED BY IDOCK:   -0.33 KCAL/MOL
REMARK 927      BINDING AFFINITY PREDICTED BY RF-SCORE:    0.00 PKD
ROOT
HETATM    1  N   UNL     1     -11.114   3.937  64.773  1.00  0.00    -0.130 NA 
HETATM    2  C   UNL     1     -10.171   4.608  64.835  1.00  0.00     0.078 C  
HETATM    3  C   UNL     1      -8.943   5.418  64.876  1.00  0.00    -0.003 C  
ENDROOT
BRANCH   3   4
HETATM    4  C   UNL     1      -7.994   4.997  66.028  1.00  0.00    -0.107 C  
BRANCH   4   5
HETATM    5  C   UNL     1      -7.948   3.441  66.204  1.00  0.00    -0.092 C  
HETATM    6  C   UNL     1      -8.780   2.878  67.371  1.00  0.00    -0.141 C  
HETATM    7  C   UNL     1      -8.062   1.639  67.895  1.00  0.00    -0.064 C  
HETATM    8  C   UNL     1      -6.547   2.899  66.526  1.00  0.00    -0.036 C  
HETATM    9  C   UNL     1      -6.808   1.498  67.055  1.00  0.00    -0.038 C  
ENDBRANCH   4   5
BRANCH   4  10
HETATM   10  N   UNL     1      -8.290   5.766  67.249  1.00  0.00    -0.105 NA 
HETATM   11  C   UNL     1      -9.265   6.820  68.929  1.00  0.00    -0.131 A  
HETATM   12  C   UNL     1      -9.486   5.979  67.861  1.00  0.00    -0.112 A  
HETATM   13  C   UNL     1      -7.866   6.959  68.953  1.00  0.00    -0.111 A  
HETATM   14  N   UNL     1      -7.266   6.293  67.961  1.00  0.00    -0.085 NA 
BRANCH  11  15
HETATM   15  C   UNL     1     -10.337   7.359  69.729  1.00  0.00    -0.222 A  
HETATM   16  C   UNL     1     -10.847   6.680  70.838  1.00  0.00    -0.297 A  
HETATM   17  C   UNL     1     -10.643   5.438  71.504  1.00  0.00    -0.285 A  
HETATM   18  C   UNL     1     -11.469   5.410  72.608  1.00  0.00    -0.241 A  
HETATM   19  N   UNL     1     -12.163   6.592  72.640  1.00  0.00    -0.490 NA 
HETATM   20  C   UNL     1     -11.793   7.374  71.581  1.00  0.00    -0.291 A  
HETATM   21  H   UNL     1     -12.852   6.849  73.347  1.00  0.00     0.000 HD 
HETATM   22  N   UNL     1     -12.269   8.605  71.344  1.00  0.00    -0.298 NA 
HETATM   23  C   UNL     1     -11.703   9.156  70.258  1.00  0.00    -0.017 A  
HETATM   24  N   UNL     1     -10.773   8.616  69.450  1.00  0.00    -0.198 NA 
ENDBRANCH  11  15
ENDBRANCH   4  10
ENDBRANCH   3   4
TORSDOF 4
ENDMDL
MODEL      268
REMARK 921   NORMALIZED FREE ENERGY PREDICTED BY IDOCK:   -2.58 KCAL/MOL
REMARK 922        TOTAL FREE ENERGY PREDICTED BY IDOCK:   -3.59 KCAL/MOL
REMARK 923 INTER-LIGAND FREE ENERGY PREDICTED BY IDOCK:   -3.38 KCAL/MOL
REMARK 924 INTRA-LIGAND FREE ENERGY PREDICTED BY IDOCK:   -0.22 KCAL/MOL
REMARK 927      BINDING AFFINITY PREDICTED BY RF-SCORE:    0.00 PKD
ROOT
HETATM    1  N   UNL     1     -12.791  14.671  69.099  1.00  0.00     0.408 NA 
HETATM    2  C   UNL     1     -11.747  14.500  68.625  1.00  0.00    -0.329 C  
HETATM    3  C   UNL     1     -10.444  14.310  67.969  1.00  0.00    -0.235 C  
ENDROOT
BRANCH   3   4
HETATM    4  C   UNL     1     -10.350  12.956  67.218  1.00  0.00    -0.234 C  
BRANCH   4   5
HETATM    5  C   UNL     1     -11.541  12.763  66.219  1.00  0.00    -0.433 C  
HETATM    6  C   UNL     1     -11.335  11.687  65.136  1.00  0.00    -0.223 C  
HETATM    7  C   UNL     1     -12.082  12.138  63.887  1.00  0.00    -0.584 C  
HETATM    8  C   UNL     1     -11.840  14.010  65.370  1.00  0.00    -0.363 C  
HETATM    9  C   UNL     1     -12.697  13.481  64.232  1.00  0.00    -0.079 C  
ENDBRANCH   4   5
BRANCH   4  10
HETATM   10  N   UNL     1     -10.132  11.851  68.168  1.00  0.00    -0.192 NA 
HETATM   11  C   UNL     1      -9.294  10.190  69.360  1.00  0.00    -0.235 A  
HETATM   12  C   UNL     1      -8.982  11.190  68.466  1.00  0.00    -0.168 A  
HETATM   13  C   UNL     1     -10.654  10.412  69.638  1.00  0.00    -0.253 A  
HETATM   14  N   UNL     1     -11.159  11.440  68.948  1.00  0.00    -0.215 NA 
BRANCH  11  15
HETATM   15  C   UNL     1      -8.332   9.209  69.796  1.00  0.00    -0.136 A  
HETATM   16  C   UNL     1      -7.153   9.568  70.453  1.00  0.00    -0.120 A  
HETATM   17  C   UNL     1      -6.488  10.761  70.855  1.00  0.00     0.406 A  
HETATM   18  C   UNL     1      -5.343  10.399  71.532  1.00  0.00    -0.021 A  
HETATM   19  N   UNL     1      -5.291   9.029  71.561  1.00  0.00    -0.041 NA 
HETATM   20  C   UNL     1      -6.382   8.512  70.920  1.00  0.00    -0.041 A  
HETATM   21  H   UNL     1      -4.550   8.479  71.996  1.00  0.00     0.000 HD 
HETATM   22  N   UNL     1      -6.641   7.201  70.800  1.00  0.00    -0.047 NA 
HETATM   23  C   UNL     1      -7.799   6.981  70.156  1.00  0.00    -0.109 A  
HETATM   24  N   UNL     1      -8.652   7.894  69.659  1.00  0.00    -0.132 NA 
ENDBRANCH  11  15
ENDBRANCH   4  10
ENDBRANCH   3   4
TORSDOF 4
ENDMDL
MODEL      269
REMARK 921   NORMALIZED FREE ENERGY PREDICTED BY IDOCK:   -2.54 KCAL/MOL
REMARK 922        TOTAL FREE ENERGY PREDICTED BY IDOCK:   -3.54 KCAL/MOL
REMARK 923 INTER-LIGAND FREE ENERGY PREDICTED BY IDOCK:   -3.56 KCAL/MOL
REMARK 924 INTRA-LIGAND FREE ENERGY PREDICTED BY IDOCK:    0.02 KCAL/MOL
REMARK 927      BINDING AFFINITY PREDICTED BY RF-SCORE:    0.00 PKD
ROOT
HETATM    1  N   UNL     1     -10.053   4.122  64.787  1.00  0.00    -0.204 NA 
HETATM    2  C   UNL     1      -9.633   3.573  65.718  1.00  0.00    -0.104 C  
HETATM    3  C   UNL     1      -9.159   2.877  66.924  1.00  0.00    -0.181 C  
ENDROOT
BRANCH   3   4
HETATM    4  C   UNL     1      -8.726   3.860  68.044  1.00  0.00    -0.102 C  
BRANCH   4   5
HETATM    5  C   UNL     1      -9.939   4.299  68.931  1.00  0.00    -0.032 C  
HETATM    6  C   UNL     1     -10.645   5.598  68.498  1.00  0.00    -0.259 C  
HETATM    7  C   UNL     1     -11.168   6.281  69.756  1.00  0.00    -0.499 C  
HETATM    8  C   UNL     1      -9.554   4.620  70.384  1.00  0.00    -0.271 C  
HETATM    9  C   UNL     1     -10.746   5.400  70.916  1.00  0.00    -0.243 C  
ENDBRANCH   4   5
BRANCH   4  10
HETATM   10  N   UNL     1      -7.916   4.956  67.485  1.00  0.00    -0.094 NA 
HETATM   11  C   UNL     1      -7.104   6.919  66.877  1.00  0.00    -0.075 A  
HETATM   12  C   UNL     1      -8.052   6.298  67.658  1.00  0.00    -0.117 A  
HETATM   13  C   UNL     1      -6.353   5.849  66.360  1.00  0.00    -0.038 A  
HETATM   14  N   UNL     1      -6.816   4.658  66.755  1.00  0.00    -0.054 NA 
BRANCH  11  15
HETATM   15  C   UNL     1      -7.042   8.352  66.719  1.00  0.00    -0.074 A  
HETATM   16  C   UNL     1      -7.825   9.028  65.780  1.00  0.00    -0.098 A  
HETATM   17  C   UNL     1      -8.771   8.708  64.765  1.00  0.00    -0.099 A  
HETATM   18  C   UNL     1      -9.223   9.892  64.222  1.00  0.00    -0.265 A  
HETATM   19  N   UNL     1      -8.591  10.919  64.874  1.00  0.00    -0.351 NA 
HETATM   20  C   UNL     1      -7.748  10.413  65.824  1.00  0.00    -0.146 A  
HETATM   21  H   UNL     1      -8.728  11.911  64.679  1.00  0.00     0.000 HD 
HETATM   22  N   UNL     1      -7.004  11.160  66.654  1.00  0.00    -0.141 NA 
HETATM   23  C   UNL     1      -6.301  10.401  67.510  1.00  0.00    -0.058 A  
HETATM   24  N   UNL     1      -6.280   9.058  67.595  1.00  0.00    -0.055 NA 
ENDBRANCH  11  15
ENDBRANCH   4  10
ENDBRANCH   3   4
TORSDOF 4
ENDMDL
MODEL      270
REMARK 921   NORMALIZED FREE ENERGY PREDICTED BY IDOCK:   -2.49 KCAL/MOL
REMARK 922        TOTAL FREE ENERGY PREDICTED BY IDOCK:   -3.48 KCAL/MOL
REMARK 923 INTER-LIGAND FREE ENERGY PREDICTED BY IDOCK:   -4.06 KCAL/MOL
REMARK 924 INTRA-LIGAND FREE ENERGY PREDICTED BY IDOCK:    0.58 KCAL/MOL
REMARK 927      BINDING AFFINITY PREDICTED BY RF-SCORE:    0.00 PKD
ROOT
HETATM    1  N   UNL     1     -12.409  15.658  68.785  1.00  0.00     0.037 NA 
HETATM    2  C   UNL     1     -11.536  15.287  68.119  1.00  0.00    -0.330 C  
HETATM    3  C   UNL     1     -10.465  14.765  67.255  1.00  0.00    -0.264 C  
ENDROOT
BRANCH   3   4
HETATM    4  C   UNL     1      -9.535  13.771  68.000  1.00  0.00    -0.207 C  
BRANCH   4   5
HETATM    5  C   UNL     1      -8.117  13.698  67.340  1.00  0.00    -0.184 C  
HETATM    6  C   UNL     1      -7.544  12.281  67.147  1.00  0.00    -0.118 C  
HETATM    7  C   UNL     1      -6.029  12.373  67.285  1.00  0.00    -0.134 C  
HETATM    8  C   UNL     1      -7.015  14.372  68.173  1.00  0.00    -0.126 C  
HETATM    9  C   UNL     1      -5.724  13.828  67.582  1.00  0.00    -0.024 C  
ENDBRANCH   4   5
BRANCH   4  10
HETATM   10  N   UNL     1     -10.212  12.478  68.198  1.00  0.00    -0.225 NA 
HETATM   11  C   UNL     1     -10.700  10.352  68.554  1.00  0.00    -0.255 A  
HETATM   12  C   UNL     1      -9.686  11.283  68.579  1.00  0.00    -0.198 A  
HETATM   13  C   UNL     1     -11.841  11.119  68.261  1.00  0.00    -0.190 A  
HETATM   14  N   UNL     1     -11.559  12.414  68.082  1.00  0.00    -0.321 NA 
BRANCH  11  15
HETATM   15  C   UNL     1     -10.472   8.947  68.781  1.00  0.00    -0.200 A  
HETATM   16  C   UNL     1     -10.045   8.091  67.764  1.00  0.00    -0.250 A  
HETATM   17  C   UNL     1      -9.755   8.166  66.372  1.00  0.00    -0.275 A  
HETATM   18  C   UNL     1      -9.315   6.924  65.965  1.00  0.00     0.023 A  
HETATM   19  N   UNL     1      -9.321   6.100  67.060  1.00  0.00    -0.121 NA 
HETATM   20  C   UNL     1      -9.752   6.792  68.157  1.00  0.00    -0.129 A  
HETATM   21  H   UNL     1      -9.045   5.117  67.057  1.00  0.00     0.000 HD 
HETATM   22  N   UNL     1      -9.845   6.277  69.392  1.00  0.00    -0.150 NA 
HETATM   23  C   UNL     1     -10.260   7.192  70.282  1.00  0.00    -0.198 A  
HETATM   24  N   UNL     1     -10.570   8.482  70.056  1.00  0.00    -0.225 NA 
ENDBRANCH  11  15
ENDBRANCH   4  10
ENDBRANCH   3   4
TORSDOF 4
ENDMDL
MODEL      271
REMARK 921   NORMALIZED FREE ENERGY PREDICTED BY IDOCK:   -2.47 KCAL/MOL
REMARK 922        TOTAL FREE ENERGY PREDICTED BY IDOCK:   -3.46 KCAL/MOL
REMARK 923 INTER-LIGAND FREE ENERGY PREDICTED BY IDOCK:   -3.58 KCAL/MOL
REMARK 924 INTRA-LIGAND FREE ENERGY PREDICTED BY IDOCK:    0.13 KCAL/MOL
REMARK 927      BINDING AFFINITY PREDICTED BY RF-SCORE:    0.00 PKD
ROOT
HETATM    1  N   UNL     1      -8.989  13.808  68.121  1.00  0.00    -0.185 NA 
HETATM    2  C   UNL     1      -8.145  13.040  68.326  1.00  0.00    -0.151 C  
HETATM    3  C   UNL     1      -7.053  12.075  68.525  1.00  0.00    -0.098 C  
ENDROOT
BRANCH   3   4
HETATM    4  C   UNL     1      -7.451  10.635  68.107  1.00  0.00    -0.090 C  
BRANCH   4   5
HETATM    5  C   UNL     1      -8.124  10.607  66.693  1.00  0.00    -0.136 C  
HETATM    6  C   UNL     1      -9.647  10.376  66.685  1.00  0.00    -0.219 C  
HETATM    7  C   UNL     1      -9.991   9.609  65.414  1.00  0.00    -0.230 C  
HETATM    8  C   UNL     1      -7.627   9.460  65.798  1.00  0.00    -0.099 C  
HETATM    9  C   UNL     1      -8.674   9.372  64.700  1.00  0.00    -0.229 C  
ENDBRANCH   4   5
BRANCH   4  10
HETATM   10  N   UNL     1      -8.206   9.974  69.184  1.00  0.00    -0.125 NA 
HETATM   11  C   UNL     1      -8.883   8.656  70.824  1.00  0.00    -0.206 A  
HETATM   12  C   UNL     1      -7.801   9.003  70.047  1.00  0.00    -0.088 A  
HETATM   13  C   UNL     1      -9.875   9.573  70.433  1.00  0.00    -0.271 A  
HETATM   14  N   UNL     1      -9.460  10.399  69.468  1.00  0.00    -0.182 NA 
BRANCH  11  15
HETATM   15  C   UNL     1      -8.846   7.563  71.765  1.00  0.00    -0.115 A  
HETATM   16  C   UNL     1      -9.261   6.275  71.421  1.00  0.00    -0.153 A  
HETATM   17  C   UNL     1      -9.817   5.610  70.292  1.00  0.00    -0.254 A  
HETATM   18  C   UNL     1      -9.945   4.274  70.610  1.00  0.00    -0.148 A  
HETATM   19  N   UNL     1      -9.481   4.103  71.888  1.00  0.00    -0.132 NA 
HETATM   20  C   UNL     1      -9.056   5.302  72.390  1.00  0.00    -0.134 A  
HETATM   21  H   UNL     1      -9.456   3.215  72.390  1.00  0.00     0.000 HD 
HETATM   22  N   UNL     1      -8.520   5.468  73.608  1.00  0.00    -0.112 NA 
HETATM   23  C   UNL     1      -8.157   6.743  73.821  1.00  0.00    -0.105 A  
HETATM   24  N   UNL     1      -8.281   7.787  72.981  1.00  0.00    -0.120 NA 
ENDBRANCH  11  15
ENDBRANCH   4  10
ENDBRANCH   3   4
TORSDOF 4
ENDMDL
MODEL      272
REMARK 921   NORMALIZED FREE ENERGY PREDICTED BY IDOCK:   -2.30 KCAL/MOL
REMARK 922        TOTAL FREE ENERGY PREDICTED BY IDOCK:   -3.25 KCAL/MOL
REMARK 923 INTER-LIGAND FREE ENERGY PREDICTED BY IDOCK:   -3.14 KCAL/MOL
REMARK 924 INTRA-LIGAND FREE ENERGY PREDICTED BY IDOCK:   -0.11 KCAL/MOL
REMARK 927      BINDING AFFINITY PREDICTED BY RF-SCORE:    0.00 PKD
ROOT
HETATM    1  N   UNL     1      -8.352   2.716  64.905  1.00  0.00    -0.087 NA 
HETATM    2  C   UNL     1      -7.743   3.682  65.106  1.00  0.00    -0.085 C  
HETATM    3  C   UNL     1      -6.938   4.876  65.408  1.00  0.00    -0.062 C  
ENDROOT
BRANCH   3   4
HETATM    4  C   UNL     1      -7.570   5.751  66.522  1.00  0.00    -0.091 C  
BRANCH   4   5
HETATM    5  C   UNL     1      -8.688   4.980  67.301  1.00  0.00    -0.103 C  
HETATM    6  C   UNL     1      -9.892   5.829  67.752  1.00  0.00    -0.144 C  
HETATM    7  C   UNL     1     -10.409   5.240  69.059  1.00  0.00    -0.246 C  
HETATM    8  C   UNL     1      -8.209   4.382  68.633  1.00  0.00    -0.083 C  
HETATM    9  C   UNL     1      -9.497   4.073  69.380  1.00  0.00    -0.259 C  
ENDBRANCH   4   5
BRANCH   4  10
HETATM   10  N   UNL     1      -7.959   7.067  65.987  1.00  0.00    -0.103 NA 
HETATM   11  C   UNL     1      -8.510   9.192  65.726  1.00  0.00    -0.152 A  
HETATM   12  C   UNL     1      -8.024   8.268  66.624  1.00  0.00    -0.098 A  
HETATM   13  C   UNL     1      -8.590   8.468  64.523  1.00  0.00    -0.029 A  
HETATM   14  N   UNL     1      -8.222   7.191  64.665  1.00  0.00    -0.077 NA 
BRANCH  11  15
HETATM   15  C   UNL     1      -8.827  10.548  66.100  1.00  0.00    -0.159 A  
HETATM   16  C   UNL     1      -8.124  11.225  67.098  1.00  0.00    -0.150 A  
HETATM   17  C   UNL     1      -7.069  10.956  68.016  1.00  0.00    -0.077 A  
HETATM   18  C   UNL     1      -6.811  12.118  68.714  1.00  0.00    -0.095 A  
HETATM   19  N   UNL     1      -7.666  13.083  68.249  1.00  0.00    -0.133 NA 
HETATM   20  C   UNL     1      -8.461  12.562  67.266  1.00  0.00    -0.185 A  
HETATM   21  H   UNL     1      -7.704  14.045  68.585  1.00  0.00     0.000 HD 
HETATM   22  N   UNL     1      -9.385  13.258  66.588  1.00  0.00    -0.254 NA 
HETATM   23  C   UNL     1      -9.989  12.504  65.655  1.00  0.00    -0.245 A  
HETATM   24  N   UNL     1      -9.765  11.209  65.370  1.00  0.00    -0.220 NA 
ENDBRANCH  11  15
ENDBRANCH   4  10
ENDBRANCH   3   4
TORSDOF 4
ENDMDL
MODEL      273
REMARK 921   NORMALIZED FREE ENERGY PREDICTED BY IDOCK:   -2.18 KCAL/MOL
REMARK 922        TOTAL FREE ENERGY PREDICTED BY IDOCK:   -3.10 KCAL/MOL
REMARK 923 INTER-LIGAND FREE ENERGY PREDICTED BY IDOCK:   -4.22 KCAL/MOL
REMARK 924 INTRA-LIGAND FREE ENERGY PREDICTED BY IDOCK:    1.12 KCAL/MOL
REMARK 927      BINDING AFFINITY PREDICTED BY RF-SCORE:    0.00 PKD
ROOT
HETATM    1  N   UNL     1      -8.744  15.528  69.322  1.00  0.00    -0.249 NA 
HETATM    2  C   UNL     1      -9.298  15.086  68.405  1.00  0.00    -0.193 C  
HETATM    3  C   UNL     1     -10.056  14.542  67.268  1.00  0.00    -0.247 C  
ENDROOT
BRANCH   3   4
HETATM    4  C   UNL     1     -10.442  13.053  67.471  1.00  0.00    -0.227 C  
BRANCH   4   5
HETATM    5  C   UNL     1     -11.702  12.900  68.389  1.00  0.00    -0.382 C  
HETATM    6  C   UNL     1     -11.826  13.933  69.526  1.00  0.00    -0.383 C  
HETATM    7  C   UNL     1     -12.517  13.247  70.699  1.00  0.00    -0.373 C  
HETATM    8  C   UNL     1     -11.742  11.573  69.164  1.00  0.00    -0.395 C  
HETATM    9  C   UNL     1     -12.768  11.818  70.257  1.00  0.00    -0.005 C  
ENDBRANCH   4   5
BRANCH   4  10
HETATM   10  N   UNL     1      -9.265  12.263  67.870  1.00  0.00    -0.183 NA 
HETATM   11  C   UNL     1      -7.871  10.827  68.807  1.00  0.00    -0.129 A  
HETATM   12  C   UNL     1      -9.198  11.167  68.674  1.00  0.00    -0.171 A  
HETATM   13  C   UNL     1      -7.216  11.714  67.935  1.00  0.00    -0.083 A  
HETATM   14  N   UNL     1      -8.058  12.561  67.335  1.00  0.00    -0.171 NA 
BRANCH  11  15
HETATM   15  C   UNL     1      -7.421   9.784  69.696  1.00  0.00    -0.113 A  
HETATM   16  C   UNL     1      -7.720   8.438  69.470  1.00  0.00    -0.096 A  
HETATM   17  C   UNL     1      -8.458   7.662  68.532  1.00  0.00    -0.129 A  
HETATM   18  C   UNL     1      -8.298   6.334  68.865  1.00  0.00    -0.120 A  
HETATM   19  N   UNL     1      -7.484   6.274  69.966  1.00  0.00    -0.085 NA 
HETATM   20  C   UNL     1      -7.120   7.538  70.340  1.00  0.00    -0.059 A  
HETATM   21  H   UNL     1      -7.195   5.416  70.437  1.00  0.00     0.000 HD 
HETATM   22  N   UNL     1      -6.304   7.820  71.366  1.00  0.00    -0.035 NA 
HETATM   23  C   UNL     1      -6.088   9.140  71.480  1.00  0.00    -0.076 A  
HETATM   24  N   UNL     1      -6.586  10.127  70.713  1.00  0.00    -0.313 NA 
ENDBRANCH  11  15
ENDBRANCH   4  10
ENDBRANCH   3   4
TORSDOF 4
ENDMDL
MODEL      274
REMARK 921   NORMALIZED FREE ENERGY PREDICTED BY IDOCK:   -2.00 KCAL/MOL
REMARK 922        TOTAL FREE ENERGY PREDICTED BY IDOCK:   -2.87 KCAL/MOL
REMARK 923 INTER-LIGAND FREE ENERGY PREDICTED BY IDOCK:   -2.70 KCAL/MOL
REMARK 924 INTRA-LIGAND FREE ENERGY PREDICTED BY IDOCK:   -0.17 KCAL/MOL
REMARK 927      BINDING AFFINITY PREDICTED BY RF-SCORE:    0.00 PKD
ROOT
HETATM    1  N   UNL     1      -7.274   3.099  64.941  1.00  0.00    -0.068 NA 
HETATM    2  C   UNL     1      -6.589   3.841  65.510  1.00  0.00    -0.040 C  
HETATM    3  C   UNL     1      -5.717   4.741  66.281  1.00  0.00    -0.018 C  
ENDROOT
BRANCH   3   4
HETATM    4  C   UNL     1      -6.519   5.700  67.199  1.00  0.00    -0.044 C  
BRANCH   4   5
HETATM    5  C   UNL     1      -8.003   5.230  67.374  1.00  0.00    -0.100 C  
HETATM    6  C   UNL     1      -9.065   6.344  67.311  1.00  0.00    -0.117 C  
HETATM    7  C   UNL     1     -10.212   5.941  68.231  1.00  0.00    -0.226 C  
HETATM    8  C   UNL     1      -8.291   4.599  68.746  1.00  0.00    -0.085 C  
HETATM    9  C   UNL     1      -9.807   4.615  68.845  1.00  0.00    -0.211 C  
ENDBRANCH   4   5
BRANCH   4  10
HETATM   10  N   UNL     1      -6.340   7.098  66.769  1.00  0.00    -0.048 NA 
HETATM   11  C   UNL     1      -6.462   9.290  66.519  1.00  0.00    -0.067 A  
HETATM   12  C   UNL     1      -6.849   8.235  67.315  1.00  0.00    -0.070 A  
HETATM   13  C   UNL     1      -5.607   8.692  65.576  1.00  0.00    -0.043 A  
HETATM   14  N   UNL     1      -5.499   7.370  65.745  1.00  0.00    -0.028 NA 
BRANCH  11  15
HETATM   15  C   UNL     1      -6.930  10.637  66.731  1.00  0.00    -0.110 A  
HETATM   16  C   UNL     1      -8.205  11.049  66.336  1.00  0.00    -0.166 A  
HETATM   17  C   UNL     1      -9.334  10.497  65.668  1.00  0.00    -0.242 A  
HETATM   18  C   UNL     1     -10.323  11.459  65.647  1.00  0.00    -0.257 A  
HETATM   19  N   UNL     1      -9.837  12.571  66.283  1.00  0.00    -0.249 NA 
HETATM   20  C   UNL     1      -8.560  12.338  66.712  1.00  0.00    -0.149 A  
HETATM   21  H   UNL     1     -10.351  13.443  66.415  1.00  0.00     0.000 HD 
HETATM   22  N   UNL     1      -7.816  13.220  67.395  1.00  0.00    -0.167 NA 
HETATM   23  C   UNL     1      -6.617  12.710  67.721  1.00  0.00    -0.130 A  
HETATM   24  N   UNL     1      -6.137  11.485  67.439  1.00  0.00    -0.071 NA 
ENDBRANCH  11  15
ENDBRANCH   4  10
ENDBRANCH   3   4
TORSDOF 4
ENDMDL
MODEL      275
REMARK 921   NORMALIZED FREE ENERGY PREDICTED BY IDOCK:   -1.67 KCAL/MOL
REMARK 922        TOTAL FREE ENERGY PREDICTED BY IDOCK:   -2.47 KCAL/MOL
REMARK 923 INTER-LIGAND FREE ENERGY PREDICTED BY IDOCK:   -3.11 KCAL/MOL
REMARK 924 INTRA-LIGAND FREE ENERGY PREDICTED BY IDOCK:    0.64 KCAL/MOL
REMARK 927      BINDING AFFINITY PREDICTED BY RF-SCORE:    0.00 PKD
ROOT
HETATM    1  N   UNL     1      -6.727  21.336  68.353  1.00  0.00     0.207 NA 
HETATM    2  C   UNL     1      -7.342  20.372  68.543  1.00  0.00    -0.000 C  
HETATM    3  C   UNL     1      -8.088  19.139  68.840  1.00  0.00    -0.329 C  
ENDROOT
BRANCH   3   4
HETATM    4  C   UNL     1      -7.380  17.871  68.294  1.00  0.00    -0.249 C  
BRANCH   4   5
HETATM    5  C   UNL     1      -6.347  18.222  67.170  1.00  0.00    -0.189 C  
HETATM    6  C   UNL     1      -6.895  19.061  66.000  1.00  0.00    -0.276 C  
HETATM    7  C   UNL     1      -6.139  18.650  64.743  1.00  0.00    -0.152 C  
HETATM    8  C   UNL     1      -5.791  16.989  66.440  1.00  0.00    -0.074 C  
HETATM    9  C   UNL     1      -5.175  17.561  65.173  1.00  0.00     0.563 C  
ENDBRANCH   4   5
BRANCH   4  10
HETATM   10  N   UNL     1      -8.368  16.834  67.950  1.00  0.00    -0.192 NA 
HETATM   11  C   UNL     1      -9.451  14.935  67.629  1.00  0.00    -0.199 A  
HETATM   12  C   UNL     1      -8.340  15.500  68.213  1.00  0.00    -0.147 A  
HETATM   13  C   UNL     1     -10.161  16.044  67.136  1.00  0.00    -0.278 A  
HETATM   14  N   UNL     1      -9.530  17.200  67.360  1.00  0.00    -0.244 NA 
BRANCH  11  15
HETATM   15  C   UNL     1      -9.676  13.511  67.602  1.00  0.00    -0.229 A  
HETATM   16  C   UNL     1      -8.637  12.593  67.766  1.00  0.00    -0.179 A  
HETATM   17  C   UNL     1      -7.224  12.616  67.942  1.00  0.00    -0.116 A  
HETATM   18  C   UNL     1      -6.797  11.314  68.098  1.00  0.00    -0.067 A  
HETATM   19  N   UNL     1      -7.899  10.502  68.030  1.00  0.00    -0.103 NA 
HETATM   20  C   UNL     1      -9.021  11.261  67.837  1.00  0.00    -0.146 A  
HETATM   21  H   UNL     1      -7.885   9.485  68.110  1.00  0.00     0.000 HD 
HETATM   22  N   UNL     1     -10.265  10.768  67.755  1.00  0.00    -0.176 NA 
HETATM   23  C   UNL     1     -11.176  11.743  67.603  1.00  0.00    -0.281 A  
HETATM   24  N   UNL     1     -10.960  13.069  67.528  1.00  0.00    -0.253 NA 
ENDBRANCH  11  15
ENDBRANCH   4  10
ENDBRANCH   3   4
TORSDOF 4
ENDMDL
MODEL      276
REMARK 921   NORMALIZED FREE ENERGY PREDICTED BY IDOCK:   -1.61 KCAL/MOL
REMARK 922        TOTAL FREE ENERGY PREDICTED BY IDOCK:   -2.40 KCAL/MOL
REMARK 923 INTER-LIGAND FREE ENERGY PREDICTED BY IDOCK:   -3.24 KCAL/MOL
REMARK 924 INTRA-LIGAND FREE ENERGY PREDICTED BY IDOCK:    0.84 KCAL/MOL
REMARK 927      BINDING AFFINITY PREDICTED BY RF-SCORE:    0.00 PKD
ROOT
HETATM    1  N   UNL     1     -10.752  16.083  70.615  1.00  0.00    -0.149 NA 
HETATM    2  C   UNL     1     -10.474  15.137  70.006  1.00  0.00    -0.185 C  
HETATM    3  C   UNL     1     -10.114  13.973  69.180  1.00  0.00     0.021 C  
ENDROOT
BRANCH   3   4
HETATM    4  C   UNL     1     -11.349  13.319  68.507  1.00  0.00    -0.284 C  
BRANCH   4   5
HETATM    5  C   UNL     1     -12.453  12.950  69.554  1.00  0.00     0.135 C  
HETATM    6  C   UNL     1     -12.876  14.086  70.505  1.00  0.00    -0.284 C  
HETATM    7  C   UNL     1     -13.257  13.454  71.839  1.00  0.00    -0.522 C  
HETATM    8  C   UNL     1     -12.022  11.855  70.543  1.00  0.00    -0.360 C  
HETATM    9  C   UNL     1     -13.033  11.963  71.673  1.00  0.00    -0.447 C  
ENDBRANCH   4   5
BRANCH   4  10
HETATM   10  N   UNL     1     -10.932  12.228  67.610  1.00  0.00    -0.233 NA 
HETATM   11  C   UNL     1      -9.804  10.835  66.317  1.00  0.00    -0.262 A  
HETATM   12  C   UNL     1      -9.681  11.872  67.214  1.00  0.00    -0.184 A  
HETATM   13  C   UNL     1     -11.181  10.551  66.333  1.00  0.00     0.340 A  
HETATM   14  N   UNL     1     -11.865  11.365  67.143  1.00  0.00    -0.522 NA 
BRANCH  11  15
HETATM   15  C   UNL     1      -8.680  10.291  65.597  1.00  0.00    -0.162 A  
HETATM   16  C   UNL     1      -8.306   8.950  65.709  1.00  0.00    -0.139 A  
HETATM   17  C   UNL     1      -8.717   7.796  66.435  1.00  0.00    -0.167 A  
HETATM   18  C   UNL     1      -7.930   6.739  66.026  1.00  0.00    -0.109 A  
HETATM   19  N   UNL     1      -7.061   7.208  65.076  1.00  0.00    -0.061 NA 
HETATM   20  C   UNL     1      -7.281   8.542  64.867  1.00  0.00    -0.084 A  
HETATM   21  H   UNL     1      -6.357   6.647  64.596  1.00  0.00     0.000 HD 
HETATM   22  N   UNL     1      -6.614   9.290  63.977  1.00  0.00    -0.089 NA 
HETATM   23  C   UNL     1      -7.063  10.556  63.956  1.00  0.00     0.127 A  
HETATM   24  N   UNL     1      -8.047  11.093  64.699  1.00  0.00     0.383 NA 
ENDBRANCH  11  15
ENDBRANCH   4  10
ENDBRANCH   3   4
TORSDOF 4
ENDMDL
MODEL      277
REMARK 921   NORMALIZED FREE ENERGY PREDICTED BY IDOCK:   -0.53 KCAL/MOL
REMARK 922        TOTAL FREE ENERGY PREDICTED BY IDOCK:   -1.07 KCAL/MOL
REMARK 923 INTER-LIGAND FREE ENERGY PREDICTED BY IDOCK:   -3.33 KCAL/MOL
REMARK 924 INTRA-LIGAND FREE ENERGY PREDICTED BY IDOCK:    2.26 KCAL/MOL
REMARK 927      BINDING AFFINITY PREDICTED BY RF-SCORE:    0.00 PKD
ROOT
HETATM    1  N   UNL     1      -8.297  17.110  68.414  1.00  0.00    -0.242 NA 
HETATM    2  C   UNL     1      -8.066  16.047  68.013  1.00  0.00    -0.145 C  
HETATM    3  C   UNL     1      -7.765  14.724  67.445  1.00  0.00    -0.230 C  
ENDROOT
BRANCH   3   4
HETATM    4  C   UNL     1      -9.033  14.004  66.915  1.00  0.00    -0.227 C  
BRANCH   4   5
HETATM    5  C   UNL     1     -10.337  14.557  67.586  1.00  0.00    -0.237 C  
HETATM    6  C   UNL     1     -10.655  16.037  67.303  1.00  0.00    -0.313 C  
HETATM    7  C   UNL     1     -11.357  16.602  68.532  1.00  0.00    -0.152 C  
HETATM    8  C   UNL     1     -10.297  14.532  69.122  1.00  0.00    -0.197 C  
HETATM    9  C   UNL     1     -11.424  15.465  69.533  1.00  0.00    -0.330 C  
ENDBRANCH   4   5
BRANCH   4  10
HETATM   10  N   UNL     1      -8.860  12.542  66.971  1.00  0.00    -0.207 NA 
HETATM   11  C   UNL     1      -8.113  10.488  67.295  1.00  0.00    -0.115 A  
HETATM   12  C   UNL     1      -7.889  11.815  67.585  1.00  0.00    -0.138 A  
HETATM   13  C   UNL     1      -9.331  10.508  66.594  1.00  0.00    -0.161 A  
HETATM   14  N   UNL     1      -9.809  11.745  66.427  1.00  0.00    -0.208 NA 
BRANCH  11  15
HETATM   15  C   UNL     1      -7.198   9.442  67.682  1.00  0.00    -0.083 A  
HETATM   16  C   UNL     1      -6.897   8.372  66.836  1.00  0.00    -0.069 A  
HETATM   17  C   UNL     1      -7.283   7.900  65.550  1.00  0.00    -0.067 A  
HETATM   18  C   UNL     1      -6.540   6.771  65.275  1.00  0.00    -0.050 A  
HETATM   19  N   UNL     1      -5.713   6.544  66.344  1.00  0.00    -0.014 NA 
HETATM   20  C   UNL     1      -5.911   7.508  67.294  1.00  0.00    -0.035 A  
HETATM   21  H   UNL     1      -5.050   5.773  66.420  1.00  0.00     0.000 HD 
HETATM   22  N   UNL     1      -5.235   7.585  68.449  1.00  0.00    -0.024 NA 
HETATM   23  C   UNL     1      -5.607   8.654  69.172  1.00  0.00    -0.036 A  
HETATM   24  N   UNL     1      -6.533   9.579  68.860  1.00  0.00    -0.046 NA 
ENDBRANCH  11  15
ENDBRANCH   4  10
ENDBRANCH   3   4
TORSDOF 4
ENDMDL
MODEL      278
REMARK 921   NORMALIZED FREE ENERGY PREDICTED BY IDOCK:    1.24 KCAL/MOL
REMARK 922        TOTAL FREE ENERGY PREDICTED BY IDOCK:    1.12 KCAL/MOL
REMARK 923 INTER-LIGAND FREE ENERGY PREDICTED BY IDOCK:    0.98 KCAL/MOL
REMARK 924 INTRA-LIGAND FREE ENERGY PREDICTED BY IDOCK:    0.14 KCAL/MOL
REMARK 927      BINDING AFFINITY PREDICTED BY RF-SCORE:    0.00 PKD
ROOT
HETATM    1  N   UNL     1     -10.761   1.549  65.899  1.00  0.00     2.917 NA 
HETATM    2  C   UNL     1      -9.687   1.961  65.759  1.00  0.00     0.512 C  
HETATM    3  C   UNL     1      -8.301   2.431  65.609  1.00  0.00    -0.092 C  
ENDROOT
BRANCH   3   4
HETATM    4  C   UNL     1      -7.811   3.235  66.843  1.00  0.00    -0.080 C  
BRANCH   4   5
HETATM    5  C   UNL     1      -8.486   2.736  68.165  1.00  0.00    -0.103 C  
HETATM    6  C   UNL     1      -8.503   3.748  69.327  1.00  0.00    -0.098 C  
HETATM    7  C   UNL     1      -8.411   2.960  70.628  1.00  0.00    -0.082 C  
HETATM    8  C   UNL     1      -7.772   1.535  68.806  1.00  0.00    -0.046 C  
HETATM    9  C   UNL     1      -8.313   1.501  70.225  1.00  0.00    -0.063 C  
ENDBRANCH   4   5
BRANCH   4  10
HETATM   10  N   UNL     1      -7.905   4.682  66.587  1.00  0.00    -0.098 NA 
HETATM   11  C   UNL     1      -8.398   6.836  66.642  1.00  0.00    -0.118 A  
HETATM   12  C   UNL     1      -8.521   5.646  67.324  1.00  0.00    -0.106 A  
HETATM   13  C   UNL     1      -7.572   6.506  65.553  1.00  0.00    -0.088 A  
HETATM   14  N   UNL     1      -7.239   5.211  65.534  1.00  0.00    -0.067 NA 
BRANCH  11  15
HETATM   15  C   UNL     1      -9.045   8.050  67.074  1.00  0.00    -0.144 A  
HETATM   16  C   UNL     1      -8.484   8.886  68.041  1.00  0.00    -0.126 A  
HETATM   17  C   UNL     1      -7.333   8.908  68.880  1.00  0.00    -0.075 A  
HETATM   18  C   UNL     1      -7.352  10.090  69.590  1.00  0.00    -0.127 A  
HETATM   19  N   UNL     1      -8.469  10.788  69.210  1.00  0.00    -0.340 NA 
HETATM   20  C   UNL     1      -9.160  10.077  68.268  1.00  0.00    -0.122 A  
HETATM   21  H   UNL     1      -8.743  11.701  69.574  1.00  0.00     0.000 HD 
HETATM   22  N   UNL     1     -10.284  10.500  67.672  1.00  0.00    -0.188 NA 
HETATM   23  C   UNL     1     -10.725   9.617  66.761  1.00  0.00    -0.078 A  
HETATM   24  N   UNL     1     -10.177   8.435  66.426  1.00  0.00    -0.208 NA 
ENDBRANCH  11  15
ENDBRANCH   4  10
ENDBRANCH   3   4
TORSDOF 4
ENDMDL
MODEL      279
REMARK 921   NORMALIZED FREE ENERGY PREDICTED BY IDOCK:    3.89 KCAL/MOL
REMARK 922        TOTAL FREE ENERGY PREDICTED BY IDOCK:    4.39 KCAL/MOL
REMARK 923 INTER-LIGAND FREE ENERGY PREDICTED BY IDOCK:    3.12 KCAL/MOL
REMARK 924 INTRA-LIGAND FREE ENERGY PREDICTED BY IDOCK:    1.27 KCAL/MOL
REMARK 927      BINDING AFFINITY PREDICTED BY RF-SCORE:    0.00 PKD
ROOT
HETATM    1  N   UNL     1      -8.595  15.316  70.510  1.00  0.00     1.068 NA 
HETATM    2  C   UNL     1      -9.510  15.556  71.180  1.00  0.00     2.429 C  
HETATM    3  C   UNL     1     -10.663  15.803  72.060  1.00  0.00     0.926 C  
ENDROOT
BRANCH   3   4
HETATM    4  C   UNL     1     -11.982  15.221  71.487  1.00  0.00    -0.366 C  
BRANCH   4   5
HETATM    5  C   UNL     1     -12.558  14.084  72.397  1.00  0.00    -0.243 C  
HETATM    6  C   UNL     1     -12.135  12.651  72.020  1.00  0.00     1.363 C  
HETATM    7  C   UNL     1     -13.286  11.720  72.382  1.00  0.00     0.140 C  
HETATM    8  C   UNL     1     -14.091  13.980  72.355  1.00  0.00    -0.576 C  
HETATM    9  C   UNL     1     -14.381  12.607  72.940  1.00  0.00     1.416 C  
ENDBRANCH   4   5
BRANCH   4  10
HETATM   10  N   UNL     1     -11.821  14.877  70.064  1.00  0.00    -0.287 NA 
HETATM   11  C   UNL     1     -11.648  14.913  67.861  1.00  0.00    -0.364 A  
HETATM   12  C   UNL     1     -11.705  15.701  68.989  1.00  0.00    -0.395 A  
HETATM   13  C   UNL     1     -11.610  13.606  68.377  1.00  0.00    -0.342 A  
HETATM   14  N   UNL     1     -11.676  13.578  69.712  1.00  0.00    -0.302 NA 
BRANCH  11  15
HETATM   15  C   UNL     1     -11.650  15.462  66.527  1.00  0.00     0.083 A  
HETATM   16  C   UNL     1     -11.232  16.767  66.263  1.00  0.00     0.510 A  
HETATM   17  C   UNL     1     -10.773  17.900  66.995  1.00  0.00    -0.219 A  
HETATM   18  C   UNL     1     -10.469  18.893  66.088  1.00  0.00    -0.457 A  
HETATM   19  N   UNL     1     -10.720  18.404  64.832  1.00  0.00    -0.082 NA 
HETATM   20  C   UNL     1     -11.175  17.117  64.920  1.00  0.00     0.403 A  
HETATM   21  H   UNL     1     -10.588  18.921  63.963  1.00  0.00     0.000 HD 
HETATM   22  N   UNL     1     -11.484  16.347  63.866  1.00  0.00    -1.031 NA 
HETATM   23  C   UNL     1     -11.866  15.117  64.245  1.00  0.00    -0.251 A  
HETATM   24  N   UNL     1     -11.961  14.632  65.496  1.00  0.00    -0.301 NA 
ENDBRANCH  11  15
ENDBRANCH   4  10
ENDBRANCH   3   4
TORSDOF 4
ENDMDL
MODEL      280
REMARK 921   NORMALIZED FREE ENERGY PREDICTED BY IDOCK:   15.03 KCAL/MOL
REMARK 922        TOTAL FREE ENERGY PREDICTED BY IDOCK:   18.14 KCAL/MOL
REMARK 923 INTER-LIGAND FREE ENERGY PREDICTED BY IDOCK:   14.20 KCAL/MOL
REMARK 924 INTRA-LIGAND FREE ENERGY PREDICTED BY IDOCK:    3.94 KCAL/MOL
REMARK 927      BINDING AFFINITY PREDICTED BY RF-SCORE:    0.00 PKD
ROOT
HETATM    1  N   UNL     1     -13.085   9.980  67.594  1.00  0.00     8.083 NA 
HETATM    2  C   UNL     1     -13.061  10.238  68.723  1.00  0.00     3.816 C  
HETATM    3  C   UNL     1     -13.080  10.606  70.148  1.00  0.00     0.072 C  
ENDROOT
BRANCH   3   4
HETATM    4  C   UNL     1     -12.205  11.852  70.450  1.00  0.00    -0.314 C  
BRANCH   4   5
HETATM    5  C   UNL     1     -12.981  12.912  71.303  1.00  0.00    -0.317 C  
HETATM    6  C   UNL     1     -12.662  14.385  70.985  1.00  0.00    -0.416 C  
HETATM    7  C   UNL     1     -12.799  15.177  72.280  1.00  0.00    -0.428 C  
HETATM    8  C   UNL     1     -12.667  12.840  72.806  1.00  0.00     1.104 C  
HETATM    9  C   UNL     1     -13.169  14.168  73.349  1.00  0.00     0.306 C  
ENDBRANCH   4   5
BRANCH   4  10
HETATM   10  N   UNL     1     -11.586  12.361  69.214  1.00  0.00    -0.302 NA 
HETATM   11  C   UNL     1     -10.367  13.443  67.722  1.00  0.00    -0.241 A  
HETATM   12  C   UNL     1     -10.528  13.204  69.068  1.00  0.00    -0.002 A  
HETATM   13  C   UNL     1     -11.310  12.590  67.122  1.00  0.00    -0.324 A  
HETATM   14  N   UNL     1     -12.026  11.904  68.019  1.00  0.00    -0.553 NA 
BRANCH  11  15
HETATM   15  C   UNL     1      -9.413  14.396  67.210  1.00  0.00    -0.215 A  
HETATM   16  C   UNL     1      -9.242  15.656  67.787  1.00  0.00    -0.193 A  
HETATM   17  C   UNL     1      -9.810  16.420  68.846  1.00  0.00    -0.260 A  
HETATM   18  C   UNL     1      -9.120  17.612  68.923  1.00  0.00    -0.134 A  
HETATM   19  N   UNL     1      -8.151  17.597  67.954  1.00  0.00    -0.227 NA 
HETATM   20  C   UNL     1      -8.206  16.418  67.264  1.00  0.00    -0.168 A  
HETATM   21  H   UNL     1      -7.489  18.352  67.775  1.00  0.00     0.000 HD 
HETATM   22  N   UNL     1      -7.371  16.082  66.269  1.00  0.00     0.124 NA 
HETATM   23  C   UNL     1      -7.631  14.851  65.799  1.00  0.00     4.448 A  
HETATM   24  N   UNL     1      -8.586  13.996  66.208  1.00  0.00     0.344 NA 
ENDBRANCH  11  15
ENDBRANCH   4  10
ENDBRANCH   3   4
TORSDOF 4
ENDMDL
MODEL      281
REMARK 921   NORMALIZED FREE ENERGY PREDICTED BY IDOCK:   21.33 KCAL/MOL
REMARK 922        TOTAL FREE ENERGY PREDICTED BY IDOCK:   25.92 KCAL/MOL
REMARK 923 INTER-LIGAND FREE ENERGY PREDICTED BY IDOCK:   23.90 KCAL/MOL
REMARK 924 INTRA-LIGAND FREE ENERGY PREDICTED BY IDOCK:    2.02 KCAL/MOL
REMARK 927      BINDING AFFINITY PREDICTED BY RF-SCORE:    0.00 PKD
ROOT
HETATM    1  N   UNL     1     -12.914  17.126  68.784  1.00  0.00     3.948 NA 
HETATM    2  C   UNL     1     -13.326  16.678  69.770  1.00  0.00     5.008 C  
HETATM    3  C   UNL     1     -13.803  16.139  71.054  1.00  0.00     1.852 C  
ENDROOT
BRANCH   3   4
HETATM    4  C   UNL     1     -13.113  14.801  71.427  1.00  0.00    -0.354 C  
BRANCH   4   5
HETATM    5  C   UNL     1     -12.254  14.935  72.730  1.00  0.00    -0.397 C  
HETATM    6  C   UNL     1     -10.756  15.225  72.513  1.00  0.00     1.257 C  
HETATM    7  C   UNL     1      -9.988  14.560  73.649  1.00  0.00     7.007 C  
HETATM    8  C   UNL     1     -12.207  13.649  73.571  1.00  0.00     2.082 C  
HETATM    9  C   UNL     1     -11.028  13.866  74.507  1.00  0.00     6.423 C  
ENDBRANCH   4   5
BRANCH   4  10
HETATM   10  N   UNL     1     -12.415  14.235  70.260  1.00  0.00    -0.356 NA 
HETATM   11  C   UNL     1     -11.359  13.923  68.345  1.00  0.00    -0.316 A  
HETATM   12  C   UNL     1     -11.806  14.879  69.228  1.00  0.00    -0.318 A  
HETATM   13  C   UNL     1     -11.639  12.712  69.002  1.00  0.00    -0.317 A  
HETATM   14  N   UNL     1     -12.244  12.895  70.180  1.00  0.00    -0.303 NA 
BRANCH  11  15
HETATM   15  C   UNL     1     -10.774  14.255  67.069  1.00  0.00    -0.290 A  
HETATM   16  C   UNL     1     -11.485  14.129  65.873  1.00  0.00    -0.338 A  
HETATM   17  C   UNL     1     -12.768  13.684  65.448  1.00  0.00    -0.500 A  
HETATM   18  C   UNL     1     -12.853  13.881  64.085  1.00  0.00     0.336 A  
HETATM   19  N   UNL     1     -11.671  14.436  63.669  1.00  0.00    -0.512 NA 
HETATM   20  C   UNL     1     -10.836  14.600  64.739  1.00  0.00    -0.385 A  
HETATM   21  H   UNL     1     -11.448  14.688  62.706  1.00  0.00     0.000 HD 
HETATM   22  N   UNL     1      -9.612  15.144  64.670  1.00  0.00     0.494 NA 
HETATM   23  C   UNL     1      -9.032  15.215  65.879  1.00  0.00     0.097 A  
HETATM   24  N   UNL     1      -9.535  14.814  67.060  1.00  0.00    -0.222 NA 
ENDBRANCH  11  15
ENDBRANCH   4  10
ENDBRANCH   3   4
TORSDOF 4
ENDMDL
