MODEL        1
REMARK 921   NORMALIZED FREE ENERGY PREDICTED BY IDOCK:   -7.13 KCAL/MOL
REMARK 922        TOTAL FREE ENERGY PREDICTED BY IDOCK:  -12.70 KCAL/MOL
REMARK 923 INTER-LIGAND FREE ENERGY PREDICTED BY IDOCK:  -10.88 KCAL/MOL
REMARK 924 INTRA-LIGAND FREE ENERGY PREDICTED BY IDOCK:   -1.82 KCAL/MOL
REMARK 927      BINDING AFFINITY PREDICTED BY RF-SCORE:    0.00 PKD
ROOT
HETATM    1  C   UNL     1     -10.419  15.802  66.328  1.00  0.00    -0.309 C  
ENDROOT
BRANCH   1   2
HETATM    2  C   UNL     1      -9.591  14.870  67.258  1.00  0.00    -0.216 C  
BRANCH   2   3
HETATM    3  C   UNL     1     -10.293  13.773  68.027  1.00  0.00    -0.246 A  
HETATM    4  C   UNL     1     -11.312  11.681  69.685  1.00  0.00    -0.308 A  
HETATM    5  C   UNL     1     -11.363  13.993  68.893  1.00  0.00    -0.314 A  
HETATM    6  C   UNL     1     -11.831  12.982  69.729  1.00  0.00    -0.381 A  
HETATM    7  C   UNL     1      -9.828  12.459  67.895  1.00  0.00    -0.202 A  
HETATM    8  C   UNL     1     -10.341  11.429  68.696  1.00  0.00    -0.219 A  
BRANCH   4   9
HETATM    9  C   UNL     1     -11.726  10.665  70.673  1.00  0.00    -0.454 A  
HETATM   10  C   UNL     1     -10.912   9.556  70.978  1.00  0.00    -0.424 A  
HETATM   11  C   UNL     1     -11.348   8.535  71.825  1.00  0.00    -0.377 A  
HETATM   12  C   UNL     1     -12.604   8.612  72.417  1.00  0.00    -0.426 A  
HETATM   13  C   UNL     1     -13.423   9.706  72.157  1.00  0.00    -0.516 A  
HETATM   14  C   UNL     1     -12.989  10.717  71.290  1.00  0.00    -0.513 A  
ENDBRANCH   4   9
ENDBRANCH   2   3
ENDBRANCH   1   2
BRANCH   1  15
HETATM   15  C   UNL     1     -10.834  15.190  64.968  1.00  0.00    -0.457 C  
HETATM   16  C   UNL     1     -11.791  13.335  63.628  1.00  0.00    -0.458 C  
HETATM   17  C   UNL     1     -12.984  14.040  65.683  1.00  0.00    -0.337 C  
HETATM   18  C   UNL     1     -11.615  13.878  65.035  1.00  0.00    -0.350 C  
HETATM   19  O   UNL     1     -12.721  13.615  62.884  1.00  0.00    -0.577 OA 
BRANCH  16  20
HETATM   20  O   UNL     1     -10.790  12.457  63.342  1.00  0.00    -0.451 OA 
BRANCH  20  21
HETATM   21  C   UNL     1     -10.626  11.392  64.290  1.00  0.00    -0.355 C  
HETATM   22  C   UNL     1      -9.577  10.443  63.737  1.00  0.00    -0.366 C  
ENDBRANCH  20  21
ENDBRANCH  16  20
ENDBRANCH   1  15
BRANCH   1  23
HETATM   23  N   UNL     1      -9.753  17.086  66.091  1.00  0.00    -0.279 N  
HETATM   24  C   UNL     1     -10.030  18.210  66.823  1.00  0.00    -0.351 C  
HETATM   25  H   UNL     1      -9.055  17.145  65.350  1.00  0.00     0.000 HD 
HETATM   26  O   UNL     1     -10.882  18.287  67.707  1.00  0.00    -0.386 OA 
BRANCH  24  27
HETATM   27  C   UNL     1      -9.312  19.455  66.377  1.00  0.00    -0.419 C  
BRANCH  27  28
HETATM   28  C   UNL     1      -7.999  19.562  67.127  1.00  0.00    -0.298 C  
HETATM   29  O   UNL     1      -5.643  19.225  66.973  1.00  0.00    -0.170 OA 
HETATM   30  C   UNL     1      -6.740  19.057  66.452  1.00  0.00    -0.203 C  
HETATM   31  O   UNL     1      -6.852  18.419  65.277  1.00  0.00    -0.520 OA 
ENDBRANCH  27  28
ENDBRANCH  24  27
ENDBRANCH   1  23
TORSDOF 9
ENDMDL
MODEL        2
REMARK 921   NORMALIZED FREE ENERGY PREDICTED BY IDOCK:   -6.98 KCAL/MOL
REMARK 922        TOTAL FREE ENERGY PREDICTED BY IDOCK:  -12.48 KCAL/MOL
REMARK 923 INTER-LIGAND FREE ENERGY PREDICTED BY IDOCK:  -10.73 KCAL/MOL
REMARK 924 INTRA-LIGAND FREE ENERGY PREDICTED BY IDOCK:   -1.74 KCAL/MOL
REMARK 927      BINDING AFFINITY PREDICTED BY RF-SCORE:    0.00 PKD
ROOT
HETATM    1  C   UNL     1     -11.241  12.332  68.073  1.00  0.00    -0.269 C  
ENDROOT
BRANCH   1   2
HETATM    2  C   UNL     1     -12.272  11.659  69.023  1.00  0.00    -0.162 C  
BRANCH   2   3
HETATM    3  C   UNL     1     -11.788  10.696  70.084  1.00  0.00    -0.421 A  
HETATM    4  C   UNL     1     -11.086   8.624  71.921  1.00  0.00    -0.416 A  
HETATM    5  C   UNL     1     -10.492  10.187  70.137  1.00  0.00    -0.311 A  
HETATM    6  C   UNL     1     -10.163   9.149  71.007  1.00  0.00    -0.372 A  
HETATM    7  C   UNL     1     -12.696  10.257  71.056  1.00  0.00    -0.491 A  
HETATM    8  C   UNL     1     -12.345   9.253  71.968  1.00  0.00    -0.433 A  
BRANCH   4   9
HETATM    9  C   UNL     1     -10.758   7.435  72.733  1.00  0.00    -0.362 A  
HETATM   10  C   UNL     1      -9.724   7.455  73.689  1.00  0.00    -0.349 A  
HETATM   11  C   UNL     1      -9.336   6.303  74.377  1.00  0.00    -0.200 A  
HETATM   12  C   UNL     1      -9.996   5.102  74.147  1.00  0.00    -0.216 A  
HETATM   13  C   UNL     1     -11.039   5.052  73.227  1.00  0.00    -0.406 A  
HETATM   14  C   UNL     1     -11.410   6.205  72.526  1.00  0.00    -0.328 A  
ENDBRANCH   4   9
ENDBRANCH   2   3
ENDBRANCH   1   2
BRANCH   1  15
HETATM   15  C   UNL     1     -11.269  13.880  68.043  1.00  0.00    -0.295 C  
HETATM   16  C   UNL     1     -10.613  16.077  68.988  1.00  0.00    -0.257 C  
HETATM   17  C   UNL     1      -8.865  14.340  68.725  1.00  0.00    -0.094 C  
HETATM   18  C   UNL     1     -10.338  14.584  69.030  1.00  0.00    -0.227 C  
HETATM   19  O   UNL     1     -10.072  16.865  68.226  1.00  0.00    -0.273 OA 
BRANCH  16  20
HETATM   20  O   UNL     1     -11.512  16.408  69.957  1.00  0.00    -0.264 OA 
BRANCH  20  21
HETATM   21  C   UNL     1     -11.428  15.627  71.157  1.00  0.00    -0.411 C  
HETATM   22  C   UNL     1     -12.834  15.490  71.715  1.00  0.00    -0.512 C  
ENDBRANCH  20  21
ENDBRANCH  16  20
ENDBRANCH   1  15
BRANCH   1  23
HETATM   23  N   UNL     1     -11.335  11.826  66.701  1.00  0.00    -0.334 N  
HETATM   24  C   UNL     1     -10.234  11.523  65.946  1.00  0.00    -0.244 C  
HETATM   25  H   UNL     1     -12.260  11.694  66.291  1.00  0.00     0.000 HD 
HETATM   26  O   UNL     1      -9.067  11.682  66.301  1.00  0.00    -0.210 OA 
BRANCH  24  27
HETATM   27  C   UNL     1     -10.526  11.101  64.531  1.00  0.00    -0.415 C  
BRANCH  27  28
HETATM   28  C   UNL     1     -10.874  12.329  63.712  1.00  0.00    -0.495 C  
HETATM   29  O   UNL     1     -12.632  13.824  63.109  1.00  0.00    -0.793 OA 
HETATM   30  C   UNL     1     -12.321  12.776  63.664  1.00  0.00    -0.463 C  
HETATM   31  O   UNL     1     -13.254  11.999  64.236  1.00  0.00    -0.710 OA 
ENDBRANCH  27  28
ENDBRANCH  24  27
ENDBRANCH   1  23
TORSDOF 9
ENDMDL
MODEL        3
REMARK 921   NORMALIZED FREE ENERGY PREDICTED BY IDOCK:   -6.95 KCAL/MOL
REMARK 922        TOTAL FREE ENERGY PREDICTED BY IDOCK:  -12.43 KCAL/MOL
REMARK 923 INTER-LIGAND FREE ENERGY PREDICTED BY IDOCK:  -10.71 KCAL/MOL
REMARK 924 INTRA-LIGAND FREE ENERGY PREDICTED BY IDOCK:   -1.71 KCAL/MOL
REMARK 927      BINDING AFFINITY PREDICTED BY RF-SCORE:    0.00 PKD
ROOT
HETATM    1  C   UNL     1     -11.350  13.987  67.940  1.00  0.00    -0.291 C  
ENDROOT
BRANCH   1   2
HETATM    2  C   UNL     1     -11.501  15.186  66.962  1.00  0.00    -0.230 C  
BRANCH   2   3
HETATM    3  C   UNL     1     -10.537  16.348  67.054  1.00  0.00    -0.260 A  
HETATM    4  C   UNL     1      -8.585  18.377  67.535  1.00  0.00    -0.264 A  
HETATM    5  C   UNL     1      -9.460  16.533  66.189  1.00  0.00    -0.347 A  
HETATM    6  C   UNL     1      -8.489  17.498  66.448  1.00  0.00    -0.287 A  
HETATM    7  C   UNL     1     -10.706  17.279  68.086  1.00  0.00    -0.363 A  
HETATM    8  C   UNL     1      -9.757  18.286  68.311  1.00  0.00    -0.350 A  
BRANCH   4   9
HETATM    9  C   UNL     1      -7.478  19.296  67.869  1.00  0.00    -0.293 A  
HETATM   10  C   UNL     1      -6.975  19.401  69.180  1.00  0.00    -0.390 A  
HETATM   11  C   UNL     1      -6.007  20.348  69.522  1.00  0.00    -0.376 A  
HETATM   12  C   UNL     1      -5.493  21.199  68.551  1.00  0.00    -0.337 A  
HETATM   13  C   UNL     1      -5.950  21.105  67.239  1.00  0.00    -0.389 A  
HETATM   14  C   UNL     1      -6.935  20.168  66.906  1.00  0.00    -0.269 A  
ENDBRANCH   4   9
ENDBRANCH   2   3
ENDBRANCH   1   2
BRANCH   1  15
HETATM   15  C   UNL     1     -11.301  12.587  67.281  1.00  0.00    -0.373 C  
HETATM   16  C   UNL     1     -10.331  10.998  65.641  1.00  0.00    -0.251 C  
HETATM   17  C   UNL     1      -8.783  12.353  67.024  1.00  0.00    -0.207 C  
HETATM   18  C   UNL     1     -10.136  12.342  66.322  1.00  0.00    -0.253 C  
HETATM   19  O   UNL     1      -9.932   9.929  66.080  1.00  0.00    -0.247 OA 
BRANCH  16  20
HETATM   20  O   UNL     1     -10.972  11.172  64.451  1.00  0.00    -0.322 OA 
BRANCH  20  21
HETATM   21  C   UNL     1     -10.735  12.434  63.812  1.00  0.00    -0.451 C  
HETATM   22  C   UNL     1     -12.084  13.014  63.425  1.00  0.00    -0.591 C  
ENDBRANCH  20  21
ENDBRANCH  16  20
ENDBRANCH   1  15
BRANCH   1  23
HETATM   23  N   UNL     1     -12.380  13.987  68.983  1.00  0.00    -0.501 N  
HETATM   24  C   UNL     1     -12.148  14.444  70.253  1.00  0.00    -0.331 C  
HETATM   25  H   UNL     1     -13.309  13.631  68.754  1.00  0.00     0.000 HD 
HETATM   26  O   UNL     1     -11.066  14.851  70.672  1.00  0.00    -0.222 OA 
BRANCH  24  27
HETATM   27  C   UNL     1     -13.300  14.283  71.210  1.00  0.00    -0.388 C  
BRANCH  27  28
HETATM   28  C   UNL     1     -13.455  15.560  72.013  1.00  0.00    -0.578 C  
HETATM   29  O   UNL     1     -12.879  16.651  74.054  1.00  0.00    -0.598 OA 
HETATM   30  C   UNL     1     -12.877  15.606  73.412  1.00  0.00    -0.548 C  
HETATM   31  O   UNL     1     -12.366  14.480  73.934  1.00  0.00    -0.403 OA 
ENDBRANCH  27  28
ENDBRANCH  24  27
ENDBRANCH   1  23
TORSDOF 9
ENDMDL
MODEL        4
REMARK 921   NORMALIZED FREE ENERGY PREDICTED BY IDOCK:   -6.93 KCAL/MOL
REMARK 922        TOTAL FREE ENERGY PREDICTED BY IDOCK:  -12.40 KCAL/MOL
REMARK 923 INTER-LIGAND FREE ENERGY PREDICTED BY IDOCK:  -11.21 KCAL/MOL
REMARK 924 INTRA-LIGAND FREE ENERGY PREDICTED BY IDOCK:   -1.19 KCAL/MOL
REMARK 927      BINDING AFFINITY PREDICTED BY RF-SCORE:    0.00 PKD
ROOT
HETATM    1  C   UNL     1     -11.187  14.663  65.512  1.00  0.00    -0.343 C  
ENDROOT
BRANCH   1   2
HETATM    2  C   UNL     1     -12.301  14.286  66.530  1.00  0.00    -0.345 C  
BRANCH   2   3
HETATM    3  C   UNL     1     -12.002  13.283  67.622  1.00  0.00    -0.366 A  
HETATM    4  C   UNL     1     -11.803  11.378  69.741  1.00  0.00    -0.435 A  
HETATM    5  C   UNL     1     -11.578  11.977  67.382  1.00  0.00    -0.388 A  
HETATM    6  C   UNL     1     -11.520  11.040  68.411  1.00  0.00    -0.378 A  
HETATM    7  C   UNL     1     -12.192  13.667  68.955  1.00  0.00    -0.245 A  
HETATM    8  C   UNL     1     -12.077  12.736  69.997  1.00  0.00    -0.355 A  
BRANCH   4   9
HETATM    9  C   UNL     1     -11.871  10.340  70.790  1.00  0.00    -0.459 A  
HETATM   10  C   UNL     1     -10.783   9.486  71.057  1.00  0.00    -0.411 A  
HETATM   11  C   UNL     1     -10.882   8.432  71.967  1.00  0.00    -0.390 A  
HETATM   12  C   UNL     1     -12.068   8.222  72.661  1.00  0.00    -0.326 A  
HETATM   13  C   UNL     1     -13.155   9.063  72.440  1.00  0.00    -0.487 A  
HETATM   14  C   UNL     1     -13.057  10.106  71.511  1.00  0.00    -0.529 A  
ENDBRANCH   4   9
ENDBRANCH   2   3
ENDBRANCH   1   2
BRANCH   1  15
HETATM   15  C   UNL     1     -10.432  13.471  64.876  1.00  0.00    -0.417 C  
HETATM   16  C   UNL     1     -10.419  11.207  63.861  1.00  0.00    -0.381 C  
HETATM   17  C   UNL     1     -12.120  12.834  63.086  1.00  0.00    -0.354 C  
HETATM   18  C   UNL     1     -11.306  12.364  64.285  1.00  0.00    -0.420 C  
HETATM   19  O   UNL     1      -9.892  11.098  62.763  1.00  0.00    -0.290 OA 
BRANCH  16  20
HETATM   20  O   UNL     1     -10.342  10.291  64.867  1.00  0.00    -0.283 OA 
BRANCH  20  21
HETATM   21  C   UNL     1      -9.047   9.703  65.056  1.00  0.00    -0.233 C  
HETATM   22  C   UNL     1      -8.365  10.448  66.190  1.00  0.00    -0.149 C  
ENDBRANCH  20  21
ENDBRANCH  16  20
ENDBRANCH   1  15
BRANCH   1  23
HETATM   23  N   UNL     1     -10.211  15.599  66.077  1.00  0.00    -0.312 N  
HETATM   24  C   UNL     1     -10.181  16.927  65.744  1.00  0.00    -0.268 C  
HETATM   25  H   UNL     1      -9.526  15.247  66.746  1.00  0.00     0.000 HD 
HETATM   26  O   UNL     1     -10.914  17.467  64.918  1.00  0.00    -0.862 OA 
BRANCH  24  27
HETATM   27  C   UNL     1      -9.053  17.714  66.358  1.00  0.00    -0.257 C  
BRANCH  27  28
HETATM   28  C   UNL     1      -9.484  18.208  67.725  1.00  0.00    -0.269 C  
HETATM   29  O   UNL     1     -10.386  20.063  68.922  1.00  0.00    -0.411 OA 
HETATM   30  C   UNL     1      -9.924  19.651  67.863  1.00  0.00    -0.411 C  
HETATM   31  O   UNL     1      -9.793  20.467  66.807  1.00  0.00    -0.433 OA 
ENDBRANCH  27  28
ENDBRANCH  24  27
ENDBRANCH   1  23
TORSDOF 9
ENDMDL
MODEL        5
REMARK 921   NORMALIZED FREE ENERGY PREDICTED BY IDOCK:   -6.92 KCAL/MOL
REMARK 922        TOTAL FREE ENERGY PREDICTED BY IDOCK:  -12.38 KCAL/MOL
REMARK 923 INTER-LIGAND FREE ENERGY PREDICTED BY IDOCK:  -11.46 KCAL/MOL
REMARK 924 INTRA-LIGAND FREE ENERGY PREDICTED BY IDOCK:   -0.92 KCAL/MOL
REMARK 927      BINDING AFFINITY PREDICTED BY RF-SCORE:    0.00 PKD
ROOT
HETATM    1  C   UNL     1     -10.271  14.684  66.328  1.00  0.00    -0.292 C  
ENDROOT
BRANCH   1   2
HETATM    2  C   UNL     1     -11.480  14.763  67.302  1.00  0.00    -0.378 C  
BRANCH   2   3
HETATM    3  C   UNL     1     -11.757  13.608  68.240  1.00  0.00    -0.398 A  
HETATM    4  C   UNL     1     -11.918  11.348  69.979  1.00  0.00    -0.442 A  
HETATM    5  C   UNL     1     -12.034  13.759  69.597  1.00  0.00    -0.399 A  
HETATM    6  C   UNL     1     -12.072  12.658  70.450  1.00  0.00    -0.381 A  
HETATM    7  C   UNL     1     -11.700  12.304  67.733  1.00  0.00    -0.403 A  
HETATM    8  C   UNL     1     -11.797  11.195  68.584  1.00  0.00    -0.357 A  
BRANCH   4   9
HETATM    9  C   UNL     1     -11.823  10.210  70.916  1.00  0.00    -0.468 A  
HETATM   10  C   UNL     1     -10.622   9.497  71.094  1.00  0.00    -0.388 A  
HETATM   11  C   UNL     1     -10.558   8.352  71.892  1.00  0.00    -0.370 A  
HETATM   12  C   UNL     1     -11.692   7.907  72.561  1.00  0.00    -0.423 A  
HETATM   13  C   UNL     1     -12.890   8.603  72.427  1.00  0.00    -0.413 A  
HETATM   14  C   UNL     1     -12.953   9.738  71.609  1.00  0.00    -0.517 A  
ENDBRANCH   4   9
ENDBRANCH   2   3
ENDBRANCH   1   2
BRANCH   1  15
HETATM   15  C   UNL     1      -9.681  16.044  65.883  1.00  0.00    -0.378 C  
HETATM   16  C   UNL     1      -8.317  18.066  66.334  1.00  0.00    -0.246 C  
HETATM   17  C   UNL     1      -7.382  15.853  66.947  1.00  0.00    -0.207 C  
HETATM   18  C   UNL     1      -8.661  16.673  66.832  1.00  0.00    -0.241 C  
HETATM   19  O   UNL     1      -7.427  18.320  65.534  1.00  0.00    -0.537 OA 
BRANCH  16  20
HETATM   20  O   UNL     1      -9.111  18.986  66.949  1.00  0.00    -0.286 OA 
BRANCH  20  21
HETATM   21  C   UNL     1      -8.953  19.072  68.372  1.00  0.00    -0.338 C  
HETATM   22  C   UNL     1      -7.562  19.615  68.648  1.00  0.00    -0.366 C  
ENDBRANCH  20  21
ENDBRANCH  16  20
ENDBRANCH   1  15
BRANCH   1  23
HETATM   23  N   UNL     1     -10.567  13.879  65.139  1.00  0.00    -0.355 N  
HETATM   24  C   UNL     1     -11.766  13.942  64.482  1.00  0.00    -0.410 C  
HETATM   25  H   UNL     1      -9.849  13.246  64.786  1.00  0.00     0.000 HD 
HETATM   26  O   UNL     1     -12.729  14.623  64.829  1.00  0.00    -0.552 OA 
BRANCH  24  27
HETATM   27  C   UNL     1     -11.917  12.978  63.335  1.00  0.00    -0.592 C  
BRANCH  27  28
HETATM   28  C   UNL     1     -11.557  11.585  63.812  1.00  0.00    -0.329 C  
HETATM   29  O   UNL     1      -9.783  10.006  64.027  1.00  0.00    -0.273 OA 
HETATM   30  C   UNL     1     -10.151  11.078  63.561  1.00  0.00    -0.373 C  
HETATM   31  O   UNL     1      -9.322  11.825  62.817  1.00  0.00    -0.351 OA 
ENDBRANCH  27  28
ENDBRANCH  24  27
ENDBRANCH   1  23
TORSDOF 9
ENDMDL
MODEL        6
REMARK 921   NORMALIZED FREE ENERGY PREDICTED BY IDOCK:   -6.89 KCAL/MOL
REMARK 922        TOTAL FREE ENERGY PREDICTED BY IDOCK:  -12.34 KCAL/MOL
REMARK 923 INTER-LIGAND FREE ENERGY PREDICTED BY IDOCK:  -11.06 KCAL/MOL
REMARK 924 INTRA-LIGAND FREE ENERGY PREDICTED BY IDOCK:   -1.28 KCAL/MOL
REMARK 927      BINDING AFFINITY PREDICTED BY RF-SCORE:    0.00 PKD
ROOT
HETATM    1  C   UNL     1     -11.278  14.699  65.667  1.00  0.00    -0.342 C  
ENDROOT
BRANCH   1   2
HETATM    2  C   UNL     1     -12.389  14.054  66.542  1.00  0.00    -0.442 C  
BRANCH   2   3
HETATM    3  C   UNL     1     -12.007  13.051  67.609  1.00  0.00    -0.353 A  
HETATM    4  C   UNL     1     -11.643  11.162  69.720  1.00  0.00    -0.409 A  
HETATM    5  C   UNL     1     -11.659  11.728  67.342  1.00  0.00    -0.352 A  
HETATM    6  C   UNL     1     -11.521  10.800  68.371  1.00  0.00    -0.358 A  
HETATM    7  C   UNL     1     -12.035  13.455  68.949  1.00  0.00    -0.362 A  
HETATM    8  C   UNL     1     -11.838  12.531  69.984  1.00  0.00    -0.363 A  
BRANCH   4   9
HETATM    9  C   UNL     1     -11.632  10.138  70.784  1.00  0.00    -0.445 A  
HETATM   10  C   UNL     1     -10.467   9.410  71.097  1.00  0.00    -0.392 A  
HETATM   11  C   UNL     1     -10.480   8.364  72.022  1.00  0.00    -0.384 A  
HETATM   12  C   UNL     1     -11.658   8.038  72.685  1.00  0.00    -0.448 A  
HETATM   13  C   UNL     1     -12.821   8.753  72.418  1.00  0.00    -0.434 A  
HETATM   14  C   UNL     1     -12.807   9.787  71.474  1.00  0.00    -0.502 A  
ENDBRANCH   4   9
ENDBRANCH   2   3
ENDBRANCH   1   2
BRANCH   1  15
HETATM   15  C   UNL     1     -10.359  13.706  64.914  1.00  0.00    -0.408 C  
HETATM   16  C   UNL     1      -9.989  11.535  63.773  1.00  0.00    -0.349 C  
HETATM   17  C   UNL     1     -12.024  12.831  63.206  1.00  0.00    -0.522 C  
HETATM   18  C   UNL     1     -11.047  12.477  64.320  1.00  0.00    -0.403 C  
HETATM   19  O   UNL     1      -9.536  11.580  62.638  1.00  0.00    -0.327 OA 
BRANCH  16  20
HETATM   20  O   UNL     1      -9.661  10.609  64.717  1.00  0.00    -0.239 OA 
BRANCH  20  21
HETATM   21  C   UNL     1      -8.340  10.064  64.601  1.00  0.00    -0.165 C  
HETATM   22  C   UNL     1      -8.134   9.106  65.761  1.00  0.00    -0.112 C  
ENDBRANCH  20  21
ENDBRANCH  16  20
ENDBRANCH   1  15
BRANCH   1  23
HETATM   23  N   UNL     1     -10.447  15.638  66.426  1.00  0.00    -0.298 N  
HETATM   24  C   UNL     1     -10.282  16.946  66.057  1.00  0.00    -0.336 C  
HETATM   25  H   UNL     1      -9.971  15.303  67.263  1.00  0.00     0.000 HD 
HETATM   26  O   UNL     1     -10.757  17.462  65.046  1.00  0.00    -0.688 OA 
BRANCH  24  27
HETATM   27  C   UNL     1      -9.323  17.734  66.908  1.00  0.00    -0.272 C  
BRANCH  27  28
HETATM   28  C   UNL     1      -7.988  17.015  66.941  1.00  0.00    -0.256 C  
HETATM   29  O   UNL     1      -5.729  17.081  66.180  1.00  0.00    -0.302 OA 
HETATM   30  C   UNL     1      -6.854  17.561  66.098  1.00  0.00    -0.276 C  
HETATM   31  O   UNL     1      -7.108  18.578  65.260  1.00  0.00    -0.521 OA 
ENDBRANCH  27  28
ENDBRANCH  24  27
ENDBRANCH   1  23
TORSDOF 9
ENDMDL
MODEL        7
REMARK 921   NORMALIZED FREE ENERGY PREDICTED BY IDOCK:   -6.88 KCAL/MOL
REMARK 922        TOTAL FREE ENERGY PREDICTED BY IDOCK:  -12.32 KCAL/MOL
REMARK 923 INTER-LIGAND FREE ENERGY PREDICTED BY IDOCK:  -10.42 KCAL/MOL
REMARK 924 INTRA-LIGAND FREE ENERGY PREDICTED BY IDOCK:   -1.90 KCAL/MOL
REMARK 927      BINDING AFFINITY PREDICTED BY RF-SCORE:    0.00 PKD
ROOT
HETATM    1  C   UNL     1     -10.840  11.105  68.629  1.00  0.00    -0.209 C  
ENDROOT
BRANCH   1   2
HETATM    2  C   UNL     1     -12.035  12.098  68.673  1.00  0.00    -0.290 C  
BRANCH   2   3
HETATM    3  C   UNL     1     -11.807  13.552  68.321  1.00  0.00    -0.401 A  
HETATM    4  C   UNL     1     -11.067  16.271  67.857  1.00  0.00    -0.270 A  
HETATM    5  C   UNL     1     -11.444  13.995  67.050  1.00  0.00    -0.370 A  
HETATM    6  C   UNL     1     -11.045  15.312  66.836  1.00  0.00    -0.288 A  
HETATM    7  C   UNL     1     -11.932  14.514  69.330  1.00  0.00    -0.362 A  
HETATM    8  C   UNL     1     -11.586  15.852  69.097  1.00  0.00    -0.382 A  
BRANCH   4   9
HETATM    9  C   UNL     1     -10.510  17.622  67.642  1.00  0.00    -0.372 A  
HETATM   10  C   UNL     1     -10.063  18.417  68.716  1.00  0.00    -0.393 A  
HETATM   11  C   UNL     1      -9.642  19.736  68.529  1.00  0.00    -0.434 A  
HETATM   12  C   UNL     1      -9.628  20.286  67.253  1.00  0.00    -0.581 A  
HETATM   13  C   UNL     1     -10.039  19.520  66.166  1.00  0.00    -0.557 A  
HETATM   14  C   UNL     1     -10.479  18.206  66.362  1.00  0.00    -0.364 A  
ENDBRANCH   4   9
ENDBRANCH   2   3
ENDBRANCH   1   2
BRANCH   1  15
HETATM   15  C   UNL     1     -10.628  10.372  67.282  1.00  0.00    -0.322 C  
HETATM   16  C   UNL     1      -9.750  10.314  64.962  1.00  0.00    -0.305 C  
HETATM   17  C   UNL     1      -8.270  11.164  66.760  1.00  0.00    -0.154 C  
HETATM   18  C   UNL     1      -9.713  11.073  66.277  1.00  0.00    -0.244 C  
HETATM   19  O   UNL     1      -9.014   9.380  64.675  1.00  0.00    -0.208 OA 
BRANCH  16  20
HETATM   20  O   UNL     1     -10.688  10.861  64.139  1.00  0.00    -0.362 OA 
BRANCH  20  21
HETATM   21  C   UNL     1     -10.465  12.235  63.792  1.00  0.00    -0.444 C  
HETATM   22  C   UNL     1     -11.817  12.860  63.498  1.00  0.00    -0.605 C  
ENDBRANCH  20  21
ENDBRANCH  16  20
ENDBRANCH   1  15
BRANCH   1  23
HETATM   23  N   UNL     1     -10.901  10.113  69.707  1.00  0.00    -0.259 N  
HETATM   24  C   UNL     1      -9.784   9.649  70.350  1.00  0.00    -0.245 C  
HETATM   25  H   UNL     1     -11.812   9.753  69.990  1.00  0.00     0.000 HD 
HETATM   26  O   UNL     1      -8.627   9.961  70.074  1.00  0.00    -0.203 OA 
BRANCH  24  27
HETATM   27  C   UNL     1     -10.037   8.569  71.368  1.00  0.00    -0.302 C  
BRANCH  27  28
HETATM   28  C   UNL     1     -11.497   8.606  71.774  1.00  0.00    -0.394 C  
HETATM   29  O   UNL     1     -13.536   7.369  71.798  1.00  0.00    -0.354 OA 
HETATM   30  C   UNL     1     -12.380   7.435  71.394  1.00  0.00    -0.361 C  
HETATM   31  O   UNL     1     -11.872   6.475  70.607  1.00  0.00    -0.384 OA 
ENDBRANCH  27  28
ENDBRANCH  24  27
ENDBRANCH   1  23
TORSDOF 9
ENDMDL
MODEL        8
REMARK 921   NORMALIZED FREE ENERGY PREDICTED BY IDOCK:   -6.87 KCAL/MOL
REMARK 922        TOTAL FREE ENERGY PREDICTED BY IDOCK:  -12.31 KCAL/MOL
REMARK 923 INTER-LIGAND FREE ENERGY PREDICTED BY IDOCK:  -10.09 KCAL/MOL
REMARK 924 INTRA-LIGAND FREE ENERGY PREDICTED BY IDOCK:   -2.21 KCAL/MOL
REMARK 927      BINDING AFFINITY PREDICTED BY RF-SCORE:    0.00 PKD
ROOT
HETATM    1  C   UNL     1     -10.170  15.663  66.891  1.00  0.00    -0.281 C  
ENDROOT
BRANCH   1   2
HETATM    2  C   UNL     1     -11.451  14.797  66.732  1.00  0.00    -0.343 C  
BRANCH   2   3
HETATM    3  C   UNL     1     -11.705  13.661  67.698  1.00  0.00    -0.398 A  
HETATM    4  C   UNL     1     -11.820  11.447  69.500  1.00  0.00    -0.426 A  
HETATM    5  C   UNL     1     -12.019  13.841  69.044  1.00  0.00    -0.399 A  
HETATM    6  C   UNL     1     -12.035  12.765  69.928  1.00  0.00    -0.368 A  
HETATM    7  C   UNL     1     -11.587  12.346  67.231  1.00  0.00    -0.435 A  
HETATM    8  C   UNL     1     -11.661  11.259  68.113  1.00  0.00    -0.359 A  
BRANCH   4   9
HETATM    9  C   UNL     1     -11.704  10.342  70.473  1.00  0.00    -0.434 A  
HETATM   10  C   UNL     1     -12.787   9.958  71.288  1.00  0.00    -0.486 A  
HETATM   11  C   UNL     1     -12.649   8.991  72.286  1.00  0.00    -0.445 A  
HETATM   12  C   UNL     1     -11.425   8.360  72.477  1.00  0.00    -0.422 A  
HETATM   13  C   UNL     1     -10.341   8.698  71.673  1.00  0.00    -0.366 A  
HETATM   14  C   UNL     1     -10.480   9.682  70.687  1.00  0.00    -0.379 A  
ENDBRANCH   4   9
ENDBRANCH   2   3
ENDBRANCH   1   2
BRANCH   1  15
HETATM   15  C   UNL     1      -9.046  15.042  67.756  1.00  0.00    -0.180 C  
HETATM   16  C   UNL     1      -6.706  14.267  68.036  1.00  0.00    -0.148 C  
HETATM   17  C   UNL     1      -7.096  16.469  66.967  1.00  0.00    -0.247 C  
HETATM   18  C   UNL     1      -7.645  15.058  67.143  1.00  0.00    -0.174 C  
HETATM   19  O   UNL     1      -6.080  14.734  68.977  1.00  0.00    -0.090 OA 
BRANCH  16  20
HETATM   20  O   UNL     1      -6.631  12.978  67.601  1.00  0.00    -0.133 OA 
BRANCH  20  21
HETATM   21  C   UNL     1      -6.820  11.982  68.615  1.00  0.00    -0.091 C  
HETATM   22  C   UNL     1      -8.101  11.233  68.291  1.00  0.00    -0.137 C  
ENDBRANCH  20  21
ENDBRANCH  16  20
ENDBRANCH   1  15
BRANCH   1  23
HETATM   23  N   UNL     1     -10.466  17.010  67.389  1.00  0.00    -0.329 N  
HETATM   24  C   UNL     1     -10.652  18.082  66.558  1.00  0.00    -0.253 C  
HETATM   25  H   UNL     1     -10.536  17.154  68.396  1.00  0.00     0.000 HD 
HETATM   26  O   UNL     1     -10.547  18.055  65.333  1.00  0.00    -0.648 OA 
BRANCH  24  27
HETATM   27  C   UNL     1     -10.860  19.401  67.254  1.00  0.00    -0.561 C  
BRANCH  27  28
HETATM   28  C   UNL     1      -9.671  20.299  66.973  1.00  0.00    -0.598 C  
HETATM   29  O   UNL     1      -7.374  20.693  67.481  1.00  0.00    -0.317 OA 
HETATM   30  C   UNL     1      -8.393  20.068  67.754  1.00  0.00    -0.285 C  
HETATM   31  O   UNL     1      -8.401  19.169  68.750  1.00  0.00    -0.359 OA 
ENDBRANCH  27  28
ENDBRANCH  24  27
ENDBRANCH   1  23
TORSDOF 9
ENDMDL
MODEL        9
REMARK 921   NORMALIZED FREE ENERGY PREDICTED BY IDOCK:   -6.86 KCAL/MOL
REMARK 922        TOTAL FREE ENERGY PREDICTED BY IDOCK:  -12.29 KCAL/MOL
REMARK 923 INTER-LIGAND FREE ENERGY PREDICTED BY IDOCK:  -10.86 KCAL/MOL
REMARK 924 INTRA-LIGAND FREE ENERGY PREDICTED BY IDOCK:   -1.43 KCAL/MOL
REMARK 927      BINDING AFFINITY PREDICTED BY RF-SCORE:    0.00 PKD
ROOT
HETATM    1  C   UNL     1     -11.183  12.900  68.035  1.00  0.00    -0.268 C  
ENDROOT
BRANCH   1   2
HETATM    2  C   UNL     1     -11.181  11.347  67.968  1.00  0.00    -0.346 C  
BRANCH   2   3
HETATM    3  C   UNL     1     -10.946  10.548  69.231  1.00  0.00    -0.291 A  
HETATM    4  C   UNL     1     -10.682   8.763  71.445  1.00  0.00    -0.356 A  
HETATM    5  C   UNL     1      -9.700  10.062  69.622  1.00  0.00    -0.255 A  
HETATM    6  C   UNL     1      -9.579   9.161  70.677  1.00  0.00    -0.312 A  
HETATM    7  C   UNL     1     -12.044  10.243  70.045  1.00  0.00    -0.230 A  
HETATM    8  C   UNL     1     -11.910   9.381  71.142  1.00  0.00    -0.413 A  
BRANCH   4   9
HETATM    9  C   UNL     1     -10.553   7.703  72.466  1.00  0.00    -0.336 A  
HETATM   10  C   UNL     1      -9.587   7.775  73.488  1.00  0.00    -0.332 A  
HETATM   11  C   UNL     1      -9.387   6.724  74.386  1.00  0.00    -0.259 A  
HETATM   12  C   UNL     1     -10.173   5.580  74.303  1.00  0.00    -0.292 A  
HETATM   13  C   UNL     1     -11.154   5.486  73.320  1.00  0.00    -0.322 A  
HETATM   14  C   UNL     1     -11.336   6.535  72.410  1.00  0.00    -0.314 A  
ENDBRANCH   4   9
ENDBRANCH   2   3
ENDBRANCH   1   2
BRANCH   1  15
HETATM   15  C   UNL     1     -12.129  13.522  69.092  1.00  0.00    -0.331 C  
HETATM   16  C   UNL     1     -12.567  15.133  70.927  1.00  0.00    -0.379 C  
HETATM   17  C   UNL     1     -11.413  15.952  68.892  1.00  0.00    -0.386 C  
HETATM   18  C   UNL     1     -11.598  14.757  69.819  1.00  0.00    -0.338 C  
HETATM   19  O   UNL     1     -13.529  15.875  70.790  1.00  0.00    -0.410 OA 
BRANCH  16  20
HETATM   20  O   UNL     1     -12.175  14.559  72.098  1.00  0.00    -0.309 OA 
BRANCH  20  21
HETATM   21  C   UNL     1     -13.241  14.066  72.922  1.00  0.00    -0.399 C  
HETATM   22  C   UNL     1     -13.743  12.775  72.300  1.00  0.00    -0.495 C  
ENDBRANCH  20  21
ENDBRANCH  16  20
ENDBRANCH   1  15
BRANCH   1  23
HETATM   23  N   UNL     1     -11.454  13.514  66.732  1.00  0.00    -0.331 N  
HETATM   24  C   UNL     1     -10.480  14.114  65.979  1.00  0.00    -0.304 C  
HETATM   25  H   UNL     1     -12.407  13.493  66.370  1.00  0.00     0.000 HD 
HETATM   26  O   UNL     1      -9.306  14.251  66.320  1.00  0.00    -0.272 OA 
BRANCH  24  27
HETATM   27  C   UNL     1     -10.963  14.766  64.711  1.00  0.00    -0.393 C  
BRANCH  27  28
HETATM   28  C   UNL     1     -12.211  14.048  64.233  1.00  0.00    -0.453 C  
HETATM   29  O   UNL     1     -13.031  12.057  63.209  1.00  0.00    -0.736 OA 
HETATM   30  C   UNL     1     -12.049  12.725  63.512  1.00  0.00    -0.559 C  
HETATM   31  O   UNL     1     -10.812  12.304  63.211  1.00  0.00    -0.435 OA 
ENDBRANCH  27  28
ENDBRANCH  24  27
ENDBRANCH   1  23
TORSDOF 9
ENDMDL
MODEL       10
REMARK 921   NORMALIZED FREE ENERGY PREDICTED BY IDOCK:   -6.78 KCAL/MOL
REMARK 922        TOTAL FREE ENERGY PREDICTED BY IDOCK:  -12.17 KCAL/MOL
REMARK 923 INTER-LIGAND FREE ENERGY PREDICTED BY IDOCK:  -10.39 KCAL/MOL
REMARK 924 INTRA-LIGAND FREE ENERGY PREDICTED BY IDOCK:   -1.79 KCAL/MOL
REMARK 927      BINDING AFFINITY PREDICTED BY RF-SCORE:    0.00 PKD
ROOT
HETATM    1  C   UNL     1     -11.503  12.522  67.867  1.00  0.00    -0.315 C  
ENDROOT
BRANCH   1   2
HETATM    2  C   UNL     1     -10.057  13.013  68.155  1.00  0.00    -0.237 C  
BRANCH   2   3
HETATM    3  C   UNL     1      -9.694  14.457  67.884  1.00  0.00    -0.223 A  
HETATM    4  C   UNL     1      -8.723  17.128  67.602  1.00  0.00    -0.213 A  
HETATM    5  C   UNL     1      -9.174  14.913  66.674  1.00  0.00    -0.302 A  
HETATM    6  C   UNL     1      -8.665  16.203  66.551  1.00  0.00    -0.337 A  
HETATM    7  C   UNL     1      -9.852  15.393  68.914  1.00  0.00    -0.216 A  
HETATM    8  C   UNL     1      -9.392  16.709  68.768  1.00  0.00    -0.256 A  
BRANCH   4   9
HETATM    9  C   UNL     1      -8.054  18.441  67.496  1.00  0.00    -0.253 A  
HETATM   10  C   UNL     1      -7.896  19.092  66.257  1.00  0.00    -0.303 A  
HETATM   11  C   UNL     1      -7.166  20.276  66.137  1.00  0.00    -0.291 A  
HETATM   12  C   UNL     1      -6.597  20.860  67.263  1.00  0.00    -0.403 A  
HETATM   13  C   UNL     1      -6.755  20.256  68.507  1.00  0.00    -0.305 A  
HETATM   14  C   UNL     1      -7.471  19.058  68.619  1.00  0.00    -0.361 A  
ENDBRANCH   4   9
ENDBRANCH   2   3
ENDBRANCH   1   2
BRANCH   1  15
HETATM   15  C   UNL     1     -12.027  11.402  68.799  1.00  0.00    -0.353 C  
HETATM   16  C   UNL     1     -12.208  10.358  71.042  1.00  0.00    -0.393 C  
HETATM   17  C   UNL     1     -12.563  12.804  70.850  1.00  0.00    -0.342 C  
HETATM   18  C   UNL     1     -11.791  11.613  70.295  1.00  0.00    -0.414 C  
HETATM   19  O   UNL     1     -13.337  10.136  71.457  1.00  0.00    -0.370 OA 
BRANCH  16  20
HETATM   20  O   UNL     1     -11.128   9.547  71.221  1.00  0.00    -0.334 OA 
BRANCH  20  21
HETATM   21  C   UNL     1     -11.438   8.168  71.465  1.00  0.00    -0.267 C  
HETATM   22  C   UNL     1     -10.946   7.826  72.860  1.00  0.00    -0.467 C  
ENDBRANCH  20  21
ENDBRANCH  16  20
ENDBRANCH   1  15
BRANCH   1  23
HETATM   23  N   UNL     1     -11.682  12.106  66.473  1.00  0.00    -0.362 N  
HETATM   24  C   UNL     1     -12.356  12.865  65.554  1.00  0.00    -0.461 C  
HETATM   25  H   UNL     1     -11.289  11.213  66.175  1.00  0.00     0.000 HD 
HETATM   26  O   UNL     1     -12.918  13.932  65.793  1.00  0.00    -0.506 OA 
BRANCH  24  27
HETATM   27  C   UNL     1     -12.514  12.234  64.196  1.00  0.00    -0.530 C  
BRANCH  27  28
HETATM   28  C   UNL     1     -11.273  12.520  63.373  1.00  0.00    -0.460 C  
HETATM   29  O   UNL     1      -9.172  11.644  62.660  1.00  0.00    -0.349 OA 
HETATM   30  C   UNL     1     -10.144  11.510  63.397  1.00  0.00    -0.420 C  
HETATM   31  O   UNL     1     -10.228  10.470  64.240  1.00  0.00    -0.344 OA 
ENDBRANCH  27  28
ENDBRANCH  24  27
ENDBRANCH   1  23
TORSDOF 9
ENDMDL
MODEL       11
REMARK 921   NORMALIZED FREE ENERGY PREDICTED BY IDOCK:   -6.75 KCAL/MOL
REMARK 922        TOTAL FREE ENERGY PREDICTED BY IDOCK:  -12.12 KCAL/MOL
REMARK 923 INTER-LIGAND FREE ENERGY PREDICTED BY IDOCK:  -10.38 KCAL/MOL
REMARK 924 INTRA-LIGAND FREE ENERGY PREDICTED BY IDOCK:   -1.74 KCAL/MOL
REMARK 927      BINDING AFFINITY PREDICTED BY RF-SCORE:    0.00 PKD
ROOT
HETATM    1  C   UNL     1     -11.059  10.774  68.219  1.00  0.00    -0.271 C  
ENDROOT
BRANCH   1   2
HETATM    2  C   UNL     1     -12.018  11.995  68.135  1.00  0.00    -0.231 C  
BRANCH   2   3
HETATM    3  C   UNL     1     -11.440  13.385  67.978  1.00  0.00    -0.339 A  
HETATM    4  C   UNL     1     -10.698  16.123  67.643  1.00  0.00    -0.318 A  
HETATM    5  C   UNL     1     -10.881  14.115  69.025  1.00  0.00    -0.273 A  
HETATM    6  C   UNL     1     -10.557  15.461  68.870  1.00  0.00    -0.244 A  
HETATM    7  C   UNL     1     -11.495  13.996  66.720  1.00  0.00    -0.379 A  
HETATM    8  C   UNL     1     -11.114  15.334  66.552  1.00  0.00    -0.271 A  
BRANCH   4   9
HETATM    9  C   UNL     1     -10.482  17.580  67.536  1.00  0.00    -0.355 A  
HETATM   10  C   UNL     1     -10.529  18.245  66.295  1.00  0.00    -0.397 A  
HETATM   11  C   UNL     1     -10.214  19.601  66.176  1.00  0.00    -0.604 A  
HETATM   12  C   UNL     1      -9.870  20.336  67.305  1.00  0.00    -0.593 A  
HETATM   13  C   UNL     1      -9.838  19.715  68.550  1.00  0.00    -0.519 A  
HETATM   14  C   UNL     1     -10.135  18.352  68.661  1.00  0.00    -0.407 A  
ENDBRANCH   4   9
ENDBRANCH   2   3
ENDBRANCH   1   2
BRANCH   1  15
HETATM   15  C   UNL     1     -10.652  10.149  66.862  1.00  0.00    -0.267 C  
HETATM   16  C   UNL     1      -9.621  10.334  64.614  1.00  0.00    -0.312 C  
HETATM   17  C   UNL     1      -8.405  11.294  66.549  1.00  0.00    -0.168 C  
HETATM   18  C   UNL     1      -9.783  11.022  65.957  1.00  0.00    -0.265 C  
HETATM   19  O   UNL     1      -8.739   9.530  64.344  1.00  0.00    -0.185 OA 
BRANCH  16  20
HETATM   20  O   UNL     1     -10.570  10.784  63.746  1.00  0.00    -0.287 OA 
BRANCH  20  21
HETATM   21  C   UNL     1     -10.653  12.210  63.621  1.00  0.00    -0.461 C  
HETATM   22  C   UNL     1     -12.117  12.572  63.447  1.00  0.00    -0.621 C  
ENDBRANCH  20  21
ENDBRANCH  16  20
ENDBRANCH   1  15
BRANCH   1  23
HETATM   23  N   UNL     1     -11.578   9.719  69.094  1.00  0.00    -0.457 N  
HETATM   24  C   UNL     1     -10.919   9.299  70.218  1.00  0.00    -0.247 C  
HETATM   25  H   UNL     1     -12.467   9.278  68.856  1.00  0.00     0.000 HD 
HETATM   26  O   UNL     1      -9.821   9.709  70.590  1.00  0.00    -0.265 OA 
BRANCH  24  27
HETATM   27  C   UNL     1     -11.561   8.145  70.942  1.00  0.00    -0.283 C  
BRANCH  27  28
HETATM   28  C   UNL     1     -11.107   8.157  72.388  1.00  0.00    -0.437 C  
HETATM   29  O   UNL     1     -10.411   6.790  74.215  1.00  0.00    -0.369 OA 
HETATM   30  C   UNL     1     -10.885   6.830  73.084  1.00  0.00    -0.284 C  
HETATM   31  O   UNL     1     -11.220   5.702  72.441  1.00  0.00    -0.268 OA 
ENDBRANCH  27  28
ENDBRANCH  24  27
ENDBRANCH   1  23
TORSDOF 9
ENDMDL
MODEL       12
REMARK 921   NORMALIZED FREE ENERGY PREDICTED BY IDOCK:   -6.72 KCAL/MOL
REMARK 922        TOTAL FREE ENERGY PREDICTED BY IDOCK:  -12.08 KCAL/MOL
REMARK 923 INTER-LIGAND FREE ENERGY PREDICTED BY IDOCK:  -11.02 KCAL/MOL
REMARK 924 INTRA-LIGAND FREE ENERGY PREDICTED BY IDOCK:   -1.06 KCAL/MOL
REMARK 927      BINDING AFFINITY PREDICTED BY RF-SCORE:    0.00 PKD
ROOT
HETATM    1  C   UNL     1     -10.434  15.439  68.519  1.00  0.00    -0.234 C  
ENDROOT
BRANCH   1   2
HETATM    2  C   UNL     1     -11.653  15.244  69.465  1.00  0.00    -0.339 C  
BRANCH   2   3
HETATM    3  C   UNL     1     -12.052  13.847  69.884  1.00  0.00    -0.406 A  
HETATM    4  C   UNL     1     -12.445  11.146  70.728  1.00  0.00    -0.479 A  
HETATM    5  C   UNL     1     -12.697  13.551  71.084  1.00  0.00    -0.425 A  
HETATM    6  C   UNL     1     -12.852  12.235  71.511  1.00  0.00    -0.384 A  
HETATM    7  C   UNL     1     -11.729  12.776  69.042  1.00  0.00    -0.371 A  
HETATM    8  C   UNL     1     -11.939  11.451  69.449  1.00  0.00    -0.407 A  
BRANCH   4   9
HETATM    9  C   UNL     1     -12.491   9.769  71.259  1.00  0.00    -0.461 A  
HETATM   10  C   UNL     1     -11.339   9.131  71.761  1.00  0.00    -0.451 A  
HETATM   11  C   UNL     1     -11.355   7.792  72.158  1.00  0.00    -0.353 A  
HETATM   12  C   UNL     1     -12.536   7.062  72.093  1.00  0.00    -0.193 A  
HETATM   13  C   UNL     1     -13.698   7.668  71.625  1.00  0.00    -0.454 A  
HETATM   14  C   UNL     1     -13.672   9.005  71.209  1.00  0.00    -0.246 A  
ENDBRANCH   4   9
ENDBRANCH   2   3
ENDBRANCH   1   2
BRANCH   1  15
HETATM   15  C   UNL     1      -9.490  16.613  68.878  1.00  0.00    -0.251 C  
HETATM   16  C   UNL     1      -8.267  18.678  68.253  1.00  0.00    -0.323 C  
HETATM   17  C   UNL     1     -10.643  18.469  67.581  1.00  0.00    -0.450 C  
HETATM   18  C   UNL     1      -9.347  17.704  67.817  1.00  0.00    -0.255 C  
HETATM   19  O   UNL     1      -8.458  19.664  68.952  1.00  0.00    -0.321 OA 
BRANCH  16  20
HETATM   20  O   UNL     1      -7.071  18.316  67.711  1.00  0.00    -0.208 OA 
BRANCH  20  21
HETATM   21  C   UNL     1      -6.368  19.367  67.032  1.00  0.00    -0.189 C  
HETATM   22  C   UNL     1      -6.644  19.219  65.546  1.00  0.00    -0.303 C  
ENDBRANCH  20  21
ENDBRANCH  16  20
ENDBRANCH   1  15
BRANCH   1  23
HETATM   23  N   UNL     1     -10.834  15.561  67.114  1.00  0.00    -0.320 N  
HETATM   24  C   UNL     1     -10.521  14.618  66.171  1.00  0.00    -0.302 C  
HETATM   25  H   UNL     1     -11.367  16.382  66.826  1.00  0.00     0.000 HD 
HETATM   26  O   UNL     1      -9.845  13.611  66.374  1.00  0.00    -0.282 OA 
BRANCH  24  27
HETATM   27  C   UNL     1     -10.940  14.958  64.765  1.00  0.00    -0.390 C  
BRANCH  27  28
HETATM   28  C   UNL     1     -12.206  14.194  64.430  1.00  0.00    -0.466 C  
HETATM   29  O   UNL     1     -13.062  12.138  63.575  1.00  0.00    -0.785 OA 
HETATM   30  C   UNL     1     -12.074  12.840  63.762  1.00  0.00    -0.517 C  
HETATM   31  O   UNL     1     -10.857  12.429  63.377  1.00  0.00    -0.451 OA 
ENDBRANCH  27  28
ENDBRANCH  24  27
ENDBRANCH   1  23
TORSDOF 9
ENDMDL
MODEL       13
REMARK 921   NORMALIZED FREE ENERGY PREDICTED BY IDOCK:   -6.72 KCAL/MOL
REMARK 922        TOTAL FREE ENERGY PREDICTED BY IDOCK:  -12.07 KCAL/MOL
REMARK 923 INTER-LIGAND FREE ENERGY PREDICTED BY IDOCK:  -11.42 KCAL/MOL
REMARK 924 INTRA-LIGAND FREE ENERGY PREDICTED BY IDOCK:   -0.65 KCAL/MOL
REMARK 927      BINDING AFFINITY PREDICTED BY RF-SCORE:    0.00 PKD
ROOT
HETATM    1  C   UNL     1     -11.909  13.263  68.474  1.00  0.00    -0.349 C  
ENDROOT
BRANCH   1   2
HETATM    2  C   UNL     1     -11.215  11.899  68.197  1.00  0.00    -0.316 C  
BRANCH   2   3
HETATM    3  C   UNL     1     -10.998  10.931  69.339  1.00  0.00    -0.304 A  
HETATM    4  C   UNL     1     -10.836   8.885  71.326  1.00  0.00    -0.360 A  
HETATM    5  C   UNL     1      -9.837  10.179  69.508  1.00  0.00    -0.255 A  
HETATM    6  C   UNL     1      -9.775   9.155  70.451  1.00  0.00    -0.266 A  
HETATM    7  C   UNL     1     -12.030  10.745  70.267  1.00  0.00    -0.438 A  
HETATM    8  C   UNL     1     -11.942   9.753  71.253  1.00  0.00    -0.471 A  
BRANCH   4   9
HETATM    9  C   UNL     1     -10.802   7.710  72.220  1.00  0.00    -0.318 A  
HETATM   10  C   UNL     1      -9.990   7.680  73.371  1.00  0.00    -0.373 A  
HETATM   11  C   UNL     1      -9.869   6.530  74.155  1.00  0.00    -0.318 A  
HETATM   12  C   UNL     1     -10.584   5.385  73.824  1.00  0.00    -0.325 A  
HETATM   13  C   UNL     1     -11.415   5.388  72.707  1.00  0.00    -0.333 A  
HETATM   14  C   UNL     1     -11.516   6.537  71.913  1.00  0.00    -0.345 A  
ENDBRANCH   4   9
ENDBRANCH   2   3
ENDBRANCH   1   2
BRANCH   1  15
HETATM   15  C   UNL     1     -12.100  14.178  67.240  1.00  0.00    -0.407 C  
HETATM   16  C   UNL     1     -11.565  14.798  64.898  1.00  0.00    -0.401 C  
HETATM   17  C   UNL     1     -12.010  12.414  65.413  1.00  0.00    -0.457 C  
HETATM   18  C   UNL     1     -11.422  13.713  65.951  1.00  0.00    -0.329 C  
HETATM   19  O   UNL     1     -12.508  14.900  64.126  1.00  0.00    -0.763 OA 
BRANCH  16  20
HETATM   20  O   UNL     1     -10.467  15.604  64.913  1.00  0.00    -0.444 OA 
BRANCH  20  21
HETATM   21  C   UNL     1      -9.354  15.102  65.666  1.00  0.00    -0.061 C  
HETATM   22  C   UNL     1      -8.667  16.289  66.317  1.00  0.00    -0.370 C  
ENDBRANCH  20  21
ENDBRANCH  16  20
ENDBRANCH   1  15
BRANCH   1  23
HETATM   23  N   UNL     1     -11.239  14.024  69.533  1.00  0.00    -0.360 N  
HETATM   24  C   UNL     1     -11.916  14.581  70.585  1.00  0.00    -0.319 C  
HETATM   25  H   UNL     1     -10.227  14.143  69.484  1.00  0.00     0.000 HD 
HETATM   26  O   UNL     1     -13.136  14.554  70.736  1.00  0.00    -0.360 OA 
BRANCH  24  27
HETATM   27  C   UNL     1     -11.071  15.399  71.525  1.00  0.00    -0.295 C  
BRANCH  27  28
HETATM   28  C   UNL     1     -11.981  16.238  72.401  1.00  0.00    -0.630 C  
HETATM   29  O   UNL     1     -13.035  16.373  74.536  1.00  0.00    -0.594 OA 
HETATM   30  C   UNL     1     -12.395  15.684  73.749  1.00  0.00    -0.602 C  
HETATM   31  O   UNL     1     -12.049  14.426  74.061  1.00  0.00    -0.256 OA 
ENDBRANCH  27  28
ENDBRANCH  24  27
ENDBRANCH   1  23
TORSDOF 9
ENDMDL
MODEL       14
REMARK 921   NORMALIZED FREE ENERGY PREDICTED BY IDOCK:   -6.70 KCAL/MOL
REMARK 922        TOTAL FREE ENERGY PREDICTED BY IDOCK:  -12.04 KCAL/MOL
REMARK 923 INTER-LIGAND FREE ENERGY PREDICTED BY IDOCK:  -10.95 KCAL/MOL
REMARK 924 INTRA-LIGAND FREE ENERGY PREDICTED BY IDOCK:   -1.09 KCAL/MOL
REMARK 927      BINDING AFFINITY PREDICTED BY RF-SCORE:    0.00 PKD
ROOT
HETATM    1  C   UNL     1     -10.499  12.299  68.028  1.00  0.00    -0.218 C  
ENDROOT
BRANCH   1   2
HETATM    2  C   UNL     1     -11.686  11.669  68.811  1.00  0.00    -0.392 C  
BRANCH   2   3
HETATM    3  C   UNL     1     -11.404  10.666  69.907  1.00  0.00    -0.386 A  
HETATM    4  C   UNL     1     -11.113   8.550  71.804  1.00  0.00    -0.378 A  
HETATM    5  C   UNL     1     -10.207   9.962  70.026  1.00  0.00    -0.319 A  
HETATM    6  C   UNL     1     -10.081   8.904  70.924  1.00  0.00    -0.304 A  
HETATM    7  C   UNL     1     -12.409  10.395  70.844  1.00  0.00    -0.480 A  
HETATM    8  C   UNL     1     -12.259   9.369  71.786  1.00  0.00    -0.465 A  
BRANCH   4   9
HETATM    9  C   UNL     1     -11.010   7.342  72.648  1.00  0.00    -0.341 A  
HETATM   10  C   UNL     1     -10.163   7.296  73.773  1.00  0.00    -0.370 A  
HETATM   11  C   UNL     1      -9.977   6.121  74.505  1.00  0.00    -0.343 A  
HETATM   12  C   UNL     1     -10.660   4.965  74.148  1.00  0.00    -0.345 A  
HETATM   13  C   UNL     1     -11.523   4.981  73.056  1.00  0.00    -0.344 A  
HETATM   14  C   UNL     1     -11.690   6.156  72.314  1.00  0.00    -0.352 A  
ENDBRANCH   4   9
ENDBRANCH   2   3
ENDBRANCH   1   2
BRANCH   1  15
HETATM   15  C   UNL     1     -10.150  13.760  68.404  1.00  0.00    -0.241 C  
HETATM   16  C   UNL     1     -10.764  16.157  68.584  1.00  0.00    -0.295 C  
HETATM   17  C   UNL     1     -12.381  14.464  69.397  1.00  0.00    -0.228 C  
HETATM   18  C   UNL     1     -11.308  14.758  68.356  1.00  0.00    -0.317 C  
HETATM   19  O   UNL     1     -10.624  16.681  69.680  1.00  0.00    -0.316 OA 
BRANCH  16  20
HETATM   20  O   UNL     1     -10.505  16.753  67.386  1.00  0.00    -0.308 OA 
BRANCH  20  21
HETATM   21  C   UNL     1      -9.246  17.435  67.306  1.00  0.00    -0.234 C  
HETATM   22  C   UNL     1      -8.417  16.744  66.238  1.00  0.00    -0.342 C  
ENDBRANCH  20  21
ENDBRANCH  16  20
ENDBRANCH   1  15
BRANCH   1  23
HETATM   23  N   UNL     1     -10.681  12.211  66.576  1.00  0.00    -0.247 N  
HETATM   24  C   UNL     1     -10.336  11.101  65.853  1.00  0.00    -0.259 C  
HETATM   25  H   UNL     1     -11.081  13.010  66.084  1.00  0.00     0.000 HD 
HETATM   26  O   UNL     1      -9.801  10.094  66.314  1.00  0.00    -0.204 OA 
BRANCH  24  27
HETATM   27  C   UNL     1     -10.514  11.228  64.364  1.00  0.00    -0.407 C  
BRANCH  27  28
HETATM   28  C   UNL     1     -10.856  12.667  64.029  1.00  0.00    -0.452 C  
HETATM   29  O   UNL     1     -12.615  14.144  63.390  1.00  0.00    -0.818 OA 
HETATM   30  C   UNL     1     -12.262  12.983  63.562  1.00  0.00    -0.501 C  
HETATM   31  O   UNL     1     -13.109  11.967  63.338  1.00  0.00    -0.747 OA 
ENDBRANCH  27  28
ENDBRANCH  24  27
ENDBRANCH   1  23
TORSDOF 9
ENDMDL
MODEL       15
REMARK 921   NORMALIZED FREE ENERGY PREDICTED BY IDOCK:   -6.57 KCAL/MOL
REMARK 922        TOTAL FREE ENERGY PREDICTED BY IDOCK:  -11.85 KCAL/MOL
REMARK 923 INTER-LIGAND FREE ENERGY PREDICTED BY IDOCK:   -9.70 KCAL/MOL
REMARK 924 INTRA-LIGAND FREE ENERGY PREDICTED BY IDOCK:   -2.15 KCAL/MOL
REMARK 927      BINDING AFFINITY PREDICTED BY RF-SCORE:    0.00 PKD
ROOT
HETATM    1  C   UNL     1     -11.123  11.830  68.220  1.00  0.00    -0.240 C  
ENDROOT
BRANCH   1   2
HETATM    2  C   UNL     1     -11.631  12.932  69.192  1.00  0.00    -0.375 C  
BRANCH   2   3
HETATM    3  C   UNL     1     -11.140  14.354  69.026  1.00  0.00    -0.282 A  
HETATM    4  C   UNL     1      -9.969  16.899  68.472  1.00  0.00    -0.275 A  
HETATM    5  C   UNL     1     -11.859  15.352  68.372  1.00  0.00    -0.264 A  
HETATM    6  C   UNL     1     -11.272  16.578  68.068  1.00  0.00    -0.202 A  
HETATM    7  C   UNL     1      -9.876  14.689  69.526  1.00  0.00     0.072 A  
HETATM    8  C   UNL     1      -9.309  15.944  69.269  1.00  0.00    -0.259 A  
BRANCH   4   9
HETATM    9  C   UNL     1      -9.320  18.147  68.019  1.00  0.00    -0.289 A  
HETATM   10  C   UNL     1     -10.005  19.093  67.231  1.00  0.00    -0.436 A  
HETATM   11  C   UNL     1      -9.361  20.216  66.708  1.00  0.00    -0.513 A  
HETATM   12  C   UNL     1      -8.018  20.440  66.985  1.00  0.00    -0.359 A  
HETATM   13  C   UNL     1      -7.317  19.538  67.781  1.00  0.00    -0.297 A  
HETATM   14  C   UNL     1      -7.962  18.402  68.286  1.00  0.00    -0.317 A  
ENDBRANCH   4   9
ENDBRANCH   2   3
ENDBRANCH   1   2
BRANCH   1  15
HETATM   15  C   UNL     1     -10.078  10.850  68.808  1.00  0.00    -0.205 C  
HETATM   16  C   UNL     1      -9.378   8.558  69.448  1.00  0.00    -0.154 C  
HETATM   17  C   UNL     1     -10.433   8.890  67.230  1.00  0.00    -0.348 C  
HETATM   18  C   UNL     1     -10.410   9.363  68.678  1.00  0.00    -0.227 C  
HETATM   19  O   UNL     1      -8.320   8.156  68.984  1.00  0.00    -0.125 OA 
BRANCH  16  20
HETATM   20  O   UNL     1      -9.830   8.312  70.709  1.00  0.00    -0.175 OA 
BRANCH  20  21
HETATM   21  C   UNL     1     -11.174   7.817  70.787  1.00  0.00    -0.271 C  
HETATM   22  C   UNL     1     -11.741   8.237  72.132  1.00  0.00    -0.429 C  
ENDBRANCH  20  21
ENDBRANCH  16  20
ENDBRANCH   1  15
BRANCH   1  23
HETATM   23  N   UNL     1     -10.603  12.389  66.968  1.00  0.00    -0.223 N  
HETATM   24  C   UNL     1     -11.402  12.660  65.890  1.00  0.00    -0.334 C  
HETATM   25  H   UNL     1      -9.604  12.583  66.898  1.00  0.00     0.000 HD 
HETATM   26  O   UNL     1     -12.608  12.428  65.826  1.00  0.00    -0.532 OA 
BRANCH  24  27
HETATM   27  C   UNL     1     -10.676  13.147  64.664  1.00  0.00    -0.398 C  
BRANCH  27  28
HETATM   28  C   UNL     1     -10.349  14.617  64.836  1.00  0.00    -0.382 C  
HETATM   29  O   UNL     1     -11.219  16.831  64.665  1.00  0.00    -0.835 OA 
HETATM   30  C   UNL     1     -11.394  15.639  64.438  1.00  0.00    -0.263 C  
HETATM   31  O   UNL     1     -12.512  15.213  63.832  1.00  0.00    -0.768 OA 
ENDBRANCH  27  28
ENDBRANCH  24  27
ENDBRANCH   1  23
TORSDOF 9
ENDMDL
MODEL       16
REMARK 921   NORMALIZED FREE ENERGY PREDICTED BY IDOCK:   -6.55 KCAL/MOL
REMARK 922        TOTAL FREE ENERGY PREDICTED BY IDOCK:  -11.82 KCAL/MOL
REMARK 923 INTER-LIGAND FREE ENERGY PREDICTED BY IDOCK:  -11.04 KCAL/MOL
REMARK 924 INTRA-LIGAND FREE ENERGY PREDICTED BY IDOCK:   -0.77 KCAL/MOL
REMARK 927      BINDING AFFINITY PREDICTED BY RF-SCORE:    0.00 PKD
ROOT
HETATM    1  C   UNL     1     -11.197  13.697  67.264  1.00  0.00    -0.309 C  
ENDROOT
BRANCH   1   2
HETATM    2  C   UNL     1     -12.100  13.251  68.449  1.00  0.00    -0.244 C  
BRANCH   2   3
HETATM    3  C   UNL     1     -11.695  12.056  69.283  1.00  0.00    -0.389 A  
HETATM    4  C   UNL     1     -11.249   9.646  70.750  1.00  0.00    -0.403 A  
HETATM    5  C   UNL     1     -10.671  11.177  68.934  1.00  0.00    -0.246 A  
HETATM    6  C   UNL     1     -10.482   9.983  69.627  1.00  0.00    -0.275 A  
HETATM    7  C   UNL     1     -12.405  11.787  70.459  1.00  0.00    -0.387 A  
HETATM    8  C   UNL     1     -12.174  10.613  71.189  1.00  0.00    -0.479 A  
BRANCH   4   9
HETATM    9  C   UNL     1     -11.125   8.317  71.383  1.00  0.00    -0.302 A  
HETATM   10  C   UNL     1     -11.091   8.165  72.783  1.00  0.00    -0.407 A  
HETATM   11  C   UNL     1     -10.861   6.925  73.382  1.00  0.00    -0.303 A  
HETATM   12  C   UNL     1     -10.688   5.793  72.593  1.00  0.00    -0.280 A  
HETATM   13  C   UNL     1     -10.741   5.903  71.207  1.00  0.00    -0.325 A  
HETATM   14  C   UNL     1     -10.952   7.153  70.611  1.00  0.00    -0.283 A  
ENDBRANCH   4   9
ENDBRANCH   2   3
ENDBRANCH   1   2
BRANCH   1  15
HETATM   15  C   UNL     1     -11.343  15.178  66.833  1.00  0.00    -0.264 C  
HETATM   16  C   UNL     1     -10.480  17.501  66.739  1.00  0.00    -0.270 C  
HETATM   17  C   UNL     1      -8.930  15.648  66.187  1.00  0.00    -0.362 C  
HETATM   18  C   UNL     1     -10.114  16.061  67.052  1.00  0.00    -0.271 C  
HETATM   19  O   UNL     1     -10.403  18.016  65.633  1.00  0.00    -0.611 OA 
BRANCH  16  20
HETATM   20  O   UNL     1     -10.857  18.141  67.882  1.00  0.00    -0.363 OA 
BRANCH  20  21
HETATM   21  C   UNL     1      -9.806  18.841  68.562  1.00  0.00    -0.396 C  
HETATM   22  C   UNL     1      -9.850  20.289  68.108  1.00  0.00    -0.403 C  
ENDBRANCH  20  21
ENDBRANCH  16  20
ENDBRANCH   1  15
BRANCH   1  23
HETATM   23  N   UNL     1     -11.359  12.840  66.087  1.00  0.00    -0.312 N  
HETATM   24  C   UNL     1     -12.294  13.082  65.117  1.00  0.00    -0.484 C  
HETATM   25  H   UNL     1     -10.750  12.028  65.986  1.00  0.00     0.000 HD 
HETATM   26  O   UNL     1     -13.120  13.993  65.142  1.00  0.00    -0.776 OA 
BRANCH  24  27
HETATM   27  C   UNL     1     -12.371  12.044  64.030  1.00  0.00    -0.504 C  
BRANCH  27  28
HETATM   28  C   UNL     1     -11.098  12.097  63.207  1.00  0.00    -0.408 C  
HETATM   29  O   UNL     1      -9.007  11.026  62.797  1.00  0.00    -0.269 OA 
HETATM   30  C   UNL     1     -10.004  11.094  63.508  1.00  0.00    -0.379 C  
HETATM   31  O   UNL     1     -10.146  10.285  64.570  1.00  0.00    -0.338 OA 
ENDBRANCH  27  28
ENDBRANCH  24  27
ENDBRANCH   1  23
TORSDOF 9
ENDMDL
MODEL       17
REMARK 921   NORMALIZED FREE ENERGY PREDICTED BY IDOCK:   -6.54 KCAL/MOL
REMARK 922        TOTAL FREE ENERGY PREDICTED BY IDOCK:  -11.80 KCAL/MOL
REMARK 923 INTER-LIGAND FREE ENERGY PREDICTED BY IDOCK:  -10.86 KCAL/MOL
REMARK 924 INTRA-LIGAND FREE ENERGY PREDICTED BY IDOCK:   -0.94 KCAL/MOL
REMARK 927      BINDING AFFINITY PREDICTED BY RF-SCORE:    0.00 PKD
ROOT
HETATM    1  C   UNL     1     -10.677  13.178  68.540  1.00  0.00    -0.259 C  
ENDROOT
BRANCH   1   2
HETATM    2  C   UNL     1     -11.710  12.765  69.626  1.00  0.00    -0.372 C  
BRANCH   2   3
HETATM    3  C   UNL     1     -11.661  11.367  70.205  1.00  0.00    -0.414 A  
HETATM    4  C   UNL     1     -11.279   8.848  71.495  1.00  0.00    -0.396 A  
HETATM    5  C   UNL     1     -12.601  10.866  71.103  1.00  0.00    -0.532 A  
HETATM    6  C   UNL     1     -12.393   9.656  71.760  1.00  0.00    -0.474 A  
HETATM    7  C   UNL     1     -10.595  10.532  69.850  1.00  0.00    -0.261 A  
HETATM    8  C   UNL     1     -10.418   9.287  70.471  1.00  0.00    -0.312 A  
BRANCH   4   9
HETATM    9  C   UNL     1     -11.008   7.641  72.301  1.00  0.00    -0.328 A  
HETATM   10  C   UNL     1     -11.748   6.455  72.129  1.00  0.00    -0.366 A  
HETATM   11  C   UNL     1     -11.571   5.350  72.965  1.00  0.00    -0.268 A  
HETATM   12  C   UNL     1     -10.623   5.392  73.981  1.00  0.00    -0.305 A  
HETATM   13  C   UNL     1      -9.857   6.540  74.163  1.00  0.00    -0.318 A  
HETATM   14  C   UNL     1     -10.053   7.651  73.335  1.00  0.00    -0.379 A  
ENDBRANCH   4   9
ENDBRANCH   2   3
ENDBRANCH   1   2
BRANCH   1  15
HETATM   15  C   UNL     1     -10.207  14.652  68.591  1.00  0.00    -0.244 C  
HETATM   16  C   UNL     1     -10.661  17.081  68.366  1.00  0.00    -0.375 C  
HETATM   17  C   UNL     1     -12.270  15.696  69.646  1.00  0.00    -0.264 C  
HETATM   18  C   UNL     1     -11.304  15.709  68.467  1.00  0.00    -0.361 C  
HETATM   19  O   UNL     1     -10.370  17.786  69.321  1.00  0.00    -0.318 OA 
BRANCH  16  20
HETATM   20  O   UNL     1     -10.504  17.422  67.056  1.00  0.00    -0.321 OA 
BRANCH  20  21
HETATM   21  C   UNL     1     -10.656  18.819  66.770  1.00  0.00    -0.395 C  
HETATM   22  C   UNL     1      -9.302  19.350  66.336  1.00  0.00    -0.419 C  
ENDBRANCH  20  21
ENDBRANCH  16  20
ENDBRANCH   1  15
BRANCH   1  23
HETATM   23  N   UNL     1     -11.143  12.873  67.184  1.00  0.00    -0.266 N  
HETATM   24  C   UNL     1     -10.457  12.049  66.333  1.00  0.00    -0.233 C  
HETATM   25  H   UNL     1     -12.015  13.292  66.860  1.00  0.00     0.000 HD 
HETATM   26  O   UNL     1      -9.373  11.522  66.579  1.00  0.00    -0.186 OA 
BRANCH  24  27
HETATM   27  C   UNL     1     -11.044  11.925  64.952  1.00  0.00    -0.363 C  
BRANCH  27  28
HETATM   28  C   UNL     1     -11.052  13.291  64.296  1.00  0.00    -0.414 C  
HETATM   29  O   UNL     1     -12.239  15.353  64.122  1.00  0.00    -0.598 OA 
HETATM   30  C   UNL     1     -12.240  14.200  64.538  1.00  0.00    -0.445 C  
HETATM   31  O   UNL     1     -13.293  13.715  65.215  1.00  0.00    -0.669 OA 
ENDBRANCH  27  28
ENDBRANCH  24  27
ENDBRANCH   1  23
TORSDOF 9
ENDMDL
MODEL       18
REMARK 921   NORMALIZED FREE ENERGY PREDICTED BY IDOCK:   -6.52 KCAL/MOL
REMARK 922        TOTAL FREE ENERGY PREDICTED BY IDOCK:  -11.78 KCAL/MOL
REMARK 923 INTER-LIGAND FREE ENERGY PREDICTED BY IDOCK:   -9.54 KCAL/MOL
REMARK 924 INTRA-LIGAND FREE ENERGY PREDICTED BY IDOCK:   -2.24 KCAL/MOL
REMARK 927      BINDING AFFINITY PREDICTED BY RF-SCORE:    0.00 PKD
ROOT
HETATM    1  C   UNL     1     -10.530  15.169  66.770  1.00  0.00    -0.283 C  
ENDROOT
BRANCH   1   2
HETATM    2  C   UNL     1      -9.360  14.419  67.468  1.00  0.00    -0.198 C  
BRANCH   2   3
HETATM    3  C   UNL     1      -9.527  12.962  67.839  1.00  0.00    -0.208 A  
HETATM    4  C   UNL     1     -10.061  10.185  68.243  1.00  0.00    -0.179 A  
HETATM    5  C   UNL     1      -8.522  12.006  67.702  1.00  0.00    -0.160 A  
HETATM    6  C   UNL     1      -8.795  10.650  67.860  1.00  0.00    -0.131 A  
HETATM    7  C   UNL     1     -10.770  12.530  68.318  1.00  0.00    -0.246 A  
HETATM    8  C   UNL     1     -11.026  11.169  68.533  1.00  0.00    -0.267 A  
BRANCH   4   9
HETATM    9  C   UNL     1     -10.364   8.740  68.269  1.00  0.00    -0.252 A  
HETATM   10  C   UNL     1     -10.490   7.990  67.083  1.00  0.00    -0.408 A  
HETATM   11  C   UNL     1     -10.887   6.651  67.100  1.00  0.00    -0.471 A  
HETATM   12  C   UNL     1     -11.140   6.016  68.310  1.00  0.00    -0.259 A  
HETATM   13  C   UNL     1     -11.001   6.721  69.502  1.00  0.00    -0.325 A  
HETATM   14  C   UNL     1     -10.622   8.068  69.478  1.00  0.00    -0.216 A  
ENDBRANCH   4   9
ENDBRANCH   2   3
ENDBRANCH   1   2
BRANCH   1  15
HETATM   15  C   UNL     1     -10.822  14.742  65.310  1.00  0.00    -0.395 C  
HETATM   16  C   UNL     1     -11.758  13.136  63.668  1.00  0.00    -0.449 C  
HETATM   17  C   UNL     1     -13.136  13.746  65.637  1.00  0.00    -0.181 C  
HETATM   18  C   UNL     1     -11.715  13.514  65.139  1.00  0.00    -0.341 C  
HETATM   19  O   UNL     1     -12.559  13.581  62.858  1.00  0.00    -0.607 OA 
BRANCH  16  20
HETATM   20  O   UNL     1     -10.809  12.196  63.404  1.00  0.00    -0.431 OA 
BRANCH  20  21
HETATM   21  C   UNL     1     -10.734  11.123  64.354  1.00  0.00    -0.318 C  
HETATM   22  C   UNL     1      -9.369  10.474  64.208  1.00  0.00    -0.310 C  
ENDBRANCH  20  21
ENDBRANCH  16  20
ENDBRANCH   1  15
BRANCH   1  23
HETATM   23  N   UNL     1     -10.366  16.625  66.818  1.00  0.00    -0.299 N  
HETATM   24  C   UNL     1     -10.545  17.352  67.964  1.00  0.00    -0.389 C  
HETATM   25  H   UNL     1     -10.108  17.116  65.962  1.00  0.00     0.000 HD 
HETATM   26  O   UNL     1     -10.904  16.892  69.046  1.00  0.00    -0.314 OA 
BRANCH  24  27
HETATM   27  C   UNL     1     -10.420  18.844  67.799  1.00  0.00    -0.487 C  
BRANCH  27  28
HETATM   28  C   UNL     1      -9.802  19.140  66.447  1.00  0.00    -0.437 C  
HETATM   29  O   UNL     1      -7.811  19.834  65.332  1.00  0.00    -0.347 OA 
HETATM   30  C   UNL     1      -8.390  19.687  66.403  1.00  0.00    -0.353 C  
HETATM   31  O   UNL     1      -7.789  20.009  67.559  1.00  0.00    -0.282 OA 
ENDBRANCH  27  28
ENDBRANCH  24  27
ENDBRANCH   1  23
TORSDOF 9
ENDMDL
MODEL       19
REMARK 921   NORMALIZED FREE ENERGY PREDICTED BY IDOCK:   -6.50 KCAL/MOL
REMARK 922        TOTAL FREE ENERGY PREDICTED BY IDOCK:  -11.73 KCAL/MOL
REMARK 923 INTER-LIGAND FREE ENERGY PREDICTED BY IDOCK:  -10.12 KCAL/MOL
REMARK 924 INTRA-LIGAND FREE ENERGY PREDICTED BY IDOCK:   -1.61 KCAL/MOL
REMARK 927      BINDING AFFINITY PREDICTED BY RF-SCORE:    0.00 PKD
ROOT
HETATM    1  C   UNL     1     -11.506  15.113  69.081  1.00  0.00    -0.306 C  
ENDROOT
BRANCH   1   2
HETATM    2  C   UNL     1     -11.651  14.311  67.757  1.00  0.00    -0.383 C  
BRANCH   2   3
HETATM    3  C   UNL     1     -11.047  12.927  67.656  1.00  0.00    -0.297 A  
HETATM    4  C   UNL     1     -10.218  10.219  67.289  1.00  0.00    -0.267 A  
HETATM    5  C   UNL     1      -9.980  12.606  66.818  1.00  0.00    -0.237 A  
HETATM    6  C   UNL     1      -9.604  11.281  66.611  1.00  0.00    -0.218 A  
HETATM    7  C   UNL     1     -11.606  11.894  68.417  1.00  0.00    -0.376 A  
HETATM    8  C   UNL     1     -11.187  10.567  68.250  1.00  0.00    -0.354 A  
BRANCH   4   9
HETATM    9  C   UNL     1      -9.899   8.817  66.950  1.00  0.00    -0.295 A  
HETATM   10  C   UNL     1      -8.921   8.492  65.990  1.00  0.00    -0.228 A  
HETATM   11  C   UNL     1      -8.697   7.174  65.586  1.00  0.00    -0.088 A  
HETATM   12  C   UNL     1      -9.428   6.139  66.156  1.00  0.00    -0.100 A  
HETATM   13  C   UNL     1     -10.385   6.422  67.126  1.00  0.00    -0.293 A  
HETATM   14  C   UNL     1     -10.620   7.747  67.512  1.00  0.00    -0.319 A  
ENDBRANCH   4   9
ENDBRANCH   2   3
ENDBRANCH   1   2
BRANCH   1  15
HETATM   15  C   UNL     1     -12.673  14.960  70.087  1.00  0.00    -0.262 C  
HETATM   16  C   UNL     1     -13.554  14.237  72.290  1.00  0.00    -0.478 C  
HETATM   17  C   UNL     1     -11.430  15.514  72.233  1.00  0.00    -0.496 C  
HETATM   18  C   UNL     1     -12.288  14.496  71.492  1.00  0.00    -0.430 C  
HETATM   19  O   UNL     1     -14.147  15.079  72.949  1.00  0.00    -0.418 OA 
BRANCH  16  20
HETATM   20  O   UNL     1     -13.896  12.921  72.200  1.00  0.00    -0.442 OA 
BRANCH  20  21
HETATM   21  C   UNL     1     -12.838  12.045  71.787  1.00  0.00    -0.272 C  
HETATM   22  C   UNL     1     -13.386  10.629  71.793  1.00  0.00    -0.437 C  
ENDBRANCH  20  21
ENDBRANCH  16  20
ENDBRANCH   1  15
BRANCH   1  23
HETATM   23  N   UNL     1     -11.263  16.539  68.844  1.00  0.00    -0.297 N  
HETATM   24  C   UNL     1     -10.015  17.099  68.908  1.00  0.00    -0.304 C  
HETATM   25  H   UNL     1     -12.057  17.140  68.623  1.00  0.00     0.000 HD 
HETATM   26  O   UNL     1      -8.985  16.499  69.212  1.00  0.00    -0.205 OA 
BRANCH  24  27
HETATM   27  C   UNL     1      -9.975  18.592  68.722  1.00  0.00    -0.427 C  
BRANCH  27  28
HETATM   28  C   UNL     1     -10.883  18.970  67.569  1.00  0.00    -0.478 C  
HETATM   29  O   UNL     1     -11.022  19.185  65.198  1.00  0.00    -0.464 OA 
HETATM   30  C   UNL     1     -10.300  18.996  66.171  1.00  0.00    -0.468 C  
HETATM   31  O   UNL     1      -8.980  18.811  66.021  1.00  0.00    -0.479 OA 
ENDBRANCH  27  28
ENDBRANCH  24  27
ENDBRANCH   1  23
TORSDOF 9
ENDMDL
MODEL       20
REMARK 921   NORMALIZED FREE ENERGY PREDICTED BY IDOCK:   -6.49 KCAL/MOL
REMARK 922        TOTAL FREE ENERGY PREDICTED BY IDOCK:  -11.73 KCAL/MOL
REMARK 923 INTER-LIGAND FREE ENERGY PREDICTED BY IDOCK:  -10.53 KCAL/MOL
REMARK 924 INTRA-LIGAND FREE ENERGY PREDICTED BY IDOCK:   -1.20 KCAL/MOL
REMARK 927      BINDING AFFINITY PREDICTED BY RF-SCORE:    0.00 PKD
ROOT
HETATM    1  C   UNL     1     -11.780  10.885  69.720  1.00  0.00    -0.338 C  
ENDROOT
BRANCH   1   2
HETATM    2  C   UNL     1     -10.614  10.199  70.486  1.00  0.00    -0.243 C  
BRANCH   2   3
HETATM    3  C   UNL     1     -10.783   8.780  70.983  1.00  0.00    -0.290 A  
HETATM    4  C   UNL     1     -10.762   6.040  71.790  1.00  0.00    -0.294 A  
HETATM    5  C   UNL     1     -10.786   8.424  72.330  1.00  0.00    -0.416 A  
HETATM    6  C   UNL     1     -10.736   7.088  72.721  1.00  0.00    -0.306 A  
HETATM    7  C   UNL     1     -10.911   7.751  70.042  1.00  0.00    -0.218 A  
HETATM    8  C   UNL     1     -10.919   6.407  70.440  1.00  0.00    -0.367 A  
BRANCH   4   9
HETATM    9  C   UNL     1     -10.567   4.640  72.219  1.00  0.00    -0.203 A  
HETATM   10  C   UNL     1      -9.868   3.713  71.420  1.00  0.00    -0.219 A  
HETATM   11  C   UNL     1      -9.780   2.363  71.767  1.00  0.00    -0.220 A  
HETATM   12  C   UNL     1     -10.365   1.909  72.943  1.00  0.00    -0.217 A  
HETATM   13  C   UNL     1     -11.042   2.802  73.768  1.00  0.00    -0.304 A  
HETATM   14  C   UNL     1     -11.145   4.150  73.404  1.00  0.00    -0.354 A  
ENDBRANCH   4   9
ENDBRANCH   2   3
ENDBRANCH   1   2
BRANCH   1  15
HETATM   15  C   UNL     1     -11.737  10.752  68.178  1.00  0.00    -0.173 C  
HETATM   16  C   UNL     1     -11.269  11.699  65.934  1.00  0.00    -0.238 C  
HETATM   17  C   UNL     1      -9.585  12.025  67.724  1.00  0.00    -0.193 C  
HETATM   18  C   UNL     1     -11.075  11.906  67.426  1.00  0.00    -0.336 C  
HETATM   19  O   UNL     1     -10.512  11.063  65.215  1.00  0.00    -0.273 OA 
BRANCH  16  20
HETATM   20  O   UNL     1     -12.379  12.368  65.515  1.00  0.00    -0.621 OA 
BRANCH  20  21
HETATM   21  C   UNL     1     -12.407  13.765  65.841  1.00  0.00    -0.476 C  
HETATM   22  C   UNL     1     -11.403  14.466  64.943  1.00  0.00    -0.380 C  
ENDBRANCH  20  21
ENDBRANCH  16  20
ENDBRANCH   1  15
BRANCH   1  23
HETATM   23  N   UNL     1     -11.921  12.301  70.074  1.00  0.00    -0.374 N  
HETATM   24  C   UNL     1     -12.635  12.724  71.162  1.00  0.00    -0.271 C  
HETATM   25  H   UNL     1     -11.468  12.999  69.484  1.00  0.00     0.000 HD 
HETATM   26  O   UNL     1     -13.267  11.993  71.923  1.00  0.00    -0.480 OA 
BRANCH  24  27
HETATM   27  C   UNL     1     -12.741  14.218  71.314  1.00  0.00    -0.427 C  
BRANCH  27  28
HETATM   28  C   UNL     1     -12.945  14.551  72.779  1.00  0.00    -0.563 C  
HETATM   29  O   UNL     1     -12.690  16.247  74.437  1.00  0.00    -0.725 OA 
HETATM   30  C   UNL     1     -12.447  15.888  73.290  1.00  0.00    -0.523 C  
HETATM   31  O   UNL     1     -11.734  16.668  72.463  1.00  0.00    -0.485 OA 
ENDBRANCH  27  28
ENDBRANCH  24  27
ENDBRANCH   1  23
TORSDOF 9
ENDMDL
MODEL       21
REMARK 921   NORMALIZED FREE ENERGY PREDICTED BY IDOCK:   -6.49 KCAL/MOL
REMARK 922        TOTAL FREE ENERGY PREDICTED BY IDOCK:  -11.73 KCAL/MOL
REMARK 923 INTER-LIGAND FREE ENERGY PREDICTED BY IDOCK:   -9.93 KCAL/MOL
REMARK 924 INTRA-LIGAND FREE ENERGY PREDICTED BY IDOCK:   -1.80 KCAL/MOL
REMARK 927      BINDING AFFINITY PREDICTED BY RF-SCORE:    0.00 PKD
ROOT
HETATM    1  C   UNL     1     -10.870  10.257  68.266  1.00  0.00    -0.255 C  
ENDROOT
BRANCH   1   2
HETATM    2  C   UNL     1     -11.815  11.484  68.397  1.00  0.00    -0.353 C  
BRANCH   2   3
HETATM    3  C   UNL     1     -11.287  12.867  68.084  1.00  0.00    -0.327 A  
HETATM    4  C   UNL     1     -10.601  15.605  67.647  1.00  0.00    -0.294 A  
HETATM    5  C   UNL     1     -10.217  13.459  68.753  1.00  0.00    -0.128 A  
HETATM    6  C   UNL     1      -9.910  14.805  68.567  1.00  0.00    -0.218 A  
HETATM    7  C   UNL     1     -11.923  13.619  67.089  1.00  0.00    -0.434 A  
HETATM    8  C   UNL     1     -11.574  14.957  66.862  1.00  0.00    -0.286 A  
BRANCH   4   9
HETATM    9  C   UNL     1     -10.351  17.059  67.568  1.00  0.00    -0.329 A  
HETATM   10  C   UNL     1     -10.181  17.844  68.725  1.00  0.00    -0.362 A  
HETATM   11  C   UNL     1     -10.059  19.234  68.659  1.00  0.00    -0.499 A  
HETATM   12  C   UNL     1     -10.073  19.874  67.426  1.00  0.00    -0.567 A  
HETATM   13  C   UNL     1     -10.215  19.127  66.260  1.00  0.00    -0.527 A  
HETATM   14  C   UNL     1     -10.358  17.736  66.334  1.00  0.00    -0.351 A  
ENDBRANCH   4   9
ENDBRANCH   2   3
ENDBRANCH   1   2
BRANCH   1  15
HETATM   15  C   UNL     1     -10.534   9.823  66.818  1.00  0.00    -0.259 C  
HETATM   16  C   UNL     1      -9.597  10.307  64.573  1.00  0.00    -0.316 C  
HETATM   17  C   UNL     1      -8.280  10.969  66.566  1.00  0.00    -0.161 C  
HETATM   18  C   UNL     1      -9.688  10.803  66.006  1.00  0.00    -0.264 C  
HETATM   19  O   UNL     1      -8.744   9.537  64.154  1.00  0.00    -0.195 OA 
BRANCH  16  20
HETATM   20  O   UNL     1     -10.574  10.886  63.821  1.00  0.00    -0.341 OA 
BRANCH  20  21
HETATM   21  C   UNL     1     -10.552  12.320  63.795  1.00  0.00    -0.451 C  
HETATM   22  C   UNL     1     -11.983  12.799  63.626  1.00  0.00    -0.616 C  
ENDBRANCH  20  21
ENDBRANCH  16  20
ENDBRANCH   1  15
BRANCH   1  23
HETATM   23  N   UNL     1     -11.360   9.095  69.012  1.00  0.00    -0.360 N  
HETATM   24  C   UNL     1     -10.555   8.043  69.357  1.00  0.00    -0.205 C  
HETATM   25  H   UNL     1     -12.343   9.068  69.284  1.00  0.00     0.000 HD 
HETATM   26  O   UNL     1      -9.370   7.928  69.049  1.00  0.00    -0.151 OA 
BRANCH  24  27
HETATM   27  C   UNL     1     -11.255   6.901  70.044  1.00  0.00    -0.347 C  
BRANCH  27  28
HETATM   28  C   UNL     1     -10.649   6.706  71.420  1.00  0.00    -0.255 C  
HETATM   29  O   UNL     1     -10.693   7.457  73.683  1.00  0.00    -0.371 OA 
HETATM   30  C   UNL     1     -11.069   7.646  72.531  1.00  0.00    -0.336 C  
HETATM   31  O   UNL     1     -11.858   8.688  72.229  1.00  0.00    -0.367 OA 
ENDBRANCH  27  28
ENDBRANCH  24  27
ENDBRANCH   1  23
TORSDOF 9
ENDMDL
MODEL       22
REMARK 921   NORMALIZED FREE ENERGY PREDICTED BY IDOCK:   -6.48 KCAL/MOL
REMARK 922        TOTAL FREE ENERGY PREDICTED BY IDOCK:  -11.72 KCAL/MOL
REMARK 923 INTER-LIGAND FREE ENERGY PREDICTED BY IDOCK:  -11.00 KCAL/MOL
REMARK 924 INTRA-LIGAND FREE ENERGY PREDICTED BY IDOCK:   -0.72 KCAL/MOL
REMARK 927      BINDING AFFINITY PREDICTED BY RF-SCORE:    0.00 PKD
ROOT
HETATM    1  C   UNL     1     -11.832  13.835  67.925  1.00  0.00    -0.378 C  
ENDROOT
BRANCH   1   2
HETATM    2  C   UNL     1     -10.547  12.996  68.172  1.00  0.00    -0.257 C  
BRANCH   2   3
HETATM    3  C   UNL     1     -10.656  11.654  68.864  1.00  0.00    -0.224 A  
HETATM    4  C   UNL     1     -10.655   9.271  70.439  1.00  0.00    -0.298 A  
HETATM    5  C   UNL     1     -11.825  11.180  69.457  1.00  0.00    -0.423 A  
HETATM    6  C   UNL     1     -11.813  10.040  70.257  1.00  0.00    -0.291 A  
HETATM    7  C   UNL     1      -9.514  10.849  68.950  1.00  0.00    -0.182 A  
HETATM    8  C   UNL     1      -9.519   9.670  69.708  1.00  0.00    -0.242 A  
BRANCH   4   9
HETATM    9  C   UNL     1     -10.632   8.149  71.399  1.00  0.00    -0.269 A  
HETATM   10  C   UNL     1     -11.197   6.897  71.087  1.00  0.00    -0.314 A  
HETATM   11  C   UNL     1     -11.278   5.872  72.031  1.00  0.00    -0.330 A  
HETATM   12  C   UNL     1     -10.766   6.062  73.309  1.00  0.00    -0.284 A  
HETATM   13  C   UNL     1     -10.179   7.278  73.644  1.00  0.00    -0.393 A  
HETATM   14  C   UNL     1     -10.119   8.310  72.700  1.00  0.00    -0.365 A  
ENDBRANCH   4   9
ENDBRANCH   2   3
ENDBRANCH   1   2
BRANCH   1  15
HETATM   15  C   UNL     1     -11.618  15.188  67.203  1.00  0.00    -0.206 C  
HETATM   16  C   UNL     1     -10.459  16.578  65.506  1.00  0.00    -0.301 C  
HETATM   17  C   UNL     1     -11.257  14.328  64.839  1.00  0.00    -0.381 C  
HETATM   18  C   UNL     1     -10.692  15.157  65.986  1.00  0.00    -0.333 C  
HETATM   19  O   UNL     1     -11.167  17.167  64.700  1.00  0.00    -1.003 OA 
BRANCH  16  20
HETATM   20  O   UNL     1      -9.323  17.076  66.068  1.00  0.00    -0.449 OA 
BRANCH  20  21
HETATM   21  C   UNL     1      -9.339  18.487  66.325  1.00  0.00    -0.237 C  
HETATM   22  C   UNL     1     -10.225  18.724  67.535  1.00  0.00    -0.444 C  
ENDBRANCH  20  21
ENDBRANCH  16  20
ENDBRANCH   1  15
BRANCH   1  23
HETATM   23  N   UNL     1     -12.590  14.068  69.158  1.00  0.00    -0.355 N  
HETATM   24  C   UNL     1     -12.069  14.736  70.233  1.00  0.00    -0.322 C  
HETATM   25  H   UNL     1     -13.546  13.716  69.217  1.00  0.00     0.000 HD 
HETATM   26  O   UNL     1     -10.919  15.165  70.311  1.00  0.00    -0.261 OA 
BRANCH  24  27
HETATM   27  C   UNL     1     -12.965  14.799  71.441  1.00  0.00    -0.413 C  
BRANCH  27  28
HETATM   28  C   UNL     1     -12.649  16.059  72.224  1.00  0.00    -0.505 C  
HETATM   29  O   UNL     1     -12.095  16.915  74.380  1.00  0.00    -0.515 OA 
HETATM   30  C   UNL     1     -12.462  15.947  73.723  1.00  0.00    -0.613 C  
HETATM   31  O   UNL     1     -12.711  14.770  74.317  1.00  0.00    -0.415 OA 
ENDBRANCH  27  28
ENDBRANCH  24  27
ENDBRANCH   1  23
TORSDOF 9
ENDMDL
MODEL       23
REMARK 921   NORMALIZED FREE ENERGY PREDICTED BY IDOCK:   -6.47 KCAL/MOL
REMARK 922        TOTAL FREE ENERGY PREDICTED BY IDOCK:  -11.70 KCAL/MOL
REMARK 923 INTER-LIGAND FREE ENERGY PREDICTED BY IDOCK:  -10.83 KCAL/MOL
REMARK 924 INTRA-LIGAND FREE ENERGY PREDICTED BY IDOCK:   -0.87 KCAL/MOL
REMARK 927      BINDING AFFINITY PREDICTED BY RF-SCORE:    0.00 PKD
ROOT
HETATM    1  C   UNL     1     -11.398  12.472  68.335  1.00  0.00    -0.291 C  
ENDROOT
BRANCH   1   2
HETATM    2  C   UNL     1     -11.698  10.953  68.204  1.00  0.00    -0.231 C  
BRANCH   2   3
HETATM    3  C   UNL     1     -11.264  10.011  69.305  1.00  0.00    -0.213 A  
HETATM    4  C   UNL     1     -10.791   8.102  71.378  1.00  0.00    -0.281 A  
HETATM    5  C   UNL     1     -10.409   8.928  69.109  1.00  0.00    -0.230 A  
HETATM    6  C   UNL     1     -10.211   7.978  70.108  1.00  0.00    -0.203 A  
HETATM    7  C   UNL     1     -11.772  10.208  70.595  1.00  0.00    -0.425 A  
HETATM    8  C   UNL     1     -11.525   9.281  71.617  1.00  0.00    -0.468 A  
BRANCH   4   9
HETATM    9  C   UNL     1     -10.681   7.016  72.372  1.00  0.00    -0.262 A  
HETATM   10  C   UNL     1     -11.367   5.796  72.212  1.00  0.00    -0.334 A  
HETATM   11  C   UNL     1     -11.356   4.812  73.203  1.00  0.00    -0.380 A  
HETATM   12  C   UNL     1     -10.632   5.011  74.373  1.00  0.00    -0.252 A  
HETATM   13  C   UNL     1      -9.924   6.195  74.553  1.00  0.00    -0.343 A  
HETATM   14  C   UNL     1      -9.954   7.187  73.565  1.00  0.00    -0.344 A  
ENDBRANCH   4   9
ENDBRANCH   2   3
ENDBRANCH   1   2
BRANCH   1  15
HETATM   15  C   UNL     1     -12.285  13.244  69.343  1.00  0.00    -0.210 C  
HETATM   16  C   UNL     1     -12.618  15.093  70.963  1.00  0.00    -0.377 C  
HETATM   17  C   UNL     1     -11.564  15.615  68.781  1.00  0.00    -0.393 C  
HETATM   18  C   UNL     1     -11.710  14.559  69.870  1.00  0.00    -0.354 C  
HETATM   19  O   UNL     1     -13.581  15.824  70.774  1.00  0.00    -0.477 OA 
BRANCH  16  20
HETATM   20  O   UNL     1     -12.171  14.677  72.180  1.00  0.00    -0.330 OA 
BRANCH  20  21
HETATM   21  C   UNL     1     -11.652  15.715  73.024  1.00  0.00    -0.237 C  
HETATM   22  C   UNL     1     -12.666  15.959  74.128  1.00  0.00    -0.661 C  
ENDBRANCH  20  21
ENDBRANCH  16  20
ENDBRANCH   1  15
BRANCH   1  23
HETATM   23  N   UNL     1     -11.435  13.161  67.042  1.00  0.00    -0.318 N  
HETATM   24  C   UNL     1     -10.327  13.315  66.253  1.00  0.00    -0.290 C  
HETATM   25  H   UNL     1     -12.324  13.542  66.716  1.00  0.00     0.000 HD 
HETATM   26  O   UNL     1      -9.191  12.950  66.550  1.00  0.00    -0.235 OA 
BRANCH  24  27
HETATM   27  C   UNL     1     -10.541  14.126  65.003  1.00  0.00    -0.436 C  
BRANCH  27  28
HETATM   28  C   UNL     1     -10.179  15.571  65.285  1.00  0.00    -0.380 C  
HETATM   29  O   UNL     1     -10.888  17.834  65.029  1.00  0.00    -0.774 OA 
HETATM   30  C   UNL     1     -11.076  16.660  64.732  1.00  0.00    -0.110 C  
HETATM   31  O   UNL     1     -12.078  16.312  63.909  1.00  0.00    -0.986 OA 
ENDBRANCH  27  28
ENDBRANCH  24  27
ENDBRANCH   1  23
TORSDOF 9
ENDMDL
MODEL       24
REMARK 921   NORMALIZED FREE ENERGY PREDICTED BY IDOCK:   -6.46 KCAL/MOL
REMARK 922        TOTAL FREE ENERGY PREDICTED BY IDOCK:  -11.68 KCAL/MOL
REMARK 923 INTER-LIGAND FREE ENERGY PREDICTED BY IDOCK:   -9.22 KCAL/MOL
REMARK 924 INTRA-LIGAND FREE ENERGY PREDICTED BY IDOCK:   -2.45 KCAL/MOL
REMARK 927      BINDING AFFINITY PREDICTED BY RF-SCORE:    0.00 PKD
ROOT
HETATM    1  C   UNL     1     -10.821  10.991  67.387  1.00  0.00    -0.274 C  
ENDROOT
BRANCH   1   2
HETATM    2  C   UNL     1     -10.757  11.861  68.674  1.00  0.00    -0.266 C  
BRANCH   2   3
HETATM    3  C   UNL     1     -10.512  13.349  68.555  1.00  0.00    -0.260 A  
HETATM    4  C   UNL     1     -10.024  16.101  67.965  1.00  0.00    -0.238 A  
HETATM    5  C   UNL     1     -11.497  14.316  68.751  1.00  0.00    -0.327 A  
HETATM    6  C   UNL     1     -11.269  15.650  68.425  1.00  0.00    -0.352 A  
HETATM    7  C   UNL     1      -9.234  13.792  68.193  1.00  0.00    -0.199 A  
HETATM    8  C   UNL     1      -8.991  15.145  67.921  1.00  0.00    -0.174 A  
BRANCH   4   9
HETATM    9  C   UNL     1      -9.846  17.490  67.494  1.00  0.00    -0.293 A  
HETATM   10  C   UNL     1      -8.621  17.938  66.962  1.00  0.00    -0.248 A  
HETATM   11  C   UNL     1      -8.414  19.277  66.621  1.00  0.00    -0.329 A  
HETATM   12  C   UNL     1      -9.441  20.200  66.777  1.00  0.00    -0.533 A  
HETATM   13  C   UNL     1     -10.672  19.786  67.277  1.00  0.00    -0.532 A  
HETATM   14  C   UNL     1     -10.867  18.447  67.636  1.00  0.00    -0.295 A  
ENDBRANCH   4   9
ENDBRANCH   2   3
ENDBRANCH   1   2
BRANCH   1  15
HETATM   15  C   UNL     1     -11.785  11.498  66.286  1.00  0.00     0.149 C  
HETATM   16  C   UNL     1     -12.210  12.744  64.184  1.00  0.00    -0.429 C  
HETATM   17  C   UNL     1     -10.281  11.188  64.261  1.00  0.00    -0.399 C  
HETATM   18  C   UNL     1     -11.128  12.160  65.075  1.00  0.00    -0.368 C  
HETATM   19  O   UNL     1     -12.779  12.136  63.288  1.00  0.00    -0.698 OA 
BRANCH  16  20
HETATM   20  O   UNL     1     -12.411  14.053  64.499  1.00  0.00    -0.593 OA 
BRANCH  20  21
HETATM   21  C   UNL     1     -11.240  14.764  64.923  1.00  0.00    -0.406 C  
HETATM   22  C   UNL     1     -11.439  16.228  64.573  1.00  0.00    -0.171 C  
ENDBRANCH  20  21
ENDBRANCH  16  20
ENDBRANCH   1  15
BRANCH   1  23
HETATM   23  N   UNL     1     -11.125   9.587  67.678  1.00  0.00    -0.462 N  
HETATM   24  C   UNL     1     -10.394   8.550  67.164  1.00  0.00    -0.307 C  
HETATM   25  H   UNL     1     -11.913   9.374  68.289  1.00  0.00     0.000 HD 
HETATM   26  O   UNL     1      -9.454   8.666  66.379  1.00  0.00    -0.193 OA 
BRANCH  24  27
HETATM   27  C   UNL     1     -10.909   7.176  67.503  1.00  0.00    -0.311 C  
BRANCH  27  28
HETATM   28  C   UNL     1      -9.920   6.494  68.429  1.00  0.00    -0.145 C  
HETATM   29  O   UNL     1      -9.331   6.131  70.711  1.00  0.00    -0.156 OA 
HETATM   30  C   UNL     1     -10.035   6.747  69.918  1.00  0.00    -0.172 C  
HETATM   31  O   UNL     1     -10.918   7.660  70.349  1.00  0.00    -0.243 OA 
ENDBRANCH  27  28
ENDBRANCH  24  27
ENDBRANCH   1  23
TORSDOF 9
ENDMDL
MODEL       25
REMARK 921   NORMALIZED FREE ENERGY PREDICTED BY IDOCK:   -6.41 KCAL/MOL
REMARK 922        TOTAL FREE ENERGY PREDICTED BY IDOCK:  -11.61 KCAL/MOL
REMARK 923 INTER-LIGAND FREE ENERGY PREDICTED BY IDOCK:  -10.14 KCAL/MOL
REMARK 924 INTRA-LIGAND FREE ENERGY PREDICTED BY IDOCK:   -1.47 KCAL/MOL
REMARK 927      BINDING AFFINITY PREDICTED BY RF-SCORE:    0.00 PKD
ROOT
HETATM    1  C   UNL     1     -11.260  11.111  67.937  1.00  0.00    -0.302 C  
ENDROOT
BRANCH   1   2
HETATM    2  C   UNL     1     -10.276  12.177  68.496  1.00  0.00    -0.214 C  
BRANCH   2   3
HETATM    3  C   UNL     1     -10.401  13.615  68.043  1.00  0.00    -0.250 A  
HETATM    4  C   UNL     1     -10.480  16.420  67.510  1.00  0.00    -0.304 A  
HETATM    5  C   UNL     1      -9.628  14.180  67.031  1.00  0.00    -0.264 A  
HETATM    6  C   UNL     1      -9.639  15.553  66.800  1.00  0.00    -0.251 A  
HETATM    7  C   UNL     1     -11.320  14.445  68.695  1.00  0.00    -0.298 A  
HETATM    8  C   UNL     1     -11.371  15.819  68.420  1.00  0.00    -0.372 A  
BRANCH   4   9
HETATM    9  C   UNL     1     -10.375  17.884  67.347  1.00  0.00    -0.383 A  
HETATM   10  C   UNL     1     -10.480  18.496  66.082  1.00  0.00    -0.447 A  
HETATM   11  C   UNL     1     -10.268  19.866  65.909  1.00  0.00    -0.552 A  
HETATM   12  C   UNL     1      -9.974  20.667  67.005  1.00  0.00    -0.387 A  
HETATM   13  C   UNL     1      -9.887  20.099  68.273  1.00  0.00    -0.415 A  
HETATM   14  C   UNL     1     -10.080  18.723  68.438  1.00  0.00    -0.443 A  
ENDBRANCH   4   9
ENDBRANCH   2   3
ENDBRANCH   1   2
BRANCH   1  15
HETATM   15  C   UNL     1     -11.000   9.655  68.396  1.00  0.00    -0.161 C  
HETATM   16  C   UNL     1     -10.388   8.014  70.153  1.00  0.00    -0.215 C  
HETATM   17  C   UNL     1     -12.046   9.771  70.710  1.00  0.00    -0.364 C  
HETATM   18  C   UNL     1     -10.796   9.455  69.898  1.00  0.00    -0.259 C  
HETATM   19  O   UNL     1     -11.169   7.092  70.341  1.00  0.00    -0.272 OA 
BRANCH  16  20
HETATM   20  O   UNL     1      -9.030   7.918  70.190  1.00  0.00    -0.149 OA 
BRANCH  20  21
HETATM   21  C   UNL     1      -8.380   8.823  71.092  1.00  0.00    -0.176 C  
HETATM   22  C   UNL     1      -8.472   8.227  72.486  1.00  0.00    -0.251 C  
ENDBRANCH  20  21
ENDBRANCH  16  20
ENDBRANCH   1  15
BRANCH   1  23
HETATM   23  N   UNL     1     -11.341  11.142  66.474  1.00  0.00    -0.082 N  
HETATM   24  C   UNL     1     -10.260  10.908  65.667  1.00  0.00    -0.263 C  
HETATM   25  H   UNL     1     -12.240  11.347  66.038  1.00  0.00     0.000 HD 
HETATM   26  O   UNL     1      -9.114  10.699  66.061  1.00  0.00    -0.168 OA 
BRANCH  24  27
HETATM   27  C   UNL     1     -10.517  11.070  64.192  1.00  0.00    -0.434 C  
BRANCH  27  28
HETATM   28  C   UNL     1     -10.866  12.518  63.909  1.00  0.00    -0.472 C  
HETATM   29  O   UNL     1     -12.648  14.021  63.404  1.00  0.00    -0.845 OA 
HETATM   30  C   UNL     1     -12.294  12.853  63.530  1.00  0.00    -0.434 C  
HETATM   31  O   UNL     1     -13.161  11.848  63.333  1.00  0.00    -0.710 OA 
ENDBRANCH  27  28
ENDBRANCH  24  27
ENDBRANCH   1  23
TORSDOF 9
ENDMDL
MODEL       26
REMARK 921   NORMALIZED FREE ENERGY PREDICTED BY IDOCK:   -6.40 KCAL/MOL
REMARK 922        TOTAL FREE ENERGY PREDICTED BY IDOCK:  -11.58 KCAL/MOL
REMARK 923 INTER-LIGAND FREE ENERGY PREDICTED BY IDOCK:   -9.26 KCAL/MOL
REMARK 924 INTRA-LIGAND FREE ENERGY PREDICTED BY IDOCK:   -2.32 KCAL/MOL
REMARK 927      BINDING AFFINITY PREDICTED BY RF-SCORE:    0.00 PKD
ROOT
HETATM    1  C   UNL     1     -10.989  11.326  68.258  1.00  0.00    -0.224 C  
ENDROOT
BRANCH   1   2
HETATM    2  C   UNL     1     -11.679  12.437  69.100  1.00  0.00    -0.376 C  
BRANCH   2   3
HETATM    3  C   UNL     1     -11.183  13.862  68.999  1.00  0.00    -0.312 A  
HETATM    4  C   UNL     1     -10.208  16.490  68.447  1.00  0.00    -0.266 A  
HETATM    5  C   UNL     1     -12.001  14.981  69.143  1.00  0.00    -0.308 A  
HETATM    6  C   UNL     1     -11.535  16.257  68.834  1.00  0.00    -0.282 A  
HETATM    7  C   UNL     1      -9.830  14.083  68.712  1.00  0.00    -0.141 A  
HETATM    8  C   UNL     1      -9.348  15.375  68.459  1.00  0.00    -0.198 A  
BRANCH   4   9
HETATM    9  C   UNL     1      -9.774  17.826  67.992  1.00  0.00    -0.304 A  
HETATM   10  C   UNL     1     -10.612  18.652  67.217  1.00  0.00    -0.480 A  
HETATM   11  C   UNL     1     -10.164  19.865  66.690  1.00  0.00    -0.609 A  
HETATM   12  C   UNL     1      -8.871  20.301  66.952  1.00  0.00    -0.400 A  
HETATM   13  C   UNL     1      -8.024  19.522  67.735  1.00  0.00    -0.329 A  
HETATM   14  C   UNL     1      -8.471  18.297  68.243  1.00  0.00    -0.309 A  
ENDBRANCH   4   9
ENDBRANCH   2   3
ENDBRANCH   1   2
BRANCH   1  15
HETATM   15  C   UNL     1     -11.265  11.372  66.735  1.00  0.00    -0.319 C  
HETATM   16  C   UNL     1     -10.584  11.975  64.428  1.00  0.00    -0.318 C  
HETATM   17  C   UNL     1      -8.927  10.849  65.887  1.00  0.00    -0.206 C  
HETATM   18  C   UNL     1     -10.097  11.824  65.858  1.00  0.00    -0.267 C  
HETATM   19  O   UNL     1     -10.597  11.078  63.597  1.00  0.00    -0.362 OA 
BRANCH  16  20
HETATM   20  O   UNL     1     -10.954  13.266  64.199  1.00  0.00    -0.385 OA 
BRANCH  20  21
HETATM   21  C   UNL     1     -10.218  14.250  64.939  1.00  0.00    -0.329 C  
HETATM   22  C   UNL     1     -11.041  15.526  64.952  1.00  0.00    -0.428 C  
ENDBRANCH  20  21
ENDBRANCH  16  20
ENDBRANCH   1  15
BRANCH   1  23
HETATM   23  N   UNL     1     -11.290   9.981  68.758  1.00  0.00    -0.479 N  
HETATM   24  C   UNL     1     -10.377   9.224  69.441  1.00  0.00    -0.215 C  
HETATM   25  H   UNL     1     -12.218   9.594  68.589  1.00  0.00     0.000 HD 
HETATM   26  O   UNL     1      -9.213   9.550  69.667  1.00  0.00    -0.172 OA 
BRANCH  24  27
HETATM   27  C   UNL     1     -10.838   7.835  69.797  1.00  0.00    -0.211 C  
BRANCH  27  28
HETATM   28  C   UNL     1     -11.374   7.843  71.215  1.00  0.00    -0.289 C  
HETATM   29  O   UNL     1     -10.793   7.553  73.510  1.00  0.00    -0.369 OA 
HETATM   30  C   UNL     1     -10.438   7.453  72.341  1.00  0.00    -0.233 C  
HETATM   31  O   UNL     1      -9.216   6.993  72.032  1.00  0.00    -0.140 OA 
ENDBRANCH  27  28
ENDBRANCH  24  27
ENDBRANCH   1  23
TORSDOF 9
ENDMDL
MODEL       27
REMARK 921   NORMALIZED FREE ENERGY PREDICTED BY IDOCK:   -6.40 KCAL/MOL
REMARK 922        TOTAL FREE ENERGY PREDICTED BY IDOCK:  -11.58 KCAL/MOL
REMARK 923 INTER-LIGAND FREE ENERGY PREDICTED BY IDOCK:   -9.78 KCAL/MOL
REMARK 924 INTRA-LIGAND FREE ENERGY PREDICTED BY IDOCK:   -1.80 KCAL/MOL
REMARK 927      BINDING AFFINITY PREDICTED BY RF-SCORE:    0.00 PKD
ROOT
HETATM    1  C   UNL     1     -10.963  11.313  69.152  1.00  0.00    -0.240 C  
ENDROOT
BRANCH   1   2
HETATM    2  C   UNL     1     -11.870  12.039  68.119  1.00  0.00    -0.352 C  
BRANCH   2   3
HETATM    3  C   UNL     1     -11.679  13.519  67.873  1.00  0.00    -0.392 A  
HETATM    4  C   UNL     1     -11.022  16.288  67.627  1.00  0.00    -0.245 A  
HETATM    5  C   UNL     1     -11.256  14.056  66.658  1.00  0.00    -0.330 A  
HETATM    6  C   UNL     1     -10.898  15.398  66.551  1.00  0.00    -0.298 A  
HETATM    7  C   UNL     1     -11.905  14.409  68.930  1.00  0.00    -0.355 A  
HETATM    8  C   UNL     1     -11.599  15.771  68.803  1.00  0.00    -0.401 A  
BRANCH   4   9
HETATM    9  C   UNL     1     -10.507  17.670  67.532  1.00  0.00    -0.365 A  
HETATM   10  C   UNL     1     -10.016  18.354  68.661  1.00  0.00    -0.415 A  
HETATM   11  C   UNL     1      -9.635  19.696  68.597  1.00  0.00    -0.457 A  
HETATM   12  C   UNL     1      -9.707  20.383  67.391  1.00  0.00    -0.597 A  
HETATM   13  C   UNL     1     -10.164  19.730  66.251  1.00  0.00    -0.615 A  
HETATM   14  C   UNL     1     -10.564  18.390  66.324  1.00  0.00    -0.343 A  
ENDBRANCH   4   9
ENDBRANCH   2   3
ENDBRANCH   1   2
BRANCH   1  15
HETATM   15  C   UNL     1      -9.808  10.472  68.554  1.00  0.00    -0.175 C  
HETATM   16  C   UNL     1      -7.948  10.186  66.938  1.00  0.00    -0.114 C  
HETATM   17  C   UNL     1      -8.114  12.328  68.173  1.00  0.00    -0.158 C  
HETATM   18  C   UNL     1      -8.911  11.191  67.546  1.00  0.00    -0.139 C  
HETATM   19  O   UNL     1      -6.854   9.899  67.402  1.00  0.00    -0.080 OA 
BRANCH  16  20
HETATM   20  O   UNL     1      -8.466   9.694  65.778  1.00  0.00    -0.127 OA 
BRANCH  20  21
HETATM   21  C   UNL     1      -8.388   8.269  65.633  1.00  0.00    -0.148 C  
HETATM   22  C   UNL     1      -9.485   7.659  66.487  1.00  0.00    -0.250 C  
ENDBRANCH  20  21
ENDBRANCH  16  20
ENDBRANCH   1  15
BRANCH   1  23
HETATM   23  N   UNL     1     -11.732  10.477  70.078  1.00  0.00    -0.289 N  
HETATM   24  C   UNL     1     -12.548  11.000  71.045  1.00  0.00    -0.411 C  
HETATM   25  H   UNL     1     -11.657   9.462  69.999  1.00  0.00     0.000 HD 
HETATM   26  O   UNL     1     -12.689  12.200  71.279  1.00  0.00    -0.366 OA 
BRANCH  24  27
HETATM   27  C   UNL     1     -13.188   9.988  71.957  1.00  0.00    -0.545 C  
BRANCH  27  28
HETATM   28  C   UNL     1     -12.323   8.743  71.996  1.00  0.00    -0.444 C  
HETATM   29  O   UNL     1     -12.280   6.397  71.569  1.00  0.00    -0.312 OA 
HETATM   30  C   UNL     1     -12.963   7.411  71.661  1.00  0.00    -0.366 C  
HETATM   31  O   UNL     1     -14.290   7.365  71.472  1.00  0.00    -0.448 OA 
ENDBRANCH  27  28
ENDBRANCH  24  27
ENDBRANCH   1  23
TORSDOF 9
ENDMDL
MODEL       28
REMARK 921   NORMALIZED FREE ENERGY PREDICTED BY IDOCK:   -6.39 KCAL/MOL
REMARK 922        TOTAL FREE ENERGY PREDICTED BY IDOCK:  -11.57 KCAL/MOL
REMARK 923 INTER-LIGAND FREE ENERGY PREDICTED BY IDOCK:   -9.34 KCAL/MOL
REMARK 924 INTRA-LIGAND FREE ENERGY PREDICTED BY IDOCK:   -2.23 KCAL/MOL
REMARK 927      BINDING AFFINITY PREDICTED BY RF-SCORE:    0.00 PKD
ROOT
HETATM    1  C   UNL     1     -11.422  10.921  69.544  1.00  0.00    -0.301 C  
ENDROOT
BRANCH   1   2
HETATM    2  C   UNL     1     -11.243  11.362  68.064  1.00  0.00    -0.346 C  
BRANCH   2   3
HETATM    3  C   UNL     1     -10.903  12.804  67.753  1.00  0.00    -0.248 A  
HETATM    4  C   UNL     1     -10.520  15.614  67.415  1.00  0.00    -0.291 A  
HETATM    5  C   UNL     1      -9.718  13.424  68.147  1.00  0.00    -0.226 A  
HETATM    6  C   UNL     1      -9.551  14.800  68.017  1.00  0.00    -0.209 A  
HETATM    7  C   UNL     1     -11.840  13.579  67.060  1.00  0.00    -0.447 A  
HETATM    8  C   UNL     1     -11.644  14.955  66.879  1.00  0.00    -0.286 A  
BRANCH   4   9
HETATM    9  C   UNL     1     -10.383  17.085  67.414  1.00  0.00    -0.319 A  
HETATM   10  C   UNL     1     -10.503  17.837  66.229  1.00  0.00    -0.307 A  
HETATM   11  C   UNL     1     -10.262  19.212  66.205  1.00  0.00    -0.535 A  
HETATM   12  C   UNL     1      -9.922  19.879  67.376  1.00  0.00    -0.558 A  
HETATM   13  C   UNL     1      -9.819  19.170  68.569  1.00  0.00    -0.483 A  
HETATM   14  C   UNL     1     -10.042  17.788  68.584  1.00  0.00    -0.384 A  
ENDBRANCH   4   9
ENDBRANCH   2   3
ENDBRANCH   1   2
BRANCH   1  15
HETATM   15  C   UNL     1     -11.812  12.046  70.534  1.00  0.00    -0.215 C  
HETATM   16  C   UNL     1     -13.486  13.192  71.961  1.00  0.00    -0.507 C  
HETATM   17  C   UNL     1     -13.346  10.720  72.066  1.00  0.00    -0.403 C  
HETATM   18  C   UNL     1     -13.203  11.935  71.158  1.00  0.00     0.038 C  
HETATM   19  O   UNL     1     -13.193  13.349  73.138  1.00  0.00    -0.368 OA 
BRANCH  16  20
HETATM   20  O   UNL     1     -14.157  14.093  71.189  1.00  0.00    -0.188 OA 
BRANCH  20  21
HETATM   21  C   UNL     1     -13.713  15.451  71.314  1.00  0.00    -0.475 C  
HETATM   22  C   UNL     1     -12.467  15.607  70.460  1.00  0.00    -0.440 C  
ENDBRANCH  20  21
ENDBRANCH  16  20
ENDBRANCH   1  15
BRANCH   1  23
HETATM   23  N   UNL     1     -10.245  10.217  70.061  1.00  0.00    -0.359 N  
HETATM   24  C   UNL     1     -10.307   8.948  70.572  1.00  0.00    -0.203 C  
HETATM   25  H   UNL     1      -9.342  10.692  70.040  1.00  0.00     0.000 HD 
HETATM   26  O   UNL     1     -11.335   8.286  70.701  1.00  0.00    -0.264 OA 
BRANCH  24  27
HETATM   27  C   UNL     1      -9.013   8.423  71.136  1.00  0.00    -0.207 C  
BRANCH  27  28
HETATM   28  C   UNL     1      -9.143   8.307  72.642  1.00  0.00    -0.327 C  
HETATM   29  O   UNL     1      -9.274   6.777  74.466  1.00  0.00    -0.196 OA 
HETATM   30  C   UNL     1      -9.280   6.926  73.249  1.00  0.00    -0.138 C  
HETATM   31  O   UNL     1      -9.411   5.873  72.429  1.00  0.00    -0.144 OA 
ENDBRANCH  27  28
ENDBRANCH  24  27
ENDBRANCH   1  23
TORSDOF 9
ENDMDL
MODEL       29
REMARK 921   NORMALIZED FREE ENERGY PREDICTED BY IDOCK:   -6.33 KCAL/MOL
REMARK 922        TOTAL FREE ENERGY PREDICTED BY IDOCK:  -11.48 KCAL/MOL
REMARK 923 INTER-LIGAND FREE ENERGY PREDICTED BY IDOCK:   -9.37 KCAL/MOL
REMARK 924 INTRA-LIGAND FREE ENERGY PREDICTED BY IDOCK:   -2.11 KCAL/MOL
REMARK 927      BINDING AFFINITY PREDICTED BY RF-SCORE:    0.00 PKD
ROOT
HETATM    1  C   UNL     1     -10.812  10.671  67.774  1.00  0.00    -0.286 C  
ENDROOT
BRANCH   1   2
HETATM    2  C   UNL     1     -11.639  11.682  68.617  1.00  0.00    -0.373 C  
BRANCH   2   3
HETATM    3  C   UNL     1     -11.265  13.148  68.597  1.00  0.00    -0.314 A  
HETATM    4  C   UNL     1     -10.603  15.897  68.193  1.00  0.00    -0.280 A  
HETATM    5  C   UNL     1     -12.092  14.167  69.067  1.00  0.00    -0.348 A  
HETATM    6  C   UNL     1     -11.786  15.505  68.833  1.00  0.00    -0.357 A  
HETATM    7  C   UNL     1     -10.033  13.518  68.045  1.00  0.00    -0.248 A  
HETATM    8  C   UNL     1      -9.701  14.868  67.863  1.00  0.00    -0.206 A  
BRANCH   4   9
HETATM    9  C   UNL     1     -10.367  17.310  67.832  1.00  0.00    -0.360 A  
HETATM   10  C   UNL     1     -10.146  18.296  68.814  1.00  0.00    -0.393 A  
HETATM   11  C   UNL     1     -10.035  19.649  68.485  1.00  0.00    -0.542 A  
HETATM   12  C   UNL     1     -10.113  20.049  67.156  1.00  0.00    -0.587 A  
HETATM   13  C   UNL     1     -10.305  19.098  66.158  1.00  0.00    -0.561 A  
HETATM   14  C   UNL     1     -10.436  17.746  66.496  1.00  0.00    -0.297 A  
ENDBRANCH   4   9
ENDBRANCH   2   3
ENDBRANCH   1   2
BRANCH   1  15
HETATM   15  C   UNL     1     -11.077  10.698  66.248  1.00  0.00     0.084 C  
HETATM   16  C   UNL     1     -10.619  11.604  63.985  1.00  0.00    -0.373 C  
HETATM   17  C   UNL     1      -8.693  11.018  65.431  1.00  0.00    -0.122 C  
HETATM   18  C   UNL     1     -10.119  11.553  65.418  1.00  0.00    -0.304 C  
HETATM   19  O   UNL     1     -10.328  10.794  63.116  1.00  0.00    -0.255 OA 
BRANCH  16  20
HETATM   20  O   UNL     1     -11.394  12.710  63.805  1.00  0.00    -0.403 OA 
BRANCH  20  21
HETATM   21  C   UNL     1     -10.954  13.881  64.506  1.00  0.00    -0.369 C  
HETATM   22  C   UNL     1     -12.148  14.809  64.645  1.00  0.00    -0.437 C  
ENDBRANCH  20  21
ENDBRANCH  16  20
ENDBRANCH   1  15
BRANCH   1  23
HETATM   23  N   UNL     1     -10.954   9.295  68.259  1.00  0.00    -0.475 N  
HETATM   24  C   UNL     1      -9.896   8.432  68.356  1.00  0.00    -0.176 C  
HETATM   25  H   UNL     1     -11.879   8.967  68.535  1.00  0.00     0.000 HD 
HETATM   26  O   UNL     1      -8.743   8.684  68.010  1.00  0.00    -0.139 OA 
BRANCH  24  27
HETATM   27  C   UNL     1     -10.249   7.035  68.791  1.00  0.00    -0.181 C  
BRANCH  27  28
HETATM   28  C   UNL     1     -10.996   6.343  67.667  1.00  0.00    -0.441 C  
HETATM   29  O   UNL     1     -10.826   4.696  65.950  1.00  0.00    -0.274 OA 
HETATM   30  C   UNL     1     -10.238   5.362  66.796  1.00  0.00    -0.241 C  
HETATM   31  O   UNL     1      -8.913   5.239  66.967  1.00  0.00    -0.113 OA 
ENDBRANCH  27  28
ENDBRANCH  24  27
ENDBRANCH   1  23
TORSDOF 9
ENDMDL
MODEL       30
REMARK 921   NORMALIZED FREE ENERGY PREDICTED BY IDOCK:   -6.32 KCAL/MOL
REMARK 922        TOTAL FREE ENERGY PREDICTED BY IDOCK:  -11.47 KCAL/MOL
REMARK 923 INTER-LIGAND FREE ENERGY PREDICTED BY IDOCK:   -9.39 KCAL/MOL
REMARK 924 INTRA-LIGAND FREE ENERGY PREDICTED BY IDOCK:   -2.08 KCAL/MOL
REMARK 927      BINDING AFFINITY PREDICTED BY RF-SCORE:    0.00 PKD
ROOT
HETATM    1  C   UNL     1     -10.512  11.072  68.039  1.00  0.00    -0.189 C  
ENDROOT
BRANCH   1   2
HETATM    2  C   UNL     1     -11.713  11.915  67.525  1.00  0.00    -0.335 C  
BRANCH   2   3
HETATM    3  C   UNL     1     -11.563  13.414  67.381  1.00  0.00    -0.394 A  
HETATM    4  C   UNL     1     -10.993  16.213  67.344  1.00  0.00    -0.210 A  
HETATM    5  C   UNL     1     -11.085  14.039  66.230  1.00  0.00    -0.307 A  
HETATM    6  C   UNL     1     -10.771  15.396  66.227  1.00  0.00    -0.312 A  
HETATM    7  C   UNL     1     -11.886  14.228  68.472  1.00  0.00    -0.382 A  
HETATM    8  C   UNL     1     -11.623  15.605  68.447  1.00  0.00    -0.358 A  
BRANCH   4   9
HETATM    9  C   UNL     1     -10.525  17.613  67.365  1.00  0.00    -0.356 A  
HETATM   10  C   UNL     1     -10.258  18.285  68.575  1.00  0.00    -0.402 A  
HETATM   11  C   UNL     1      -9.925  19.641  68.604  1.00  0.00    -0.553 A  
HETATM   12  C   UNL     1      -9.820  20.357  67.417  1.00  0.00    -0.587 A  
HETATM   13  C   UNL     1     -10.053  19.718  66.203  1.00  0.00    -0.600 A  
HETATM   14  C   UNL     1     -10.407  18.363  66.181  1.00  0.00    -0.431 A  
ENDBRANCH   4   9
ENDBRANCH   2   3
ENDBRANCH   1   2
BRANCH   1  15
HETATM   15  C   UNL     1     -10.862   9.966  69.064  1.00  0.00    -0.242 C  
HETATM   16  C   UNL     1     -11.283   9.225  71.393  1.00  0.00    -0.362 C  
HETATM   17  C   UNL     1     -12.372  11.308  70.605  1.00  0.00    -0.477 C  
HETATM   18  C   UNL     1     -11.125  10.438  70.493  1.00  0.00    -0.343 C  
HETATM   19  O   UNL     1     -12.339   8.646  71.605  1.00  0.00    -0.303 OA 
BRANCH  16  20
HETATM   20  O   UNL     1     -10.085   8.914  71.963  1.00  0.00    -0.332 OA 
BRANCH  20  21
HETATM   21  C   UNL     1     -10.126   7.843  72.917  1.00  0.00    -0.310 C  
HETATM   22  C   UNL     1      -9.580   6.600  72.237  1.00  0.00    -0.150 C  
ENDBRANCH  20  21
ENDBRANCH  16  20
ENDBRANCH   1  15
BRANCH   1  23
HETATM   23  N   UNL     1      -9.439  11.908  68.586  1.00  0.00    -0.364 N  
HETATM   24  C   UNL     1      -8.263  12.132  67.921  1.00  0.00    -0.155 C  
HETATM   25  H   UNL     1      -9.574  12.340  69.500  1.00  0.00     0.000 HD 
HETATM   26  O   UNL     1      -7.955  11.633  66.840  1.00  0.00    -0.158 OA 
BRANCH  24  27
HETATM   27  C   UNL     1      -7.246  12.943  68.678  1.00  0.00    -0.098 C  
BRANCH  27  28
HETATM   28  C   UNL     1      -6.985  14.232  67.925  1.00  0.00    -0.174 C  
HETATM   29  O   UNL     1      -7.244  16.602  67.986  1.00  0.00    -0.148 OA 
HETATM   30  C   UNL     1      -7.527  15.525  68.499  1.00  0.00    -0.118 C  
HETATM   31  O   UNL     1      -8.323  15.466  69.577  1.00  0.00    -0.245 OA 
ENDBRANCH  27  28
ENDBRANCH  24  27
ENDBRANCH   1  23
TORSDOF 9
ENDMDL
MODEL       31
REMARK 921   NORMALIZED FREE ENERGY PREDICTED BY IDOCK:   -6.32 KCAL/MOL
REMARK 922        TOTAL FREE ENERGY PREDICTED BY IDOCK:  -11.46 KCAL/MOL
REMARK 923 INTER-LIGAND FREE ENERGY PREDICTED BY IDOCK:   -9.41 KCAL/MOL
REMARK 924 INTRA-LIGAND FREE ENERGY PREDICTED BY IDOCK:   -2.05 KCAL/MOL
REMARK 927      BINDING AFFINITY PREDICTED BY RF-SCORE:    0.00 PKD
ROOT
HETATM    1  C   UNL     1     -10.112  10.915  67.485  1.00  0.00    -0.184 C  
ENDROOT
BRANCH   1   2
HETATM    2  C   UNL     1      -9.453  11.984  68.400  1.00  0.00    -0.181 C  
BRANCH   2   3
HETATM    3  C   UNL     1      -9.581  13.449  68.044  1.00  0.00    -0.219 A  
HETATM    4  C   UNL     1      -9.722  16.284  67.722  1.00  0.00    -0.233 A  
HETATM    5  C   UNL     1      -8.690  14.127  67.214  1.00  0.00    -0.229 A  
HETATM    6  C   UNL     1      -8.737  15.513  67.090  1.00  0.00    -0.234 A  
HETATM    7  C   UNL     1     -10.632  14.185  68.603  1.00  0.00    -0.253 A  
HETATM    8  C   UNL     1     -10.712  15.574  68.430  1.00  0.00    -0.263 A  
BRANCH   4   9
HETATM    9  C   UNL     1      -9.669  17.760  67.689  1.00  0.00    -0.282 A  
HETATM   10  C   UNL     1      -9.871  18.532  68.850  1.00  0.00    -0.377 A  
HETATM   11  C   UNL     1      -9.934  19.926  68.803  1.00  0.00    -0.462 A  
HETATM   12  C   UNL     1      -9.766  20.589  67.593  1.00  0.00    -0.501 A  
HETATM   13  C   UNL     1      -9.541  19.857  66.430  1.00  0.00    -0.537 A  
HETATM   14  C   UNL     1      -9.499  18.459  66.480  1.00  0.00    -0.317 A  
ENDBRANCH   4   9
ENDBRANCH   2   3
ENDBRANCH   1   2
BRANCH   1  15
HETATM   15  C   UNL     1     -11.385  11.372  66.732  1.00  0.00    -0.252 C  
HETATM   16  C   UNL     1     -12.480  12.559  64.849  1.00  0.00    -0.450 C  
HETATM   17  C   UNL     1     -10.577  11.053  64.344  1.00  0.00    -0.395 C  
HETATM   18  C   UNL     1     -11.158  12.022  65.367  1.00  0.00    -0.369 C  
HETATM   19  O   UNL     1     -13.281  11.917  64.184  1.00  0.00    -0.645 OA 
BRANCH  16  20
HETATM   20  O   UNL     1     -12.613  13.870  65.193  1.00  0.00    -0.533 OA 
BRANCH  20  21
HETATM   21  C   UNL     1     -12.370  14.805  64.132  1.00  0.00    -0.231 C  
HETATM   22  C   UNL     1     -11.346  15.810  64.630  1.00  0.00    -0.343 C  
ENDBRANCH  20  21
ENDBRANCH  16  20
ENDBRANCH   1  15
BRANCH   1  23
HETATM   23  N   UNL     1     -10.403   9.670  68.203  1.00  0.00    -0.198 N  
HETATM   24  C   UNL     1     -10.273   8.435  67.626  1.00  0.00    -0.236 C  
HETATM   25  H   UNL     1     -10.716   9.727  69.172  1.00  0.00     0.000 HD 
HETATM   26  O   UNL     1      -9.955   8.230  66.456  1.00  0.00    -0.259 OA 
BRANCH  24  27
HETATM   27  C   UNL     1     -10.702   7.279  68.490  1.00  0.00    -0.165 C  
BRANCH  27  28
HETATM   28  C   UNL     1     -10.267   7.544  69.918  1.00  0.00    -0.210 C  
HETATM   29  O   UNL     1     -10.916   7.376  72.207  1.00  0.00    -0.230 OA 
HETATM   30  C   UNL     1     -11.259   7.285  71.033  1.00  0.00    -0.266 C  
HETATM   31  O   UNL     1     -12.519   6.957  70.710  1.00  0.00    -0.356 OA 
ENDBRANCH  27  28
ENDBRANCH  24  27
ENDBRANCH   1  23
TORSDOF 9
ENDMDL
MODEL       32
REMARK 921   NORMALIZED FREE ENERGY PREDICTED BY IDOCK:   -6.28 KCAL/MOL
REMARK 922        TOTAL FREE ENERGY PREDICTED BY IDOCK:  -11.41 KCAL/MOL
REMARK 923 INTER-LIGAND FREE ENERGY PREDICTED BY IDOCK:   -9.76 KCAL/MOL
REMARK 924 INTRA-LIGAND FREE ENERGY PREDICTED BY IDOCK:   -1.65 KCAL/MOL
REMARK 927      BINDING AFFINITY PREDICTED BY RF-SCORE:    0.00 PKD
ROOT
HETATM    1  C   UNL     1      -9.808  15.573  67.628  1.00  0.00    -0.213 C  
ENDROOT
BRANCH   1   2
HETATM    2  C   UNL     1      -9.603  14.222  66.887  1.00  0.00    -0.268 C  
BRANCH   2   3
HETATM    3  C   UNL     1     -10.033  12.934  67.555  1.00  0.00    -0.215 A  
HETATM    4  C   UNL     1     -10.745  10.663  69.134  1.00  0.00    -0.264 A  
HETATM    5  C   UNL     1     -11.362  12.536  67.690  1.00  0.00    -0.362 A  
HETATM    6  C   UNL     1     -11.709  11.452  68.493  1.00  0.00    -0.386 A  
HETATM    7  C   UNL     1      -9.050  12.102  68.103  1.00  0.00    -0.196 A  
HETATM    8  C   UNL     1      -9.399  10.977  68.863  1.00  0.00    -0.155 A  
BRANCH   4   9
HETATM    9  C   UNL     1     -11.140   9.607  70.089  1.00  0.00    -0.314 A  
HETATM   10  C   UNL     1     -10.902   8.244  69.824  1.00  0.00    -0.186 A  
HETATM   11  C   UNL     1     -11.374   7.238  70.670  1.00  0.00    -0.311 A  
HETATM   12  C   UNL     1     -12.075   7.572  71.823  1.00  0.00    -0.340 A  
HETATM   13  C   UNL     1     -12.307   8.910  72.127  1.00  0.00    -0.449 A  
HETATM   14  C   UNL     1     -11.849   9.914  71.265  1.00  0.00    -0.479 A  
ENDBRANCH   4   9
ENDBRANCH   2   3
ENDBRANCH   1   2
BRANCH   1  15
HETATM   15  C   UNL     1      -8.645  16.587  67.504  1.00  0.00    -0.188 C  
HETATM   16  C   UNL     1      -7.774  18.814  66.843  1.00  0.00    -0.236 C  
HETATM   17  C   UNL     1      -9.898  18.712  68.117  1.00  0.00    -0.391 C  
HETATM   18  C   UNL     1      -9.036  18.003  67.079  1.00  0.00    -0.259 C  
HETATM   19  O   UNL     1      -7.184  19.452  67.703  1.00  0.00    -0.227 OA 
BRANCH  16  20
HETATM   20  O   UNL     1      -7.431  18.761  65.525  1.00  0.00    -0.493 OA 
BRANCH  20  21
HETATM   21  C   UNL     1      -6.518  19.780  65.094  1.00  0.00    -0.281 C  
HETATM   22  C   UNL     1      -5.658  19.188  63.991  1.00  0.00    -0.328 C  
ENDBRANCH  20  21
ENDBRANCH  16  20
ENDBRANCH   1  15
BRANCH   1  23
HETATM   23  N   UNL     1     -10.130  15.386  69.046  1.00  0.00    -0.222 N  
HETATM   24  C   UNL     1     -11.400  15.512  69.540  1.00  0.00    -0.313 C  
HETATM   25  H   UNL     1      -9.375  15.153  69.692  1.00  0.00     0.000 HD 
HETATM   26  O   UNL     1     -12.387  15.837  68.882  1.00  0.00    -0.142 OA 
BRANCH  24  27
HETATM   27  C   UNL     1     -11.522  15.372  71.034  1.00  0.00    -0.407 C  
BRANCH  27  28
HETATM   28  C   UNL     1     -12.309  14.115  71.349  1.00  0.00    -0.425 C  
HETATM   29  O   UNL     1     -14.121  13.228  72.620  1.00  0.00    -0.744 OA 
HETATM   30  C   UNL     1     -13.385  14.186  72.413  1.00  0.00    -0.494 C  
HETATM   31  O   UNL     1     -13.513  15.317  73.124  1.00  0.00    -0.474 OA 
ENDBRANCH  27  28
ENDBRANCH  24  27
ENDBRANCH   1  23
TORSDOF 9
ENDMDL
MODEL       33
REMARK 921   NORMALIZED FREE ENERGY PREDICTED BY IDOCK:   -6.28 KCAL/MOL
REMARK 922        TOTAL FREE ENERGY PREDICTED BY IDOCK:  -11.41 KCAL/MOL
REMARK 923 INTER-LIGAND FREE ENERGY PREDICTED BY IDOCK:  -10.29 KCAL/MOL
REMARK 924 INTRA-LIGAND FREE ENERGY PREDICTED BY IDOCK:   -1.12 KCAL/MOL
REMARK 927      BINDING AFFINITY PREDICTED BY RF-SCORE:    0.00 PKD
ROOT
HETATM    1  C   UNL     1     -11.745  13.610  67.567  1.00  0.00    -0.371 C  
ENDROOT
BRANCH   1   2
HETATM    2  C   UNL     1     -10.331  13.038  67.871  1.00  0.00    -0.233 C  
BRANCH   2   3
HETATM    3  C   UNL     1     -10.148  11.543  68.009  1.00  0.00    -0.197 A  
HETATM    4  C   UNL     1      -9.991   8.750  68.585  1.00  0.00    -0.197 A  
HETATM    5  C   UNL     1     -10.806  10.604  67.216  1.00  0.00    -0.345 A  
HETATM    6  C   UNL     1     -10.760   9.246  67.523  1.00  0.00    -0.272 A  
HETATM    7  C   UNL     1      -9.296  11.061  69.010  1.00  0.00    -0.105 A  
HETATM    8  C   UNL     1      -9.206   9.689  69.281  1.00  0.00    -0.186 A  
BRANCH   4   9
HETATM    9  C   UNL     1     -10.068   7.327  68.977  1.00  0.00    -0.186 A  
HETATM   10  C   UNL     1     -10.372   6.940  70.297  1.00  0.00    -0.218 A  
HETATM   11  C   UNL     1     -10.334   5.603  70.698  1.00  0.00    -0.320 A  
HETATM   12  C   UNL     1     -10.018   4.611  69.778  1.00  0.00    -0.295 A  
HETATM   13  C   UNL     1      -9.736   4.956  68.459  1.00  0.00    -0.218 A  
HETATM   14  C   UNL     1      -9.756   6.300  68.068  1.00  0.00    -0.122 A  
ENDBRANCH   4   9
ENDBRANCH   2   3
ENDBRANCH   1   2
BRANCH   1  15
HETATM   15  C   UNL     1     -11.775  14.890  66.696  1.00  0.00    -0.225 C  
HETATM   16  C   UNL     1     -10.792  16.339  64.940  1.00  0.00    -0.296 C  
HETATM   17  C   UNL     1     -10.953  13.905  64.503  1.00  0.00    -0.379 C  
HETATM   18  C   UNL     1     -10.736  14.963  65.578  1.00  0.00    -0.369 C  
HETATM   19  O   UNL     1     -11.521  16.646  64.007  1.00  0.00    -1.192 OA 
BRANCH  16  20
HETATM   20  O   UNL     1      -9.877  17.160  65.529  1.00  0.00    -0.549 OA 
BRANCH  20  21
HETATM   21  C   UNL     1     -10.408  18.383  66.056  1.00  0.00    -0.375 C  
HETATM   22  C   UNL     1     -10.101  18.414  67.543  1.00  0.00    -0.373 C  
ENDBRANCH  20  21
ENDBRANCH  16  20
ENDBRANCH   1  15
BRANCH   1  23
HETATM   23  N   UNL     1     -12.525  13.843  68.786  1.00  0.00    -0.367 N  
HETATM   24  C   UNL     1     -12.126  14.712  69.765  1.00  0.00    -0.324 C  
HETATM   25  H   UNL     1     -13.401  13.335  68.910  1.00  0.00     0.000 HD 
HETATM   26  O   UNL     1     -11.072  15.346  69.763  1.00  0.00    -0.247 OA 
BRANCH  24  27
HETATM   27  C   UNL     1     -13.012  14.753  70.982  1.00  0.00    -0.423 C  
BRANCH  27  28
HETATM   28  C   UNL     1     -12.600  15.925  71.852  1.00  0.00    -0.502 C  
HETATM   29  O   UNL     1     -12.045  16.592  74.073  1.00  0.00    -0.433 OA 
HETATM   30  C   UNL     1     -12.483  15.706  73.346  1.00  0.00    -0.523 C  
HETATM   31  O   UNL     1     -12.870  14.528  73.857  1.00  0.00    -0.450 OA 
ENDBRANCH  27  28
ENDBRANCH  24  27
ENDBRANCH   1  23
TORSDOF 9
ENDMDL
MODEL       34
REMARK 921   NORMALIZED FREE ENERGY PREDICTED BY IDOCK:   -6.28 KCAL/MOL
REMARK 922        TOTAL FREE ENERGY PREDICTED BY IDOCK:  -11.41 KCAL/MOL
REMARK 923 INTER-LIGAND FREE ENERGY PREDICTED BY IDOCK:   -9.25 KCAL/MOL
REMARK 924 INTRA-LIGAND FREE ENERGY PREDICTED BY IDOCK:   -2.15 KCAL/MOL
REMARK 927      BINDING AFFINITY PREDICTED BY RF-SCORE:    0.00 PKD
ROOT
HETATM    1  C   UNL     1     -10.607  10.827  67.558  1.00  0.00    -0.237 C  
ENDROOT
BRANCH   1   2
HETATM    2  C   UNL     1     -10.226  11.670  68.807  1.00  0.00    -0.190 C  
BRANCH   2   3
HETATM    3  C   UNL     1     -10.032  13.164  68.666  1.00  0.00    -0.117 A  
HETATM    4  C   UNL     1      -9.707  15.931  68.034  1.00  0.00    -0.216 A  
HETATM    5  C   UNL     1     -10.978  14.110  69.056  1.00  0.00    -0.286 A  
HETATM    6  C   UNL     1     -10.836  15.452  68.712  1.00  0.00    -0.252 A  
HETATM    7  C   UNL     1      -8.851  13.634  68.078  1.00  0.00    -0.187 A  
HETATM    8  C   UNL     1      -8.684  14.994  67.784  1.00  0.00    -0.167 A  
BRANCH   4   9
HETATM    9  C   UNL     1      -9.642  17.328  67.558  1.00  0.00    -0.259 A  
HETATM   10  C   UNL     1     -10.679  18.245  67.816  1.00  0.00    -0.358 A  
HETATM   11  C   UNL     1     -10.674  19.531  67.272  1.00  0.00    -0.604 A  
HETATM   12  C   UNL     1      -9.612  19.946  66.478  1.00  0.00    -0.534 A  
HETATM   13  C   UNL     1      -8.558  19.073  66.223  1.00  0.00    -0.281 A  
HETATM   14  C   UNL     1      -8.578  17.778  66.754  1.00  0.00    -0.272 A  
ENDBRANCH   4   9
ENDBRANCH   2   3
ENDBRANCH   1   2
BRANCH   1  15
HETATM   15  C   UNL     1     -11.776  11.383  66.707  1.00  0.00     0.120 C  
HETATM   16  C   UNL     1     -12.618  12.699  64.781  1.00  0.00    -0.454 C  
HETATM   17  C   UNL     1     -10.757  11.108  64.395  1.00  0.00    -0.388 C  
HETATM   18  C   UNL     1     -11.382  12.069  65.399  1.00  0.00    -0.375 C  
HETATM   19  O   UNL     1     -13.384  12.128  64.016  1.00  0.00    -0.706 OA 
BRANCH  16  20
HETATM   20  O   UNL     1     -12.715  14.002  65.166  1.00  0.00    -0.619 OA 
BRANCH  20  21
HETATM   21  C   UNL     1     -12.235  14.956  64.209  1.00  0.00    -0.344 C  
HETATM   22  C   UNL     1     -11.096  15.724  64.857  1.00  0.00    -0.411 C  
ENDBRANCH  20  21
ENDBRANCH  16  20
ENDBRANCH   1  15
BRANCH   1  23
HETATM   23  N   UNL     1     -10.885   9.428  67.894  1.00  0.00    -0.466 N  
HETATM   24  C   UNL     1     -10.350   8.379  67.196  1.00  0.00    -0.311 C  
HETATM   25  H   UNL     1     -11.503   9.227  68.680  1.00  0.00     0.000 HD 
HETATM   26  O   UNL     1      -9.633   8.481  66.202  1.00  0.00    -0.231 OA 
BRANCH  24  27
HETATM   27  C   UNL     1     -10.819   7.016  67.633  1.00  0.00    -0.312 C  
BRANCH  27  28
HETATM   28  C   UNL     1     -10.404   5.996  66.591  1.00  0.00    -0.264 C  
HETATM   29  O   UNL     1      -9.679   3.748  66.257  1.00  0.00    -0.189 OA 
HETATM   30  C   UNL     1      -9.916   4.642  67.063  1.00  0.00    -0.195 C  
HETATM   31  O   UNL     1      -9.746   4.442  68.379  1.00  0.00    -0.148 OA 
ENDBRANCH  27  28
ENDBRANCH  24  27
ENDBRANCH   1  23
TORSDOF 9
ENDMDL
MODEL       35
REMARK 921   NORMALIZED FREE ENERGY PREDICTED BY IDOCK:   -6.28 KCAL/MOL
REMARK 922        TOTAL FREE ENERGY PREDICTED BY IDOCK:  -11.41 KCAL/MOL
REMARK 923 INTER-LIGAND FREE ENERGY PREDICTED BY IDOCK:   -9.41 KCAL/MOL
REMARK 924 INTRA-LIGAND FREE ENERGY PREDICTED BY IDOCK:   -1.99 KCAL/MOL
REMARK 927      BINDING AFFINITY PREDICTED BY RF-SCORE:    0.00 PKD
ROOT
HETATM    1  C   UNL     1     -10.665  11.141  68.472  1.00  0.00    -0.201 C  
ENDROOT
BRANCH   1   2
HETATM    2  C   UNL     1     -11.755  11.937  67.701  1.00  0.00    -0.346 C  
BRANCH   2   3
HETATM    3  C   UNL     1     -11.599  13.432  67.525  1.00  0.00    -0.382 A  
HETATM    4  C   UNL     1     -11.021  16.228  67.431  1.00  0.00    -0.175 A  
HETATM    5  C   UNL     1     -11.110  14.030  66.365  1.00  0.00    -0.316 A  
HETATM    6  C   UNL     1     -10.793  15.385  66.334  1.00  0.00    -0.303 A  
HETATM    7  C   UNL     1     -11.928  14.271  68.596  1.00  0.00    -0.348 A  
HETATM    8  C   UNL     1     -11.661  15.646  68.542  1.00  0.00    -0.339 A  
BRANCH   4   9
HETATM    9  C   UNL     1     -10.549  17.627  67.425  1.00  0.00    -0.320 A  
HETATM   10  C   UNL     1     -10.251  18.311  68.619  1.00  0.00    -0.377 A  
HETATM   11  C   UNL     1      -9.914  19.667  68.625  1.00  0.00    -0.553 A  
HETATM   12  C   UNL     1      -9.837  20.369  67.428  1.00  0.00    -0.587 A  
HETATM   13  C   UNL     1     -10.102  19.717  66.227  1.00  0.00    -0.601 A  
HETATM   14  C   UNL     1     -10.459  18.363  66.229  1.00  0.00    -0.421 A  
ENDBRANCH   4   9
ENDBRANCH   2   3
ENDBRANCH   1   2
BRANCH   1  15
HETATM   15  C   UNL     1     -11.152  10.392  69.737  1.00  0.00    -0.352 C  
HETATM   16  C   UNL     1     -11.181   8.380  71.187  1.00  0.00    -0.263 C  
HETATM   17  C   UNL     1      -8.995   9.201  70.356  1.00  0.00    -0.263 C  
HETATM   18  C   UNL     1     -10.474   9.052  70.023  1.00  0.00    -0.233 C  
HETATM   19  O   UNL     1     -10.897   8.546  72.365  1.00  0.00    -0.346 OA 
BRANCH  16  20
HETATM   20  O   UNL     1     -12.139   7.532  70.719  1.00  0.00    -0.259 OA 
BRANCH  20  21
HETATM   21  C   UNL     1     -13.072   7.065  71.703  1.00  0.00    -0.330 C  
HETATM   22  C   UNL     1     -14.328   7.910  71.583  1.00  0.00    -0.595 C  
ENDBRANCH  20  21
ENDBRANCH  16  20
ENDBRANCH   1  15
BRANCH   1  23
HETATM   23  N   UNL     1      -9.512  11.974  68.826  1.00  0.00    -0.397 N  
HETATM   24  C   UNL     1      -8.431  12.131  68.000  1.00  0.00    -0.170 C  
HETATM   25  H   UNL     1      -9.515  12.457  69.725  1.00  0.00     0.000 HD 
HETATM   26  O   UNL     1      -8.280  11.569  66.917  1.00  0.00    -0.156 OA 
BRANCH  24  27
HETATM   27  C   UNL     1      -7.306  12.953  68.571  1.00  0.00    -0.115 C  
BRANCH  27  28
HETATM   28  C   UNL     1      -7.106  14.182  67.706  1.00  0.00    -0.185 C  
HETATM   29  O   UNL     1      -7.227  16.563  67.660  1.00  0.00    -0.125 OA 
HETATM   30  C   UNL     1      -7.477  15.534  68.279  1.00  0.00    -0.115 C  
HETATM   31  O   UNL     1      -8.086  15.582  69.473  1.00  0.00    -0.240 OA 
ENDBRANCH  27  28
ENDBRANCH  24  27
ENDBRANCH   1  23
TORSDOF 9
ENDMDL
MODEL       36
REMARK 921   NORMALIZED FREE ENERGY PREDICTED BY IDOCK:   -6.26 KCAL/MOL
REMARK 922        TOTAL FREE ENERGY PREDICTED BY IDOCK:  -11.37 KCAL/MOL
REMARK 923 INTER-LIGAND FREE ENERGY PREDICTED BY IDOCK:   -9.52 KCAL/MOL
REMARK 924 INTRA-LIGAND FREE ENERGY PREDICTED BY IDOCK:   -1.85 KCAL/MOL
REMARK 927      BINDING AFFINITY PREDICTED BY RF-SCORE:    0.00 PKD
ROOT
HETATM    1  C   UNL     1     -11.709  11.840  67.894  1.00  0.00    -0.276 C  
ENDROOT
BRANCH   1   2
HETATM    2  C   UNL     1     -11.493  12.683  69.182  1.00  0.00    -0.359 C  
BRANCH   2   3
HETATM    3  C   UNL     1     -11.076  14.133  69.061  1.00  0.00    -0.292 A  
HETATM    4  C   UNL     1     -10.140  16.774  68.507  1.00  0.00    -0.281 A  
HETATM    5  C   UNL     1     -11.965  15.179  68.825  1.00  0.00    -0.280 A  
HETATM    6  C   UNL     1     -11.505  16.457  68.516  1.00  0.00    -0.209 A  
HETATM    7  C   UNL     1      -9.715  14.449  69.156  1.00  0.00    -0.011 A  
HETATM    8  C   UNL     1      -9.258  15.749  68.902  1.00  0.00    -0.227 A  
BRANCH   4   9
HETATM    9  C   UNL     1      -9.670  18.095  68.042  1.00  0.00    -0.316 A  
HETATM   10  C   UNL     1      -8.350  18.531  68.267  1.00  0.00    -0.344 A  
HETATM   11  C   UNL     1      -7.935  19.821  67.930  1.00  0.00    -0.329 A  
HETATM   12  C   UNL     1      -8.825  20.703  67.329  1.00  0.00    -0.344 A  
HETATM   13  C   UNL     1     -10.131  20.296  67.069  1.00  0.00    -0.567 A  
HETATM   14  C   UNL     1     -10.547  19.008  67.428  1.00  0.00    -0.559 A  
ENDBRANCH   4   9
ENDBRANCH   2   3
ENDBRANCH   1   2
BRANCH   1  15
HETATM   15  C   UNL     1     -11.391  10.330  68.021  1.00  0.00    -0.219 C  
HETATM   16  C   UNL     1      -9.829   8.418  67.785  1.00  0.00    -0.174 C  
HETATM   17  C   UNL     1      -8.996  10.493  68.855  1.00  0.00    -0.175 C  
HETATM   18  C   UNL     1      -9.932   9.933  67.791  1.00  0.00    -0.201 C  
HETATM   19  O   UNL     1      -9.649   7.727  68.778  1.00  0.00    -0.152 OA 
BRANCH  16  20
HETATM   20  O   UNL     1      -9.915   7.954  66.507  1.00  0.00    -0.243 OA 
BRANCH  20  21
HETATM   21  C   UNL     1      -8.658   7.757  65.845  1.00  0.00    -0.153 C  
HETATM   22  C   UNL     1      -8.334   6.275  65.907  1.00  0.00    -0.142 C  
ENDBRANCH  20  21
ENDBRANCH  16  20
ENDBRANCH   1  15
BRANCH   1  23
HETATM   23  N   UNL     1     -10.983  12.386  66.743  1.00  0.00    -0.252 N  
HETATM   24  C   UNL     1     -11.614  12.839  65.616  1.00  0.00    -0.370 C  
HETATM   25  H   UNL     1      -9.964  12.429  66.783  1.00  0.00     0.000 HD 
HETATM   26  O   UNL     1     -12.828  12.798  65.419  1.00  0.00    -0.586 OA 
BRANCH  24  27
HETATM   27  C   UNL     1     -10.699  13.281  64.505  1.00  0.00    -0.428 C  
BRANCH  27  28
HETATM   28  C   UNL     1     -10.340  14.739  64.713  1.00  0.00    -0.260 C  
HETATM   29  O   UNL     1     -11.130  16.980  64.511  1.00  0.00    -1.098 OA 
HETATM   30  C   UNL     1     -11.327  15.796  64.261  1.00  0.00    -0.179 C  
HETATM   31  O   UNL     1     -12.417  15.409  63.580  1.00  0.00    -0.493 OA 
ENDBRANCH  27  28
ENDBRANCH  24  27
ENDBRANCH   1  23
TORSDOF 9
ENDMDL
MODEL       37
REMARK 921   NORMALIZED FREE ENERGY PREDICTED BY IDOCK:   -6.24 KCAL/MOL
REMARK 922        TOTAL FREE ENERGY PREDICTED BY IDOCK:  -11.35 KCAL/MOL
REMARK 923 INTER-LIGAND FREE ENERGY PREDICTED BY IDOCK:   -9.66 KCAL/MOL
REMARK 924 INTRA-LIGAND FREE ENERGY PREDICTED BY IDOCK:   -1.69 KCAL/MOL
REMARK 927      BINDING AFFINITY PREDICTED BY RF-SCORE:    0.00 PKD
ROOT
HETATM    1  C   UNL     1     -11.849  11.482  69.809  1.00  0.00    -0.357 C  
ENDROOT
BRANCH   1   2
HETATM    2  C   UNL     1     -12.701  10.684  70.836  1.00  0.00    -0.498 C  
BRANCH   2   3
HETATM    3  C   UNL     1     -12.189   9.359  71.357  1.00  0.00    -0.438 A  
HETATM    4  C   UNL     1     -11.294   6.724  72.002  1.00  0.00    -0.308 A  
HETATM    5  C   UNL     1     -10.847   9.098  71.630  1.00  0.00    -0.442 A  
HETATM    6  C   UNL     1     -10.408   7.806  71.905  1.00  0.00    -0.256 A  
HETATM    7  C   UNL     1     -13.102   8.315  71.547  1.00  0.00    -0.313 A  
HETATM    8  C   UNL     1     -12.664   7.026  71.881  1.00  0.00    -0.314 A  
BRANCH   4   9
HETATM    9  C   UNL     1     -10.792   5.343  72.156  1.00  0.00    -0.275 A  
HETATM   10  C   UNL     1      -9.977   4.740  71.179  1.00  0.00    -0.273 A  
HETATM   11  C   UNL     1      -9.595   3.399  71.267  1.00  0.00    -0.232 A  
HETATM   12  C   UNL     1      -9.996   2.632  72.354  1.00  0.00    -0.235 A  
HETATM   13  C   UNL     1     -10.782   3.204  73.351  1.00  0.00    -0.299 A  
HETATM   14  C   UNL     1     -11.178   4.543  73.247  1.00  0.00    -0.388 A  
ENDBRANCH   4   9
ENDBRANCH   2   3
ENDBRANCH   1   2
BRANCH   1  15
HETATM   15  C   UNL     1     -12.280  12.952  69.581  1.00  0.00    -0.203 C  
HETATM   16  C   UNL     1     -11.813  15.386  69.676  1.00  0.00    -0.347 C  
HETATM   17  C   UNL     1     -10.076  13.890  68.732  1.00  0.00    -0.161 C  
HETATM   18  C   UNL     1     -11.188  14.005  69.768  1.00  0.00    -0.175 C  
HETATM   19  O   UNL     1     -11.962  16.016  68.639  1.00  0.00    -0.306 OA 
BRANCH  16  20
HETATM   20  O   UNL     1     -12.134  15.832  70.923  1.00  0.00    -0.371 OA 
BRANCH  20  21
HETATM   21  C   UNL     1     -13.479  15.559  71.339  1.00  0.00    -0.499 C  
HETATM   22  C   UNL     1     -13.411  14.848  72.679  1.00  0.00    -0.553 C  
ENDBRANCH  20  21
ENDBRANCH  16  20
ENDBRANCH   1  15
BRANCH   1  23
HETATM   23  N   UNL     1     -11.760  10.804  68.512  1.00  0.00    -0.447 N  
HETATM   24  C   UNL     1     -10.575  10.365  67.986  1.00  0.00    -0.221 C  
HETATM   25  H   UNL     1     -12.617  10.653  67.980  1.00  0.00     0.000 HD 
HETATM   26  O   UNL     1      -9.469  10.527  68.499  1.00  0.00    -0.151 OA 
BRANCH  24  27
HETATM   27  C   UNL     1     -10.670   9.772  66.606  1.00  0.00    -0.106 C  
BRANCH  27  28
HETATM   28  C   UNL     1     -10.158  10.783  65.599  1.00  0.00    -0.327 C  
HETATM   29  O   UNL     1     -10.603  12.882  64.558  1.00  0.00    -0.337 OA 
HETATM   30  C   UNL     1     -11.024  11.983  65.278  1.00  0.00    -0.308 C  
HETATM   31  O   UNL     1     -12.261  12.041  65.796  1.00  0.00    -0.520 OA 
ENDBRANCH  27  28
ENDBRANCH  24  27
ENDBRANCH   1  23
TORSDOF 9
ENDMDL
MODEL       38
REMARK 921   NORMALIZED FREE ENERGY PREDICTED BY IDOCK:   -6.23 KCAL/MOL
REMARK 922        TOTAL FREE ENERGY PREDICTED BY IDOCK:  -11.33 KCAL/MOL
REMARK 923 INTER-LIGAND FREE ENERGY PREDICTED BY IDOCK:   -9.30 KCAL/MOL
REMARK 924 INTRA-LIGAND FREE ENERGY PREDICTED BY IDOCK:   -2.03 KCAL/MOL
REMARK 927      BINDING AFFINITY PREDICTED BY RF-SCORE:    0.00 PKD
ROOT
HETATM    1  C   UNL     1      -9.504   9.108  67.814  1.00  0.00    -0.140 C  
ENDROOT
BRANCH   1   2
HETATM    2  C   UNL     1     -10.761   9.891  67.339  1.00  0.00    -0.323 C  
BRANCH   2   3
HETATM    3  C   UNL     1     -11.351  10.961  68.230  1.00  0.00    -0.374 A  
HETATM    4  C   UNL     1     -12.151  12.960  70.107  1.00  0.00    -0.373 A  
HETATM    5  C   UNL     1     -11.511  12.291  67.845  1.00  0.00    -0.390 A  
HETATM    6  C   UNL     1     -11.862  13.270  68.771  1.00  0.00    -0.371 A  
HETATM    7  C   UNL     1     -11.731  10.615  69.532  1.00  0.00    -0.356 A  
HETATM    8  C   UNL     1     -12.141  11.594  70.448  1.00  0.00    -0.462 A  
BRANCH   4   9
HETATM    9  C   UNL     1     -12.384  14.028  71.100  1.00  0.00    -0.443 A  
HETATM   10  C   UNL     1     -11.711  15.263  71.030  1.00  0.00    -0.394 A  
HETATM   11  C   UNL     1     -11.843  16.231  72.029  1.00  0.00    -0.568 A  
HETATM   12  C   UNL     1     -12.680  15.999  73.114  1.00  0.00    -0.619 A  
HETATM   13  C   UNL     1     -13.380  14.799  73.202  1.00  0.00    -0.458 A  
HETATM   14  C   UNL     1     -13.227  13.825  72.208  1.00  0.00    -0.563 A  
ENDBRANCH   4   9
ENDBRANCH   2   3
ENDBRANCH   1   2
BRANCH   1  15
HETATM   15  C   UNL     1      -9.764   8.000  68.865  1.00  0.00    -0.159 C  
HETATM   16  C   UNL     1     -11.163   6.168  69.780  1.00  0.00    -0.423 C  
HETATM   17  C   UNL     1     -10.740   6.218  67.338  1.00  0.00    -0.409 C  
HETATM   18  C   UNL     1     -10.948   7.075  68.581  1.00  0.00    -0.144 C  
HETATM   19  O   UNL     1     -10.617   5.086  69.943  1.00  0.00    -0.237 OA 
BRANCH  16  20
HETATM   20  O   UNL     1     -12.090   6.717  70.614  1.00  0.00    -0.394 OA 
BRANCH  20  21
HETATM   21  C   UNL     1     -11.737   6.708  72.005  1.00  0.00    -0.313 C  
HETATM   22  C   UNL     1     -11.337   8.122  72.386  1.00  0.00    -0.456 C  
ENDBRANCH  20  21
ENDBRANCH  16  20
ENDBRANCH   1  15
BRANCH   1  23
HETATM   23  N   UNL     1      -8.449   9.996  68.308  1.00  0.00    -0.110 N  
HETATM   24  C   UNL     1      -7.207  10.062  67.734  1.00  0.00    -0.087 C  
HETATM   25  H   UNL     1      -8.647  10.590  69.114  1.00  0.00     0.000 HD 
HETATM   26  O   UNL     1      -6.824   9.368  66.794  1.00  0.00    -0.078 OA 
BRANCH  24  27
HETATM   27  C   UNL     1      -6.228  10.967  68.433  1.00  0.00    -0.046 C  
BRANCH  27  28
HETATM   28  C   UNL     1      -6.034  12.219  67.601  1.00  0.00    -0.119 C  
HETATM   29  O   UNL     1      -6.840  14.428  67.203  1.00  0.00    -0.190 OA 
HETATM   30  C   UNL     1      -7.022  13.356  67.769  1.00  0.00    -0.156 C  
HETATM   31  O   UNL     1      -8.098  13.163  68.546  1.00  0.00    -0.144 OA 
ENDBRANCH  27  28
ENDBRANCH  24  27
ENDBRANCH   1  23
TORSDOF 9
ENDMDL
MODEL       39
REMARK 921   NORMALIZED FREE ENERGY PREDICTED BY IDOCK:   -6.23 KCAL/MOL
REMARK 922        TOTAL FREE ENERGY PREDICTED BY IDOCK:  -11.32 KCAL/MOL
REMARK 923 INTER-LIGAND FREE ENERGY PREDICTED BY IDOCK:   -9.61 KCAL/MOL
REMARK 924 INTRA-LIGAND FREE ENERGY PREDICTED BY IDOCK:   -1.71 KCAL/MOL
REMARK 927      BINDING AFFINITY PREDICTED BY RF-SCORE:    0.00 PKD
ROOT
HETATM    1  C   UNL     1     -10.128  15.503  67.567  1.00  0.00    -0.241 C  
ENDROOT
BRANCH   1   2
HETATM    2  C   UNL     1      -9.785  14.127  66.928  1.00  0.00    -0.272 C  
BRANCH   2   3
HETATM    3  C   UNL     1     -10.197  12.855  67.635  1.00  0.00    -0.220 A  
HETATM    4  C   UNL     1     -10.913  10.636  69.286  1.00  0.00    -0.294 A  
HETATM    5  C   UNL     1     -11.508  12.383  67.683  1.00  0.00    -0.399 A  
HETATM    6  C   UNL     1     -11.861  11.327  68.518  1.00  0.00    -0.355 A  
HETATM    7  C   UNL     1      -9.219  12.118  68.314  1.00  0.00    -0.192 A  
HETATM    8  C   UNL     1      -9.569  11.018  69.110  1.00  0.00    -0.081 A  
BRANCH   4   9
HETATM    9  C   UNL     1     -11.329   9.614  70.267  1.00  0.00    -0.311 A  
HETATM   10  C   UNL     1     -10.808   8.305  70.237  1.00  0.00    -0.241 A  
HETATM   11  C   UNL     1     -11.281   7.306  71.090  1.00  0.00    -0.284 A  
HETATM   12  C   UNL     1     -12.272   7.598  72.020  1.00  0.00    -0.328 A  
HETATM   13  C   UNL     1     -12.792   8.888  72.093  1.00  0.00    -0.471 A  
HETATM   14  C   UNL     1     -12.328   9.880  71.222  1.00  0.00    -0.478 A  
ENDBRANCH   4   9
ENDBRANCH   2   3
ENDBRANCH   1   2
BRANCH   1  15
HETATM   15  C   UNL     1      -9.122  16.644  67.280  1.00  0.00    -0.225 C  
HETATM   16  C   UNL     1      -7.510  18.359  68.062  1.00  0.00    -0.253 C  
HETATM   17  C   UNL     1      -7.365  16.081  69.027  1.00  0.00    -0.191 C  
HETATM   18  C   UNL     1      -8.314  17.140  68.478  1.00  0.00    -0.262 C  
HETATM   19  O   UNL     1      -6.388  18.323  67.577  1.00  0.00    -0.177 OA 
BRANCH  16  20
HETATM   20  O   UNL     1      -8.206  19.493  68.355  1.00  0.00    -0.333 OA 
BRANCH  20  21
HETATM   21  C   UNL     1      -8.497  20.336  67.232  1.00  0.00    -0.347 C  
HETATM   22  C   UNL     1      -9.977  20.195  66.923  1.00  0.00    -0.600 C  
ENDBRANCH  20  21
ENDBRANCH  16  20
ENDBRANCH   1  15
BRANCH   1  23
HETATM   23  N   UNL     1     -10.340  15.406  69.014  1.00  0.00    -0.231 N  
HETATM   24  C   UNL     1     -11.576  15.527  69.591  1.00  0.00    -0.348 C  
HETATM   25  H   UNL     1      -9.533  15.244  69.617  1.00  0.00     0.000 HD 
HETATM   26  O   UNL     1     -12.619  15.773  68.987  1.00  0.00     0.087 OA 
BRANCH  24  27
HETATM   27  C   UNL     1     -11.585  15.488  71.096  1.00  0.00    -0.446 C  
BRANCH  27  28
HETATM   28  C   UNL     1     -12.322  14.244  71.553  1.00  0.00    -0.417 C  
HETATM   29  O   UNL     1     -14.334  13.436  72.546  1.00  0.00    -0.692 OA 
HETATM   30  C   UNL     1     -13.651  14.413  72.261  1.00  0.00    -0.454 C  
HETATM   31  O   UNL     1     -14.061  15.652  72.570  1.00  0.00    -0.558 OA 
ENDBRANCH  27  28
ENDBRANCH  24  27
ENDBRANCH   1  23
TORSDOF 9
ENDMDL
MODEL       40
REMARK 921   NORMALIZED FREE ENERGY PREDICTED BY IDOCK:   -6.21 KCAL/MOL
REMARK 922        TOTAL FREE ENERGY PREDICTED BY IDOCK:  -11.30 KCAL/MOL
REMARK 923 INTER-LIGAND FREE ENERGY PREDICTED BY IDOCK:   -9.51 KCAL/MOL
REMARK 924 INTRA-LIGAND FREE ENERGY PREDICTED BY IDOCK:   -1.79 KCAL/MOL
REMARK 927      BINDING AFFINITY PREDICTED BY RF-SCORE:    0.00 PKD
ROOT
HETATM    1  C   UNL     1     -10.334  11.103  67.088  1.00  0.00    -0.212 C  
ENDROOT
BRANCH   1   2
HETATM    2  C   UNL     1     -10.315  11.625  68.552  1.00  0.00    -0.224 C  
BRANCH   2   3
HETATM    3  C   UNL     1     -10.329  10.633  69.695  1.00  0.00    -0.185 A  
HETATM    4  C   UNL     1     -10.544   8.539  71.625  1.00  0.00    -0.353 A  
HETATM    5  C   UNL     1      -9.206   9.929  70.125  1.00  0.00    -0.184 A  
HETATM    6  C   UNL     1      -9.320   8.882  71.037  1.00  0.00    -0.313 A  
HETATM    7  C   UNL     1     -11.542  10.374  70.344  1.00  0.00    -0.423 A  
HETATM    8  C   UNL     1     -11.644   9.358  71.304  1.00  0.00    -0.434 A  
BRANCH   4   9
HETATM    9  C   UNL     1     -10.666   7.340  72.480  1.00  0.00    -0.301 A  
HETATM   10  C   UNL     1      -9.811   7.126  73.578  1.00  0.00    -0.322 A  
HETATM   11  C   UNL     1      -9.849   5.942  74.319  1.00  0.00    -0.230 A  
HETATM   12  C   UNL     1     -10.768   4.950  73.997  1.00  0.00    -0.354 A  
HETATM   13  C   UNL     1     -11.645   5.140  72.933  1.00  0.00    -0.282 A  
HETATM   14  C   UNL     1     -11.588   6.320  72.181  1.00  0.00    -0.367 A  
ENDBRANCH   4   9
ENDBRANCH   2   3
ENDBRANCH   1   2
BRANCH   1  15
HETATM   15  C   UNL     1     -11.508  11.607  66.214  1.00  0.00    -0.217 C  
HETATM   16  C   UNL     1     -12.364  12.783  64.204  1.00  0.00    -0.407 C  
HETATM   17  C   UNL     1     -10.527  11.144  63.916  1.00  0.00    -0.445 C  
HETATM   18  C   UNL     1     -11.126  12.187  64.851  1.00  0.00    -0.367 C  
HETATM   19  O   UNL     1     -13.147  12.165  63.496  1.00  0.00    -0.785 OA 
BRANCH  16  20
HETATM   20  O   UNL     1     -12.440  14.112  64.490  1.00  0.00    -0.602 OA 
BRANCH  20  21
HETATM   21  C   UNL     1     -11.215  14.710  64.935  1.00  0.00    -0.396 C  
HETATM   22  C   UNL     1     -11.274  16.189  64.594  1.00  0.00    -0.307 C  
ENDBRANCH  20  21
ENDBRANCH  16  20
ENDBRANCH   1  15
BRANCH   1  23
HETATM   23  N   UNL     1     -10.280   9.640  67.017  1.00  0.00    -0.230 N  
HETATM   24  C   UNL     1      -9.167   8.960  66.601  1.00  0.00    -0.170 C  
HETATM   25  H   UNL     1     -11.105   9.107  67.289  1.00  0.00     0.000 HD 
HETATM   26  O   UNL     1      -8.127   9.481  66.200  1.00  0.00    -0.109 OA 
BRANCH  24  27
HETATM   27  C   UNL     1      -9.328   7.466  66.511  1.00  0.00    -0.222 C  
BRANCH  27  28
HETATM   28  C   UNL     1     -10.628   7.069  67.183  1.00  0.00    -0.412 C  
HETATM   29  O   UNL     1     -11.586   6.140  69.159  1.00  0.00    -0.287 OA 
HETATM   30  C   UNL     1     -10.561   6.377  68.528  1.00  0.00    -0.252 C  
HETATM   31  O   UNL     1      -9.360   6.026  69.012  1.00  0.00    -0.124 OA 
ENDBRANCH  27  28
ENDBRANCH  24  27
ENDBRANCH   1  23
TORSDOF 9
ENDMDL
MODEL       41
REMARK 921   NORMALIZED FREE ENERGY PREDICTED BY IDOCK:   -6.20 KCAL/MOL
REMARK 922        TOTAL FREE ENERGY PREDICTED BY IDOCK:  -11.28 KCAL/MOL
REMARK 923 INTER-LIGAND FREE ENERGY PREDICTED BY IDOCK:   -9.19 KCAL/MOL
REMARK 924 INTRA-LIGAND FREE ENERGY PREDICTED BY IDOCK:   -2.09 KCAL/MOL
REMARK 927      BINDING AFFINITY PREDICTED BY RF-SCORE:    0.00 PKD
ROOT
HETATM    1  C   UNL     1     -11.070  15.033  68.191  1.00  0.00    -0.291 C  
ENDROOT
BRANCH   1   2
HETATM    2  C   UNL     1     -10.029  13.953  68.602  1.00  0.00    -0.189 C  
BRANCH   2   3
HETATM    3  C   UNL     1     -10.199  12.532  68.112  1.00  0.00    -0.231 A  
HETATM    4  C   UNL     1     -10.158   9.807  67.258  1.00  0.00    -0.261 A  
HETATM    5  C   UNL     1     -10.877  11.542  68.821  1.00  0.00    -0.258 A  
HETATM    6  C   UNL     1     -10.822  10.208  68.424  1.00  0.00    -0.284 A  
HETATM    7  C   UNL     1      -9.615  12.169  66.892  1.00  0.00    -0.210 A  
HETATM    8  C   UNL     1      -9.611  10.834  66.465  1.00  0.00    -0.217 A  
BRANCH   4   9
HETATM    9  C   UNL     1      -9.994   8.375  66.931  1.00  0.00    -0.341 A  
HETATM   10  C   UNL     1     -10.984   7.426  67.255  1.00  0.00    -0.234 A  
HETATM   11  C   UNL     1     -10.785   6.059  67.051  1.00  0.00    -0.412 A  
HETATM   12  C   UNL     1      -9.598   5.606  66.488  1.00  0.00    -0.171 A  
HETATM   13  C   UNL     1      -8.609   6.519  66.134  1.00  0.00    -0.146 A  
HETATM   14  C   UNL     1      -8.805   7.886  66.359  1.00  0.00    -0.184 A  
ENDBRANCH   4   9
ENDBRANCH   2   3
ENDBRANCH   1   2
BRANCH   1  15
HETATM   15  C   UNL     1     -12.366  15.067  69.038  1.00  0.00    -0.056 C  
HETATM   16  C   UNL     1     -13.551  14.785  71.198  1.00  0.00    -0.371 C  
HETATM   17  C   UNL     1     -11.421  16.052  71.181  1.00  0.00    -0.470 C  
HETATM   18  C   UNL     1     -12.184  14.896  70.546  1.00  0.00    -0.388 C  
HETATM   19  O   UNL     1     -14.216  15.733  71.590  1.00  0.00    -0.448 OA 
BRANCH  16  20
HETATM   20  O   UNL     1     -13.897  13.473  71.325  1.00  0.00    -0.051 OA 
BRANCH  20  21
HETATM   21  C   UNL     1     -12.927  12.649  71.986  1.00  0.00    -0.274 C  
HETATM   22  C   UNL     1     -13.224  11.206  71.620  1.00  0.00    -0.449 C  
ENDBRANCH  20  21
ENDBRANCH  16  20
ENDBRANCH   1  15
BRANCH   1  23
HETATM   23  N   UNL     1     -11.428  14.949  66.772  1.00  0.00    -0.333 N  
HETATM   24  C   UNL     1     -10.629  15.443  65.777  1.00  0.00    -0.348 C  
HETATM   25  H   UNL     1     -12.310  14.505  66.516  1.00  0.00     0.000 HD 
HETATM   26  O   UNL     1      -9.569  16.043  65.951  1.00  0.00    -0.316 OA 
BRANCH  24  27
HETATM   27  C   UNL     1     -11.203  15.345  64.389  1.00  0.00    -0.215 C  
BRANCH  27  28
HETATM   28  C   UNL     1     -12.410  14.428  64.419  1.00  0.00    -0.428 C  
HETATM   29  O   UNL     1     -13.163  12.198  64.035  1.00  0.00    -0.728 OA 
HETATM   30  C   UNL     1     -12.247  13.005  63.924  1.00  0.00    -0.437 C  
HETATM   31  O   UNL     1     -11.083  12.650  63.361  1.00  0.00    -0.450 OA 
ENDBRANCH  27  28
ENDBRANCH  24  27
ENDBRANCH   1  23
TORSDOF 9
ENDMDL
MODEL       42
REMARK 921   NORMALIZED FREE ENERGY PREDICTED BY IDOCK:   -6.19 KCAL/MOL
REMARK 922        TOTAL FREE ENERGY PREDICTED BY IDOCK:  -11.27 KCAL/MOL
REMARK 923 INTER-LIGAND FREE ENERGY PREDICTED BY IDOCK:   -9.51 KCAL/MOL
REMARK 924 INTRA-LIGAND FREE ENERGY PREDICTED BY IDOCK:   -1.76 KCAL/MOL
REMARK 927      BINDING AFFINITY PREDICTED BY RF-SCORE:    0.00 PKD
ROOT
HETATM    1  C   UNL     1     -11.902  11.795  69.647  1.00  0.00    -0.339 C  
ENDROOT
BRANCH   1   2
HETATM    2  C   UNL     1     -11.726  11.925  68.108  1.00  0.00    -0.388 C  
BRANCH   2   3
HETATM    3  C   UNL     1     -10.937  13.086  67.545  1.00  0.00    -0.282 A  
HETATM    4  C   UNL     1      -9.645  15.494  66.710  1.00  0.00    -0.251 A  
HETATM    5  C   UNL     1      -9.591  13.317  67.822  1.00  0.00    -0.214 A  
HETATM    6  C   UNL     1      -8.975  14.509  67.448  1.00  0.00    -0.207 A  
HETATM    7  C   UNL     1     -11.596  14.009  66.724  1.00  0.00    -0.406 A  
HETATM    8  C   UNL     1     -10.956  15.182  66.300  1.00  0.00    -0.335 A  
BRANCH   4   9
HETATM    9  C   UNL     1      -9.018  16.804  66.447  1.00  0.00    -0.325 A  
HETATM   10  C   UNL     1      -7.633  16.928  66.221  1.00  0.00    -0.312 A  
HETATM   11  C   UNL     1      -7.020  18.176  66.084  1.00  0.00    -0.314 A  
HETATM   12  C   UNL     1      -7.784  19.335  66.139  1.00  0.00    -0.304 A  
HETATM   13  C   UNL     1      -9.159  19.248  66.336  1.00  0.00    -0.381 A  
HETATM   14  C   UNL     1      -9.765  17.996  66.493  1.00  0.00    -0.338 A  
ENDBRANCH   4   9
ENDBRANCH   2   3
ENDBRANCH   1   2
BRANCH   1  15
HETATM   15  C   UNL     1     -11.724  13.105  70.454  1.00  0.00    -0.141 C  
HETATM   16  C   UNL     1     -12.670  15.006  71.736  1.00  0.00    -0.339 C  
HETATM   17  C   UNL     1     -13.489  12.722  72.241  1.00  0.00    -0.591 C  
HETATM   18  C   UNL     1     -12.979  13.644  71.140  1.00  0.00    -0.353 C  
HETATM   19  O   UNL     1     -12.222  15.190  72.858  1.00  0.00    -0.358 OA 
BRANCH  16  20
HETATM   20  O   UNL     1     -13.013  15.985  70.853  1.00  0.00    -0.406 OA 
BRANCH  20  21
HETATM   21  C   UNL     1     -12.273  15.983  69.624  1.00  0.00    -0.001 C  
HETATM   22  C   UNL     1     -10.872  16.483  69.930  1.00  0.00    -0.285 C  
ENDBRANCH  20  21
ENDBRANCH  16  20
ENDBRANCH   1  15
BRANCH   1  23
HETATM   23  N   UNL     1     -11.038  10.760  70.221  1.00  0.00    -0.454 N  
HETATM   24  C   UNL     1     -11.528   9.695  70.929  1.00  0.00    -0.353 C  
HETATM   25  H   UNL     1     -10.029  10.836  70.088  1.00  0.00     0.000 HD 
HETATM   26  O   UNL     1     -12.713   9.512  71.203  1.00  0.00    -0.317 OA 
BRANCH  24  27
HETATM   27  C   UNL     1     -10.483   8.784  71.516  1.00  0.00    -0.373 C  
BRANCH  27  28
HETATM   28  C   UNL     1     -10.174   7.683  70.520  1.00  0.00    -0.201 C  
HETATM   29  O   UNL     1     -10.875   5.557  69.697  1.00  0.00    -0.328 OA 
HETATM   30  C   UNL     1     -11.015   6.423  70.554  1.00  0.00    -0.306 C  
HETATM   31  O   UNL     1     -11.911   6.275  71.541  1.00  0.00    -0.306 OA 
ENDBRANCH  27  28
ENDBRANCH  24  27
ENDBRANCH   1  23
TORSDOF 9
ENDMDL
MODEL       43
REMARK 921   NORMALIZED FREE ENERGY PREDICTED BY IDOCK:   -6.18 KCAL/MOL
REMARK 922        TOTAL FREE ENERGY PREDICTED BY IDOCK:  -11.25 KCAL/MOL
REMARK 923 INTER-LIGAND FREE ENERGY PREDICTED BY IDOCK:   -9.04 KCAL/MOL
REMARK 924 INTRA-LIGAND FREE ENERGY PREDICTED BY IDOCK:   -2.21 KCAL/MOL
REMARK 927      BINDING AFFINITY PREDICTED BY RF-SCORE:    0.00 PKD
ROOT
HETATM    1  C   UNL     1     -11.541  11.009  69.487  1.00  0.00    -0.313 C  
ENDROOT
BRANCH   1   2
HETATM    2  C   UNL     1     -11.390  11.444  68.002  1.00  0.00    -0.372 C  
BRANCH   2   3
HETATM    3  C   UNL     1     -11.007  12.872  67.680  1.00  0.00    -0.274 A  
HETATM    4  C   UNL     1     -10.562  15.667  67.296  1.00  0.00    -0.305 A  
HETATM    5  C   UNL     1      -9.852  13.491  68.155  1.00  0.00    -0.237 A  
HETATM    6  C   UNL     1      -9.657  14.861  68.001  1.00  0.00    -0.207 A  
HETATM    7  C   UNL     1     -11.872  13.636  66.888  1.00  0.00    -0.451 A  
HETATM    8  C   UNL     1     -11.644  15.004  66.685  1.00  0.00    -0.201 A  
BRANCH   4   9
HETATM    9  C   UNL     1     -10.406  17.135  67.265  1.00  0.00    -0.320 A  
HETATM   10  C   UNL     1     -10.170  17.879  68.438  1.00  0.00    -0.398 A  
HETATM   11  C   UNL     1     -10.136  19.275  68.428  1.00  0.00    -0.518 A  
HETATM   12  C   UNL     1     -10.308  19.966  67.235  1.00  0.00    -0.574 A  
HETATM   13  C   UNL     1     -10.518  19.262  66.053  1.00  0.00    -0.573 A  
HETATM   14  C   UNL     1     -10.572  17.863  66.072  1.00  0.00    -0.235 A  
ENDBRANCH   4   9
ENDBRANCH   2   3
ENDBRANCH   1   2
BRANCH   1  15
HETATM   15  C   UNL     1     -11.881  12.143  70.484  1.00  0.00    -0.185 C  
HETATM   16  C   UNL     1     -13.492  13.325  71.954  1.00  0.00    -0.438 C  
HETATM   17  C   UNL     1     -13.396  10.851  72.063  1.00  0.00    -0.394 C  
HETATM   18  C   UNL     1     -13.256  12.061  71.147  1.00  0.00     0.051 C  
HETATM   19  O   UNL     1     -13.162  13.479  73.122  1.00  0.00    -0.442 OA 
BRANCH  16  20
HETATM   20  O   UNL     1     -14.167  14.236  71.199  1.00  0.00    -0.208 OA 
BRANCH  20  21
HETATM   21  C   UNL     1     -13.700  15.587  71.314  1.00  0.00    -0.395 C  
HETATM   22  C   UNL     1     -12.395  15.690  70.543  1.00  0.00    -0.443 C  
ENDBRANCH  20  21
ENDBRANCH  16  20
ENDBRANCH   1  15
BRANCH   1  23
HETATM   23  N   UNL     1     -10.368  10.279  69.975  1.00  0.00    -0.395 N  
HETATM   24  C   UNL     1     -10.431   8.983  70.413  1.00  0.00    -0.213 C  
HETATM   25  H   UNL     1      -9.467  10.756  69.991  1.00  0.00     0.000 HD 
HETATM   26  O   UNL     1     -11.459   8.313  70.493  1.00  0.00    -0.257 OA 
BRANCH  24  27
HETATM   27  C   UNL     1      -9.142   8.430  70.960  1.00  0.00    -0.201 C  
BRANCH  27  28
HETATM   28  C   UNL     1      -7.986   8.988  70.154  1.00  0.00    -0.115 C  
HETATM   29  O   UNL     1      -5.746   9.799  70.280  1.00  0.00    -0.040 OA 
HETATM   30  C   UNL     1      -6.747   9.447  70.895  1.00  0.00    -0.097 C  
HETATM   31  O   UNL     1      -6.768   9.464  72.237  1.00  0.00    -0.288 OA 
ENDBRANCH  27  28
ENDBRANCH  24  27
ENDBRANCH   1  23
TORSDOF 9
ENDMDL
MODEL       44
REMARK 921   NORMALIZED FREE ENERGY PREDICTED BY IDOCK:   -6.18 KCAL/MOL
REMARK 922        TOTAL FREE ENERGY PREDICTED BY IDOCK:  -11.24 KCAL/MOL
REMARK 923 INTER-LIGAND FREE ENERGY PREDICTED BY IDOCK:   -9.13 KCAL/MOL
REMARK 924 INTRA-LIGAND FREE ENERGY PREDICTED BY IDOCK:   -2.11 KCAL/MOL
REMARK 927      BINDING AFFINITY PREDICTED BY RF-SCORE:    0.00 PKD
ROOT
HETATM    1  C   UNL     1     -10.807  10.633  68.124  1.00  0.00    -0.245 C  
ENDROOT
BRANCH   1   2
HETATM    2  C   UNL     1     -10.799  10.936  69.649  1.00  0.00    -0.271 C  
BRANCH   2   3
HETATM    3  C   UNL     1     -10.542   9.812  70.629  1.00  0.00    -0.382 A  
HETATM    4  C   UNL     1     -10.252   7.476  72.247  1.00  0.00    -0.252 A  
HETATM    5  C   UNL     1      -9.299   9.209  70.810  1.00  0.00    -0.325 A  
HETATM    6  C   UNL     1      -9.168   8.047  71.568  1.00  0.00    -0.188 A  
HETATM    7  C   UNL     1     -11.617   9.317  71.378  1.00  0.00    -0.437 A  
HETATM    8  C   UNL     1     -11.470   8.181  72.186  1.00  0.00    -0.412 A  
BRANCH   4   9
HETATM    9  C   UNL     1     -10.120   6.171  72.927  1.00  0.00    -0.196 A  
HETATM   10  C   UNL     1     -11.230   5.328  73.130  1.00  0.00    -0.382 A  
HETATM   11  C   UNL     1     -11.131   4.148  73.872  1.00  0.00    -0.257 A  
HETATM   12  C   UNL     1      -9.907   3.765  74.406  1.00  0.00    -0.172 A  
HETATM   13  C   UNL     1      -8.784   4.562  74.203  1.00  0.00    -0.103 A  
HETATM   14  C   UNL     1      -8.894   5.754  73.477  1.00  0.00    -0.122 A  
ENDBRANCH   4   9
ENDBRANCH   2   3
ENDBRANCH   1   2
BRANCH   1  15
HETATM   15  C   UNL     1     -11.712  11.550  67.265  1.00  0.00    -0.193 C  
HETATM   16  C   UNL     1     -12.018  13.167  65.409  1.00  0.00    -0.406 C  
HETATM   17  C   UNL     1     -10.659  11.137  64.990  1.00  0.00    -0.340 C  
HETATM   18  C   UNL     1     -11.054  12.174  66.034  1.00  0.00    -0.354 C  
HETATM   19  O   UNL     1     -12.860  12.886  64.568  1.00  0.00    -0.697 OA 
BRANCH  16  20
HETATM   20  O   UNL     1     -11.770  14.417  65.889  1.00  0.00    -0.360 OA 
BRANCH  20  21
HETATM   21  C   UNL     1     -10.974  15.250  65.034  1.00  0.00    -0.437 C  
HETATM   22  C   UNL     1     -10.047  16.064  65.918  1.00  0.00    -0.378 C  
ENDBRANCH  20  21
ENDBRANCH  16  20
ENDBRANCH   1  15
BRANCH   1  23
HETATM   23  N   UNL     1     -11.135   9.234  67.836  1.00  0.00    -0.493 N  
HETATM   24  C   UNL     1     -10.210   8.335  67.378  1.00  0.00    -0.258 C  
HETATM   25  H   UNL     1     -12.094   8.916  67.983  1.00  0.00     0.000 HD 
HETATM   26  O   UNL     1      -9.038   8.599  67.112  1.00  0.00    -0.129 OA 
BRANCH  24  27
HETATM   27  C   UNL     1     -10.752   6.968  67.055  1.00  0.00    -0.423 C  
BRANCH  27  28
HETATM   28  C   UNL     1     -11.000   6.219  68.349  1.00  0.00    -0.409 C  
HETATM   29  O   UNL     1     -10.094   4.623  69.872  1.00  0.00    -0.236 OA 
HETATM   30  C   UNL     1      -9.993   5.172  68.780  1.00  0.00    -0.166 C  
HETATM   31  O   UNL     1      -8.994   4.858  67.943  1.00  0.00    -0.106 OA 
ENDBRANCH  27  28
ENDBRANCH  24  27
ENDBRANCH   1  23
TORSDOF 9
ENDMDL
MODEL       45
REMARK 921   NORMALIZED FREE ENERGY PREDICTED BY IDOCK:   -6.15 KCAL/MOL
REMARK 922        TOTAL FREE ENERGY PREDICTED BY IDOCK:  -11.21 KCAL/MOL
REMARK 923 INTER-LIGAND FREE ENERGY PREDICTED BY IDOCK:  -10.78 KCAL/MOL
REMARK 924 INTRA-LIGAND FREE ENERGY PREDICTED BY IDOCK:   -0.43 KCAL/MOL
REMARK 927      BINDING AFFINITY PREDICTED BY RF-SCORE:    0.00 PKD
ROOT
HETATM    1  C   UNL     1     -11.357  11.122  69.991  1.00  0.00    -0.243 C  
ENDROOT
BRANCH   1   2
HETATM    2  C   UNL     1     -11.194  11.418  68.473  1.00  0.00    -0.309 C  
BRANCH   2   3
HETATM    3  C   UNL     1     -10.855  12.821  68.021  1.00  0.00    -0.254 A  
HETATM    4  C   UNL     1     -10.445  15.587  67.434  1.00  0.00    -0.281 A  
HETATM    5  C   UNL     1      -9.621  13.431  68.241  1.00  0.00    -0.220 A  
HETATM    6  C   UNL     1      -9.437  14.789  67.991  1.00  0.00    -0.204 A  
HETATM    7  C   UNL     1     -11.842  13.574  67.372  1.00  0.00    -0.423 A  
HETATM    8  C   UNL     1     -11.634  14.926  67.068  1.00  0.00    -0.314 A  
BRANCH   4   9
HETATM    9  C   UNL     1     -10.274  17.048  67.307  1.00  0.00    -0.310 A  
HETATM   10  C   UNL     1     -10.029  17.863  68.430  1.00  0.00    -0.367 A  
HETATM   11  C   UNL     1      -9.980  19.256  68.330  1.00  0.00    -0.502 A  
HETATM   12  C   UNL     1     -10.146  19.870  67.094  1.00  0.00    -0.573 A  
HETATM   13  C   UNL     1     -10.365  19.093  65.961  1.00  0.00    -0.538 A  
HETATM   14  C   UNL     1     -10.433  17.699  66.070  1.00  0.00    -0.278 A  
ENDBRANCH   4   9
ENDBRANCH   2   3
ENDBRANCH   1   2
BRANCH   1  15
HETATM   15  C   UNL     1     -12.019   9.767  70.341  1.00  0.00    -0.218 C  
HETATM   16  C   UNL     1     -11.864   7.335  70.802  1.00  0.00    -0.288 C  
HETATM   17  C   UNL     1     -10.250   8.850  71.917  1.00  0.00    -0.403 C  
HETATM   18  C   UNL     1     -11.062   8.616  70.649  1.00  0.00    -0.282 C  
HETATM   19  O   UNL     1     -12.355   6.940  71.850  1.00  0.00    -0.331 OA 
BRANCH  16  20
HETATM   20  O   UNL     1     -11.908   6.673  69.612  1.00  0.00    -0.255 OA 
BRANCH  20  21
HETATM   21  C   UNL     1     -10.675   6.061  69.210  1.00  0.00    -0.332 C  
HETATM   22  C   UNL     1     -10.452   4.850  70.099  1.00  0.00    -0.144 C  
ENDBRANCH  20  21
ENDBRANCH  16  20
ENDBRANCH   1  15
BRANCH   1  23
HETATM   23  N   UNL     1     -12.065  12.196  70.694  1.00  0.00    -0.473 N  
HETATM   24  C   UNL     1     -12.962  11.956  71.700  1.00  0.00    -0.342 C  
HETATM   25  H   UNL     1     -11.883  13.162  70.422  1.00  0.00     0.000 HD 
HETATM   26  O   UNL     1     -13.309  10.841  72.089  1.00  0.00    -0.442 OA 
BRANCH  24  27
HETATM   27  C   UNL     1     -13.656  13.177  72.242  1.00  0.00    -0.677 C  
BRANCH  27  28
HETATM   28  C   UNL     1     -12.612  14.215  72.605  1.00  0.00    -0.272 C  
HETATM   29  O   UNL     1     -11.908  16.466  72.247  1.00  0.00    -0.534 OA 
HETATM   30  C   UNL     1     -12.659  15.558  71.905  1.00  0.00    -0.405 C  
HETATM   31  O   UNL     1     -13.535  15.732  70.904  1.00  0.00    -0.568 OA 
ENDBRANCH  27  28
ENDBRANCH  24  27
ENDBRANCH   1  23
TORSDOF 9
ENDMDL
MODEL       46
REMARK 921   NORMALIZED FREE ENERGY PREDICTED BY IDOCK:   -6.14 KCAL/MOL
REMARK 922        TOTAL FREE ENERGY PREDICTED BY IDOCK:  -11.19 KCAL/MOL
REMARK 923 INTER-LIGAND FREE ENERGY PREDICTED BY IDOCK:   -9.48 KCAL/MOL
REMARK 924 INTRA-LIGAND FREE ENERGY PREDICTED BY IDOCK:   -1.71 KCAL/MOL
REMARK 927      BINDING AFFINITY PREDICTED BY RF-SCORE:    0.00 PKD
ROOT
HETATM    1  C   UNL     1     -11.566  11.377  69.538  1.00  0.00    -0.331 C  
ENDROOT
BRANCH   1   2
HETATM    2  C   UNL     1     -12.332  10.812  70.767  1.00  0.00    -0.480 C  
BRANCH   2   3
HETATM    3  C   UNL     1     -11.957   9.454  71.318  1.00  0.00    -0.430 A  
HETATM    4  C   UNL     1     -11.310   6.761  72.017  1.00  0.00    -0.308 A  
HETATM    5  C   UNL     1     -10.658   9.091  71.670  1.00  0.00    -0.434 A  
HETATM    6  C   UNL     1     -10.338   7.770  71.972  1.00  0.00    -0.267 A  
HETATM    7  C   UNL     1     -12.959   8.486  71.455  1.00  0.00    -0.328 A  
HETATM    8  C   UNL     1     -12.643   7.169  71.816  1.00  0.00    -0.381 A  
BRANCH   4   9
HETATM    9  C   UNL     1     -10.929   5.346  72.202  1.00  0.00    -0.265 A  
HETATM   10  C   UNL     1     -11.362   4.603  73.317  1.00  0.00    -0.393 A  
HETATM   11  C   UNL     1     -10.912   3.302  73.553  1.00  0.00    -0.324 A  
HETATM   12  C   UNL     1     -10.036   2.697  72.660  1.00  0.00    -0.229 A  
HETATM   13  C   UNL     1      -9.607   3.394  71.534  1.00  0.00    -0.233 A  
HETATM   14  C   UNL     1     -10.046   4.705  71.313  1.00  0.00    -0.245 A  
ENDBRANCH   4   9
ENDBRANCH   2   3
ENDBRANCH   1   2
BRANCH   1  15
HETATM   15  C   UNL     1     -12.032  12.767  69.039  1.00  0.00    -0.288 C  
HETATM   16  C   UNL     1     -11.713  15.219  68.850  1.00  0.00    -0.342 C  
HETATM   17  C   UNL     1      -9.775  13.742  68.397  1.00  0.00    -0.219 C  
HETATM   18  C   UNL     1     -11.039  13.913  69.231  1.00  0.00    -0.261 C  
HETATM   19  O   UNL     1     -11.731  15.692  67.722  1.00  0.00    -0.221 OA 
BRANCH  16  20
HETATM   20  O   UNL     1     -12.247  15.804  69.958  1.00  0.00    -0.365 OA 
BRANCH  20  21
HETATM   21  C   UNL     1     -11.350  15.935  71.070  1.00  0.00    -0.389 C  
HETATM   22  C   UNL     1     -12.169  15.797  72.341  1.00  0.00    -0.568 C  
ENDBRANCH  20  21
ENDBRANCH  16  20
ENDBRANCH   1  15
BRANCH   1  23
HETATM   23  N   UNL     1     -11.560  10.442  68.409  1.00  0.00    -0.513 N  
HETATM   24  C   UNL     1     -10.420   9.829  67.961  1.00  0.00    -0.226 C  
HETATM   25  H   UNL     1     -12.441  10.240  67.936  1.00  0.00     0.000 HD 
HETATM   26  O   UNL     1      -9.290  10.022  68.407  1.00  0.00    -0.135 OA 
BRANCH  24  27
HETATM   27  C   UNL     1     -10.596   8.972  66.736  1.00  0.00    -0.201 C  
BRANCH  27  28
HETATM   28  C   UNL     1      -9.438   9.222  65.790  1.00  0.00    -0.329 C  
HETATM   29  O   UNL     1      -8.639  10.614  64.026  1.00  0.00    -0.168 OA 
HETATM   30  C   UNL     1      -9.587  10.301  64.737  1.00  0.00    -0.307 C  
HETATM   31  O   UNL     1     -10.778  10.903  64.597  1.00  0.00    -0.308 OA 
ENDBRANCH  27  28
ENDBRANCH  24  27
ENDBRANCH   1  23
TORSDOF 9
ENDMDL
MODEL       47
REMARK 921   NORMALIZED FREE ENERGY PREDICTED BY IDOCK:   -6.14 KCAL/MOL
REMARK 922        TOTAL FREE ENERGY PREDICTED BY IDOCK:  -11.18 KCAL/MOL
REMARK 923 INTER-LIGAND FREE ENERGY PREDICTED BY IDOCK:   -9.52 KCAL/MOL
REMARK 924 INTRA-LIGAND FREE ENERGY PREDICTED BY IDOCK:   -1.66 KCAL/MOL
REMARK 927      BINDING AFFINITY PREDICTED BY RF-SCORE:    0.00 PKD
ROOT
HETATM    1  C   UNL     1     -10.688  16.685  67.981  1.00  0.00    -0.350 C  
ENDROOT
BRANCH   1   2
HETATM    2  C   UNL     1     -10.945  15.710  66.797  1.00  0.00    -0.230 C  
BRANCH   2   3
HETATM    3  C   UNL     1     -10.629  14.240  66.962  1.00  0.00    -0.280 A  
HETATM    4  C   UNL     1     -10.183  11.419  66.939  1.00  0.00    -0.254 A  
HETATM    5  C   UNL     1      -9.340  13.713  66.911  1.00  0.00    -0.261 A  
HETATM    6  C   UNL     1      -9.128  12.337  66.860  1.00  0.00    -0.208 A  
HETATM    7  C   UNL     1     -11.688  13.342  67.143  1.00  0.00    -0.424 A  
HETATM    8  C   UNL     1     -11.467  11.958  67.150  1.00  0.00    -0.386 A  
BRANCH   4   9
HETATM    9  C   UNL     1      -9.949   9.973  66.743  1.00  0.00    -0.267 A  
HETATM   10  C   UNL     1     -10.505   9.010  67.607  1.00  0.00    -0.324 A  
HETATM   11  C   UNL     1     -10.194   7.654  67.493  1.00  0.00    -0.294 A  
HETATM   12  C   UNL     1      -9.338   7.219  66.488  1.00  0.00    -0.216 A  
HETATM   13  C   UNL     1      -8.791   8.141  65.601  1.00  0.00    -0.160 A  
HETATM   14  C   UNL     1      -9.090   9.502  65.733  1.00  0.00    -0.243 A  
ENDBRANCH   4   9
ENDBRANCH   2   3
ENDBRANCH   1   2
BRANCH   1  15
HETATM   15  C   UNL     1      -9.472  17.630  67.817  1.00  0.00    -0.260 C  
HETATM   16  C   UNL     1      -8.212  19.334  66.529  1.00  0.00    -0.309 C  
HETATM   17  C   UNL     1     -10.657  19.636  66.803  1.00  0.00    -0.602 C  
HETATM   18  C   UNL     1      -9.541  18.610  66.646  1.00  0.00    -0.347 C  
HETATM   19  O   UNL     1      -7.927  20.369  67.116  1.00  0.00    -0.325 OA 
BRANCH  16  20
HETATM   20  O   UNL     1      -7.409  18.687  65.639  1.00  0.00    -0.484 OA 
BRANCH  20  21
HETATM   21  C   UNL     1      -6.055  18.493  66.070  1.00  0.00    -0.187 C  
HETATM   22  C   UNL     1      -5.976  17.132  66.739  1.00  0.00    -0.235 C  
ENDBRANCH  20  21
ENDBRANCH  16  20
ENDBRANCH   1  15
BRANCH   1  23
HETATM   23  N   UNL     1     -10.579  15.985  69.264  1.00  0.00    -0.243 N  
HETATM   24  C   UNL     1     -11.665  15.702  70.048  1.00  0.00    -0.357 C  
HETATM   25  H   UNL     1      -9.655  15.697  69.588  1.00  0.00     0.000 HD 
HETATM   26  O   UNL     1     -12.823  16.036  69.800  1.00  0.00    -0.025 OA 
BRANCH  24  27
HETATM   27  C   UNL     1     -11.348  15.057  71.371  1.00  0.00    -0.327 C  
BRANCH  27  28
HETATM   28  C   UNL     1     -12.642  14.805  72.119  1.00  0.00    -0.410 C  
HETATM   29  O   UNL     1     -14.279  13.159  72.665  1.00  0.00    -0.677 OA 
HETATM   30  C   UNL     1     -13.296  13.445  71.991  1.00  0.00    -0.479 C  
HETATM   31  O   UNL     1     -12.778  12.562  71.123  1.00  0.00    -0.354 OA 
ENDBRANCH  27  28
ENDBRANCH  24  27
ENDBRANCH   1  23
TORSDOF 9
ENDMDL
MODEL       48
REMARK 921   NORMALIZED FREE ENERGY PREDICTED BY IDOCK:   -6.11 KCAL/MOL
REMARK 922        TOTAL FREE ENERGY PREDICTED BY IDOCK:  -11.14 KCAL/MOL
REMARK 923 INTER-LIGAND FREE ENERGY PREDICTED BY IDOCK:   -9.21 KCAL/MOL
REMARK 924 INTRA-LIGAND FREE ENERGY PREDICTED BY IDOCK:   -1.94 KCAL/MOL
REMARK 927      BINDING AFFINITY PREDICTED BY RF-SCORE:    0.00 PKD
ROOT
HETATM    1  C   UNL     1     -11.304  11.044  69.321  1.00  0.00    -0.282 C  
ENDROOT
BRANCH   1   2
HETATM    2  C   UNL     1     -11.945  10.638  70.678  1.00  0.00    -0.466 C  
BRANCH   2   3
HETATM    3  C   UNL     1     -11.634   9.281  71.271  1.00  0.00    -0.419 A  
HETATM    4  C   UNL     1     -11.092   6.586  72.047  1.00  0.00    -0.296 A  
HETATM    5  C   UNL     1     -10.366   8.895  71.702  1.00  0.00    -0.416 A  
HETATM    6  C   UNL     1     -10.095   7.571  72.042  1.00  0.00    -0.225 A  
HETATM    7  C   UNL     1     -12.665   8.338  71.365  1.00  0.00    -0.279 A  
HETATM    8  C   UNL     1     -12.401   7.020  71.763  1.00  0.00    -0.391 A  
BRANCH   4   9
HETATM    9  C   UNL     1     -10.755   5.166  72.275  1.00  0.00    -0.266 A  
HETATM   10  C   UNL     1     -10.008   4.424  71.338  1.00  0.00    -0.248 A  
HETATM   11  C   UNL     1      -9.785   3.055  71.496  1.00  0.00    -0.223 A  
HETATM   12  C   UNL     1     -10.278   2.395  72.615  1.00  0.00    -0.233 A  
HETATM   13  C   UNL     1     -10.999   3.102  73.573  1.00  0.00    -0.323 A  
HETATM   14  C   UNL     1     -11.238   4.471  73.399  1.00  0.00    -0.404 A  
ENDBRANCH   4   9
ENDBRANCH   2   3
ENDBRANCH   1   2
BRANCH   1  15
HETATM   15  C   UNL     1     -11.839  12.355  68.695  1.00  0.00    -0.348 C  
HETATM   16  C   UNL     1     -11.574  14.759  68.144  1.00  0.00    -0.332 C  
HETATM   17  C   UNL     1      -9.678  13.231  67.685  1.00  0.00    -0.219 C  
HETATM   18  C   UNL     1     -10.846  13.515  68.621  1.00  0.00    -0.281 C  
HETATM   19  O   UNL     1     -11.721  15.075  66.972  1.00  0.00    -0.309 OA 
BRANCH  16  20
HETATM   20  O   UNL     1     -11.993  15.489  69.215  1.00  0.00    -0.342 OA 
BRANCH  20  21
HETATM   21  C   UNL     1     -10.989  15.743  70.208  1.00  0.00    -0.357 C  
HETATM   22  C   UNL     1     -11.700  15.999  71.525  1.00  0.00    -0.554 C  
ENDBRANCH  20  21
ENDBRANCH  16  20
ENDBRANCH   1  15
BRANCH   1  23
HETATM   23  N   UNL     1     -11.382   9.972  68.325  1.00  0.00    -0.531 N  
HETATM   24  C   UNL     1     -10.290   9.245  67.934  1.00  0.00    -0.227 C  
HETATM   25  H   UNL     1     -12.287   9.760  67.905  1.00  0.00     0.000 HD 
HETATM   26  O   UNL     1      -9.138   9.431  68.322  1.00  0.00    -0.128 OA 
BRANCH  24  27
HETATM   27  C   UNL     1     -10.548   8.246  66.837  1.00  0.00    -0.302 C  
BRANCH  27  28
HETATM   28  C   UNL     1     -10.819   6.890  67.458  1.00  0.00    -0.363 C  
HETATM   29  O   UNL     1      -9.992   4.667  67.701  1.00  0.00    -0.160 OA 
HETATM   30  C   UNL     1      -9.878   5.748  67.134  1.00  0.00    -0.146 C  
HETATM   31  O   UNL     1      -8.921   5.944  66.214  1.00  0.00    -0.139 OA 
ENDBRANCH  27  28
ENDBRANCH  24  27
ENDBRANCH   1  23
TORSDOF 9
ENDMDL
MODEL       49
REMARK 921   NORMALIZED FREE ENERGY PREDICTED BY IDOCK:   -6.08 KCAL/MOL
REMARK 922        TOTAL FREE ENERGY PREDICTED BY IDOCK:  -11.10 KCAL/MOL
REMARK 923 INTER-LIGAND FREE ENERGY PREDICTED BY IDOCK:   -8.92 KCAL/MOL
REMARK 924 INTRA-LIGAND FREE ENERGY PREDICTED BY IDOCK:   -2.19 KCAL/MOL
REMARK 927      BINDING AFFINITY PREDICTED BY RF-SCORE:    0.00 PKD
ROOT
HETATM    1  C   UNL     1     -10.761  15.242  68.135  1.00  0.00    -0.257 C  
ENDROOT
BRANCH   1   2
HETATM    2  C   UNL     1     -10.434  14.016  67.237  1.00  0.00    -0.268 C  
BRANCH   2   3
HETATM    3  C   UNL     1     -10.472  12.626  67.834  1.00  0.00    -0.225 A  
HETATM    4  C   UNL     1     -10.507  10.168  69.290  1.00  0.00    -0.246 A  
HETATM    5  C   UNL     1     -11.618  11.835  67.889  1.00  0.00    -0.377 A  
HETATM    6  C   UNL     1     -11.644  10.658  68.632  1.00  0.00    -0.297 A  
HETATM    7  C   UNL     1      -9.300  12.106  68.398  1.00  0.00    -0.170 A  
HETATM    8  C   UNL     1      -9.314  10.892  69.097  1.00  0.00    -0.096 A  
BRANCH   4   9
HETATM    9  C   UNL     1     -10.593   8.995  70.184  1.00  0.00    -0.250 A  
HETATM   10  C   UNL     1     -11.152   7.777  69.752  1.00  0.00    -0.095 A  
HETATM   11  C   UNL     1     -11.338   6.703  70.626  1.00  0.00    -0.401 A  
HETATM   12  C   UNL     1     -10.940   6.811  71.954  1.00  0.00    -0.270 A  
HETATM   13  C   UNL     1     -10.361   7.993  72.407  1.00  0.00    -0.355 A  
HETATM   14  C   UNL     1     -10.196   9.073  71.532  1.00  0.00    -0.414 A  
ENDBRANCH   4   9
ENDBRANCH   2   3
ENDBRANCH   1   2
BRANCH   1  15
HETATM   15  C   UNL     1     -12.092  15.158  68.923  1.00  0.00    -0.227 C  
HETATM   16  C   UNL     1     -13.349  14.689  71.009  1.00  0.00    -0.355 C  
HETATM   17  C   UNL     1     -11.295  16.069  71.157  1.00  0.00    -0.413 C  
HETATM   18  C   UNL     1     -11.965  14.912  70.426  1.00  0.00    -0.368 C  
HETATM   19  O   UNL     1     -14.083  15.576  71.421  1.00  0.00    -0.523 OA 
BRANCH  16  20
HETATM   20  O   UNL     1     -13.625  13.356  71.048  1.00  0.00     0.033 OA 
BRANCH  20  21
HETATM   21  C   UNL     1     -12.745  12.576  71.869  1.00  0.00    -0.087 C  
HETATM   22  C   UNL     1     -13.216  11.134  71.807  1.00  0.00    -0.486 C  
ENDBRANCH  20  21
ENDBRANCH  16  20
ENDBRANCH   1  15
BRANCH   1  23
HETATM   23  N   UNL     1     -10.726  16.503  67.389  1.00  0.00    -0.296 N  
HETATM   24  C   UNL     1      -9.984  17.581  67.792  1.00  0.00    -0.312 C  
HETATM   25  H   UNL     1     -11.278  16.582  66.535  1.00  0.00     0.000 HD 
HETATM   26  O   UNL     1      -9.317  17.636  68.823  1.00  0.00    -0.276 OA 
BRANCH  24  27
HETATM   27  C   UNL     1     -10.143  18.817  66.947  1.00  0.00    -0.398 C  
BRANCH  27  28
HETATM   28  C   UNL     1      -9.309  19.933  67.545  1.00  0.00    -0.465 C  
HETATM   29  O   UNL     1      -7.309  21.209  67.297  1.00  0.00    -0.430 OA 
HETATM   30  C   UNL     1      -7.965  20.244  66.919  1.00  0.00    -0.304 C  
HETATM   31  O   UNL     1      -7.507  19.441  65.947  1.00  0.00    -0.286 OA 
ENDBRANCH  27  28
ENDBRANCH  24  27
ENDBRANCH   1  23
TORSDOF 9
ENDMDL
MODEL       50
REMARK 921   NORMALIZED FREE ENERGY PREDICTED BY IDOCK:   -6.07 KCAL/MOL
REMARK 922        TOTAL FREE ENERGY PREDICTED BY IDOCK:  -11.09 KCAL/MOL
REMARK 923 INTER-LIGAND FREE ENERGY PREDICTED BY IDOCK:  -10.18 KCAL/MOL
REMARK 924 INTRA-LIGAND FREE ENERGY PREDICTED BY IDOCK:   -0.91 KCAL/MOL
REMARK 927      BINDING AFFINITY PREDICTED BY RF-SCORE:    0.00 PKD
ROOT
HETATM    1  C   UNL     1     -11.053  10.666  68.896  1.00  0.00    -0.261 C  
ENDROOT
BRANCH   1   2
HETATM    2  C   UNL     1     -11.713  11.565  67.813  1.00  0.00    -0.299 C  
BRANCH   2   3
HETATM    3  C   UNL     1     -11.194  12.970  67.597  1.00  0.00    -0.315 A  
HETATM    4  C   UNL     1     -10.550  15.737  67.300  1.00  0.00    -0.313 A  
HETATM    5  C   UNL     1     -10.249  13.584  68.417  1.00  0.00    -0.245 A  
HETATM    6  C   UNL     1      -9.967  14.942  68.296  1.00  0.00    -0.222 A  
HETATM    7  C   UNL     1     -11.712  13.720  66.534  1.00  0.00    -0.412 A  
HETATM    8  C   UNL     1     -11.382  15.073  66.378  1.00  0.00    -0.275 A  
BRANCH   4   9
HETATM    9  C   UNL     1     -10.343  17.199  67.278  1.00  0.00    -0.320 A  
HETATM   10  C   UNL     1     -10.100  17.929  68.458  1.00  0.00    -0.392 A  
HETATM   11  C   UNL     1     -10.017  19.324  68.455  1.00  0.00    -0.513 A  
HETATM   12  C   UNL     1     -10.145  20.025  67.262  1.00  0.00    -0.577 A  
HETATM   13  C   UNL     1     -10.361  19.333  66.074  1.00  0.00    -0.556 A  
HETATM   14  C   UNL     1     -10.464  17.937  66.086  1.00  0.00    -0.321 A  
ENDBRANCH   4   9
ENDBRANCH   2   3
ENDBRANCH   1   2
BRANCH   1  15
HETATM   15  C   UNL     1     -10.327   9.405  68.367  1.00  0.00    -0.238 C  
HETATM   16  C   UNL     1      -9.982   7.675  66.623  1.00  0.00    -0.214 C  
HETATM   17  C   UNL     1     -10.147  10.044  65.914  1.00  0.00    -0.319 C  
HETATM   18  C   UNL     1     -10.637   9.012  66.922  1.00  0.00    -0.243 C  
HETATM   19  O   UNL     1      -8.842   7.535  66.204  1.00  0.00    -0.152 OA 
BRANCH  16  20
HETATM   20  O   UNL     1     -10.871   6.666  66.844  1.00  0.00    -0.341 OA 
BRANCH  20  21
HETATM   21  C   UNL     1     -10.351   5.548  67.578  1.00  0.00    -0.214 C  
HETATM   22  C   UNL     1     -10.735   5.737  69.035  1.00  0.00    -0.354 C  
ENDBRANCH  20  21
ENDBRANCH  16  20
ENDBRANCH   1  15
BRANCH   1  23
HETATM   23  N   UNL     1     -12.001  10.267  69.941  1.00  0.00    -0.448 N  
HETATM   24  C   UNL     1     -12.519  11.153  70.847  1.00  0.00    -0.409 C  
HETATM   25  H   UNL     1     -12.286   9.289  69.996  1.00  0.00     0.000 HD 
HETATM   26  O   UNL     1     -12.222  12.344  70.923  1.00  0.00    -0.355 OA 
BRANCH  24  27
HETATM   27  C   UNL     1     -13.408  10.544  71.899  1.00  0.00    -0.461 C  
BRANCH  27  28
HETATM   28  C   UNL     1     -13.742   9.121  71.498  1.00  0.00    -0.389 C  
HETATM   29  O   UNL     1     -13.113   6.834  71.752  1.00  0.00    -0.336 OA 
HETATM   30  C   UNL     1     -12.822   8.008  71.956  1.00  0.00    -0.287 C  
HETATM   31  O   UNL     1     -11.682   8.333  72.585  1.00  0.00    -0.403 OA 
ENDBRANCH  27  28
ENDBRANCH  24  27
ENDBRANCH   1  23
TORSDOF 9
ENDMDL
MODEL       51
REMARK 921   NORMALIZED FREE ENERGY PREDICTED BY IDOCK:   -6.07 KCAL/MOL
REMARK 922        TOTAL FREE ENERGY PREDICTED BY IDOCK:  -11.09 KCAL/MOL
REMARK 923 INTER-LIGAND FREE ENERGY PREDICTED BY IDOCK:   -8.95 KCAL/MOL
REMARK 924 INTRA-LIGAND FREE ENERGY PREDICTED BY IDOCK:   -2.14 KCAL/MOL
REMARK 927      BINDING AFFINITY PREDICTED BY RF-SCORE:    0.00 PKD
ROOT
HETATM    1  C   UNL     1     -11.072  11.408  69.093  1.00  0.00    -0.258 C  
ENDROOT
BRANCH   1   2
HETATM    2  C   UNL     1      -9.639  10.917  68.743  1.00  0.00    -0.195 C  
BRANCH   2   3
HETATM    3  C   UNL     1      -9.443   9.516  68.207  1.00  0.00    -0.143 A  
HETATM    4  C   UNL     1      -9.249   6.755  67.501  1.00  0.00    -0.122 A  
HETATM    5  C   UNL     1     -10.131   9.001  67.110  1.00  0.00    -0.309 A  
HETATM    6  C   UNL     1     -10.065   7.647  66.792  1.00  0.00    -0.325 A  
HETATM    7  C   UNL     1      -8.546   8.666  68.865  1.00  0.00    -0.130 A  
HETATM    8  C   UNL     1      -8.438   7.315  68.507  1.00  0.00    -0.125 A  
BRANCH   4   9
HETATM    9  C   UNL     1      -9.302   5.303  67.236  1.00  0.00    -0.123 A  
HETATM   10  C   UNL     1      -9.596   4.376  68.256  1.00  0.00    -0.199 A  
HETATM   11  C   UNL     1      -9.535   2.998  68.036  1.00  0.00    -0.217 A  
HETATM   12  C   UNL     1      -9.207   2.509  66.777  1.00  0.00    -0.088 A  
HETATM   13  C   UNL     1      -8.935   3.397  65.740  1.00  0.00    -0.143 A  
HETATM   14  C   UNL     1      -8.977   4.777  65.972  1.00  0.00    -0.126 A  
ENDBRANCH   4   9
ENDBRANCH   2   3
ENDBRANCH   1   2
BRANCH   1  15
HETATM   15  C   UNL     1     -12.006  10.347  69.724  1.00  0.00    -0.242 C  
HETATM   16  C   UNL     1     -13.012   9.253  71.710  1.00  0.00    -0.396 C  
HETATM   17  C   UNL     1     -12.950  11.730  71.636  1.00  0.00    -0.467 C  
HETATM   18  C   UNL     1     -12.217  10.456  71.234  1.00  0.00    -0.491 C  
HETATM   19  O   UNL     1     -14.233   9.195  71.748  1.00  0.00    -0.289 OA 
BRANCH  16  20
HETATM   20  O   UNL     1     -12.163   8.275  72.132  1.00  0.00    -0.325 OA 
BRANCH  20  21
HETATM   21  C   UNL     1     -12.474   6.956  71.663  1.00  0.00    -0.375 C  
HETATM   22  C   UNL     1     -11.604   6.682  70.449  1.00  0.00    -0.457 C  
ENDBRANCH  20  21
ENDBRANCH  16  20
ENDBRANCH   1  15
BRANCH   1  23
HETATM   23  N   UNL     1     -11.748  12.017  67.943  1.00  0.00    -0.339 N  
HETATM   24  C   UNL     1     -11.623  13.343  67.628  1.00  0.00    -0.340 C  
HETATM   25  H   UNL     1     -12.336  11.428  67.353  1.00  0.00     0.000 HD 
HETATM   26  O   UNL     1     -10.988  14.170  68.282  1.00  0.00    -0.239 OA 
BRANCH  24  27
HETATM   27  C   UNL     1     -12.461  13.805  66.466  1.00  0.00    -0.356 C  
BRANCH  27  28
HETATM   28  C   UNL     1     -12.301  12.823  65.322  1.00  0.00    -0.546 C  
HETATM   29  O   UNL     1     -12.025  12.621  62.962  1.00  0.00    -0.375 OA 
HETATM   30  C   UNL     1     -12.265  13.364  63.907  1.00  0.00    -0.415 C  
HETATM   31  O   UNL     1     -12.505  14.669  63.711  1.00  0.00    -0.799 OA 
ENDBRANCH  27  28
ENDBRANCH  24  27
ENDBRANCH   1  23
TORSDOF 9
ENDMDL
MODEL       52
REMARK 921   NORMALIZED FREE ENERGY PREDICTED BY IDOCK:   -6.07 KCAL/MOL
REMARK 922        TOTAL FREE ENERGY PREDICTED BY IDOCK:  -11.09 KCAL/MOL
REMARK 923 INTER-LIGAND FREE ENERGY PREDICTED BY IDOCK:   -9.60 KCAL/MOL
REMARK 924 INTRA-LIGAND FREE ENERGY PREDICTED BY IDOCK:   -1.49 KCAL/MOL
REMARK 927      BINDING AFFINITY PREDICTED BY RF-SCORE:    0.00 PKD
ROOT
HETATM    1  C   UNL     1     -10.293  16.535  69.109  1.00  0.00    -0.316 C  
ENDROOT
BRANCH   1   2
HETATM    2  C   UNL     1     -11.765  16.036  69.087  1.00  0.00    -0.310 C  
BRANCH   2   3
HETATM    3  C   UNL     1     -12.085  14.642  69.582  1.00  0.00    -0.355 A  
HETATM    4  C   UNL     1     -12.322  11.957  70.527  1.00  0.00    -0.372 A  
HETATM    5  C   UNL     1     -12.582  14.366  70.854  1.00  0.00    -0.422 A  
HETATM    6  C   UNL     1     -12.659  13.058  71.326  1.00  0.00    -0.373 A  
HETATM    7  C   UNL     1     -11.838  13.556  68.733  1.00  0.00    -0.390 A  
HETATM    8  C   UNL     1     -11.972  12.238  69.192  1.00  0.00    -0.303 A  
BRANCH   4   9
HETATM    9  C   UNL     1     -12.278  10.593  71.092  1.00  0.00    -0.479 A  
HETATM   10  C   UNL     1     -13.362  10.058  71.815  1.00  0.00    -0.492 A  
HETATM   11  C   UNL     1     -13.282   8.815  72.447  1.00  0.00    -0.441 A  
HETATM   12  C   UNL     1     -12.121   8.058  72.345  1.00  0.00    -0.374 A  
HETATM   13  C   UNL     1     -11.039   8.546  71.617  1.00  0.00    -0.360 A  
HETATM   14  C   UNL     1     -11.118   9.802  71.003  1.00  0.00    -0.431 A  
ENDBRANCH   4   9
ENDBRANCH   2   3
ENDBRANCH   1   2
BRANCH   1  15
HETATM   15  C   UNL     1     -10.097  18.050  68.852  1.00  0.00    -0.352 C  
HETATM   16  C   UNL     1      -9.096  19.917  67.562  1.00  0.00    -0.340 C  
HETATM   17  C   UNL     1     -10.111  18.033  66.311  1.00  0.00    -0.363 C  
HETATM   18  C   UNL     1      -9.347  18.419  67.572  1.00  0.00    -0.270 C  
HETATM   19  O   UNL     1      -9.869  20.751  67.110  1.00  0.00    -0.463 OA 
BRANCH  16  20
HETATM   20  O   UNL     1      -7.866  20.183  68.083  1.00  0.00    -0.264 OA 
BRANCH  20  21
HETATM   21  C   UNL     1      -6.946  20.812  67.181  1.00  0.00    -0.348 C  
HETATM   22  C   UNL     1      -5.711  19.932  67.096  1.00  0.00    -0.180 C  
ENDBRANCH  20  21
ENDBRANCH  16  20
ENDBRANCH   1  15
BRANCH   1  23
HETATM   23  N   UNL     1      -9.435  15.781  68.190  1.00  0.00    -0.198 N  
HETATM   24  C   UNL     1      -8.355  15.054  68.615  1.00  0.00    -0.166 C  
HETATM   25  H   UNL     1      -9.651  15.798  67.193  1.00  0.00     0.000 HD 
HETATM   26  O   UNL     1      -7.957  14.990  69.777  1.00  0.00    -0.156 OA 
BRANCH  24  27
HETATM   27  C   UNL     1      -7.542  14.419  67.518  1.00  0.00    -0.212 C  
BRANCH  27  28
HETATM   28  C   UNL     1      -7.976  12.975  67.357  1.00  0.00    -0.173 C  
HETATM   29  O   UNL     1      -9.481  11.517  66.217  1.00  0.00    -0.204 OA 
HETATM   30  C   UNL     1      -9.165  12.676  66.466  1.00  0.00    -0.200 C  
HETATM   31  O   UNL     1      -9.864  13.702  65.960  1.00  0.00    -0.295 OA 
ENDBRANCH  27  28
ENDBRANCH  24  27
ENDBRANCH   1  23
TORSDOF 9
ENDMDL
MODEL       53
REMARK 921   NORMALIZED FREE ENERGY PREDICTED BY IDOCK:   -6.07 KCAL/MOL
REMARK 922        TOTAL FREE ENERGY PREDICTED BY IDOCK:  -11.08 KCAL/MOL
REMARK 923 INTER-LIGAND FREE ENERGY PREDICTED BY IDOCK:   -9.45 KCAL/MOL
REMARK 924 INTRA-LIGAND FREE ENERGY PREDICTED BY IDOCK:   -1.63 KCAL/MOL
REMARK 927      BINDING AFFINITY PREDICTED BY RF-SCORE:    0.00 PKD
ROOT
HETATM    1  C   UNL     1     -11.095  15.684  67.665  1.00  0.00    -0.305 C  
ENDROOT
BRANCH   1   2
HETATM    2  C   UNL     1      -9.824  14.913  67.210  1.00  0.00    -0.229 C  
BRANCH   2   3
HETATM    3  C   UNL     1      -9.826  13.400  67.227  1.00  0.00    -0.233 A  
HETATM    4  C   UNL     1     -10.008  10.572  67.584  1.00  0.00    -0.202 A  
HETATM    5  C   UNL     1     -10.613  12.615  66.386  1.00  0.00    -0.272 A  
HETATM    6  C   UNL     1     -10.730  11.242  66.587  1.00  0.00    -0.321 A  
HETATM    7  C   UNL     1      -9.021  12.739  68.163  1.00  0.00    -0.199 A  
HETATM    8  C   UNL     1      -9.097  11.349  68.325  1.00  0.00    -0.179 A  
BRANCH   4   9
HETATM    9  C   UNL     1     -10.254   9.143  67.868  1.00  0.00    -0.266 A  
HETATM   10  C   UNL     1     -10.495   8.215  66.837  1.00  0.00    -0.379 A  
HETATM   11  C   UNL     1     -10.839   6.888  67.107  1.00  0.00    -0.447 A  
HETATM   12  C   UNL     1     -10.921   6.446  68.423  1.00  0.00    -0.390 A  
HETATM   13  C   UNL     1     -10.664   7.331  69.466  1.00  0.00    -0.244 A  
HETATM   14  C   UNL     1     -10.340   8.665  69.189  1.00  0.00    -0.227 A  
ENDBRANCH   4   9
ENDBRANCH   2   3
ENDBRANCH   1   2
BRANCH   1  15
HETATM   15  C   UNL     1     -10.844  17.083  68.280  1.00  0.00    -0.341 C  
HETATM   16  C   UNL     1      -9.660  19.262  68.294  1.00  0.00    -0.371 C  
HETATM   17  C   UNL     1     -10.542  18.415  66.138  1.00  0.00    -0.346 C  
HETATM   18  C   UNL     1      -9.935  18.013  67.477  1.00  0.00    -0.330 C  
HETATM   19  O   UNL     1     -10.357  20.267  68.287  1.00  0.00    -0.365 OA 
BRANCH  16  20
HETATM   20  O   UNL     1      -8.501  19.111  68.993  1.00  0.00    -0.311 OA 
BRANCH  20  21
HETATM   21  C   UNL     1      -7.430  18.490  68.269  1.00  0.00    -0.281 C  
HETATM   22  C   UNL     1      -6.619  17.672  69.258  1.00  0.00    -0.233 C  
ENDBRANCH  20  21
ENDBRANCH  16  20
ENDBRANCH   1  15
BRANCH   1  23
HETATM   23  N   UNL     1     -11.923  14.899  68.586  1.00  0.00    -0.525 N  
HETATM   24  C   UNL     1     -11.588  14.705  69.900  1.00  0.00    -0.285 C  
HETATM   25  H   UNL     1     -12.783  14.479  68.234  1.00  0.00     0.000 HD 
HETATM   26  O   UNL     1     -10.559  15.111  70.436  1.00  0.00    -0.235 OA 
BRANCH  24  27
HETATM   27  C   UNL     1     -12.514  13.798  70.667  1.00  0.00    -0.429 C  
BRANCH  27  28
HETATM   28  C   UNL     1     -12.142  12.357  70.378  1.00  0.00    -0.381 C  
HETATM   29  O   UNL     1     -12.568  10.087  70.974  1.00  0.00    -0.326 OA 
HETATM   30  C   UNL     1     -12.750  11.270  71.241  1.00  0.00    -0.405 C  
HETATM   31  O   UNL     1     -13.487  11.628  72.303  1.00  0.00    -0.397 OA 
ENDBRANCH  27  28
ENDBRANCH  24  27
ENDBRANCH   1  23
TORSDOF 9
ENDMDL
MODEL       54
REMARK 921   NORMALIZED FREE ENERGY PREDICTED BY IDOCK:   -6.01 KCAL/MOL
REMARK 922        TOTAL FREE ENERGY PREDICTED BY IDOCK:  -11.00 KCAL/MOL
REMARK 923 INTER-LIGAND FREE ENERGY PREDICTED BY IDOCK:   -9.67 KCAL/MOL
REMARK 924 INTRA-LIGAND FREE ENERGY PREDICTED BY IDOCK:   -1.32 KCAL/MOL
REMARK 927      BINDING AFFINITY PREDICTED BY RF-SCORE:    0.00 PKD
ROOT
HETATM    1  C   UNL     1     -11.201  10.599  67.790  1.00  0.00    -0.313 C  
ENDROOT
BRANCH   1   2
HETATM    2  C   UNL     1     -11.493  11.820  68.706  1.00  0.00    -0.350 C  
BRANCH   2   3
HETATM    3  C   UNL     1     -11.135  13.210  68.230  1.00  0.00    -0.295 A  
HETATM    4  C   UNL     1     -10.698  15.958  67.584  1.00  0.00    -0.312 A  
HETATM    5  C   UNL     1      -9.910  13.825  68.481  1.00  0.00    -0.204 A  
HETATM    6  C   UNL     1      -9.713  15.176  68.202  1.00  0.00    -0.217 A  
HETATM    7  C   UNL     1     -12.094  13.945  67.523  1.00  0.00    -0.366 A  
HETATM    8  C   UNL     1     -11.872  15.288  67.190  1.00  0.00     0.054 A  
BRANCH   4   9
HETATM    9  C   UNL     1     -10.520  17.416  67.424  1.00  0.00    -0.336 A  
HETATM   10  C   UNL     1     -10.603  18.037  66.163  1.00  0.00    -0.269 A  
HETATM   11  C   UNL     1     -10.324  19.395  65.992  1.00  0.00    -0.584 A  
HETATM   12  C   UNL     1      -9.982  20.177  67.089  1.00  0.00    -0.595 A  
HETATM   13  C   UNL     1      -9.915  19.600  68.354  1.00  0.00    -0.543 A  
HETATM   14  C   UNL     1     -10.176  18.234  68.516  1.00  0.00    -0.402 A  
ENDBRANCH   4   9
ENDBRANCH   2   3
ENDBRANCH   1   2
BRANCH   1  15
HETATM   15  C   UNL     1      -9.938   9.779  68.151  1.00  0.00    -0.179 C  
HETATM   16  C   UNL     1      -8.850   7.640  68.780  1.00  0.00    -0.131 C  
HETATM   17  C   UNL     1     -10.493   7.623  66.925  1.00  0.00    -0.388 C  
HETATM   18  C   UNL     1     -10.131   8.266  68.258  1.00  0.00    -0.231 C  
HETATM   19  O   UNL     1      -7.919   7.268  68.079  1.00  0.00    -0.116 OA 
BRANCH  16  20
HETATM   20  O   UNL     1      -8.917   7.512  70.135  1.00  0.00    -0.146 OA 
BRANCH  20  21
HETATM   21  C   UNL     1     -10.092   6.853  70.626  1.00  0.00    -0.194 C  
HETATM   22  C   UNL     1      -9.878   5.358  70.473  1.00  0.00    -0.267 C  
ENDBRANCH  20  21
ENDBRANCH  16  20
ENDBRANCH   1  15
BRANCH   1  23
HETATM   23  N   UNL     1     -11.141  10.968  66.372  1.00  0.00    -0.145 N  
HETATM   24  C   UNL     1      -9.965  11.240  65.727  1.00  0.00    -0.237 C  
HETATM   25  H   UNL     1     -12.013  11.026  65.845  1.00  0.00     0.000 HD 
HETATM   26  O   UNL     1      -8.854  11.255  66.256  1.00  0.00    -0.183 OA 
BRANCH  24  27
HETATM   27  C   UNL     1     -10.109  11.687  64.297  1.00  0.00    -0.328 C  
BRANCH  27  28
HETATM   28  C   UNL     1     -10.709  13.079  64.274  1.00  0.00    -0.430 C  
HETATM   29  O   UNL     1     -12.705  14.326  63.889  1.00  0.00    -0.749 OA 
HETATM   30  C   UNL     1     -12.144  13.238  63.816  1.00  0.00    -0.482 C  
HETATM   31  O   UNL     1     -12.786  12.166  63.328  1.00  0.00    -0.735 OA 
ENDBRANCH  27  28
ENDBRANCH  24  27
ENDBRANCH   1  23
TORSDOF 9
ENDMDL
MODEL       55
REMARK 921   NORMALIZED FREE ENERGY PREDICTED BY IDOCK:   -5.96 KCAL/MOL
REMARK 922        TOTAL FREE ENERGY PREDICTED BY IDOCK:  -10.92 KCAL/MOL
REMARK 923 INTER-LIGAND FREE ENERGY PREDICTED BY IDOCK:   -9.43 KCAL/MOL
REMARK 924 INTRA-LIGAND FREE ENERGY PREDICTED BY IDOCK:   -1.49 KCAL/MOL
REMARK 927      BINDING AFFINITY PREDICTED BY RF-SCORE:    0.00 PKD
ROOT
HETATM    1  C   UNL     1     -11.067  11.418  69.077  1.00  0.00    -0.243 C  
ENDROOT
BRANCH   1   2
HETATM    2  C   UNL     1     -11.716  12.133  67.858  1.00  0.00    -0.403 C  
BRANCH   2   3
HETATM    3  C   UNL     1     -11.462  13.608  67.639  1.00  0.00    -0.357 A  
HETATM    4  C   UNL     1     -10.726  16.364  67.491  1.00  0.00    -0.298 A  
HETATM    5  C   UNL     1     -10.834  14.128  66.509  1.00  0.00    -0.298 A  
HETATM    6  C   UNL     1     -10.440  15.463  66.456  1.00  0.00    -0.295 A  
HETATM    7  C   UNL     1     -11.845  14.510  68.639  1.00  0.00    -0.355 A  
HETATM    8  C   UNL     1     -11.499  15.866  68.557  1.00  0.00    -0.377 A  
BRANCH   4   9
HETATM    9  C   UNL     1     -10.179  17.736  67.476  1.00  0.00    -0.356 A  
HETATM   10  C   UNL     1      -9.384  18.227  68.530  1.00  0.00    -0.334 A  
HETATM   11  C   UNL     1      -8.960  19.557  68.573  1.00  0.00    -0.395 A  
HETATM   12  C   UNL     1      -9.297  20.427  67.543  1.00  0.00    -0.500 A  
HETATM   13  C   UNL     1     -10.061  19.969  66.474  1.00  0.00    -0.606 A  
HETATM   14  C   UNL     1     -10.500  18.640  66.446  1.00  0.00    -0.463 A  
ENDBRANCH   4   9
ENDBRANCH   2   3
ENDBRANCH   1   2
BRANCH   1  15
HETATM   15  C   UNL     1      -9.696  10.750  68.809  1.00  0.00    -0.197 C  
HETATM   16  C   UNL     1      -8.314   8.732  68.395  1.00  0.00    -0.126 C  
HETATM   17  C   UNL     1     -10.429   8.990  67.129  1.00  0.00    -0.333 C  
HETATM   18  C   UNL     1      -9.736   9.262  68.458  1.00  0.00    -0.162 C  
HETATM   19  O   UNL     1      -7.609   8.742  67.396  1.00  0.00    -0.088 OA 
BRANCH  16  20
HETATM   20  O   UNL     1      -7.965   8.202  69.600  1.00  0.00    -0.110 OA 
BRANCH  20  21
HETATM   21  C   UNL     1      -8.528   6.913  69.884  1.00  0.00    -0.140 C  
HETATM   22  C   UNL     1      -7.503   5.866  69.485  1.00  0.00    -0.076 C  
ENDBRANCH  20  21
ENDBRANCH  16  20
ENDBRANCH   1  15
BRANCH   1  23
HETATM   23  N   UNL     1     -11.966  10.436  69.689  1.00  0.00    -0.474 N  
HETATM   24  C   UNL     1     -12.786  10.738  70.743  1.00  0.00    -0.360 C  
HETATM   25  H   UNL     1     -11.981   9.487  69.315  1.00  0.00     0.000 HD 
HETATM   26  O   UNL     1     -12.829  11.825  71.318  1.00  0.00    -0.386 OA 
BRANCH  24  27
HETATM   27  C   UNL     1     -13.572   9.578  71.294  1.00  0.00    -0.298 C  
BRANCH  27  28
HETATM   28  C   UNL     1     -12.822   8.992  72.475  1.00  0.00    -0.408 C  
HETATM   29  O   UNL     1     -11.009   7.580  73.114  1.00  0.00    -0.376 OA 
HETATM   30  C   UNL     1     -11.715   7.994  72.201  1.00  0.00    -0.344 C  
HETATM   31  O   UNL     1     -11.527   7.571  70.942  1.00  0.00    -0.274 OA 
ENDBRANCH  27  28
ENDBRANCH  24  27
ENDBRANCH   1  23
TORSDOF 9
ENDMDL
MODEL       56
REMARK 921   NORMALIZED FREE ENERGY PREDICTED BY IDOCK:   -5.95 KCAL/MOL
REMARK 922        TOTAL FREE ENERGY PREDICTED BY IDOCK:  -10.91 KCAL/MOL
REMARK 923 INTER-LIGAND FREE ENERGY PREDICTED BY IDOCK:   -9.06 KCAL/MOL
REMARK 924 INTRA-LIGAND FREE ENERGY PREDICTED BY IDOCK:   -1.85 KCAL/MOL
REMARK 927      BINDING AFFINITY PREDICTED BY RF-SCORE:    0.00 PKD
ROOT
HETATM    1  C   UNL     1     -10.319   6.775  70.107  1.00  0.00    -0.202 C  
ENDROOT
BRANCH   1   2
HETATM    2  C   UNL     1      -9.223   7.815  69.740  1.00  0.00    -0.150 C  
BRANCH   2   3
HETATM    3  C   UNL     1      -9.522   8.875  68.703  1.00  0.00    -0.153 A  
HETATM    4  C   UNL     1     -10.421  10.723  66.720  1.00  0.00    -0.305 A  
HETATM    5  C   UNL     1      -9.707  10.224  69.003  1.00  0.00    -0.213 A  
HETATM    6  C   UNL     1     -10.183  11.114  68.044  1.00  0.00    -0.201 A  
HETATM    7  C   UNL     1      -9.656   8.486  67.365  1.00  0.00    -0.204 A  
HETATM    8  C   UNL     1     -10.080   9.397  66.389  1.00  0.00    -0.332 A  
BRANCH   4   9
HETATM    9  C   UNL     1     -11.057  11.647  65.758  1.00  0.00    -0.313 A  
HETATM   10  C   UNL     1     -10.836  11.535  64.371  1.00  0.00    -0.405 A  
HETATM   11  C   UNL     1     -11.343  12.474  63.469  1.00  0.00    -0.556 A  
HETATM   12  C   UNL     1     -12.112  13.536  63.930  1.00  0.00    -0.493 A  
HETATM   13  C   UNL     1     -12.370  13.662  65.292  1.00  0.00    -0.498 A  
HETATM   14  C   UNL     1     -11.842  12.730  66.193  1.00  0.00    -0.484 A  
ENDBRANCH   4   9
ENDBRANCH   2   3
ENDBRANCH   1   2
BRANCH   1  15
HETATM   15  C   UNL     1     -10.479   5.595  69.118  1.00  0.00    -0.339 C  
HETATM   16  C   UNL     1      -9.513   3.955  67.527  1.00  0.00    -0.190 C  
HETATM   17  C   UNL     1      -8.381   4.288  69.707  1.00  0.00    -0.077 C  
HETATM   18  C   UNL     1      -9.181   4.972  68.604  1.00  0.00    -0.158 C  
HETATM   19  O   UNL     1      -9.760   2.775  67.734  1.00  0.00    -0.104 OA 
BRANCH  16  20
HETATM   20  O   UNL     1      -9.445   4.543  66.300  1.00  0.00    -0.144 OA 
BRANCH  20  21
HETATM   21  C   UNL     1      -9.369   3.633  65.193  1.00  0.00    -0.157 C  
HETATM   22  C   UNL     1     -10.581   3.879  64.313  1.00  0.00    -0.239 C  
ENDBRANCH  20  21
ENDBRANCH  16  20
ENDBRANCH   1  15
BRANCH   1  23
HETATM   23  N   UNL     1     -11.628   7.398  70.323  1.00  0.00    -0.478 N  
HETATM   24  C   UNL     1     -12.410   7.119  71.411  1.00  0.00    -0.377 C  
HETATM   25  H   UNL     1     -11.970   8.067  69.633  1.00  0.00     0.000 HD 
HETATM   26  O   UNL     1     -12.139   6.299  72.287  1.00  0.00    -0.304 OA 
BRANCH  24  27
HETATM   27  C   UNL     1     -13.759   7.789  71.417  1.00  0.00    -0.359 C  
BRANCH  27  28
HETATM   28  C   UNL     1     -13.669   9.071  72.221  1.00  0.00    -0.550 C  
HETATM   29  O   UNL     1     -13.311  11.425  72.086  1.00  0.00    -0.469 OA 
HETATM   30  C   UNL     1     -13.286  10.347  71.501  1.00  0.00    -0.386 C  
HETATM   31  O   UNL     1     -12.916  10.274  70.214  1.00  0.00    -0.220 OA 
ENDBRANCH  27  28
ENDBRANCH  24  27
ENDBRANCH   1  23
TORSDOF 9
ENDMDL
MODEL       57
REMARK 921   NORMALIZED FREE ENERGY PREDICTED BY IDOCK:   -5.93 KCAL/MOL
REMARK 922        TOTAL FREE ENERGY PREDICTED BY IDOCK:  -10.87 KCAL/MOL
REMARK 923 INTER-LIGAND FREE ENERGY PREDICTED BY IDOCK:   -9.57 KCAL/MOL
REMARK 924 INTRA-LIGAND FREE ENERGY PREDICTED BY IDOCK:   -1.31 KCAL/MOL
REMARK 927      BINDING AFFINITY PREDICTED BY RF-SCORE:    0.00 PKD
ROOT
HETATM    1  C   UNL     1     -11.085  14.022  66.291  1.00  0.00    -0.307 C  
ENDROOT
BRANCH   1   2
HETATM    2  C   UNL     1     -11.862  13.488  67.527  1.00  0.00    -0.406 C  
BRANCH   2   3
HETATM    3  C   UNL     1     -11.342  12.275  68.266  1.00  0.00    -0.339 A  
HETATM    4  C   UNL     1     -10.220  10.223  69.907  1.00  0.00    -0.250 A  
HETATM    5  C   UNL     1     -12.154  11.385  68.966  1.00  0.00    -0.316 A  
HETATM    6  C   UNL     1     -11.604  10.411  69.797  1.00  0.00    -0.339 A  
HETATM    7  C   UNL     1      -9.961  12.041  68.283  1.00  0.00    -0.203 A  
HETATM    8  C   UNL     1      -9.412  11.022  69.074  1.00  0.00    -0.123 A  
BRANCH   4   9
HETATM    9  C   UNL     1      -9.657   9.281  70.895  1.00  0.00    -0.339 A  
HETATM   10  C   UNL     1     -10.472   8.628  71.841  1.00  0.00    -0.410 A  
HETATM   11  C   UNL     1      -9.931   7.826  72.848  1.00  0.00    -0.341 A  
HETATM   12  C   UNL     1      -8.557   7.630  72.917  1.00  0.00    -0.190 A  
HETATM   13  C   UNL     1      -7.725   8.240  71.984  1.00  0.00    -0.153 A  
HETATM   14  C   UNL     1      -8.271   9.060  70.989  1.00  0.00    -0.220 A  
ENDBRANCH   4   9
ENDBRANCH   2   3
ENDBRANCH   1   2
BRANCH   1  15
HETATM   15  C   UNL     1     -10.289  12.960  65.492  1.00  0.00    -0.304 C  
HETATM   16  C   UNL     1     -10.212  10.964  64.022  1.00  0.00    -0.357 C  
HETATM   17  C   UNL     1     -11.787  12.789  63.446  1.00  0.00    -0.591 C  
HETATM   18  C   UNL     1     -11.117  12.042  64.593  1.00  0.00    -0.375 C  
HETATM   19  O   UNL     1      -9.572  11.068  62.985  1.00  0.00    -0.304 OA 
BRANCH  16  20
HETATM   20  O   UNL     1     -10.262   9.854  64.809  1.00  0.00    -0.134 OA 
BRANCH  20  21
HETATM   21  C   UNL     1      -8.987   9.349  65.231  1.00  0.00    -0.204 C  
HETATM   22  C   UNL     1      -9.225   8.429  66.414  1.00  0.00    -0.253 C  
ENDBRANCH  20  21
ENDBRANCH  16  20
ENDBRANCH   1  15
BRANCH   1  23
HETATM   23  N   UNL     1     -10.191  15.132  66.632  1.00  0.00    -0.260 N  
HETATM   24  C   UNL     1     -10.100  16.269  65.874  1.00  0.00    -0.357 C  
HETATM   25  H   UNL     1      -9.612  15.054  67.468  1.00  0.00     0.000 HD 
HETATM   26  O   UNL     1     -10.702  16.468  64.821  1.00  0.00    -0.719 OA 
BRANCH  24  27
HETATM   27  C   UNL     1      -9.064  17.260  66.333  1.00  0.00    -0.281 C  
BRANCH  27  28
HETATM   28  C   UNL     1      -9.762  18.425  67.007  1.00  0.00    -0.316 C  
HETATM   29  O   UNL     1      -9.888  20.804  67.130  1.00  0.00    -0.463 OA 
HETATM   30  C   UNL     1      -9.283  19.829  66.697  1.00  0.00    -0.380 C  
HETATM   31  O   UNL     1      -8.184  19.982  65.943  1.00  0.00    -0.334 OA 
ENDBRANCH  27  28
ENDBRANCH  24  27
ENDBRANCH   1  23
TORSDOF 9
ENDMDL
MODEL       58
REMARK 921   NORMALIZED FREE ENERGY PREDICTED BY IDOCK:   -5.90 KCAL/MOL
REMARK 922        TOTAL FREE ENERGY PREDICTED BY IDOCK:  -10.83 KCAL/MOL
REMARK 923 INTER-LIGAND FREE ENERGY PREDICTED BY IDOCK:   -9.25 KCAL/MOL
REMARK 924 INTRA-LIGAND FREE ENERGY PREDICTED BY IDOCK:   -1.58 KCAL/MOL
REMARK 927      BINDING AFFINITY PREDICTED BY RF-SCORE:    0.00 PKD
ROOT
HETATM    1  C   UNL     1     -11.785  14.496  66.542  1.00  0.00    -0.368 C  
ENDROOT
BRANCH   1   2
HETATM    2  C   UNL     1     -10.996  15.259  65.441  1.00  0.00    -0.380 C  
BRANCH   2   3
HETATM    3  C   UNL     1      -9.970  16.296  65.844  1.00  0.00    -0.366 A  
HETATM    4  C   UNL     1      -8.211  18.267  66.930  1.00  0.00    -0.260 A  
HETATM    5  C   UNL     1      -8.635  16.002  66.114  1.00  0.00    -0.315 A  
HETATM    6  C   UNL     1      -7.790  16.954  66.681  1.00  0.00    -0.298 A  
HETATM    7  C   UNL     1     -10.383  17.625  65.991  1.00  0.00    -0.305 A  
HETATM    8  C   UNL     1      -9.514  18.597  66.508  1.00  0.00    -0.331 A  
BRANCH   4   9
HETATM    9  C   UNL     1      -7.345  19.217  67.658  1.00  0.00    -0.265 A  
HETATM   10  C   UNL     1      -6.723  20.299  67.004  1.00  0.00    -0.279 A  
HETATM   11  C   UNL     1      -5.815  21.132  67.663  1.00  0.00    -0.405 A  
HETATM   12  C   UNL     1      -5.527  20.921  69.006  1.00  0.00    -0.405 A  
HETATM   13  C   UNL     1      -6.143  19.876  69.688  1.00  0.00    -0.366 A  
HETATM   14  C   UNL     1      -7.037  19.032  69.018  1.00  0.00    -0.361 A  
ENDBRANCH   4   9
ENDBRANCH   2   3
ENDBRANCH   1   2
BRANCH   1  15
HETATM   15  C   UNL     1     -12.017  15.276  67.860  1.00  0.00    -0.018 C  
HETATM   16  C   UNL     1     -11.854  15.456  70.328  1.00  0.00    -0.338 C  
HETATM   17  C   UNL     1      -9.868  14.667  69.071  1.00  0.00    -0.178 C  
HETATM   18  C   UNL     1     -11.392  14.668  69.115  1.00  0.00    -0.305 C  
HETATM   19  O   UNL     1     -11.291  16.446  70.772  1.00  0.00    -0.373 OA 
BRANCH  16  20
HETATM   20  O   UNL     1     -12.955  14.864  70.871  1.00  0.00    -0.345 OA 
BRANCH  20  21
HETATM   21  C   UNL     1     -12.796  13.480  71.211  1.00  0.00    -0.338 C  
HETATM   22  C   UNL     1     -13.721  13.184  72.378  1.00  0.00    -0.640 C  
ENDBRANCH  20  21
ENDBRANCH  16  20
ENDBRANCH   1  15
BRANCH   1  23
HETATM   23  N   UNL     1     -11.187  13.196  66.856  1.00  0.00    -0.287 N  
HETATM   24  C   UNL     1     -11.479  12.057  66.153  1.00  0.00    -0.339 C  
HETATM   25  H   UNL     1     -10.525  13.136  67.630  1.00  0.00     0.000 HD 
HETATM   26  O   UNL     1     -12.292  11.982  65.234  1.00  0.00    -0.442 OA 
BRANCH  24  27
HETATM   27  C   UNL     1     -10.836  10.801  66.677  1.00  0.00    -0.228 C  
BRANCH  27  28
HETATM   28  C   UNL     1      -9.331  10.923  66.538  1.00  0.00    -0.195 C  
HETATM   29  O   UNL     1      -7.487  10.613  65.057  1.00  0.00    -0.065 OA 
HETATM   30  C   UNL     1      -8.683  10.432  65.260  1.00  0.00    -0.179 C  
HETATM   31  O   UNL     1      -9.443   9.793  64.358  1.00  0.00    -0.274 OA 
ENDBRANCH  27  28
ENDBRANCH  24  27
ENDBRANCH   1  23
TORSDOF 9
ENDMDL
MODEL       59
REMARK 921   NORMALIZED FREE ENERGY PREDICTED BY IDOCK:   -5.90 KCAL/MOL
REMARK 922        TOTAL FREE ENERGY PREDICTED BY IDOCK:  -10.83 KCAL/MOL
REMARK 923 INTER-LIGAND FREE ENERGY PREDICTED BY IDOCK:   -9.29 KCAL/MOL
REMARK 924 INTRA-LIGAND FREE ENERGY PREDICTED BY IDOCK:   -1.53 KCAL/MOL
REMARK 927      BINDING AFFINITY PREDICTED BY RF-SCORE:    0.00 PKD
ROOT
HETATM    1  C   UNL     1      -8.828  14.260  67.098  1.00  0.00    -0.229 C  
ENDROOT
BRANCH   1   2
HETATM    2  C   UNL     1      -8.300  12.807  66.934  1.00  0.00    -0.064 C  
BRANCH   2   3
HETATM    3  C   UNL     1      -8.984  11.679  67.676  1.00  0.00    -0.166 A  
HETATM    4  C   UNL     1     -10.277   9.777  69.369  1.00  0.00    -0.223 A  
HETATM    5  C   UNL     1     -10.300  11.283  67.444  1.00  0.00    -0.233 A  
HETATM    6  C   UNL     1     -10.940  10.386  68.295  1.00  0.00    -0.321 A  
HETATM    7  C   UNL     1      -8.274  11.010  68.680  1.00  0.00    -0.151 A  
HETATM    8  C   UNL     1      -8.904  10.063  69.499  1.00  0.00    -0.209 A  
BRANCH   4   9
HETATM    9  C   UNL     1     -11.011   8.938  70.339  1.00  0.00    -0.275 A  
HETATM   10  C   UNL     1     -11.004   7.532  70.253  1.00  0.00    -0.264 A  
HETATM   11  C   UNL     1     -11.787   6.741  71.097  1.00  0.00    -0.410 A  
HETATM   12  C   UNL     1     -12.578   7.337  72.072  1.00  0.00    -0.254 A  
HETATM   13  C   UNL     1     -12.589   8.723  72.200  1.00  0.00    -0.463 A  
HETATM   14  C   UNL     1     -11.818   9.512  71.339  1.00  0.00    -0.464 A  
ENDBRANCH   4   9
ENDBRANCH   2   3
ENDBRANCH   1   2
BRANCH   1  15
HETATM   15  C   UNL     1      -9.498  14.874  65.843  1.00  0.00    -0.290 C  
HETATM   16  C   UNL     1     -11.468  15.856  64.701  1.00  0.00    -0.263 C  
HETATM   17  C   UNL     1     -10.897  16.670  66.972  1.00  0.00    -0.091 C  
HETATM   18  C   UNL     1     -10.896  15.456  66.050  1.00  0.00    -0.315 C  
HETATM   19  O   UNL     1     -11.310  16.948  64.173  1.00  0.00    -1.208 OA 
BRANCH  16  20
HETATM   20  O   UNL     1     -12.219  14.837  64.197  1.00  0.00    -0.541 OA 
BRANCH  20  21
HETATM   21  C   UNL     1     -12.628  13.852  65.155  1.00  0.00    -0.434 C  
HETATM   22  C   UNL     1     -12.448  12.486  64.516  1.00  0.00    -0.539 C  
ENDBRANCH  20  21
ENDBRANCH  16  20
ENDBRANCH   1  15
BRANCH   1  23
HETATM   23  N   UNL     1      -7.793  15.178  67.584  1.00  0.00    -0.145 N  
HETATM   24  C   UNL     1      -7.879  15.818  68.791  1.00  0.00    -0.180 C  
HETATM   25  H   UNL     1      -6.975  15.346  66.998  1.00  0.00     0.000 HD 
HETATM   26  O   UNL     1      -8.829  15.741  69.567  1.00  0.00    -0.258 OA 
BRANCH  24  27
HETATM   27  C   UNL     1      -6.764  16.788  69.079  1.00  0.00    -0.209 C  
BRANCH  27  28
HETATM   28  C   UNL     1      -7.047  18.092  68.360  1.00  0.00    -0.247 C  
HETATM   29  O   UNL     1      -6.738  20.456  68.433  1.00  0.00    -0.291 OA 
HETATM   30  C   UNL     1      -6.632  19.387  69.026  1.00  0.00    -0.312 C  
HETATM   31  O   UNL     1      -6.149  19.342  70.277  1.00  0.00    -0.243 OA 
ENDBRANCH  27  28
ENDBRANCH  24  27
ENDBRANCH   1  23
TORSDOF 9
ENDMDL
MODEL       60
REMARK 921   NORMALIZED FREE ENERGY PREDICTED BY IDOCK:   -5.86 KCAL/MOL
REMARK 922        TOTAL FREE ENERGY PREDICTED BY IDOCK:  -10.77 KCAL/MOL
REMARK 923 INTER-LIGAND FREE ENERGY PREDICTED BY IDOCK:   -9.06 KCAL/MOL
REMARK 924 INTRA-LIGAND FREE ENERGY PREDICTED BY IDOCK:   -1.71 KCAL/MOL
REMARK 927      BINDING AFFINITY PREDICTED BY RF-SCORE:    0.00 PKD
ROOT
HETATM    1  C   UNL     1      -8.678  15.514  68.627  1.00  0.00    -0.188 C  
ENDROOT
BRANCH   1   2
HETATM    2  C   UNL     1      -8.632  14.786  67.254  1.00  0.00    -0.230 C  
BRANCH   2   3
HETATM    3  C   UNL     1      -8.879  13.294  67.194  1.00  0.00    -0.223 A  
HETATM    4  C   UNL     1      -9.431  10.503  67.440  1.00  0.00    -0.172 A  
HETATM    5  C   UNL     1      -9.963  12.712  66.540  1.00  0.00    -0.256 A  
HETATM    6  C   UNL     1     -10.253  11.359  66.694  1.00  0.00    -0.258 A  
HETATM    7  C   UNL     1      -7.991  12.441  67.860  1.00  0.00    -0.155 A  
HETATM    8  C   UNL     1      -8.253  11.068  67.966  1.00  0.00    -0.123 A  
BRANCH   4   9
HETATM    9  C   UNL     1      -9.832   9.106  67.705  1.00  0.00    -0.217 A  
HETATM   10  C   UNL     1     -10.067   8.194  66.658  1.00  0.00    -0.344 A  
HETATM   11  C   UNL     1     -10.555   6.907  66.899  1.00  0.00    -0.372 A  
HETATM   12  C   UNL     1     -10.792   6.488  68.203  1.00  0.00    -0.370 A  
HETATM   13  C   UNL     1     -10.546   7.355  69.263  1.00  0.00    -0.220 A  
HETATM   14  C   UNL     1     -10.077   8.651  69.014  1.00  0.00    -0.207 A  
ENDBRANCH   4   9
ENDBRANCH   2   3
ENDBRANCH   1   2
BRANCH   1  15
HETATM   15  C   UNL     1      -9.718  14.971  69.637  1.00  0.00    -0.067 C  
HETATM   16  C   UNL     1     -11.918  15.120  70.773  1.00  0.00    -0.327 C  
HETATM   17  C   UNL     1     -11.840  15.426  68.314  1.00  0.00    -0.225 C  
HETATM   18  C   UNL     1     -11.086  15.652  69.619  1.00  0.00    -0.299 C  
HETATM   19  O   UNL     1     -12.635  14.131  70.717  1.00  0.00    -0.324 OA 
BRANCH  16  20
HETATM   20  O   UNL     1     -11.783  15.936  71.855  1.00  0.00    -0.425 OA 
BRANCH  20  21
HETATM   21  C   UNL     1     -12.850  15.861  72.810  1.00  0.00    -0.478 C  
HETATM   22  C   UNL     1     -12.324  15.130  74.032  1.00  0.00    -0.725 C  
ENDBRANCH  20  21
ENDBRANCH  16  20
ENDBRANCH   1  15
BRANCH   1  23
HETATM   23  N   UNL     1      -8.862  16.961  68.484  1.00  0.00    -0.243 N  
HETATM   24  C   UNL     1      -7.846  17.859  68.675  1.00  0.00    -0.290 C  
HETATM   25  H   UNL     1      -9.785  17.314  68.232  1.00  0.00     0.000 HD 
HETATM   26  O   UNL     1      -6.704  17.571  69.028  1.00  0.00    -0.227 OA 
BRANCH  24  27
HETATM   27  C   UNL     1      -8.246  19.307  68.571  1.00  0.00    -0.401 C  
BRANCH  27  28
HETATM   28  C   UNL     1      -8.618  19.613  67.133  1.00  0.00    -0.357 C  
HETATM   29  O   UNL     1     -10.439  19.965  65.634  1.00  0.00    -0.477 OA 
HETATM   30  C   UNL     1     -10.085  19.613  66.754  1.00  0.00    -0.424 C  
HETATM   31  O   UNL     1     -10.986  19.217  67.666  1.00  0.00    -0.431 OA 
ENDBRANCH  27  28
ENDBRANCH  24  27
ENDBRANCH   1  23
TORSDOF 9
ENDMDL
MODEL       61
REMARK 921   NORMALIZED FREE ENERGY PREDICTED BY IDOCK:   -5.86 KCAL/MOL
REMARK 922        TOTAL FREE ENERGY PREDICTED BY IDOCK:  -10.76 KCAL/MOL
REMARK 923 INTER-LIGAND FREE ENERGY PREDICTED BY IDOCK:   -9.30 KCAL/MOL
REMARK 924 INTRA-LIGAND FREE ENERGY PREDICTED BY IDOCK:   -1.47 KCAL/MOL
REMARK 927      BINDING AFFINITY PREDICTED BY RF-SCORE:    0.00 PKD
ROOT
HETATM    1  C   UNL     1     -10.548  12.586  68.186  1.00  0.00    -0.226 C  
ENDROOT
BRANCH   1   2
HETATM    2  C   UNL     1     -11.466  13.819  67.951  1.00  0.00    -0.347 C  
BRANCH   2   3
HETATM    3  C   UNL     1     -10.846  15.144  67.565  1.00  0.00    -0.301 A  
HETATM    4  C   UNL     1      -9.426  17.579  67.101  1.00  0.00    -0.259 A  
HETATM    5  C   UNL     1     -10.149  15.359  66.377  1.00  0.00    -0.292 A  
HETATM    6  C   UNL     1      -9.425  16.531  66.171  1.00  0.00    -0.347 A  
HETATM    7  C   UNL     1     -10.943  16.216  68.461  1.00  0.00    -0.338 A  
HETATM    8  C   UNL     1     -10.261  17.417  68.224  1.00  0.00    -0.362 A  
BRANCH   4   9
HETATM    9  C   UNL     1      -8.543  18.750  66.926  1.00  0.00    -0.290 A  
HETATM   10  C   UNL     1      -8.750  19.945  67.643  1.00  0.00    -0.395 A  
HETATM   11  C   UNL     1      -7.988  21.090  67.398  1.00  0.00    -0.085 A  
HETATM   12  C   UNL     1      -6.976  21.060  66.447  1.00  0.00    -0.131 A  
HETATM   13  C   UNL     1      -6.728  19.889  65.738  1.00  0.00    -0.283 A  
HETATM   14  C   UNL     1      -7.508  18.750  65.973  1.00  0.00    -0.271 A  
ENDBRANCH   4   9
ENDBRANCH   2   3
ENDBRANCH   1   2
BRANCH   1  15
HETATM   15  C   UNL     1     -10.587  11.504  67.080  1.00  0.00    -0.277 C  
HETATM   16  C   UNL     1      -9.988  10.704  64.809  1.00  0.00    -0.327 C  
HETATM   17  C   UNL     1      -8.217  11.748  66.195  1.00  0.00     0.158 C  
HETATM   18  C   UNL     1      -9.704  11.764  65.859  1.00  0.00    -0.259 C  
HETATM   19  O   UNL     1      -9.420   9.623  64.738  1.00  0.00    -0.267 OA 
BRANCH  16  20
HETATM   20  O   UNL     1     -10.929  11.159  63.936  1.00  0.00    -0.374 OA 
BRANCH  20  21
HETATM   21  C   UNL     1     -10.849  12.557  63.629  1.00  0.00    -0.441 C  
HETATM   22  C   UNL     1     -12.237  13.147  63.806  1.00  0.00    -0.528 C  
ENDBRANCH  20  21
ENDBRANCH  16  20
ENDBRANCH   1  15
BRANCH   1  23
HETATM   23  N   UNL     1     -10.791  11.951  69.484  1.00  0.00    -0.460 N  
HETATM   24  C   UNL     1     -11.929  11.240  69.759  1.00  0.00    -0.360 C  
HETATM   25  H   UNL     1     -10.084  12.042  70.214  1.00  0.00     0.000 HD 
HETATM   26  O   UNL     1     -12.877  11.096  68.990  1.00  0.00    -0.055 OA 
BRANCH  24  27
HETATM   27  C   UNL     1     -12.041  10.736  71.174  1.00  0.00    -0.415 C  
BRANCH  27  28
HETATM   28  C   UNL     1     -13.280  11.332  71.812  1.00  0.00    -0.480 C  
HETATM   29  O   UNL     1     -14.391  13.369  72.364  1.00  0.00    -0.617 OA 
HETATM   30  C   UNL     1     -13.363  12.837  71.959  1.00  0.00    -0.466 C  
HETATM   31  O   UNL     1     -12.288  13.575  71.640  1.00  0.00    -0.202 OA 
ENDBRANCH  27  28
ENDBRANCH  24  27
ENDBRANCH   1  23
TORSDOF 9
ENDMDL
MODEL       62
REMARK 921   NORMALIZED FREE ENERGY PREDICTED BY IDOCK:   -5.82 KCAL/MOL
REMARK 922        TOTAL FREE ENERGY PREDICTED BY IDOCK:  -10.71 KCAL/MOL
REMARK 923 INTER-LIGAND FREE ENERGY PREDICTED BY IDOCK:   -8.63 KCAL/MOL
REMARK 924 INTRA-LIGAND FREE ENERGY PREDICTED BY IDOCK:   -2.08 KCAL/MOL
REMARK 927      BINDING AFFINITY PREDICTED BY RF-SCORE:    0.00 PKD
ROOT
HETATM    1  C   UNL     1     -10.910  11.222  69.131  1.00  0.00    -0.222 C  
ENDROOT
BRANCH   1   2
HETATM    2  C   UNL     1      -9.406  10.871  68.953  1.00  0.00    -0.169 C  
BRANCH   2   3
HETATM    3  C   UNL     1      -8.931   9.465  69.249  1.00  0.00    -0.154 A  
HETATM    4  C   UNL     1      -8.351   6.770  69.995  1.00  0.00    -0.135 A  
HETATM    5  C   UNL     1      -8.882   8.447  68.298  1.00  0.00    -0.139 A  
HETATM    6  C   UNL     1      -8.637   7.127  68.671  1.00  0.00    -0.124 A  
HETATM    7  C   UNL     1      -8.549   9.147  70.558  1.00  0.00    -0.252 A  
HETATM    8  C   UNL     1      -8.247   7.827  70.920  1.00  0.00    -0.107 A  
BRANCH   4   9
HETATM    9  C   UNL     1      -8.233   5.351  70.391  1.00  0.00    -0.105 A  
HETATM   10  C   UNL     1      -7.718   4.379  69.511  1.00  0.00    -0.054 A  
HETATM   11  C   UNL     1      -7.711   3.021  69.839  1.00  0.00    -0.044 A  
HETATM   12  C   UNL     1      -8.193   2.602  71.073  1.00  0.00    -0.071 A  
HETATM   13  C   UNL     1      -8.686   3.539  71.976  1.00  0.00    -0.116 A  
HETATM   14  C   UNL     1      -8.710   4.896  71.634  1.00  0.00    -0.137 A  
ENDBRANCH   4   9
ENDBRANCH   2   3
ENDBRANCH   1   2
BRANCH   1  15
HETATM   15  C   UNL     1     -11.785  10.115  69.768  1.00  0.00    -0.205 C  
HETATM   16  C   UNL     1     -12.809   9.037  71.753  1.00  0.00    -0.374 C  
HETATM   17  C   UNL     1     -12.959  11.502  71.545  1.00  0.00    -0.485 C  
HETATM   18  C   UNL     1     -12.094  10.281  71.256  1.00  0.00    -0.479 C  
HETATM   19  O   UNL     1     -14.020   8.871  71.727  1.00  0.00    -0.397 OA 
BRANCH  16  20
HETATM   20  O   UNL     1     -11.904   8.162  72.275  1.00  0.00    -0.335 OA 
BRANCH  20  21
HETATM   21  C   UNL     1     -12.122   6.786  71.935  1.00  0.00    -0.334 C  
HETATM   22  C   UNL     1     -11.743   6.608  70.475  1.00  0.00    -0.453 C  
ENDBRANCH  20  21
ENDBRANCH  16  20
ENDBRANCH   1  15
BRANCH   1  23
HETATM   23  N   UNL     1     -11.531  11.660  67.878  1.00  0.00    -0.301 N  
HETATM   24  C   UNL     1     -11.493  12.959  67.447  1.00  0.00    -0.336 C  
HETATM   25  H   UNL     1     -12.012  10.968  67.303  1.00  0.00     0.000 HD 
HETATM   26  O   UNL     1     -10.992  13.896  68.066  1.00  0.00    -0.242 OA 
BRANCH  24  27
HETATM   27  C   UNL     1     -12.261  13.235  66.182  1.00  0.00    -0.466 C  
BRANCH  27  28
HETATM   28  C   UNL     1     -11.911  14.624  65.685  1.00  0.00    -0.273 C  
HETATM   29  O   UNL     1     -12.031  16.105  63.820  1.00  0.00    -0.926 OA 
HETATM   30  C   UNL     1     -12.192  14.963  64.236  1.00  0.00    -0.344 C  
HETATM   31  O   UNL     1     -12.618  13.988  63.418  1.00  0.00    -0.845 OA 
ENDBRANCH  27  28
ENDBRANCH  24  27
ENDBRANCH   1  23
TORSDOF 9
ENDMDL
MODEL       63
REMARK 921   NORMALIZED FREE ENERGY PREDICTED BY IDOCK:   -5.79 KCAL/MOL
REMARK 922        TOTAL FREE ENERGY PREDICTED BY IDOCK:  -10.66 KCAL/MOL
REMARK 923 INTER-LIGAND FREE ENERGY PREDICTED BY IDOCK:   -8.59 KCAL/MOL
REMARK 924 INTRA-LIGAND FREE ENERGY PREDICTED BY IDOCK:   -2.07 KCAL/MOL
REMARK 927      BINDING AFFINITY PREDICTED BY RF-SCORE:    0.00 PKD
ROOT
HETATM    1  C   UNL     1     -10.855   8.376  70.663  1.00  0.00    -0.231 C  
ENDROOT
BRANCH   1   2
HETATM    2  C   UNL     1      -9.820   8.412  69.503  1.00  0.00    -0.181 C  
BRANCH   2   3
HETATM    3  C   UNL     1      -9.838   9.568  68.527  1.00  0.00    -0.172 A  
HETATM    4  C   UNL     1     -10.206  11.829  66.821  1.00  0.00    -0.240 A  
HETATM    5  C   UNL     1      -9.051  10.710  68.662  1.00  0.00    -0.170 A  
HETATM    6  C   UNL     1      -9.260  11.826  67.855  1.00  0.00    -0.181 A  
HETATM    7  C   UNL     1     -10.717   9.512  67.438  1.00  0.00    -0.297 A  
HETATM    8  C   UNL     1     -10.884  10.616  66.590  1.00  0.00    -0.197 A  
BRANCH   4   9
HETATM    9  C   UNL     1     -10.507  13.065  66.071  1.00  0.00    -0.289 A  
HETATM   10  C   UNL     1      -9.731  14.231  66.226  1.00  0.00    -0.321 A  
HETATM   11  C   UNL     1     -10.080  15.433  65.606  1.00  0.00    -0.406 A  
HETATM   12  C   UNL     1     -11.200  15.493  64.786  1.00  0.00    -0.399 A  
HETATM   13  C   UNL     1     -11.975  14.353  64.591  1.00  0.00    -0.475 A  
HETATM   14  C   UNL     1     -11.632  13.156  65.231  1.00  0.00    -0.350 A  
ENDBRANCH   4   9
ENDBRANCH   2   3
ENDBRANCH   1   2
BRANCH   1  15
HETATM   15  C   UNL     1     -11.287   9.756  71.217  1.00  0.00    -0.445 C  
HETATM   16  C   UNL     1     -12.830  11.698  71.229  1.00  0.00    -0.328 C  
HETATM   17  C   UNL     1     -13.806   9.420  71.211  1.00  0.00    -0.183 C  
HETATM   18  C   UNL     1     -12.640  10.276  70.731  1.00  0.00    -0.442 C  
HETATM   19  O   UNL     1     -13.327  12.000  72.305  1.00  0.00    -0.485 OA 
BRANCH  16  20
HETATM   20  O   UNL     1     -12.410  12.580  70.279  1.00  0.00    -0.277 OA 
BRANCH  20  21
HETATM   21  C   UNL     1     -12.465  13.960  70.665  1.00  0.00    -0.366 C  
HETATM   22  C   UNL     1     -11.833  14.774  69.549  1.00  0.00    -0.366 C  
ENDBRANCH  20  21
ENDBRANCH  16  20
ENDBRANCH   1  15
BRANCH   1  23
HETATM   23  N   UNL     1     -10.412   7.532  71.777  1.00  0.00    -0.193 N  
HETATM   24  C   UNL     1     -11.185   6.528  72.297  1.00  0.00    -0.273 C  
HETATM   25  H   UNL     1      -9.491   7.699  72.182  1.00  0.00     0.000 HD 
HETATM   26  O   UNL     1     -12.328   6.255  71.936  1.00  0.00    -0.312 OA 
BRANCH  24  27
HETATM   27  C   UNL     1     -10.600   5.827  73.495  1.00  0.00    -0.295 C  
BRANCH  27  28
HETATM   28  C   UNL     1     -11.224   4.451  73.614  1.00  0.00    -0.335 C  
HETATM   29  O   UNL     1     -10.803   2.109  73.453  1.00  0.00    -0.141 OA 
HETATM   30  C   UNL     1     -10.378   3.244  73.264  1.00  0.00    -0.156 C  
HETATM   31  O   UNL     1      -9.159   3.442  72.741  1.00  0.00    -0.087 OA 
ENDBRANCH  27  28
ENDBRANCH  24  27
ENDBRANCH   1  23
TORSDOF 9
ENDMDL
MODEL       64
REMARK 921   NORMALIZED FREE ENERGY PREDICTED BY IDOCK:   -5.79 KCAL/MOL
REMARK 922        TOTAL FREE ENERGY PREDICTED BY IDOCK:  -10.65 KCAL/MOL
REMARK 923 INTER-LIGAND FREE ENERGY PREDICTED BY IDOCK:   -9.05 KCAL/MOL
REMARK 924 INTRA-LIGAND FREE ENERGY PREDICTED BY IDOCK:   -1.60 KCAL/MOL
REMARK 927      BINDING AFFINITY PREDICTED BY RF-SCORE:    0.00 PKD
ROOT
HETATM    1  C   UNL     1     -11.340   6.717  71.284  1.00  0.00    -0.289 C  
ENDROOT
BRANCH   1   2
HETATM    2  C   UNL     1     -12.465   7.722  71.659  1.00  0.00    -0.352 C  
BRANCH   2   3
HETATM    3  C   UNL     1     -12.268   9.197  71.381  1.00  0.00    -0.407 A  
HETATM    4  C   UNL     1     -12.034  11.910  70.520  1.00  0.00    -0.360 A  
HETATM    5  C   UNL     1     -13.050  10.204  71.945  1.00  0.00    -0.571 A  
HETATM    6  C   UNL     1     -12.961  11.519  71.495  1.00  0.00    -0.485 A  
HETATM    7  C   UNL     1     -11.269   9.582  70.480  1.00  0.00    -0.345 A  
HETATM    8  C   UNL     1     -11.142  10.916  70.071  1.00  0.00    -0.285 A  
BRANCH   4   9
HETATM    9  C   UNL     1     -12.052  13.276  69.959  1.00  0.00    -0.385 A  
HETATM   10  C   UNL     1     -11.667  13.534  68.629  1.00  0.00    -0.389 A  
HETATM   11  C   UNL     1     -11.575  14.836  68.130  1.00  0.00    -0.356 A  
HETATM   12  C   UNL     1     -11.896  15.916  68.944  1.00  0.00    -0.314 A  
HETATM   13  C   UNL     1     -12.304  15.695  70.256  1.00  0.00    -0.402 A  
HETATM   14  C   UNL     1     -12.375  14.390  70.757  1.00  0.00    -0.417 A  
ENDBRANCH   4   9
ENDBRANCH   2   3
ENDBRANCH   1   2
BRANCH   1  15
HETATM   15  C   UNL     1     -11.379   6.181  69.831  1.00  0.00    -0.454 C  
HETATM   16  C   UNL     1     -10.425   6.044  67.546  1.00  0.00    -0.240 C  
HETATM   17  C   UNL     1      -8.893   5.791  69.479  1.00  0.00    -0.118 C  
HETATM   18  C   UNL     1     -10.152   6.486  68.973  1.00  0.00    -0.186 C  
HETATM   19  O   UNL     1     -10.202   4.924  67.108  1.00  0.00    -0.195 OA 
BRANCH  16  20
HETATM   20  O   UNL     1     -10.905   7.093  66.821  1.00  0.00    -0.320 OA 
BRANCH  20  21
HETATM   21  C   UNL     1     -10.347   8.371  67.157  1.00  0.00    -0.311 C  
HETATM   22  C   UNL     1      -9.902   9.032  65.865  1.00  0.00    -0.257 C  
ENDBRANCH  20  21
ENDBRANCH  16  20
ENDBRANCH   1  15
BRANCH   1  23
HETATM   23  N   UNL     1     -11.275   5.583  72.209  1.00  0.00    -0.246 N  
HETATM   24  C   UNL     1     -10.769   5.690  73.477  1.00  0.00    -0.275 C  
HETATM   25  H   UNL     1     -11.621   4.676  71.896  1.00  0.00     0.000 HD 
HETATM   26  O   UNL     1     -10.276   6.708  73.959  1.00  0.00    -0.312 OA 
BRANCH  24  27
HETATM   27  C   UNL     1     -10.703   4.399  74.249  1.00  0.00    -0.279 C  
BRANCH  27  28
HETATM   28  C   UNL     1     -10.608   3.244  73.272  1.00  0.00    -0.275 C  
HETATM   29  O   UNL     1      -9.126   1.666  72.271  1.00  0.00    -0.067 OA 
HETATM   30  C   UNL     1      -9.240   2.670  72.966  1.00  0.00    -0.088 C  
HETATM   31  O   UNL     1      -8.157   3.284  73.468  1.00  0.00    -0.072 OA 
ENDBRANCH  27  28
ENDBRANCH  24  27
ENDBRANCH   1  23
TORSDOF 9
ENDMDL
MODEL       65
REMARK 921   NORMALIZED FREE ENERGY PREDICTED BY IDOCK:   -5.77 KCAL/MOL
REMARK 922        TOTAL FREE ENERGY PREDICTED BY IDOCK:  -10.63 KCAL/MOL
REMARK 923 INTER-LIGAND FREE ENERGY PREDICTED BY IDOCK:   -8.99 KCAL/MOL
REMARK 924 INTRA-LIGAND FREE ENERGY PREDICTED BY IDOCK:   -1.64 KCAL/MOL
REMARK 927      BINDING AFFINITY PREDICTED BY RF-SCORE:    0.00 PKD
ROOT
HETATM    1  C   UNL     1      -9.357  14.325  66.703  1.00  0.00    -0.284 C  
ENDROOT
BRANCH   1   2
HETATM    2  C   UNL     1      -8.833  12.908  67.071  1.00  0.00    -0.208 C  
BRANCH   2   3
HETATM    3  C   UNL     1      -9.492  12.140  68.196  1.00  0.00    -0.205 A  
HETATM    4  C   UNL     1     -11.016  10.634  70.084  1.00  0.00    -0.292 A  
HETATM    5  C   UNL     1      -9.061  10.892  68.640  1.00  0.00    -0.175 A  
HETATM    6  C   UNL     1      -9.826  10.143  69.530  1.00  0.00    -0.255 A  
HETATM    7  C   UNL     1     -10.622  12.691  68.811  1.00  0.00    -0.214 A  
HETATM    8  C   UNL     1     -11.360  11.959  69.751  1.00  0.00    -0.223 A  
BRANCH   4   9
HETATM    9  C   UNL     1     -11.880   9.771  70.915  1.00  0.00    -0.420 A  
HETATM   10  C   UNL     1     -13.025  10.276  71.563  1.00  0.00    -0.556 A  
HETATM   11  C   UNL     1     -13.779   9.492  72.439  1.00  0.00    -0.408 A  
HETATM   12  C   UNL     1     -13.424   8.168  72.667  1.00  0.00     0.118 A  
HETATM   13  C   UNL     1     -12.313   7.630  72.024  1.00  0.00    -0.312 A  
HETATM   14  C   UNL     1     -11.549   8.426  71.163  1.00  0.00    -0.317 A  
ENDBRANCH   4   9
ENDBRANCH   2   3
ENDBRANCH   1   2
BRANCH   1  15
HETATM   15  C   UNL     1     -10.151  14.421  65.378  1.00  0.00    -0.388 C  
HETATM   16  C   UNL     1     -11.979  13.652  63.887  1.00  0.00    -0.408 C  
HETATM   17  C   UNL     1     -12.493  14.024  66.283  1.00  0.00    -0.439 C  
HETATM   18  C   UNL     1     -11.421  13.574  65.297  1.00  0.00    -0.315 C  
HETATM   19  O   UNL     1     -12.764  14.503  63.494  1.00  0.00    -0.707 OA 
BRANCH  16  20
HETATM   20  O   UNL     1     -11.512  12.607  63.147  1.00  0.00    -0.424 OA 
BRANCH  20  21
HETATM   21  C   UNL     1     -11.197  11.425  63.895  1.00  0.00    -0.280 C  
HETATM   22  C   UNL     1      -9.857  10.910  63.397  1.00  0.00    -0.408 C  
ENDBRANCH  20  21
ENDBRANCH  16  20
ENDBRANCH   1  15
BRANCH   1  23
HETATM   23  N   UNL     1      -8.288  15.328  66.692  1.00  0.00    -0.370 N  
HETATM   24  C   UNL     1      -8.297  16.428  67.507  1.00  0.00    -0.161 C  
HETATM   25  H   UNL     1      -7.505  15.201  66.051  1.00  0.00     0.000 HD 
HETATM   26  O   UNL     1      -9.201  16.724  68.287  1.00  0.00    -0.215 OA 
BRANCH  24  27
HETATM   27  C   UNL     1      -7.160  17.391  67.292  1.00  0.00    -0.193 C  
BRANCH  27  28
HETATM   28  C   UNL     1      -7.464  18.250  66.080  1.00  0.00    -0.291 C  
HETATM   29  O   UNL     1      -7.388  20.467  65.204  1.00  0.00    -0.122 OA 
HETATM   30  C   UNL     1      -7.264  19.748  66.190  1.00  0.00    -0.279 C  
HETATM   31  O   UNL     1      -6.951  20.269  67.386  1.00  0.00    -0.239 OA 
ENDBRANCH  27  28
ENDBRANCH  24  27
ENDBRANCH   1  23
TORSDOF 9
ENDMDL
MODEL       66
REMARK 921   NORMALIZED FREE ENERGY PREDICTED BY IDOCK:   -5.76 KCAL/MOL
REMARK 922        TOTAL FREE ENERGY PREDICTED BY IDOCK:  -10.62 KCAL/MOL
REMARK 923 INTER-LIGAND FREE ENERGY PREDICTED BY IDOCK:   -9.38 KCAL/MOL
REMARK 924 INTRA-LIGAND FREE ENERGY PREDICTED BY IDOCK:   -1.24 KCAL/MOL
REMARK 927      BINDING AFFINITY PREDICTED BY RF-SCORE:    0.00 PKD
ROOT
HETATM    1  C   UNL     1     -11.148   6.255  70.663  1.00  0.00    -0.327 C  
ENDROOT
BRANCH   1   2
HETATM    2  C   UNL     1     -12.091   7.040  71.618  1.00  0.00    -0.384 C  
BRANCH   2   3
HETATM    3  C   UNL     1     -12.349   8.510  71.365  1.00  0.00    -0.332 A  
HETATM    4  C   UNL     1     -12.781  11.331  71.250  1.00  0.00    -0.510 A  
HETATM    5  C   UNL     1     -11.462   9.349  70.694  1.00  0.00    -0.344 A  
HETATM    6  C   UNL     1     -11.655  10.729  70.674  1.00  0.00    -0.388 A  
HETATM    7  C   UNL     1     -13.530   9.077  71.859  1.00  0.00    -0.481 A  
HETATM    8  C   UNL     1     -13.750  10.460  71.787  1.00  0.00    -0.110 A  
BRANCH   4   9
HETATM    9  C   UNL     1     -12.895  12.801  71.339  1.00  0.00    -0.371 A  
HETATM   10  C   UNL     1     -12.164  13.651  70.487  1.00  0.00    -0.438 A  
HETATM   11  C   UNL     1     -12.182  15.039  70.642  1.00  0.00    -0.381 A  
HETATM   12  C   UNL     1     -12.959  15.617  71.639  1.00  0.00    -0.551 A  
HETATM   13  C   UNL     1     -13.713  14.807  72.483  1.00  0.00    -0.572 A  
HETATM   14  C   UNL     1     -13.675  13.415  72.336  1.00  0.00    -0.698 A  
ENDBRANCH   4   9
ENDBRANCH   2   3
ENDBRANCH   1   2
BRANCH   1  15
HETATM   15  C   UNL     1      -9.693   6.073  71.161  1.00  0.00    -0.206 C  
HETATM   16  C   UNL     1      -8.029   4.977  72.638  1.00  0.00    -0.098 C  
HETATM   17  C   UNL     1      -9.684   3.551  71.468  1.00  0.00    -0.237 C  
HETATM   18  C   UNL     1      -9.455   4.908  72.121  1.00  0.00    -0.182 C  
HETATM   19  O   UNL     1      -7.064   4.461  72.093  1.00  0.00    -0.056 OA 
BRANCH  16  20
HETATM   20  O   UNL     1      -7.998   5.656  73.819  1.00  0.00    -0.107 OA 
BRANCH  20  21
HETATM   21  C   UNL     1      -7.239   6.873  73.802  1.00  0.00    -0.080 C  
HETATM   22  C   UNL     1      -8.220   8.027  73.899  1.00  0.00    -0.306 C  
ENDBRANCH  20  21
ENDBRANCH  16  20
ENDBRANCH   1  15
BRANCH   1  23
HETATM   23  N   UNL     1     -11.123   6.824  69.313  1.00  0.00    -0.437 N  
HETATM   24  C   UNL     1     -10.696   6.118  68.220  1.00  0.00    -0.290 C  
HETATM   25  H   UNL     1     -11.437   7.785  69.181  1.00  0.00     0.000 HD 
HETATM   26  O   UNL     1     -10.248   4.974  68.247  1.00  0.00    -0.145 OA 
BRANCH  24  27
HETATM   27  C   UNL     1     -10.659   6.897  66.932  1.00  0.00    -0.372 C  
BRANCH  27  28
HETATM   28  C   UNL     1     -10.648   8.379  67.252  1.00  0.00    -0.328 C  
HETATM   29  O   UNL     1     -10.022  10.534  66.444  1.00  0.00    -0.202 OA 
HETATM   30  C   UNL     1      -9.959   9.319  66.284  1.00  0.00    -0.286 C  
HETATM   31  O   UNL     1      -9.278   8.796  65.254  1.00  0.00    -0.157 OA 
ENDBRANCH  27  28
ENDBRANCH  24  27
ENDBRANCH   1  23
TORSDOF 9
ENDMDL
MODEL       67
REMARK 921   NORMALIZED FREE ENERGY PREDICTED BY IDOCK:   -5.75 KCAL/MOL
REMARK 922        TOTAL FREE ENERGY PREDICTED BY IDOCK:  -10.60 KCAL/MOL
REMARK 923 INTER-LIGAND FREE ENERGY PREDICTED BY IDOCK:   -9.00 KCAL/MOL
REMARK 924 INTRA-LIGAND FREE ENERGY PREDICTED BY IDOCK:   -1.60 KCAL/MOL
REMARK 927      BINDING AFFINITY PREDICTED BY RF-SCORE:    0.00 PKD
ROOT
HETATM    1  C   UNL     1     -10.076   9.625  66.515  1.00  0.00    -0.244 C  
ENDROOT
BRANCH   1   2
HETATM    2  C   UNL     1      -9.584  10.240  67.855  1.00  0.00    -0.161 C  
BRANCH   2   3
HETATM    3  C   UNL     1     -10.414  11.311  68.530  1.00  0.00    -0.218 A  
HETATM    4  C   UNL     1     -11.829  13.214  70.122  1.00  0.00    -0.328 A  
HETATM    5  C   UNL     1     -10.153  12.676  68.426  1.00  0.00    -0.222 A  
HETATM    6  C   UNL     1     -10.817  13.597  69.232  1.00  0.00    -0.123 A  
HETATM    7  C   UNL     1     -11.488  10.917  69.337  1.00  0.00    -0.373 A  
HETATM    8  C   UNL     1     -12.194  11.854  70.104  1.00  0.00    -0.319 A  
BRANCH   4   9
HETATM    9  C   UNL     1     -12.421  14.186  71.064  1.00  0.00    -0.438 A  
HETATM   10  C   UNL     1     -11.696  15.302  71.526  1.00  0.00    -0.450 A  
HETATM   11  C   UNL     1     -12.210  16.159  72.501  1.00  0.00    -0.609 A  
HETATM   12  C   UNL     1     -13.480  15.938  73.021  1.00  0.00    -0.653 A  
HETATM   13  C   UNL     1     -14.233  14.858  72.569  1.00  0.00    -0.382 A  
HETATM   14  C   UNL     1     -13.704  13.991  71.606  1.00  0.00    -0.419 A  
ENDBRANCH   4   9
ENDBRANCH   2   3
ENDBRANCH   1   2
BRANCH   1  15
HETATM   15  C   UNL     1      -9.442   8.265  66.132  1.00  0.00    -0.241 C  
HETATM   16  C   UNL     1      -8.757   5.953  66.715  1.00  0.00    -0.117 C  
HETATM   17  C   UNL     1     -11.014   6.719  67.395  1.00  0.00    -0.407 C  
HETATM   18  C   UNL     1      -9.570   7.151  67.172  1.00  0.00    -0.191 C  
HETATM   19  O   UNL     1      -9.179   5.056  65.998  1.00  0.00    -0.142 OA 
BRANCH  16  20
HETATM   20  O   UNL     1      -7.511   6.005  67.262  1.00  0.00    -0.079 OA 
BRANCH  20  21
HETATM   21  C   UNL     1      -7.478   6.202  68.682  1.00  0.00    -0.087 C  
HETATM   22  C   UNL     1      -7.374   4.835  69.334  1.00  0.00    -0.052 C  
ENDBRANCH  20  21
ENDBRANCH  16  20
ENDBRANCH   1  15
BRANCH   1  23
HETATM   23  N   UNL     1      -9.930  10.553  65.390  1.00  0.00    -0.270 N  
HETATM   24  C   UNL     1     -10.895  11.463  65.051  1.00  0.00    -0.246 C  
HETATM   25  H   UNL     1      -9.074  10.519  64.835  1.00  0.00     0.000 HD 
HETATM   26  O   UNL     1     -11.988  11.574  65.603  1.00  0.00    -0.150 OA 
BRANCH  24  27
HETATM   27  C   UNL     1     -10.606  12.270  63.814  1.00  0.00    -0.488 C  
BRANCH  27  28
HETATM   28  C   UNL     1     -11.782  13.186  63.536  1.00  0.00    -0.472 C  
HETATM   29  O   UNL     1     -12.591  15.420  63.736  1.00  0.00    -0.678 OA 
HETATM   30  C   UNL     1     -11.716  14.615  64.034  1.00  0.00    -0.037 C  
HETATM   31  O   UNL     1     -10.683  14.979  64.809  1.00  0.00    -0.404 OA 
ENDBRANCH  27  28
ENDBRANCH  24  27
ENDBRANCH   1  23
TORSDOF 9
ENDMDL
MODEL       68
REMARK 921   NORMALIZED FREE ENERGY PREDICTED BY IDOCK:   -5.72 KCAL/MOL
REMARK 922        TOTAL FREE ENERGY PREDICTED BY IDOCK:  -10.55 KCAL/MOL
REMARK 923 INTER-LIGAND FREE ENERGY PREDICTED BY IDOCK:   -8.57 KCAL/MOL
REMARK 924 INTRA-LIGAND FREE ENERGY PREDICTED BY IDOCK:   -1.98 KCAL/MOL
REMARK 927      BINDING AFFINITY PREDICTED BY RF-SCORE:    0.00 PKD
ROOT
HETATM    1  C   UNL     1     -10.426  15.969  67.879  1.00  0.00    -0.292 C  
ENDROOT
BRANCH   1   2
HETATM    2  C   UNL     1     -11.703  15.174  68.273  1.00  0.00    -0.336 C  
BRANCH   2   3
HETATM    3  C   UNL     1     -11.665  13.661  68.275  1.00  0.00    -0.398 A  
HETATM    4  C   UNL     1     -11.226  10.839  68.253  1.00  0.00    -0.358 A  
HETATM    5  C   UNL     1     -11.935  12.879  69.397  1.00  0.00    -0.327 A  
HETATM    6  C   UNL     1     -11.683  11.510  69.395  1.00  0.00    -0.413 A  
HETATM    7  C   UNL     1     -11.306  12.998  67.095  1.00  0.00    -0.348 A  
HETATM    8  C   UNL     1     -11.108  11.610  67.080  1.00  0.00    -0.354 A  
BRANCH   4   9
HETATM    9  C   UNL     1     -10.833   9.416  68.314  1.00  0.00    -0.163 A  
HETATM   10  C   UNL     1     -10.633   8.654  67.146  1.00  0.00    -0.304 A  
HETATM   11  C   UNL     1     -10.373   7.283  67.199  1.00  0.00    -0.367 A  
HETATM   12  C   UNL     1     -10.276   6.641  68.428  1.00  0.00    -0.188 A  
HETATM   13  C   UNL     1     -10.444   7.369  69.602  1.00  0.00    -0.237 A  
HETATM   14  C   UNL     1     -10.725   8.739  69.542  1.00  0.00    -0.196 A  
ENDBRANCH   4   9
ENDBRANCH   2   3
ENDBRANCH   1   2
BRANCH   1  15
HETATM   15  C   UNL     1      -9.149  15.625  68.683  1.00  0.00    -0.205 C  
HETATM   16  C   UNL     1      -6.844  14.716  68.804  1.00  0.00    -0.095 C  
HETATM   17  C   UNL     1      -7.400  16.272  66.956  1.00  0.00    -0.264 C  
HETATM   18  C   UNL     1      -7.943  15.171  67.860  1.00  0.00    -0.143 C  
HETATM   19  O   UNL     1      -5.988  15.447  69.282  1.00  0.00    -0.104 OA 
BRANCH  16  20
HETATM   20  O   UNL     1      -6.928  13.370  68.996  1.00  0.00    -0.110 OA 
BRANCH  20  21
HETATM   21  C   UNL     1      -5.716  12.741  69.434  1.00  0.00    -0.090 C  
HETATM   22  C   UNL     1      -5.255  11.810  68.327  1.00  0.00    -0.043 C  
ENDBRANCH  20  21
ENDBRANCH  16  20
ENDBRANCH   1  15
BRANCH   1  23
HETATM   23  N   UNL     1     -10.640  17.419  67.918  1.00  0.00    -0.380 N  
HETATM   24  C   UNL     1     -10.612  18.203  66.796  1.00  0.00    -0.291 C  
HETATM   25  H   UNL     1     -10.816  17.863  68.820  1.00  0.00     0.000 HD 
HETATM   26  O   UNL     1     -10.361  17.803  65.660  1.00  0.00    -0.612 OA 
BRANCH  24  27
HETATM   27  C   UNL     1     -10.764  19.680  67.044  1.00  0.00    -0.575 C  
BRANCH  27  28
HETATM   28  C   UNL     1      -9.461  20.374  66.699  1.00  0.00    -0.442 C  
HETATM   29  O   UNL     1      -7.159  20.584  67.286  1.00  0.00    -0.272 OA 
HETATM   30  C   UNL     1      -8.259  20.135  67.590  1.00  0.00    -0.294 C  
HETATM   31  O   UNL     1      -8.425  19.425  68.716  1.00  0.00    -0.366 OA 
ENDBRANCH  27  28
ENDBRANCH  24  27
ENDBRANCH   1  23
TORSDOF 9
ENDMDL
MODEL       69
REMARK 921   NORMALIZED FREE ENERGY PREDICTED BY IDOCK:   -5.72 KCAL/MOL
REMARK 922        TOTAL FREE ENERGY PREDICTED BY IDOCK:  -10.54 KCAL/MOL
REMARK 923 INTER-LIGAND FREE ENERGY PREDICTED BY IDOCK:   -9.40 KCAL/MOL
REMARK 924 INTRA-LIGAND FREE ENERGY PREDICTED BY IDOCK:   -1.15 KCAL/MOL
REMARK 927      BINDING AFFINITY PREDICTED BY RF-SCORE:    0.00 PKD
ROOT
HETATM    1  C   UNL     1      -9.793  10.723  68.690  1.00  0.00    -0.184 C  
ENDROOT
BRANCH   1   2
HETATM    2  C   UNL     1      -9.929  11.614  67.424  1.00  0.00    -0.200 C  
BRANCH   2   3
HETATM    3  C   UNL     1     -10.135  13.105  67.582  1.00  0.00    -0.221 A  
HETATM    4  C   UNL     1     -10.281  15.957  67.604  1.00  0.00    -0.263 A  
HETATM    5  C   UNL     1     -11.302  13.771  67.213  1.00  0.00    -0.343 A  
HETATM    6  C   UNL     1     -11.357  15.163  67.186  1.00  0.00    -0.291 A  
HETATM    7  C   UNL     1      -9.085  13.875  68.097  1.00  0.00    -0.193 A  
HETATM    8  C   UNL     1      -9.165  15.275  68.124  1.00  0.00    -0.183 A  
BRANCH   4   9
HETATM    9  C   UNL     1     -10.311  17.425  67.436  1.00  0.00    -0.343 A  
HETATM   10  C   UNL     1     -10.461  18.021  66.168  1.00  0.00    -0.336 A  
HETATM   11  C   UNL     1     -10.376  19.404  65.992  1.00  0.00    -0.584 A  
HETATM   12  C   UNL     1     -10.168  20.232  67.088  1.00  0.00    -0.500 A  
HETATM   13  C   UNL     1     -10.040  19.678  68.358  1.00  0.00    -0.557 A  
HETATM   14  C   UNL     1     -10.105  18.290  68.526  1.00  0.00    -0.419 A  
ENDBRANCH   4   9
ENDBRANCH   2   3
ENDBRANCH   1   2
BRANCH   1  15
HETATM   15  C   UNL     1     -10.123   9.223  68.491  1.00  0.00    -0.211 C  
HETATM   16  C   UNL     1      -9.415   6.895  68.008  1.00  0.00    -0.124 C  
HETATM   17  C   UNL     1      -8.100   8.209  69.647  1.00  0.00    -0.118 C  
HETATM   18  C   UNL     1      -8.922   8.286  68.366  1.00  0.00    -0.136 C  
HETATM   19  O   UNL     1      -9.742   6.041  68.820  1.00  0.00    -0.126 OA 
BRANCH  16  20
HETATM   20  O   UNL     1      -9.391   6.730  66.656  1.00  0.00    -0.156 OA 
BRANCH  20  21
HETATM   21  C   UNL     1      -9.018   5.419  66.210  1.00  0.00    -0.137 C  
HETATM   22  C   UNL     1     -10.291   4.684  65.827  1.00  0.00    -0.295 C  
ENDBRANCH  20  21
ENDBRANCH  16  20
ENDBRANCH   1  15
BRANCH   1  23
HETATM   23  N   UNL     1     -10.574  11.237  69.820  1.00  0.00    -0.441 N  
HETATM   24  C   UNL     1     -11.943  11.278  69.816  1.00  0.00    -0.360 C  
HETATM   25  H   UNL     1     -10.077  11.579  70.642  1.00  0.00     0.000 HD 
HETATM   26  O   UNL     1     -12.658  10.945  68.873  1.00  0.00    -0.338 OA 
BRANCH  24  27
HETATM   27  C   UNL     1     -12.565  11.920  71.027  1.00  0.00    -0.381 C  
BRANCH  27  28
HETATM   28  C   UNL     1     -12.492  13.427  70.877  1.00  0.00    -0.439 C  
HETATM   29  O   UNL     1     -13.257  15.505  71.765  1.00  0.00    -0.424 OA 
HETATM   30  C   UNL     1     -13.366  14.283  71.772  1.00  0.00    -0.371 C  
HETATM   31  O   UNL     1     -14.261  13.678  72.567  1.00  0.00    -0.724 OA 
ENDBRANCH  27  28
ENDBRANCH  24  27
ENDBRANCH   1  23
TORSDOF 9
ENDMDL
MODEL       70
REMARK 921   NORMALIZED FREE ENERGY PREDICTED BY IDOCK:   -5.71 KCAL/MOL
REMARK 922        TOTAL FREE ENERGY PREDICTED BY IDOCK:  -10.53 KCAL/MOL
REMARK 923 INTER-LIGAND FREE ENERGY PREDICTED BY IDOCK:   -8.70 KCAL/MOL
REMARK 924 INTRA-LIGAND FREE ENERGY PREDICTED BY IDOCK:   -1.83 KCAL/MOL
REMARK 927      BINDING AFFINITY PREDICTED BY RF-SCORE:    0.00 PKD
ROOT
HETATM    1  C   UNL     1     -11.574  13.853  68.265  1.00  0.00    -0.337 C  
ENDROOT
BRANCH   1   2
HETATM    2  C   UNL     1     -10.063  13.865  68.627  1.00  0.00    -0.203 C  
BRANCH   2   3
HETATM    3  C   UNL     1      -9.243  15.108  68.356  1.00  0.00    -0.189 A  
HETATM    4  C   UNL     1      -7.891  17.484  67.530  1.00  0.00    -0.210 A  
HETATM    5  C   UNL     1      -9.389  16.303  69.058  1.00  0.00    -0.254 A  
HETATM    6  C   UNL     1      -8.760  17.469  68.629  1.00  0.00    -0.258 A  
HETATM    7  C   UNL     1      -8.304  15.078  67.318  1.00  0.00    -0.228 A  
HETATM    8  C   UNL     1      -7.627  16.240  66.925  1.00  0.00    -0.279 A  
BRANCH   4   9
HETATM    9  C   UNL     1      -7.346  18.755  67.010  1.00  0.00    -0.224 A  
HETATM   10  C   UNL     1      -6.610  18.808  65.810  1.00  0.00    -0.296 A  
HETATM   11  C   UNL     1      -5.998  19.985  65.374  1.00  0.00    -0.228 A  
HETATM   12  C   UNL     1      -6.132  21.153  66.116  1.00  0.00    -0.309 A  
HETATM   13  C   UNL     1      -6.873  21.142  67.294  1.00  0.00    -0.408 A  
HETATM   14  C   UNL     1      -7.467  19.954  67.736  1.00  0.00    -0.326 A  
ENDBRANCH   4   9
ENDBRANCH   2   3
ENDBRANCH   1   2
BRANCH   1  15
HETATM   15  C   UNL     1     -12.527  13.373  69.387  1.00  0.00     0.046 C  
HETATM   16  C   UNL     1     -13.146  13.216  71.784  1.00  0.00    -0.383 C  
HETATM   17  C   UNL     1     -12.439  15.418  70.892  1.00  0.00    -0.474 C  
HETATM   18  C   UNL     1     -12.235  13.911  70.787  1.00  0.00    -0.441 C  
HETATM   19  O   UNL     1     -14.267  13.599  72.089  1.00  0.00    -0.491 OA 
BRANCH  16  20
HETATM   20  O   UNL     1     -12.509  12.136  72.317  1.00  0.00     0.321 OA 
BRANCH  20  21
HETATM   21  C   UNL     1     -13.017  10.862  71.899  1.00  0.00    -0.396 C  
HETATM   22  C   UNL     1     -11.865  10.087  71.284  1.00  0.00    -0.471 C  
ENDBRANCH  20  21
ENDBRANCH  16  20
ENDBRANCH   1  15
BRANCH   1  23
HETATM   23  N   UNL     1     -11.848  13.086  67.046  1.00  0.00    -0.381 N  
HETATM   24  C   UNL     1     -11.775  13.636  65.794  1.00  0.00    -0.348 C  
HETATM   25  H   UNL     1     -12.103  12.102  67.133  1.00  0.00     0.000 HD 
HETATM   26  O   UNL     1     -11.528  14.816  65.552  1.00  0.00    -0.341 OA 
BRANCH  24  27
HETATM   27  C   UNL     1     -12.176  12.718  64.669  1.00  0.00    -0.510 C  
BRANCH  27  28
HETATM   28  C   UNL     1     -11.446  11.398  64.827  1.00  0.00    -0.056 C  
HETATM   29  O   UNL     1      -9.496  10.173  64.204  1.00  0.00    -0.272 OA 
HETATM   30  C   UNL     1     -10.179  11.176  64.025  1.00  0.00    -0.361 C  
HETATM   31  O   UNL     1      -9.824  12.095  63.115  1.00  0.00    -0.398 OA 
ENDBRANCH  27  28
ENDBRANCH  24  27
ENDBRANCH   1  23
TORSDOF 9
ENDMDL
MODEL       71
REMARK 921   NORMALIZED FREE ENERGY PREDICTED BY IDOCK:   -5.70 KCAL/MOL
REMARK 922        TOTAL FREE ENERGY PREDICTED BY IDOCK:  -10.52 KCAL/MOL
REMARK 923 INTER-LIGAND FREE ENERGY PREDICTED BY IDOCK:   -9.90 KCAL/MOL
REMARK 924 INTRA-LIGAND FREE ENERGY PREDICTED BY IDOCK:   -0.63 KCAL/MOL
REMARK 927      BINDING AFFINITY PREDICTED BY RF-SCORE:    0.00 PKD
ROOT
HETATM    1  C   UNL     1      -9.598  11.115  68.194  1.00  0.00    -0.179 C  
ENDROOT
BRANCH   1   2
HETATM    2  C   UNL     1     -10.194  11.913  67.000  1.00  0.00    -0.233 C  
BRANCH   2   3
HETATM    3  C   UNL     1      -9.955  13.404  66.910  1.00  0.00    -0.252 A  
HETATM    4  C   UNL     1      -9.774  16.254  66.989  1.00  0.00    -0.244 A  
HETATM    5  C   UNL     1      -8.828  14.042  67.425  1.00  0.00    -0.210 A  
HETATM    6  C   UNL     1      -8.760  15.432  67.499  1.00  0.00    -0.186 A  
HETATM    7  C   UNL     1     -10.932  14.205  66.305  1.00  0.00    -0.303 A  
HETATM    8  C   UNL     1     -10.834  15.603  66.329  1.00  0.00    -0.262 A  
BRANCH   4   9
HETATM    9  C   UNL     1      -9.746  17.715  67.203  1.00  0.00    -0.291 A  
HETATM   10  C   UNL     1     -10.008  18.283  68.465  1.00  0.00    -0.413 A  
HETATM   11  C   UNL     1     -10.094  19.665  68.645  1.00  0.00    -0.547 A  
HETATM   12  C   UNL     1      -9.889  20.520  67.569  1.00  0.00    -0.534 A  
HETATM   13  C   UNL     1      -9.602  19.994  66.313  1.00  0.00    -0.516 A  
HETATM   14  C   UNL     1      -9.538  18.607  66.134  1.00  0.00    -0.214 A  
ENDBRANCH   4   9
ENDBRANCH   2   3
ENDBRANCH   1   2
BRANCH   1  15
HETATM   15  C   UNL     1      -9.422   9.594  67.959  1.00  0.00    -0.146 C  
HETATM   16  C   UNL     1      -9.912   7.529  66.675  1.00  0.00    -0.200 C  
HETATM   17  C   UNL     1      -9.333   9.586  65.420  1.00  0.00    -0.324 C  
HETATM   18  C   UNL     1     -10.022   9.044  66.666  1.00  0.00    -0.349 C  
HETATM   19  O   UNL     1      -8.950   6.897  66.260  1.00  0.00    -0.150 OA 
BRANCH  16  20
HETATM   20  O   UNL     1     -11.060   6.985  67.167  1.00  0.00    -0.350 OA 
BRANCH  20  21
HETATM   21  C   UNL     1     -10.873   5.928  68.118  1.00  0.00    -0.236 C  
HETATM   22  C   UNL     1     -11.150   6.497  69.498  1.00  0.00    -0.425 C  
ENDBRANCH  20  21
ENDBRANCH  16  20
ENDBRANCH   1  15
BRANCH   1  23
HETATM   23  N   UNL     1     -10.351  11.322  69.434  1.00  0.00    -0.435 N  
HETATM   24  C   UNL     1     -11.715  11.228  69.497  1.00  0.00    -0.345 C  
HETATM   25  H   UNL     1      -9.837  11.548  70.286  1.00  0.00     0.000 HD 
HETATM   26  O   UNL     1     -12.455  11.013  68.538  1.00  0.00    -0.440 OA 
BRANCH  24  27
HETATM   27  C   UNL     1     -12.318  11.560  70.836  1.00  0.00    -0.460 C  
BRANCH  27  28
HETATM   28  C   UNL     1     -12.315  13.066  71.017  1.00  0.00    -0.335 C  
HETATM   29  O   UNL     1     -13.184  14.865  72.318  1.00  0.00    -0.325 OA 
HETATM   30  C   UNL     1     -13.235  13.668  72.059  1.00  0.00    -0.434 C  
HETATM   31  O   UNL     1     -14.106  12.865  72.689  1.00  0.00    -0.562 OA 
ENDBRANCH  27  28
ENDBRANCH  24  27
ENDBRANCH   1  23
TORSDOF 9
ENDMDL
MODEL       72
REMARK 921   NORMALIZED FREE ENERGY PREDICTED BY IDOCK:   -5.68 KCAL/MOL
REMARK 922        TOTAL FREE ENERGY PREDICTED BY IDOCK:  -10.49 KCAL/MOL
REMARK 923 INTER-LIGAND FREE ENERGY PREDICTED BY IDOCK:   -8.82 KCAL/MOL
REMARK 924 INTRA-LIGAND FREE ENERGY PREDICTED BY IDOCK:   -1.67 KCAL/MOL
REMARK 927      BINDING AFFINITY PREDICTED BY RF-SCORE:    0.00 PKD
ROOT
HETATM    1  C   UNL     1     -10.511   9.964  66.914  1.00  0.00    -0.215 C  
ENDROOT
BRANCH   1   2
HETATM    2  C   UNL     1      -9.934  10.703  68.154  1.00  0.00    -0.176 C  
BRANCH   2   3
HETATM    3  C   UNL     1     -10.014  12.213  68.223  1.00  0.00    -0.212 A  
HETATM    4  C   UNL     1     -10.129  15.057  67.986  1.00  0.00    -0.223 A  
HETATM    5  C   UNL     1     -11.182  12.915  68.516  1.00  0.00    -0.310 A  
HETATM    6  C   UNL     1     -11.246  14.298  68.361  1.00  0.00    -0.291 A  
HETATM    7  C   UNL     1      -8.862  12.959  67.946  1.00  0.00    -0.190 A  
HETATM    8  C   UNL     1      -8.915  14.356  67.847  1.00  0.00    -0.186 A  
BRANCH   4   9
HETATM    9  C   UNL     1     -10.254  16.499  67.693  1.00  0.00    -0.279 A  
HETATM   10  C   UNL     1     -10.323  16.982  66.372  1.00  0.00    -0.304 A  
HETATM   11  C   UNL     1     -10.327  18.349  66.088  1.00  0.00    -0.431 A  
HETATM   12  C   UNL     1     -10.293  19.274  67.126  1.00  0.00    -0.533 A  
HETATM   13  C   UNL     1     -10.250  18.831  68.444  1.00  0.00    -0.413 A  
HETATM   14  C   UNL     1     -10.225  17.459  68.722  1.00  0.00    -0.361 A  
ENDBRANCH   4   9
ENDBRANCH   2   3
ENDBRANCH   1   2
BRANCH   1  15
HETATM   15  C   UNL     1      -9.668   8.775  66.392  1.00  0.00    -0.335 C  
HETATM   16  C   UNL     1      -8.738   6.492  66.668  1.00  0.00    -0.128 C  
HETATM   17  C   UNL     1     -11.132   6.859  67.195  1.00  0.00    -0.362 C  
HETATM   18  C   UNL     1      -9.744   7.489  67.215  1.00  0.00    -0.217 C  
HETATM   19  O   UNL     1      -8.965   5.692  65.771  1.00  0.00    -0.155 OA 
BRANCH  16  20
HETATM   20  O   UNL     1      -7.568   6.590  67.358  1.00  0.00    -0.096 OA 
BRANCH  20  21
HETATM   21  C   UNL     1      -7.707   6.656  68.785  1.00  0.00    -0.109 C  
HETATM   22  C   UNL     1      -6.721   7.692  69.295  1.00  0.00    -0.044 C  
ENDBRANCH  20  21
ENDBRANCH  16  20
ENDBRANCH   1  15
BRANCH   1  23
HETATM   23  N   UNL     1     -10.790  10.876  65.801  1.00  0.00    -0.115 N  
HETATM   24  C   UNL     1      -9.846  11.219  64.870  1.00  0.00    -0.264 C  
HETATM   25  H   UNL     1     -11.725  11.274  65.717  1.00  0.00     0.000 HD 
HETATM   26  O   UNL     1      -8.672  10.852  64.884  1.00  0.00    -0.159 OA 
BRANCH  24  27
HETATM   27  C   UNL     1     -10.291  12.236  63.854  1.00  0.00    -0.455 C  
BRANCH  27  28
HETATM   28  C   UNL     1     -11.023  13.357  64.566  1.00  0.00    -0.404 C  
HETATM   29  O   UNL     1     -13.154  14.101  65.335  1.00  0.00    -0.743 OA 
HETATM   30  C   UNL     1     -12.532  13.278  64.671  1.00  0.00    -0.349 C  
HETATM   31  O   UNL     1     -13.172  12.294  64.022  1.00  0.00    -0.757 OA 
ENDBRANCH  27  28
ENDBRANCH  24  27
ENDBRANCH   1  23
TORSDOF 9
ENDMDL
MODEL       73
REMARK 921   NORMALIZED FREE ENERGY PREDICTED BY IDOCK:   -5.66 KCAL/MOL
REMARK 922        TOTAL FREE ENERGY PREDICTED BY IDOCK:  -10.46 KCAL/MOL
REMARK 923 INTER-LIGAND FREE ENERGY PREDICTED BY IDOCK:   -8.97 KCAL/MOL
REMARK 924 INTRA-LIGAND FREE ENERGY PREDICTED BY IDOCK:   -1.49 KCAL/MOL
REMARK 927      BINDING AFFINITY PREDICTED BY RF-SCORE:    0.00 PKD
ROOT
HETATM    1  C   UNL     1      -9.470  15.084  68.014  1.00  0.00    -0.193 C  
ENDROOT
BRANCH   1   2
HETATM    2  C   UNL     1      -8.445  14.055  67.459  1.00  0.00    -0.201 C  
BRANCH   2   3
HETATM    3  C   UNL     1      -8.796  12.584  67.455  1.00  0.00    -0.184 A  
HETATM    4  C   UNL     1      -9.608   9.865  67.781  1.00  0.00    -0.163 A  
HETATM    5  C   UNL     1      -9.786  12.024  66.649  1.00  0.00    -0.221 A  
HETATM    6  C   UNL     1     -10.207  10.710  66.837  1.00  0.00    -0.272 A  
HETATM    7  C   UNL     1      -8.117  11.730  68.333  1.00  0.00    -0.150 A  
HETATM    8  C   UNL     1      -8.504  10.391  68.480  1.00  0.00    -0.129 A  
BRANCH   4   9
HETATM    9  C   UNL     1     -10.162   8.524  68.059  1.00  0.00    -0.264 A  
HETATM   10  C   UNL     1     -10.314   8.046  69.375  1.00  0.00    -0.217 A  
HETATM   11  C   UNL     1     -10.730   6.739  69.639  1.00  0.00    -0.290 A  
HETATM   12  C   UNL     1     -11.035   5.881  68.588  1.00  0.00    -0.289 A  
HETATM   13  C   UNL     1     -10.919   6.330  67.275  1.00  0.00    -0.455 A  
HETATM   14  C   UNL     1     -10.482   7.634  67.017  1.00  0.00    -0.419 A  
ENDBRANCH   4   9
ENDBRANCH   2   3
ENDBRANCH   1   2
BRANCH   1  15
HETATM   15  C   UNL     1      -8.891  16.470  68.389  1.00  0.00    -0.218 C  
HETATM   16  C   UNL     1      -8.377  18.829  67.819  1.00  0.00    -0.271 C  
HETATM   17  C   UNL     1     -10.627  17.949  67.267  1.00  0.00    -0.341 C  
HETATM   18  C   UNL     1      -9.149  17.596  67.387  1.00  0.00    -0.239 C  
HETATM   19  O   UNL     1      -8.801  19.685  68.583  1.00  0.00    -0.344 OA 
BRANCH  16  20
HETATM   20  O   UNL     1      -7.168  18.861  67.192  1.00  0.00    -0.211 OA 
BRANCH  20  21
HETATM   21  C   UNL     1      -6.624  20.172  66.986  1.00  0.00    -0.213 C  
HETATM   22  C   UNL     1      -6.875  20.552  65.538  1.00  0.00    -0.230 C  
ENDBRANCH  20  21
ENDBRANCH  16  20
ENDBRANCH   1  15
BRANCH   1  23
HETATM   23  N   UNL     1     -10.225  14.558  69.155  1.00  0.00    -0.355 N  
HETATM   24  C   UNL     1     -11.533  14.166  69.060  1.00  0.00    -0.285 C  
HETATM   25  H   UNL     1      -9.756  14.480  70.058  1.00  0.00     0.000 HD 
HETATM   26  O   UNL     1     -12.227  14.254  68.048  1.00  0.00    -0.293 OA 
BRANCH  24  27
HETATM   27  C   UNL     1     -12.167  13.736  70.356  1.00  0.00    -0.433 C  
BRANCH  27  28
HETATM   28  C   UNL     1     -12.647  14.966  71.102  1.00  0.00    -0.404 C  
HETATM   29  O   UNL     1     -13.886  15.728  72.992  1.00  0.00    -0.561 OA 
HETATM   30  C   UNL     1     -13.565  14.774  72.292  1.00  0.00    -0.429 C  
HETATM   31  O   UNL     1     -14.020  13.541  72.561  1.00  0.00    -0.701 OA 
ENDBRANCH  27  28
ENDBRANCH  24  27
ENDBRANCH   1  23
TORSDOF 9
ENDMDL
MODEL       74
REMARK 921   NORMALIZED FREE ENERGY PREDICTED BY IDOCK:   -5.63 KCAL/MOL
REMARK 922        TOTAL FREE ENERGY PREDICTED BY IDOCK:  -10.42 KCAL/MOL
REMARK 923 INTER-LIGAND FREE ENERGY PREDICTED BY IDOCK:   -8.44 KCAL/MOL
REMARK 924 INTRA-LIGAND FREE ENERGY PREDICTED BY IDOCK:   -1.98 KCAL/MOL
REMARK 927      BINDING AFFINITY PREDICTED BY RF-SCORE:    0.00 PKD
ROOT
HETATM    1  C   UNL     1      -9.842   7.900  71.540  1.00  0.00    -0.165 C  
ENDROOT
BRANCH   1   2
HETATM    2  C   UNL     1      -8.822   8.864  70.872  1.00  0.00    -0.268 C  
BRANCH   2   3
HETATM    3  C   UNL     1      -9.155   9.492  69.536  1.00  0.00    -0.193 A  
HETATM    4  C   UNL     1     -10.138  10.675  67.130  1.00  0.00    -0.248 A  
HETATM    5  C   UNL     1      -8.835  10.804  69.194  1.00  0.00    -0.098 A  
HETATM    6  C   UNL     1      -9.349  11.391  68.040  1.00  0.00    -0.171 A  
HETATM    7  C   UNL     1      -9.857   8.730  68.594  1.00  0.00    -0.180 A  
HETATM    8  C   UNL     1     -10.324   9.307  67.405  1.00  0.00    -0.327 A  
BRANCH   4   9
HETATM    9  C   UNL     1     -10.785  11.354  65.988  1.00  0.00    -0.318 A  
HETATM   10  C   UNL     1     -11.762  12.350  66.177  1.00  0.00    -0.460 A  
HETATM   11  C   UNL     1     -12.455  12.913  65.103  1.00  0.00    -0.561 A  
HETATM   12  C   UNL     1     -12.167  12.512  63.804  1.00  0.00    -0.615 A  
HETATM   13  C   UNL     1     -11.190  11.547  63.579  1.00  0.00    -0.412 A  
HETATM   14  C   UNL     1     -10.512  10.972  64.661  1.00  0.00    -0.398 A  
ENDBRANCH   4   9
ENDBRANCH   2   3
ENDBRANCH   1   2
BRANCH   1  15
HETATM   15  C   UNL     1     -11.089   8.573  72.163  1.00  0.00    -0.436 C  
HETATM   16  C   UNL     1     -13.417   9.412  71.982  1.00  0.00    -0.449 C  
HETATM   17  C   UNL     1     -12.898   7.171  71.059  1.00  0.00    -0.268 C  
HETATM   18  C   UNL     1     -12.351   8.573  71.300  1.00  0.00    -0.301 C  
HETATM   19  O   UNL     1     -14.220   8.988  72.801  1.00  0.00    -0.572 OA 
BRANCH  16  20
HETATM   20  O   UNL     1     -13.373  10.689  71.509  1.00  0.00    -0.347 OA 
BRANCH  20  21
HETATM   21  C   UNL     1     -12.619  10.864  70.301  1.00  0.00    -0.265 C  
HETATM   22  C   UNL     1     -12.052  12.272  70.314  1.00  0.00    -0.376 C  
ENDBRANCH  20  21
ENDBRANCH  16  20
ENDBRANCH   1  15
BRANCH   1  23
HETATM   23  N   UNL     1      -9.216   7.034  72.542  1.00  0.00    -0.138 N  
HETATM   24  C   UNL     1      -8.538   7.525  73.625  1.00  0.00    -0.196 C  
HETATM   25  H   UNL     1      -9.287   6.022  72.429  1.00  0.00     0.000 HD 
HETATM   26  O   UNL     1      -8.336   8.717  73.853  1.00  0.00    -0.349 OA 
BRANCH  24  27
HETATM   27  C   UNL     1      -7.887   6.485  74.498  1.00  0.00    -0.114 C  
BRANCH  27  28
HETATM   28  C   UNL     1      -6.591   6.038  73.850  1.00  0.00    -0.075 C  
HETATM   29  O   UNL     1      -5.631   4.533  72.269  1.00  0.00    -0.004 OA 
HETATM   30  C   UNL     1      -6.630   4.857  72.902  1.00  0.00    -0.060 C  
HETATM   31  O   UNL     1      -7.777   4.173  72.772  1.00  0.00    -0.076 OA 
ENDBRANCH  27  28
ENDBRANCH  24  27
ENDBRANCH   1  23
TORSDOF 9
ENDMDL
MODEL       75
REMARK 921   NORMALIZED FREE ENERGY PREDICTED BY IDOCK:   -5.60 KCAL/MOL
REMARK 922        TOTAL FREE ENERGY PREDICTED BY IDOCK:  -10.37 KCAL/MOL
REMARK 923 INTER-LIGAND FREE ENERGY PREDICTED BY IDOCK:   -8.89 KCAL/MOL
REMARK 924 INTRA-LIGAND FREE ENERGY PREDICTED BY IDOCK:   -1.48 KCAL/MOL
REMARK 927      BINDING AFFINITY PREDICTED BY RF-SCORE:    0.00 PKD
ROOT
HETATM    1  C   UNL     1     -11.011  11.345  66.339  1.00  0.00    -0.260 C  
ENDROOT
BRANCH   1   2
HETATM    2  C   UNL     1     -11.849  12.643  66.167  1.00  0.00    -0.477 C  
BRANCH   2   3
HETATM    3  C   UNL     1     -11.233  13.979  66.523  1.00  0.00    -0.326 A  
HETATM    4  C   UNL     1     -10.298  16.645  66.942  1.00  0.00    -0.299 A  
HETATM    5  C   UNL     1     -11.467  14.646  67.724  1.00  0.00    -0.359 A  
HETATM    6  C   UNL     1     -11.044  15.959  67.910  1.00  0.00    -0.317 A  
HETATM    7  C   UNL     1     -10.405  14.607  65.585  1.00  0.00    -0.370 A  
HETATM    8  C   UNL     1      -9.931  15.908  65.799  1.00  0.00    -0.391 A  
BRANCH   4   9
HETATM    9  C   UNL     1      -9.981  18.079  67.102  1.00  0.00    -0.326 A  
HETATM   10  C   UNL     1     -10.430  18.815  68.216  1.00  0.00    -0.321 A  
HETATM   11  C   UNL     1     -10.229  20.194  68.314  1.00  0.00    -0.464 A  
HETATM   12  C   UNL     1      -9.545  20.870  67.311  1.00  0.00    -0.386 A  
HETATM   13  C   UNL     1      -9.066  20.169  66.208  1.00  0.00    -0.348 A  
HETATM   14  C   UNL     1      -9.288  18.790  66.105  1.00  0.00    -0.173 A  
ENDBRANCH   4   9
ENDBRANCH   2   3
ENDBRANCH   1   2
BRANCH   1  15
HETATM   15  C   UNL     1     -10.427  11.108  67.753  1.00  0.00    -0.225 C  
HETATM   16  C   UNL     1     -10.439   9.922  69.931  1.00  0.00    -0.269 C  
HETATM   17  C   UNL     1     -10.640   8.578  67.858  1.00  0.00    -0.219 C  
HETATM   18  C   UNL     1     -10.988   9.908  68.516  1.00  0.00    -0.226 C  
HETATM   19  O   UNL     1      -9.391   9.396  70.278  1.00  0.00    -0.215 OA 
BRANCH  16  20
HETATM   20  O   UNL     1     -11.311  10.563  70.759  1.00  0.00    -0.327 OA 
BRANCH  20  21
HETATM   21  C   UNL     1     -12.682  10.165  70.623  1.00  0.00    -0.255 C  
HETATM   22  C   UNL     1     -13.207   9.842  72.011  1.00  0.00    -0.557 C  
ENDBRANCH  20  21
ENDBRANCH  16  20
ENDBRANCH   1  15
BRANCH   1  23
HETATM   23  N   UNL     1      -9.931  11.245  65.353  1.00  0.00    -0.237 N  
HETATM   24  C   UNL     1     -10.156  11.278  64.003  1.00  0.00    -0.329 C  
HETATM   25  H   UNL     1      -8.972  11.147  65.686  1.00  0.00     0.000 HD 
HETATM   26  O   UNL     1     -11.262  11.342  63.470  1.00  0.00    -0.391 OA 
BRANCH  24  27
HETATM   27  C   UNL     1      -8.934  11.073  63.147  1.00  0.00    -0.209 C  
BRANCH  27  28
HETATM   28  C   UNL     1      -8.826   9.605  62.785  1.00  0.00    -0.251 C  
HETATM   29  O   UNL     1      -8.108   7.464  63.554  1.00  0.00    -0.101 OA 
HETATM   30  C   UNL     1      -8.120   8.675  63.750  1.00  0.00    -0.163 C  
HETATM   31  O   UNL     1      -7.506   9.203  64.819  1.00  0.00    -0.102 OA 
ENDBRANCH  27  28
ENDBRANCH  24  27
ENDBRANCH   1  23
TORSDOF 9
ENDMDL
MODEL       76
REMARK 921   NORMALIZED FREE ENERGY PREDICTED BY IDOCK:   -5.57 KCAL/MOL
REMARK 922        TOTAL FREE ENERGY PREDICTED BY IDOCK:  -10.32 KCAL/MOL
REMARK 923 INTER-LIGAND FREE ENERGY PREDICTED BY IDOCK:   -9.35 KCAL/MOL
REMARK 924 INTRA-LIGAND FREE ENERGY PREDICTED BY IDOCK:   -0.97 KCAL/MOL
REMARK 927      BINDING AFFINITY PREDICTED BY RF-SCORE:    0.00 PKD
ROOT
HETATM    1  C   UNL     1     -10.421  10.893  66.690  1.00  0.00    -0.254 C  
ENDROOT
BRANCH   1   2
HETATM    2  C   UNL     1     -11.511  11.997  66.788  1.00  0.00    -0.410 C  
BRANCH   2   3
HETATM    3  C   UNL     1     -11.101  13.424  67.080  1.00  0.00    -0.303 A  
HETATM    4  C   UNL     1     -10.480  16.203  67.307  1.00  0.00    -0.309 A  
HETATM    5  C   UNL     1     -11.705  14.222  68.050  1.00  0.00    -0.386 A  
HETATM    6  C   UNL     1     -11.430  15.585  68.132  1.00  0.00    -0.332 A  
HETATM    7  C   UNL     1     -10.078  13.998  66.315  1.00  0.00    -0.307 A  
HETATM    8  C   UNL     1      -9.762  15.357  66.440  1.00  0.00    -0.311 A  
BRANCH   4   9
HETATM    9  C   UNL     1     -10.306  17.670  67.316  1.00  0.00    -0.354 A  
HETATM   10  C   UNL     1     -10.164  18.389  68.519  1.00  0.00    -0.394 A  
HETATM   11  C   UNL     1     -10.113  19.785  68.538  1.00  0.00    -0.555 A  
HETATM   12  C   UNL     1     -10.172  20.499  67.347  1.00  0.00    -0.342 A  
HETATM   13  C   UNL     1     -10.288  19.818  66.138  1.00  0.00    -0.627 A  
HETATM   14  C   UNL     1     -10.359  18.420  66.127  1.00  0.00    -0.431 A  
ENDBRANCH   4   9
ENDBRANCH   2   3
ENDBRANCH   1   2
BRANCH   1  15
HETATM   15  C   UNL     1      -9.482  10.988  65.462  1.00  0.00    -0.250 C  
HETATM   16  C   UNL     1      -9.023  10.620  63.053  1.00  0.00    -0.251 C  
HETATM   17  C   UNL     1     -11.192  11.631  63.696  1.00  0.00    -0.497 C  
HETATM   18  C   UNL     1     -10.110  10.642  64.112  1.00  0.00    -0.402 C  
HETATM   19  O   UNL     1      -8.658  11.592  62.407  1.00  0.00    -0.241 OA 
BRANCH  16  20
HETATM   20  O   UNL     1      -8.553   9.350  62.899  1.00  0.00    -0.194 OA 
BRANCH  20  21
HETATM   21  C   UNL     1      -7.124   9.229  62.873  1.00  0.00    -0.094 C  
HETATM   22  C   UNL     1      -6.653   9.049  64.305  1.00  0.00    -0.082 C  
ENDBRANCH  20  21
ENDBRANCH  16  20
ENDBRANCH   1  15
BRANCH   1  23
HETATM   23  N   UNL     1     -10.989   9.543  66.754  1.00  0.00    -0.011 N  
HETATM   24  C   UNL     1     -10.334   8.492  67.338  1.00  0.00    -0.286 C  
HETATM   25  H   UNL     1     -11.910   9.380  66.346  1.00  0.00     0.000 HD 
HETATM   26  O   UNL     1      -9.204   8.541  67.819  1.00  0.00    -0.135 OA 
BRANCH  24  27
HETATM   27  C   UNL     1     -11.035   7.164  67.229  1.00  0.00    -0.333 C  
BRANCH  27  28
HETATM   28  C   UNL     1     -10.305   6.150  68.088  1.00  0.00    -0.242 C  
HETATM   29  O   UNL     1     -10.332   4.995  70.174  1.00  0.00    -0.273 OA 
HETATM   30  C   UNL     1     -10.821   5.886  69.487  1.00  0.00    -0.372 C  
HETATM   31  O   UNL     1     -11.819   6.647  69.959  1.00  0.00    -0.372 OA 
ENDBRANCH  27  28
ENDBRANCH  24  27
ENDBRANCH   1  23
TORSDOF 9
ENDMDL
MODEL       77
REMARK 921   NORMALIZED FREE ENERGY PREDICTED BY IDOCK:   -5.57 KCAL/MOL
REMARK 922        TOTAL FREE ENERGY PREDICTED BY IDOCK:  -10.32 KCAL/MOL
REMARK 923 INTER-LIGAND FREE ENERGY PREDICTED BY IDOCK:   -9.17 KCAL/MOL
REMARK 924 INTRA-LIGAND FREE ENERGY PREDICTED BY IDOCK:   -1.14 KCAL/MOL
REMARK 927      BINDING AFFINITY PREDICTED BY RF-SCORE:    0.00 PKD
ROOT
HETATM    1  C   UNL     1     -11.058   6.578  69.806  1.00  0.00    -0.370 C  
ENDROOT
BRANCH   1   2
HETATM    2  C   UNL     1     -11.258   7.410  71.104  1.00  0.00    -0.279 C  
BRANCH   2   3
HETATM    3  C   UNL     1     -11.772   8.830  71.005  1.00  0.00    -0.329 A  
HETATM    4  C   UNL     1     -12.592  11.562  71.154  1.00  0.00    -0.463 A  
HETATM    5  C   UNL     1     -11.235   9.793  70.153  1.00  0.00    -0.324 A  
HETATM    6  C   UNL     1     -11.608  11.131  70.255  1.00  0.00    -0.388 A  
HETATM    7  C   UNL     1     -12.827   9.220  71.839  1.00  0.00    -0.485 A  
HETATM    8  C   UNL     1     -13.241  10.558  71.899  1.00  0.00    -0.526 A  
BRANCH   4   9
HETATM    9  C   UNL     1     -12.872  13.000  71.343  1.00  0.00    -0.385 A  
HETATM   10  C   UNL     1     -12.381  13.971  70.448  1.00  0.00    -0.429 A  
HETATM   11  C   UNL     1     -12.546  15.338  70.684  1.00  0.00    -0.471 A  
HETATM   12  C   UNL     1     -13.236  15.770  71.811  1.00  0.00    -0.474 A  
HETATM   13  C   UNL     1     -13.756  14.836  72.703  1.00  0.00    -0.547 A  
HETATM   14  C   UNL     1     -13.569  13.468  72.472  1.00  0.00    -0.674 A  
ENDBRANCH   4   9
ENDBRANCH   2   3
ENDBRANCH   1   2
BRANCH   1  15
HETATM   15  C   UNL     1     -10.368   5.204  69.992  1.00  0.00    -0.347 C  
HETATM   16  C   UNL     1      -8.368   3.746  69.836  1.00  0.00    -0.055 C  
HETATM   17  C   UNL     1      -8.106   6.001  70.832  1.00  0.00    -0.121 C  
HETATM   18  C   UNL     1      -8.854   5.184  69.785  1.00  0.00    -0.130 C  
HETATM   19  O   UNL     1      -8.034   3.159  70.856  1.00  0.00    -0.052 OA 
BRANCH  16  20
HETATM   20  O   UNL     1      -8.314   3.232  68.576  1.00  0.00    -0.071 OA 
BRANCH  20  21
HETATM   21  C   UNL     1      -8.027   4.183  67.542  1.00  0.00    -0.091 C  
HETATM   22  C   UNL     1      -8.835   3.790  66.318  1.00  0.00    -0.128 C  
ENDBRANCH  20  21
ENDBRANCH  16  20
ENDBRANCH   1  15
BRANCH   1  23
HETATM   23  N   UNL     1     -10.351   7.331  68.766  1.00  0.00    -0.196 N  
HETATM   24  C   UNL     1     -10.579   7.140  67.429  1.00  0.00    -0.302 C  
HETATM   25  H   UNL     1      -9.659   8.025  69.049  1.00  0.00     0.000 HD 
HETATM   26  O   UNL     1     -11.346   6.304  66.954  1.00  0.00    -0.260 OA 
BRANCH  24  27
HETATM   27  C   UNL     1      -9.695   7.941  66.510  1.00  0.00    -0.279 C  
BRANCH  27  28
HETATM   28  C   UNL     1     -10.283   9.329  66.347  1.00  0.00    -0.298 C  
HETATM   29  O   UNL     1     -10.241  11.310  65.020  1.00  0.00    -0.252 OA 
HETATM   30  C   UNL     1      -9.723  10.226  65.262  1.00  0.00    -0.291 C  
HETATM   31  O   UNL     1      -8.648   9.810  64.575  1.00  0.00    -0.156 OA 
ENDBRANCH  27  28
ENDBRANCH  24  27
ENDBRANCH   1  23
TORSDOF 9
ENDMDL
MODEL       78
REMARK 921   NORMALIZED FREE ENERGY PREDICTED BY IDOCK:   -5.57 KCAL/MOL
REMARK 922        TOTAL FREE ENERGY PREDICTED BY IDOCK:  -10.32 KCAL/MOL
REMARK 923 INTER-LIGAND FREE ENERGY PREDICTED BY IDOCK:   -8.86 KCAL/MOL
REMARK 924 INTRA-LIGAND FREE ENERGY PREDICTED BY IDOCK:   -1.45 KCAL/MOL
REMARK 927      BINDING AFFINITY PREDICTED BY RF-SCORE:    0.00 PKD
ROOT
HETATM    1  C   UNL     1     -11.858  12.377  67.906  1.00  0.00    -0.308 C  
ENDROOT
BRANCH   1   2
HETATM    2  C   UNL     1     -11.716  13.519  68.952  1.00  0.00    -0.379 C  
BRANCH   2   3
HETATM    3  C   UNL     1     -10.853  14.719  68.630  1.00  0.00    -0.257 A  
HETATM    4  C   UNL     1      -9.153  16.818  67.699  1.00  0.00    -0.218 A  
HETATM    5  C   UNL     1     -11.359  15.985  68.344  1.00  0.00    -0.355 A  
HETATM    6  C   UNL     1     -10.535  16.995  67.853  1.00  0.00    -0.354 A  
HETATM    7  C   UNL     1      -9.463  14.552  68.580  1.00  0.00    -0.205 A  
HETATM    8  C   UNL     1      -8.628  15.588  68.140  1.00  0.00    -0.152 A  
BRANCH   4   9
HETATM    9  C   UNL     1      -8.323  17.851  67.048  1.00  0.00    -0.248 A  
HETATM   10  C   UNL     1      -8.757  19.187  66.939  1.00  0.00    -0.318 A  
HETATM   11  C   UNL     1      -8.027  20.141  66.226  1.00  0.00    -0.278 A  
HETATM   12  C   UNL     1      -6.825  19.788  65.624  1.00  0.00    -0.316 A  
HETATM   13  C   UNL     1      -6.355  18.483  65.733  1.00  0.00    -0.291 A  
HETATM   14  C   UNL     1      -7.100  17.526  66.432  1.00  0.00    -0.321 A  
ENDBRANCH   4   9
ENDBRANCH   2   3
ENDBRANCH   1   2
BRANCH   1  15
HETATM   15  C   UNL     1     -11.354  10.986  68.362  1.00  0.00    -0.363 C  
HETATM   16  C   UNL     1     -10.663   9.411  70.149  1.00  0.00    -0.243 C  
HETATM   17  C   UNL     1     -12.733  10.733  70.481  1.00  0.00    -0.388 C  
HETATM   18  C   UNL     1     -11.337  10.743  69.871  1.00  0.00    -0.385 C  
HETATM   19  O   UNL     1     -11.238   8.332  70.186  1.00  0.00    -0.231 OA 
BRANCH  16  20
HETATM   20  O   UNL     1      -9.338   9.606  70.399  1.00  0.00    -0.251 OA 
BRANCH  20  21
HETATM   21  C   UNL     1      -8.609   8.428  70.771  1.00  0.00    -0.145 C  
HETATM   22  C   UNL     1      -8.631   8.333  72.286  1.00  0.00    -0.257 C  
ENDBRANCH  20  21
ENDBRANCH  16  20
ENDBRANCH   1  15
BRANCH   1  23
HETATM   23  N   UNL     1     -11.232  12.715  66.624  1.00  0.00    -0.285 N  
HETATM   24  C   UNL     1     -11.952  12.902  65.475  1.00  0.00    -0.436 C  
HETATM   25  H   UNL     1     -10.217  12.815  66.587  1.00  0.00     0.000 HD 
HETATM   26  O   UNL     1     -13.170  12.762  65.372  1.00  0.00    -0.428 OA 
BRANCH  24  27
HETATM   27  C   UNL     1     -11.129  13.155  64.240  1.00  0.00    -0.426 C  
BRANCH  27  28
HETATM   28  C   UNL     1     -10.878  11.837  63.536  1.00  0.00    -0.496 C  
HETATM   29  O   UNL     1      -9.608   9.818  63.591  1.00  0.00    -0.142 OA 
HETATM   30  C   UNL     1      -9.773  10.941  64.057  1.00  0.00    -0.301 C  
HETATM   31  O   UNL     1      -8.978  11.402  65.034  1.00  0.00    -0.087 OA 
ENDBRANCH  27  28
ENDBRANCH  24  27
ENDBRANCH   1  23
TORSDOF 9
ENDMDL
MODEL       79
REMARK 921   NORMALIZED FREE ENERGY PREDICTED BY IDOCK:   -5.54 KCAL/MOL
REMARK 922        TOTAL FREE ENERGY PREDICTED BY IDOCK:  -10.28 KCAL/MOL
REMARK 923 INTER-LIGAND FREE ENERGY PREDICTED BY IDOCK:   -9.31 KCAL/MOL
REMARK 924 INTRA-LIGAND FREE ENERGY PREDICTED BY IDOCK:   -0.97 KCAL/MOL
REMARK 927      BINDING AFFINITY PREDICTED BY RF-SCORE:    0.00 PKD
ROOT
HETATM    1  C   UNL     1     -11.027  12.443  68.322  1.00  0.00    -0.236 C  
ENDROOT
BRANCH   1   2
HETATM    2  C   UNL     1     -11.461  10.965  68.112  1.00  0.00    -0.368 C  
BRANCH   2   3
HETATM    3  C   UNL     1     -10.475   9.974  67.534  1.00  0.00    -0.307 A  
HETATM    4  C   UNL     1      -8.871   7.847  66.505  1.00  0.00    -0.175 A  
HETATM    5  C   UNL     1     -10.138   9.912  66.183  1.00  0.00    -0.315 A  
HETATM    6  C   UNL     1      -9.389   8.852  65.678  1.00  0.00    -0.259 A  
HETATM    7  C   UNL     1      -9.885   9.038  68.392  1.00  0.00    -0.183 A  
HETATM    8  C   UNL     1      -9.083   8.004  67.888  1.00  0.00    -0.134 A  
BRANCH   4   9
HETATM    9  C   UNL     1      -8.201   6.662  65.931  1.00  0.00    -0.132 A  
HETATM   10  C   UNL     1      -7.691   6.665  64.618  1.00  0.00    -0.112 A  
HETATM   11  C   UNL     1      -7.159   5.513  64.034  1.00  0.00    -0.049 A  
HETATM   12  C   UNL     1      -7.095   4.331  64.761  1.00  0.00    -0.058 A  
HETATM   13  C   UNL     1      -7.568   4.299  66.070  1.00  0.00    -0.089 A  
HETATM   14  C   UNL     1      -8.119   5.451  66.644  1.00  0.00    -0.105 A  
ENDBRANCH   4   9
ENDBRANCH   2   3
ENDBRANCH   1   2
BRANCH   1  15
HETATM   15  C   UNL     1     -12.072  13.357  69.008  1.00  0.00    -0.299 C  
HETATM   16  C   UNL     1     -12.772  14.816  70.888  1.00  0.00    -0.342 C  
HETATM   17  C   UNL     1     -10.508  15.135  69.930  1.00  0.00    -0.234 C  
HETATM   18  C   UNL     1     -11.590  14.109  70.248  1.00  0.00    -0.267 C  
HETATM   19  O   UNL     1     -13.151  15.942  70.599  1.00  0.00    -0.467 OA 
BRANCH  16  20
HETATM   20  O   UNL     1     -13.311  14.027  71.859  1.00  0.00    -0.350 OA 
BRANCH  20  21
HETATM   21  C   UNL     1     -13.650  14.708  73.076  1.00  0.00    -0.232 C  
HETATM   22  C   UNL     1     -12.353  15.096  73.762  1.00  0.00    -0.704 C  
ENDBRANCH  20  21
ENDBRANCH  16  20
ENDBRANCH   1  15
BRANCH   1  23
HETATM   23  N   UNL     1     -10.585  13.075  67.075  1.00  0.00    -0.256 N  
HETATM   24  C   UNL     1     -11.417  13.262  66.004  1.00  0.00    -0.330 C  
HETATM   25  H   UNL     1      -9.617  13.389  67.002  1.00  0.00     0.000 HD 
HETATM   26  O   UNL     1     -12.587  12.887  65.943  1.00  0.00    -0.509 OA 
BRANCH  24  27
HETATM   27  C   UNL     1     -10.763  13.847  64.781  1.00  0.00    -0.437 C  
BRANCH  27  28
HETATM   28  C   UNL     1     -10.339  15.272  65.083  1.00  0.00    -0.413 C  
HETATM   29  O   UNL     1     -10.963  17.565  64.885  1.00  0.00    -0.887 OA 
HETATM   30  C   UNL     1     -11.204  16.405  64.570  1.00  0.00    -0.126 C  
HETATM   31  O   UNL     1     -12.235  16.112  63.762  1.00  0.00    -0.934 OA 
ENDBRANCH  27  28
ENDBRANCH  24  27
ENDBRANCH   1  23
TORSDOF 9
ENDMDL
MODEL       80
REMARK 921   NORMALIZED FREE ENERGY PREDICTED BY IDOCK:   -5.54 KCAL/MOL
REMARK 922        TOTAL FREE ENERGY PREDICTED BY IDOCK:  -10.27 KCAL/MOL
REMARK 923 INTER-LIGAND FREE ENERGY PREDICTED BY IDOCK:   -8.88 KCAL/MOL
REMARK 924 INTRA-LIGAND FREE ENERGY PREDICTED BY IDOCK:   -1.39 KCAL/MOL
REMARK 927      BINDING AFFINITY PREDICTED BY RF-SCORE:    0.00 PKD
ROOT
HETATM    1  C   UNL     1     -11.356  15.945  68.632  1.00  0.00    -0.376 C  
ENDROOT
BRANCH   1   2
HETATM    2  C   UNL     1     -11.241  15.299  67.222  1.00  0.00    -0.306 C  
BRANCH   2   3
HETATM    3  C   UNL     1     -10.918  13.825  67.104  1.00  0.00    -0.299 A  
HETATM    4  C   UNL     1     -10.210  11.061  67.237  1.00  0.00    -0.234 A  
HETATM    5  C   UNL     1     -11.884  12.826  66.993  1.00  0.00    -0.428 A  
HETATM    6  C   UNL     1     -11.540  11.480  67.098  1.00  0.00    -0.249 A  
HETATM    7  C   UNL     1      -9.577  13.427  67.141  1.00  0.00    -0.241 A  
HETATM    8  C   UNL     1      -9.228  12.070  67.188  1.00  0.00    -0.190 A  
BRANCH   4   9
HETATM    9  C   UNL     1      -9.882   9.642  67.485  1.00  0.00    -0.213 A  
HETATM   10  C   UNL     1      -9.582   8.758  66.431  1.00  0.00    -0.316 A  
HETATM   11  C   UNL     1      -9.383   7.393  66.651  1.00  0.00    -0.215 A  
HETATM   12  C   UNL     1      -9.451   6.880  67.942  1.00  0.00    -0.120 A  
HETATM   13  C   UNL     1      -9.722   7.731  69.009  1.00  0.00    -0.157 A  
HETATM   14  C   UNL     1      -9.940   9.095  68.780  1.00  0.00    -0.188 A  
ENDBRANCH   4   9
ENDBRANCH   2   3
ENDBRANCH   1   2
BRANCH   1  15
HETATM   15  C   UNL     1     -10.162  16.833  69.059  1.00  0.00    -0.310 C  
HETATM   16  C   UNL     1      -8.360  18.449  68.516  1.00  0.00    -0.323 C  
HETATM   17  C   UNL     1     -10.626  18.861  67.600  1.00  0.00    -0.501 C  
HETATM   18  C   UNL     1      -9.621  17.785  67.992  1.00  0.00    -0.291 C  
HETATM   19  O   UNL     1      -8.336  19.486  69.164  1.00  0.00    -0.298 OA 
BRANCH  16  20
HETATM   20  O   UNL     1      -7.265  17.746  68.113  1.00  0.00    -0.211 OA 
BRANCH  20  21
HETATM   21  C   UNL     1      -6.112  18.540  67.802  1.00  0.00    -0.189 C  
HETATM   22  C   UNL     1      -5.673  18.181  66.394  1.00  0.00    -0.197 C  
ENDBRANCH  20  21
ENDBRANCH  16  20
ENDBRANCH   1  15
BRANCH   1  23
HETATM   23  N   UNL     1     -11.612  14.953  69.680  1.00  0.00    -0.285 N  
HETATM   24  C   UNL     1     -12.797  14.886  70.363  1.00  0.00    -0.280 C  
HETATM   25  H   UNL     1     -10.877  14.284  69.911  1.00  0.00     0.000 HD 
HETATM   26  O   UNL     1     -13.742  15.660  70.218  1.00  0.00    -0.027 OA 
BRANCH  24  27
HETATM   27  C   UNL     1     -12.843  13.859  71.463  1.00  0.00    -0.441 C  
BRANCH  27  28
HETATM   28  C   UNL     1     -13.416  14.501  72.711  1.00  0.00    -0.575 C  
HETATM   29  O   UNL     1     -13.156  16.288  74.269  1.00  0.00    -0.612 OA 
HETATM   30  C   UNL     1     -12.672  15.667  73.328  1.00  0.00    -0.510 C  
HETATM   31  O   UNL     1     -11.475  16.004  72.827  1.00  0.00    -0.299 OA 
ENDBRANCH  27  28
ENDBRANCH  24  27
ENDBRANCH   1  23
TORSDOF 9
ENDMDL
MODEL       81
REMARK 921   NORMALIZED FREE ENERGY PREDICTED BY IDOCK:   -5.51 KCAL/MOL
REMARK 922        TOTAL FREE ENERGY PREDICTED BY IDOCK:  -10.23 KCAL/MOL
REMARK 923 INTER-LIGAND FREE ENERGY PREDICTED BY IDOCK:   -8.89 KCAL/MOL
REMARK 924 INTRA-LIGAND FREE ENERGY PREDICTED BY IDOCK:   -1.35 KCAL/MOL
REMARK 927      BINDING AFFINITY PREDICTED BY RF-SCORE:    0.00 PKD
ROOT
HETATM    1  C   UNL     1     -12.620  11.576  70.251  1.00  0.00    -0.115 C  
ENDROOT
BRANCH   1   2
HETATM    2  C   UNL     1     -12.069  10.727  71.432  1.00  0.00    -0.297 C  
BRANCH   2   3
HETATM    3  C   UNL     1     -11.507   9.350  71.159  1.00  0.00    -0.422 A  
HETATM    4  C   UNL     1     -10.289   6.772  70.978  1.00  0.00    -0.228 A  
HETATM    5  C   UNL     1     -12.275   8.187  71.141  1.00  0.00    -0.257 A  
HETATM    6  C   UNL     1     -11.676   6.931  71.092  1.00  0.00    -0.381 A  
HETATM    7  C   UNL     1     -10.129   9.218  70.944  1.00  0.00    -0.373 A  
HETATM    8  C   UNL     1      -9.534   7.953  70.838  1.00  0.00    -0.167 A  
BRANCH   4   9
HETATM    9  C   UNL     1      -9.667   5.436  71.069  1.00  0.00    -0.235 A  
HETATM   10  C   UNL     1     -10.020   4.395  70.188  1.00  0.00    -0.249 A  
HETATM   11  C   UNL     1      -9.519   3.100  70.342  1.00  0.00    -0.227 A  
HETATM   12  C   UNL     1      -8.624   2.819  71.368  1.00  0.00    -0.101 A  
HETATM   13  C   UNL     1      -8.235   3.830  72.241  1.00  0.00    -0.084 A  
HETATM   14  C   UNL     1      -8.756   5.121  72.094  1.00  0.00    -0.132 A  
ENDBRANCH   4   9
ENDBRANCH   2   3
ENDBRANCH   1   2
BRANCH   1  15
HETATM   15  C   UNL     1     -12.149  11.144  68.841  1.00  0.00    -0.276 C  
HETATM   16  C   UNL     1     -11.061  11.652  66.671  1.00  0.00    -0.307 C  
HETATM   17  C   UNL     1      -9.942  12.400  68.752  1.00  0.00    -0.040 C  
HETATM   18  C   UNL     1     -11.290  12.157  68.084  1.00  0.00    -0.349 C  
HETATM   19  O   UNL     1     -10.140  10.922  66.332  1.00  0.00    -0.216 OA 
BRANCH  16  20
HETATM   20  O   UNL     1     -12.001  12.175  65.835  1.00  0.00    -0.561 OA 
BRANCH  20  21
HETATM   21  C   UNL     1     -11.755  11.969  64.437  1.00  0.00    -0.320 C  
HETATM   22  C   UNL     1     -12.240  13.203  63.698  1.00  0.00    -0.553 C  
ENDBRANCH  20  21
ENDBRANCH  16  20
ENDBRANCH   1  15
BRANCH   1  23
HETATM   23  N   UNL     1     -12.359  13.007  70.425  1.00  0.00    -0.315 N  
HETATM   24  C   UNL     1     -12.996  13.767  71.369  1.00  0.00    -0.355 C  
HETATM   25  H   UNL     1     -11.674  13.457  69.817  1.00  0.00     0.000 HD 
HETATM   26  O   UNL     1     -13.874  13.363  72.128  1.00  0.00    -0.509 OA 
BRANCH  24  27
HETATM   27  C   UNL     1     -12.662  15.235  71.339  1.00  0.00    -0.462 C  
BRANCH  27  28
HETATM   28  C   UNL     1     -11.190  15.399  71.013  1.00  0.00    -0.408 C  
HETATM   29  O   UNL     1      -9.640  16.164  69.371  1.00  0.00    -0.249 OA 
HETATM   30  C   UNL     1     -10.809  15.909  69.639  1.00  0.00    -0.314 C  
HETATM   31  O   UNL     1     -11.775  16.073  68.722  1.00  0.00    -0.385 OA 
ENDBRANCH  27  28
ENDBRANCH  24  27
ENDBRANCH   1  23
TORSDOF 9
ENDMDL
MODEL       82
REMARK 921   NORMALIZED FREE ENERGY PREDICTED BY IDOCK:   -5.49 KCAL/MOL
REMARK 922        TOTAL FREE ENERGY PREDICTED BY IDOCK:  -10.20 KCAL/MOL
REMARK 923 INTER-LIGAND FREE ENERGY PREDICTED BY IDOCK:   -8.71 KCAL/MOL
REMARK 924 INTRA-LIGAND FREE ENERGY PREDICTED BY IDOCK:   -1.49 KCAL/MOL
REMARK 927      BINDING AFFINITY PREDICTED BY RF-SCORE:    0.00 PKD
ROOT
HETATM    1  C   UNL     1     -10.105  13.973  67.172  1.00  0.00    -0.259 C  
ENDROOT
BRANCH   1   2
HETATM    2  C   UNL     1      -9.976  12.443  66.929  1.00  0.00    -0.223 C  
BRANCH   2   3
HETATM    3  C   UNL     1     -10.132  11.490  68.094  1.00  0.00    -0.201 A  
HETATM    4  C   UNL     1     -10.600   9.466  70.054  1.00  0.00    -0.267 A  
HETATM    5  C   UNL     1      -9.078  10.770  68.655  1.00  0.00    -0.173 A  
HETATM    6  C   UNL     1      -9.313   9.757  69.581  1.00  0.00    -0.237 A  
HETATM    7  C   UNL     1     -11.411  11.284  68.625  1.00  0.00    -0.336 A  
HETATM    8  C   UNL     1     -11.637  10.303  69.600  1.00  0.00    -0.267 A  
BRANCH   4   9
HETATM    9  C   UNL     1     -10.842   8.299  70.928  1.00  0.00    -0.261 A  
HETATM   10  C   UNL     1     -10.854   8.417  72.332  1.00  0.00    -0.416 A  
HETATM   11  C   UNL     1     -10.969   7.299  73.161  1.00  0.00    -0.384 A  
HETATM   12  C   UNL     1     -11.106   6.033  72.606  1.00  0.00    -0.314 A  
HETATM   13  C   UNL     1     -11.122   5.883  71.223  1.00  0.00    -0.307 A  
HETATM   14  C   UNL     1     -10.986   7.005  70.396  1.00  0.00    -0.301 A  
ENDBRANCH   4   9
ENDBRANCH   2   3
ENDBRANCH   1   2
BRANCH   1  15
HETATM   15  C   UNL     1      -8.867  14.818  66.781  1.00  0.00    -0.281 C  
HETATM   16  C   UNL     1      -6.960  16.280  67.397  1.00  0.00    -0.174 C  
HETATM   17  C   UNL     1      -7.343  14.223  68.725  1.00  0.00    -0.131 C  
HETATM   18  C   UNL     1      -8.021  15.341  67.943  1.00  0.00    -0.145 C  
HETATM   19  O   UNL     1      -5.853  15.933  67.011  1.00  0.00    -0.329 OA 
BRANCH  16  20
HETATM   20  O   UNL     1      -7.410  17.565  67.450  1.00  0.00    -0.174 OA 
BRANCH  20  21
HETATM   21  C   UNL     1      -8.204  17.885  68.601  1.00  0.00    -0.275 C  
HETATM   22  C   UNL     1      -9.118  19.037  68.223  1.00  0.00    -0.371 C  
ENDBRANCH  20  21
ENDBRANCH  16  20
ENDBRANCH   1  15
BRANCH   1  23
HETATM   23  N   UNL     1     -10.482  14.288  68.553  1.00  0.00    -0.247 N  
HETATM   24  C   UNL     1     -11.425  15.230  68.866  1.00  0.00    -0.332 C  
HETATM   25  H   UNL     1     -10.022  13.786  69.312  1.00  0.00     0.000 HD 
HETATM   26  O   UNL     1     -12.015  15.939  68.052  1.00  0.00    -0.065 OA 
BRANCH  24  27
HETATM   27  C   UNL     1     -11.615  15.478  70.339  1.00  0.00    -0.359 C  
BRANCH  27  28
HETATM   28  C   UNL     1     -12.501  14.389  70.911  1.00  0.00    -0.424 C  
HETATM   29  O   UNL     1     -13.751  13.713  72.826  1.00  0.00    -0.707 OA 
HETATM   30  C   UNL     1     -12.945  14.507  72.355  1.00  0.00    -0.386 C  
HETATM   31  O   UNL     1     -12.436  15.496  73.106  1.00  0.00    -0.368 OA 
ENDBRANCH  27  28
ENDBRANCH  24  27
ENDBRANCH   1  23
TORSDOF 9
ENDMDL
MODEL       83
REMARK 921   NORMALIZED FREE ENERGY PREDICTED BY IDOCK:   -5.47 KCAL/MOL
REMARK 922        TOTAL FREE ENERGY PREDICTED BY IDOCK:  -10.16 KCAL/MOL
REMARK 923 INTER-LIGAND FREE ENERGY PREDICTED BY IDOCK:   -8.99 KCAL/MOL
REMARK 924 INTRA-LIGAND FREE ENERGY PREDICTED BY IDOCK:   -1.17 KCAL/MOL
REMARK 927      BINDING AFFINITY PREDICTED BY RF-SCORE:    0.00 PKD
ROOT
HETATM    1  C   UNL     1      -9.151  13.351  66.980  1.00  0.00    -0.243 C  
ENDROOT
BRANCH   1   2
HETATM    2  C   UNL     1      -8.573  12.504  68.150  1.00  0.00    -0.189 C  
BRANCH   2   3
HETATM    3  C   UNL     1      -9.324  11.278  68.621  1.00  0.00    -0.167 A  
HETATM    4  C   UNL     1     -10.503   8.957  69.797  1.00  0.00    -0.217 A  
HETATM    5  C   UNL     1     -10.612  11.313  69.152  1.00  0.00    -0.222 A  
HETATM    6  C   UNL     1     -11.169  10.190  69.760  1.00  0.00    -0.325 A  
HETATM    7  C   UNL     1      -8.683  10.034  68.558  1.00  0.00    -0.123 A  
HETATM    8  C   UNL     1      -9.270   8.892  69.119  1.00  0.00    -0.144 A  
BRANCH   4   9
HETATM    9  C   UNL     1     -11.051   7.821  70.566  1.00  0.00    -0.265 A  
HETATM   10  C   UNL     1     -12.353   7.852  71.102  1.00  0.00    -0.248 A  
HETATM   11  C   UNL     1     -12.833   6.830  71.924  1.00  0.00    -0.264 A  
HETATM   12  C   UNL     1     -12.030   5.731  72.209  1.00  0.00    -0.147 A  
HETATM   13  C   UNL     1     -10.747   5.658  71.675  1.00  0.00    -0.313 A  
HETATM   14  C   UNL     1     -10.263   6.695  70.868  1.00  0.00    -0.219 A  
ENDBRANCH   4   9
ENDBRANCH   2   3
ENDBRANCH   1   2
BRANCH   1  15
HETATM   15  C   UNL     1      -9.933  14.620  67.397  1.00  0.00    -0.231 C  
HETATM   16  C   UNL     1     -10.616  16.280  69.109  1.00  0.00    -0.292 C  
HETATM   17  C   UNL     1      -8.223  15.649  68.969  1.00  0.00    -0.233 C  
HETATM   18  C   UNL     1      -9.652  15.147  68.804  1.00  0.00    -0.219 C  
HETATM   19  O   UNL     1     -10.413  17.457  68.847  1.00  0.00    -0.345 OA 
BRANCH  16  20
HETATM   20  O   UNL     1     -11.709  15.794  69.760  1.00  0.00    -0.326 OA 
BRANCH  20  21
HETATM   21  C   UNL     1     -11.805  16.157  71.144  1.00  0.00    -0.366 C  
HETATM   22  C   UNL     1     -13.092  15.563  71.688  1.00  0.00    -0.561 C  
ENDBRANCH  20  21
ENDBRANCH  16  20
ENDBRANCH   1  15
BRANCH   1  23
HETATM   23  N   UNL     1      -9.982  12.553  66.074  1.00  0.00    -0.254 N  
HETATM   24  C   UNL     1      -9.478  11.535  65.310  1.00  0.00    -0.184 C  
HETATM   25  H   UNL     1     -10.977  12.767  66.008  1.00  0.00     0.000 HD 
HETATM   26  O   UNL     1      -8.293  11.209  65.257  1.00  0.00    -0.024 OA 
BRANCH  24  27
HETATM   27  C   UNL     1     -10.465  10.889  64.375  1.00  0.00    -0.403 C  
BRANCH  27  28
HETATM   28  C   UNL     1     -10.946  11.922  63.375  1.00  0.00    -0.470 C  
HETATM   29  O   UNL     1     -12.506  13.689  63.009  1.00  0.00    -0.719 OA 
HETATM   30  C   UNL     1     -12.152  12.766  63.735  1.00  0.00    -0.517 C  
HETATM   31  O   UNL     1     -12.823  12.481  64.861  1.00  0.00    -0.758 OA 
ENDBRANCH  27  28
ENDBRANCH  24  27
ENDBRANCH   1  23
TORSDOF 9
ENDMDL
MODEL       84
REMARK 921   NORMALIZED FREE ENERGY PREDICTED BY IDOCK:   -5.46 KCAL/MOL
REMARK 922        TOTAL FREE ENERGY PREDICTED BY IDOCK:  -10.16 KCAL/MOL
REMARK 923 INTER-LIGAND FREE ENERGY PREDICTED BY IDOCK:   -8.68 KCAL/MOL
REMARK 924 INTRA-LIGAND FREE ENERGY PREDICTED BY IDOCK:   -1.48 KCAL/MOL
REMARK 927      BINDING AFFINITY PREDICTED BY RF-SCORE:    0.00 PKD
ROOT
HETATM    1  C   UNL     1     -10.288  14.139  67.572  1.00  0.00    -0.248 C  
ENDROOT
BRANCH   1   2
HETATM    2  C   UNL     1      -9.921  12.711  67.079  1.00  0.00    -0.220 C  
BRANCH   2   3
HETATM    3  C   UNL     1      -9.916  11.562  68.064  1.00  0.00    -0.197 A  
HETATM    4  C   UNL     1      -9.847   9.649  70.184  1.00  0.00    -0.310 A  
HETATM    5  C   UNL     1     -11.058  10.853  68.434  1.00  0.00    -0.320 A  
HETATM    6  C   UNL     1     -11.030   9.950  69.495  1.00  0.00    -0.274 A  
HETATM    7  C   UNL     1      -8.707  11.204  68.670  1.00  0.00    -0.153 A  
HETATM    8  C   UNL     1      -8.670  10.252  69.698  1.00  0.00    -0.125 A  
BRANCH   4   9
HETATM    9  C   UNL     1      -9.867   8.797  71.390  1.00  0.00    -0.353 A  
HETATM   10  C   UNL     1      -8.682   8.280  71.949  1.00  0.00    -0.230 A  
HETATM   11  C   UNL     1      -8.706   7.384  73.020  1.00  0.00    -0.178 A  
HETATM   12  C   UNL     1      -9.919   7.003  73.582  1.00  0.00    -0.348 A  
HETATM   13  C   UNL     1     -11.108   7.515  73.069  1.00  0.00    -0.413 A  
HETATM   14  C   UNL     1     -11.079   8.397  71.983  1.00  0.00    -0.397 A  
ENDBRANCH   4   9
ENDBRANCH   2   3
ENDBRANCH   1   2
BRANCH   1  15
HETATM   15  C   UNL     1      -9.090  15.045  67.950  1.00  0.00    -0.180 C  
HETATM   16  C   UNL     1      -7.171  16.478  67.306  1.00  0.00    -0.168 C  
HETATM   17  C   UNL     1      -9.330  16.807  66.135  1.00  0.00    -0.288 C  
HETATM   18  C   UNL     1      -8.416  15.779  66.790  1.00  0.00    -0.304 C  
HETATM   19  O   UNL     1      -7.148  17.609  67.771  1.00  0.00    -0.180 OA 
BRANCH  16  20
HETATM   20  O   UNL     1      -6.083  15.677  67.127  1.00  0.00    -0.323 OA 
BRANCH  20  21
HETATM   21  C   UNL     1      -5.134  15.691  68.202  1.00  0.00    -0.116 C  
HETATM   22  C   UNL     1      -5.527  14.594  69.176  1.00  0.00    -0.092 C  
ENDBRANCH  20  21
ENDBRANCH  16  20
ENDBRANCH   1  15
BRANCH   1  23
HETATM   23  N   UNL     1     -11.238  14.115  68.688  1.00  0.00    -0.252 N  
HETATM   24  C   UNL     1     -11.760  15.254  69.240  1.00  0.00    -0.338 C  
HETATM   25  H   UNL     1     -11.523  13.213  69.069  1.00  0.00     0.000 HD 
HETATM   26  O   UNL     1     -11.464  16.401  68.909  1.00  0.00    -0.311 OA 
BRANCH  24  27
HETATM   27  C   UNL     1     -12.651  15.035  70.434  1.00  0.00    -0.399 C  
BRANCH  27  28
HETATM   28  C   UNL     1     -12.519  13.595  70.889  1.00  0.00    -0.448 C  
HETATM   29  O   UNL     1     -13.386  11.942  72.373  1.00  0.00    -0.370 OA 
HETATM   30  C   UNL     1     -13.377  13.123  72.045  1.00  0.00    -0.493 C  
HETATM   31  O   UNL     1     -14.122  14.024  72.703  1.00  0.00    -0.651 OA 
ENDBRANCH  27  28
ENDBRANCH  24  27
ENDBRANCH   1  23
TORSDOF 9
ENDMDL
MODEL       85
REMARK 921   NORMALIZED FREE ENERGY PREDICTED BY IDOCK:   -5.45 KCAL/MOL
REMARK 922        TOTAL FREE ENERGY PREDICTED BY IDOCK:  -10.14 KCAL/MOL
REMARK 923 INTER-LIGAND FREE ENERGY PREDICTED BY IDOCK:   -7.90 KCAL/MOL
REMARK 924 INTRA-LIGAND FREE ENERGY PREDICTED BY IDOCK:   -2.23 KCAL/MOL
REMARK 927      BINDING AFFINITY PREDICTED BY RF-SCORE:    0.00 PKD
ROOT
HETATM    1  C   UNL     1      -9.462   7.294  68.724  1.00  0.00    -0.142 C  
ENDROOT
BRANCH   1   2
HETATM    2  C   UNL     1     -10.531   7.827  67.728  1.00  0.00    -0.277 C  
BRANCH   2   3
HETATM    3  C   UNL     1     -10.519   9.288  67.336  1.00  0.00    -0.340 A  
HETATM    4  C   UNL     1     -10.737  11.952  66.329  1.00  0.00    -0.309 A  
HETATM    5  C   UNL     1     -11.109  10.299  68.091  1.00  0.00    -0.324 A  
HETATM    6  C   UNL     1     -11.250  11.588  67.581  1.00  0.00    -0.343 A  
HETATM    7  C   UNL     1      -9.912   9.653  66.128  1.00  0.00    -0.346 A  
HETATM    8  C   UNL     1     -10.004  10.964  65.642  1.00  0.00    -0.305 A  
BRANCH   4   9
HETATM    9  C   UNL     1     -11.018  13.282  65.750  1.00  0.00    -0.284 A  
HETATM   10  C   UNL     1     -12.077  13.483  64.842  1.00  0.00    -0.431 A  
HETATM   11  C   UNL     1     -12.275  14.711  64.207  1.00  0.00    -0.432 A  
HETATM   12  C   UNL     1     -11.436  15.783  64.488  1.00  0.00    -0.292 A  
HETATM   13  C   UNL     1     -10.395  15.625  65.399  1.00  0.00    -0.421 A  
HETATM   14  C   UNL     1     -10.188  14.386  66.017  1.00  0.00    -0.328 A  
ENDBRANCH   4   9
ENDBRANCH   2   3
ENDBRANCH   1   2
BRANCH   1  15
HETATM   15  C   UNL     1      -9.641   7.736  70.197  1.00  0.00    -0.168 C  
HETATM   16  C   UNL     1     -11.091   8.276  72.136  1.00  0.00    -0.328 C  
HETATM   17  C   UNL     1     -11.577   6.220  70.839  1.00  0.00    -0.338 C  
HETATM   18  C   UNL     1     -11.063   7.652  70.752  1.00  0.00    -0.276 C  
HETATM   19  O   UNL     1     -10.866   7.675  73.176  1.00  0.00    -0.382 OA 
BRANCH  16  20
HETATM   20  O   UNL     1     -11.452   9.587  72.044  1.00  0.00    -0.274 OA 
BRANCH  20  21
HETATM   21  C   UNL     1     -12.786   9.819  71.571  1.00  0.00    -0.406 C  
HETATM   22  C   UNL     1     -12.978  11.321  71.458  1.00  0.00    -0.520 C  
ENDBRANCH  20  21
ENDBRANCH  16  20
ENDBRANCH   1  15
BRANCH   1  23
HETATM   23  N   UNL     1      -8.096   7.608  68.294  1.00  0.00    -0.123 N  
HETATM   24  C   UNL     1      -7.438   6.886  67.335  1.00  0.00    -0.097 C  
HETATM   25  H   UNL     1      -7.615   8.396  68.729  1.00  0.00     0.000 HD 
HETATM   26  O   UNL     1      -7.882   5.888  66.771  1.00  0.00    -0.099 OA 
BRANCH  24  27
HETATM   27  C   UNL     1      -6.012   7.302  67.089  1.00  0.00    -0.041 C  
BRANCH  27  28
HETATM   28  C   UNL     1      -6.000   8.486  66.142  1.00  0.00    -0.044 C  
HETATM   29  O   UNL     1      -5.893  10.865  66.011  1.00  0.00    -0.126 OA 
HETATM   30  C   UNL     1      -6.016   9.881  66.733  1.00  0.00    -0.055 C  
HETATM   31  O   UNL     1      -6.169  10.017  68.058  1.00  0.00    -0.053 OA 
ENDBRANCH  27  28
ENDBRANCH  24  27
ENDBRANCH   1  23
TORSDOF 9
ENDMDL
MODEL       86
REMARK 921   NORMALIZED FREE ENERGY PREDICTED BY IDOCK:   -5.44 KCAL/MOL
REMARK 922        TOTAL FREE ENERGY PREDICTED BY IDOCK:  -10.12 KCAL/MOL
REMARK 923 INTER-LIGAND FREE ENERGY PREDICTED BY IDOCK:   -8.35 KCAL/MOL
REMARK 924 INTRA-LIGAND FREE ENERGY PREDICTED BY IDOCK:   -1.77 KCAL/MOL
REMARK 927      BINDING AFFINITY PREDICTED BY RF-SCORE:    0.00 PKD
ROOT
HETATM    1  C   UNL     1     -11.225  10.744  68.424  1.00  0.00    -0.284 C  
ENDROOT
BRANCH   1   2
HETATM    2  C   UNL     1     -10.790  10.786  69.916  1.00  0.00    -0.264 C  
BRANCH   2   3
HETATM    3  C   UNL     1     -10.749   9.502  70.716  1.00  0.00    -0.391 A  
HETATM    4  C   UNL     1     -10.691   6.903  71.898  1.00  0.00    -0.245 A  
HETATM    5  C   UNL     1      -9.613   9.032  71.372  1.00  0.00    -0.356 A  
HETATM    6  C   UNL     1      -9.574   7.750  71.913  1.00  0.00    -0.210 A  
HETATM    7  C   UNL     1     -11.904   8.713  70.778  1.00  0.00    -0.197 A  
HETATM    8  C   UNL     1     -11.880   7.445  71.374  1.00  0.00    -0.329 A  
BRANCH   4   9
HETATM    9  C   UNL     1     -10.586   5.500  72.352  1.00  0.00    -0.272 A  
HETATM   10  C   UNL     1      -9.880   4.534  71.608  1.00  0.00    -0.258 A  
HETATM   11  C   UNL     1      -9.874   3.186  71.973  1.00  0.00    -0.241 A  
HETATM   12  C   UNL     1     -10.552   2.772  73.114  1.00  0.00    -0.259 A  
HETATM   13  C   UNL     1     -11.239   3.705  73.885  1.00  0.00    -0.150 A  
HETATM   14  C   UNL     1     -11.259   5.052  73.503  1.00  0.00    -0.341 A  
ENDBRANCH   4   9
ENDBRANCH   2   3
ENDBRANCH   1   2
BRANCH   1  15
HETATM   15  C   UNL     1     -10.126  10.320  67.419  1.00  0.00    -0.246 C  
HETATM   16  C   UNL     1      -8.412   8.707  66.636  1.00  0.00    -0.112 C  
HETATM   17  C   UNL     1     -10.639   7.835  67.286  1.00  0.00    -0.376 C  
HETATM   18  C   UNL     1      -9.588   8.898  67.578  1.00  0.00    -0.183 C  
HETATM   19  O   UNL     1      -8.502   8.328  65.477  1.00  0.00    -0.147 OA 
BRANCH  16  20
HETATM   20  O   UNL     1      -7.247   8.974  67.290  1.00  0.00    -0.082 OA 
BRANCH  20  21
HETATM   21  C   UNL     1      -7.170   8.462  68.627  1.00  0.00    -0.080 C  
HETATM   22  C   UNL     1      -5.717   8.532  69.063  1.00  0.00    -0.039 C  
ENDBRANCH  20  21
ENDBRANCH  16  20
ENDBRANCH   1  15
BRANCH   1  23
HETATM   23  N   UNL     1     -11.815  12.010  67.981  1.00  0.00    -0.319 N  
HETATM   24  C   UNL     1     -11.080  13.154  67.821  1.00  0.00    -0.262 C  
HETATM   25  H   UNL     1     -12.816  12.040  67.783  1.00  0.00     0.000 HD 
HETATM   26  O   UNL     1      -9.881  13.265  68.071  1.00  0.00    -0.217 OA 
BRANCH  24  27
HETATM   27  C   UNL     1     -11.874  14.376  67.444  1.00  0.00    -0.430 C  
BRANCH  27  28
HETATM   28  C   UNL     1     -11.618  14.700  65.985  1.00  0.00    -0.328 C  
HETATM   29  O   UNL     1     -12.325  14.270  63.748  1.00  0.00    -0.735 OA 
HETATM   30  C   UNL     1     -12.417  13.961  64.932  1.00  0.00    -0.391 C  
HETATM   31  O   UNL     1     -13.224  12.962  65.320  1.00  0.00    -0.609 OA 
ENDBRANCH  27  28
ENDBRANCH  24  27
ENDBRANCH   1  23
TORSDOF 9
ENDMDL
MODEL       87
REMARK 921   NORMALIZED FREE ENERGY PREDICTED BY IDOCK:   -5.44 KCAL/MOL
REMARK 922        TOTAL FREE ENERGY PREDICTED BY IDOCK:  -10.12 KCAL/MOL
REMARK 923 INTER-LIGAND FREE ENERGY PREDICTED BY IDOCK:   -7.68 KCAL/MOL
REMARK 924 INTRA-LIGAND FREE ENERGY PREDICTED BY IDOCK:   -2.44 KCAL/MOL
REMARK 927      BINDING AFFINITY PREDICTED BY RF-SCORE:    0.00 PKD
ROOT
HETATM    1  C   UNL     1      -9.767   8.964  68.692  1.00  0.00    -0.161 C  
ENDROOT
BRANCH   1   2
HETATM    2  C   UNL     1     -10.853   9.427  67.681  1.00  0.00    -0.222 C  
BRANCH   2   3
HETATM    3  C   UNL     1     -11.011  10.902  67.383  1.00  0.00    -0.353 A  
HETATM    4  C   UNL     1     -11.051  13.742  67.079  1.00  0.00    -0.313 A  
HETATM    5  C   UNL     1     -10.562  11.510  66.212  1.00  0.00    -0.309 A  
HETATM    6  C   UNL     1     -10.546  12.897  66.083  1.00  0.00    -0.287 A  
HETATM    7  C   UNL     1     -11.612  11.720  68.347  1.00  0.00    -0.380 A  
HETATM    8  C   UNL     1     -11.647  13.113  68.189  1.00  0.00    -0.375 A  
BRANCH   4   9
HETATM    9  C   UNL     1     -10.897  15.208  66.982  1.00  0.00    -0.314 A  
HETATM   10  C   UNL     1     -10.488  15.830  65.786  1.00  0.00    -0.384 A  
HETATM   11  C   UNL     1     -10.233  17.201  65.721  1.00  0.00    -0.234 A  
HETATM   12  C   UNL     1     -10.409  17.995  66.849  1.00  0.00    -0.377 A  
HETATM   13  C   UNL     1     -10.836  17.417  68.040  1.00  0.00    -0.281 A  
HETATM   14  C   UNL     1     -11.071  16.038  68.105  1.00  0.00    -0.344 A  
ENDBRANCH   4   9
ENDBRANCH   2   3
ENDBRANCH   1   2
BRANCH   1  15
HETATM   15  C   UNL     1     -10.288   8.547  70.089  1.00  0.00    -0.214 C  
HETATM   16  C   UNL     1     -11.900   7.323  71.523  1.00  0.00    -0.304 C  
HETATM   17  C   UNL     1     -10.915   6.137  69.582  1.00  0.00    -0.459 C  
HETATM   18  C   UNL     1     -11.391   7.488  70.102  1.00  0.00    -0.170 C  
HETATM   19  O   UNL     1     -11.428   6.552  72.348  1.00  0.00    -0.268 OA 
BRANCH  16  20
HETATM   20  O   UNL     1     -12.985   8.122  71.722  1.00  0.00    -0.328 OA 
BRANCH  20  21
HETATM   21  C   UNL     1     -12.745   9.285  72.527  1.00  0.00    -0.240 C  
HETATM   22  C   UNL     1     -13.035  10.505  71.671  1.00  0.00    -0.581 C  
ENDBRANCH  20  21
ENDBRANCH  16  20
ENDBRANCH   1  15
BRANCH   1  23
HETATM   23  N   UNL     1      -8.701   9.957  68.857  1.00  0.00    -0.133 N  
HETATM   24  C   UNL     1      -7.588   9.988  68.059  1.00  0.00    -0.088 C  
HETATM   25  H   UNL     1      -8.790  10.653  69.598  1.00  0.00     0.000 HD 
HETATM   26  O   UNL     1      -7.334   9.181  67.167  1.00  0.00    -0.086 OA 
BRANCH  24  27
HETATM   27  C   UNL     1      -6.562  11.023  68.436  1.00  0.00    -0.058 C  
BRANCH  27  28
HETATM   28  C   UNL     1      -6.599  12.147  67.419  1.00  0.00    -0.147 C  
HETATM   29  O   UNL     1      -7.269  14.406  67.047  1.00  0.00    -0.057 OA 
HETATM   30  C   UNL     1      -7.310  13.432  67.791  1.00  0.00    -0.157 C  
HETATM   31  O   UNL     1      -7.987  13.480  68.948  1.00  0.00    -0.052 OA 
ENDBRANCH  27  28
ENDBRANCH  24  27
ENDBRANCH   1  23
TORSDOF 9
ENDMDL
MODEL       88
REMARK 921   NORMALIZED FREE ENERGY PREDICTED BY IDOCK:   -5.43 KCAL/MOL
REMARK 922        TOTAL FREE ENERGY PREDICTED BY IDOCK:  -10.10 KCAL/MOL
REMARK 923 INTER-LIGAND FREE ENERGY PREDICTED BY IDOCK:   -8.61 KCAL/MOL
REMARK 924 INTRA-LIGAND FREE ENERGY PREDICTED BY IDOCK:   -1.49 KCAL/MOL
REMARK 927      BINDING AFFINITY PREDICTED BY RF-SCORE:    0.00 PKD
ROOT
HETATM    1  C   UNL     1     -11.529  12.589  67.593  1.00  0.00    -0.334 C  
ENDROOT
BRANCH   1   2
HETATM    2  C   UNL     1     -12.019  11.205  68.106  1.00  0.00    -0.131 C  
BRANCH   2   3
HETATM    3  C   UNL     1     -11.360  10.586  69.319  1.00  0.00    -0.325 A  
HETATM    4  C   UNL     1     -10.328   9.119  71.542  1.00  0.00    -0.414 A  
HETATM    5  C   UNL     1     -10.034  10.158  69.349  1.00  0.00    -0.247 A  
HETATM    6  C   UNL     1      -9.545   9.409  70.416  1.00  0.00    -0.319 A  
HETATM    7  C   UNL     1     -12.128  10.394  70.474  1.00  0.00    -0.423 A  
HETATM    8  C   UNL     1     -11.615   9.690  71.572  1.00  0.00    -0.451 A  
BRANCH   4   9
HETATM    9  C   UNL     1      -9.835   8.208  72.595  1.00  0.00    -0.364 A  
HETATM   10  C   UNL     1      -8.461   8.088  72.884  1.00  0.00    -0.244 A  
HETATM   11  C   UNL     1      -7.983   7.147  73.799  1.00  0.00    -0.129 A  
HETATM   12  C   UNL     1      -8.873   6.319  74.473  1.00  0.00    -0.155 A  
HETATM   13  C   UNL     1     -10.239   6.429  74.230  1.00  0.00    -0.362 A  
HETATM   14  C   UNL     1     -10.711   7.359  73.297  1.00  0.00    -0.441 A  
ENDBRANCH   4   9
ENDBRANCH   2   3
ENDBRANCH   1   2
BRANCH   1  15
HETATM   15  C   UNL     1     -10.487  12.547  66.449  1.00  0.00    -0.269 C  
HETATM   16  C   UNL     1      -9.612  11.557  64.350  1.00  0.00    -0.149 C  
HETATM   17  C   UNL     1     -12.041  12.026  64.507  1.00  0.00    -0.340 C  
HETATM   18  C   UNL     1     -10.804  11.602  65.290  1.00  0.00    -0.340 C  
HETATM   19  O   UNL     1      -9.434  12.321  63.412  1.00  0.00    -0.201 OA 
BRANCH  16  20
HETATM   20  O   UNL     1      -8.804  10.510  64.678  1.00  0.00    -0.185 OA 
BRANCH  20  21
HETATM   21  C   UNL     1      -9.481   9.362  65.208  1.00  0.00    -0.227 C  
HETATM   22  C   UNL     1      -8.465   8.549  65.991  1.00  0.00    -0.150 C  
ENDBRANCH  20  21
ENDBRANCH  16  20
ENDBRANCH   1  15
BRANCH   1  23
HETATM   23  N   UNL     1     -11.016  13.434  68.676  1.00  0.00    -0.253 N  
HETATM   24  C   UNL     1     -11.518  14.679  68.944  1.00  0.00    -0.298 C  
HETATM   25  H   UNL     1     -10.254  13.079  69.254  1.00  0.00     0.000 HD 
HETATM   26  O   UNL     1     -12.398  15.243  68.295  1.00  0.00     0.025 OA 
BRANCH  24  27
HETATM   27  C   UNL     1     -10.806  15.433  70.036  1.00  0.00    -0.320 C  
BRANCH  27  28
HETATM   28  C   UNL     1     -11.212  14.856  71.378  1.00  0.00    -0.160 C  
HETATM   29  O   UNL     1     -13.054  14.449  72.837  1.00  0.00    -0.487 OA 
HETATM   30  C   UNL     1     -12.656  14.997  71.815  1.00  0.00    -0.341 C  
HETATM   31  O   UNL     1     -13.487  15.736  71.064  1.00  0.00    -0.581 OA 
ENDBRANCH  27  28
ENDBRANCH  24  27
ENDBRANCH   1  23
TORSDOF 9
ENDMDL
MODEL       89
REMARK 921   NORMALIZED FREE ENERGY PREDICTED BY IDOCK:   -5.42 KCAL/MOL
REMARK 922        TOTAL FREE ENERGY PREDICTED BY IDOCK:  -10.10 KCAL/MOL
REMARK 923 INTER-LIGAND FREE ENERGY PREDICTED BY IDOCK:   -8.39 KCAL/MOL
REMARK 924 INTRA-LIGAND FREE ENERGY PREDICTED BY IDOCK:   -1.71 KCAL/MOL
REMARK 927      BINDING AFFINITY PREDICTED BY RF-SCORE:    0.00 PKD
ROOT
HETATM    1  C   UNL     1     -10.526  13.162  68.166  1.00  0.00    -0.248 C  
ENDROOT
BRANCH   1   2
HETATM    2  C   UNL     1      -9.082  13.687  68.409  1.00  0.00    -0.165 C  
BRANCH   2   3
HETATM    3  C   UNL     1      -8.721  15.093  67.984  1.00  0.00    -0.165 A  
HETATM    4  C   UNL     1      -7.686  17.641  67.215  1.00  0.00    -0.222 A  
HETATM    5  C   UNL     1      -8.891  15.580  66.690  1.00  0.00    -0.325 A  
HETATM    6  C   UNL     1      -8.351  16.806  66.307  1.00  0.00    -0.353 A  
HETATM    7  C   UNL     1      -8.150  15.953  68.930  1.00  0.00    -0.214 A  
HETATM    8  C   UNL     1      -7.659  17.211  68.556  1.00  0.00    -0.245 A  
BRANCH   4   9
HETATM    9  C   UNL     1      -7.002  18.868  66.757  1.00  0.00    -0.212 A  
HETATM   10  C   UNL     1      -6.808  19.970  67.614  1.00  0.00    -0.281 A  
HETATM   11  C   UNL     1      -6.265  21.171  67.154  1.00  0.00    -0.409 A  
HETATM   12  C   UNL     1      -5.870  21.292  65.826  1.00  0.00    -0.235 A  
HETATM   13  C   UNL     1      -6.024  20.215  64.959  1.00  0.00    -0.274 A  
HETATM   14  C   UNL     1      -6.589  19.020  65.420  1.00  0.00    -0.292 A  
ENDBRANCH   4   9
ENDBRANCH   2   3
ENDBRANCH   1   2
BRANCH   1  15
HETATM   15  C   UNL     1     -11.562  13.524  69.259  1.00  0.00    -0.369 C  
HETATM   16  C   UNL     1     -12.524  15.132  70.883  1.00  0.00    -0.365 C  
HETATM   17  C   UNL     1     -12.025  15.932  68.591  1.00  0.00    -0.106 C  
HETATM   18  C   UNL     1     -11.582  14.987  69.702  1.00  0.00    -0.333 C  
HETATM   19  O   UNL     1     -13.724  15.352  70.796  1.00  0.00    -0.394 OA 
BRANCH  16  20
HETATM   20  O   UNL     1     -11.824  15.030  72.048  1.00  0.00    -0.371 OA 
BRANCH  20  21
HETATM   21  C   UNL     1     -11.916  16.169  72.914  1.00  0.00    -0.520 C  
HETATM   22  C   UNL     1     -12.439  15.685  74.256  1.00  0.00    -0.804 C  
ENDBRANCH  20  21
ENDBRANCH  16  20
ENDBRANCH   1  15
BRANCH   1  23
HETATM   23  N   UNL     1     -10.560  11.714  67.937  1.00  0.00    -0.187 N  
HETATM   24  C   UNL     1     -10.345  11.155  66.706  1.00  0.00    -0.241 C  
HETATM   25  H   UNL     1     -10.753  11.098  68.727  1.00  0.00     0.000 HD 
HETATM   26  O   UNL     1     -10.153  11.783  65.666  1.00  0.00    -0.227 OA 
BRANCH  24  27
HETATM   27  C   UNL     1     -10.508   9.659  66.647  1.00  0.00    -0.233 C  
BRANCH  27  28
HETATM   28  C   UNL     1      -9.184   9.006  66.991  1.00  0.00    -0.169 C  
HETATM   29  O   UNL     1      -7.927   7.968  68.732  1.00  0.00    -0.115 OA 
HETATM   30  C   UNL     1      -8.933   8.600  68.429  1.00  0.00    -0.142 C  
HETATM   31  O   UNL     1      -9.832   8.948  69.362  1.00  0.00    -0.175 OA 
ENDBRANCH  27  28
ENDBRANCH  24  27
ENDBRANCH   1  23
TORSDOF 9
ENDMDL
MODEL       90
REMARK 921   NORMALIZED FREE ENERGY PREDICTED BY IDOCK:   -5.42 KCAL/MOL
REMARK 922        TOTAL FREE ENERGY PREDICTED BY IDOCK:  -10.09 KCAL/MOL
REMARK 923 INTER-LIGAND FREE ENERGY PREDICTED BY IDOCK:   -8.96 KCAL/MOL
REMARK 924 INTRA-LIGAND FREE ENERGY PREDICTED BY IDOCK:   -1.12 KCAL/MOL
REMARK 927      BINDING AFFINITY PREDICTED BY RF-SCORE:    0.00 PKD
ROOT
HETATM    1  C   UNL     1     -11.971  11.340  68.915  1.00  0.00    -0.310 C  
ENDROOT
BRANCH   1   2
HETATM    2  C   UNL     1     -11.025  12.437  69.481  1.00  0.00     0.013 C  
BRANCH   2   3
HETATM    3  C   UNL     1     -10.763  13.685  68.667  1.00  0.00    -0.272 A  
HETATM    4  C   UNL     1     -10.235  16.216  67.454  1.00  0.00    -0.272 A  
HETATM    5  C   UNL     1      -9.588  13.912  67.952  1.00  0.00    -0.227 A  
HETATM    6  C   UNL     1      -9.316  15.160  67.396  1.00  0.00    -0.200 A  
HETATM    7  C   UNL     1     -11.735  14.692  68.651  1.00  0.00    -0.362 A  
HETATM    8  C   UNL     1     -11.483  15.928  68.040  1.00  0.00    -0.236 A  
BRANCH   4   9
HETATM    9  C   UNL     1      -9.870  17.567  66.981  1.00  0.00    -0.295 A  
HETATM   10  C   UNL     1      -8.594  17.845  66.452  1.00  0.00    -0.254 A  
HETATM   11  C   UNL     1      -8.207  19.143  66.110  1.00  0.00    -0.264 A  
HETATM   12  C   UNL     1      -9.101  20.197  66.261  1.00  0.00    -0.348 A  
HETATM   13  C   UNL     1     -10.378  19.954  66.757  1.00  0.00    -0.599 A  
HETATM   14  C   UNL     1     -10.753  18.654  67.118  1.00  0.00    -0.433 A  
ENDBRANCH   4   9
ENDBRANCH   2   3
ENDBRANCH   1   2
BRANCH   1  15
HETATM   15  C   UNL     1     -12.251  10.146  69.861  1.00  0.00    -0.050 C  
HETATM   16  C   UNL     1     -12.228   9.118  72.118  1.00  0.00    -0.338 C  
HETATM   17  C   UNL     1     -13.102  11.426  71.884  1.00  0.00    -0.505 C  
HETATM   18  C   UNL     1     -12.084  10.423  71.355  1.00  0.00    -0.424 C  
HETATM   19  O   UNL     1     -13.286   8.662  72.526  1.00  0.00    -0.356 OA 
BRANCH  16  20
HETATM   20  O   UNL     1     -11.000   8.563  72.320  1.00  0.00    -0.338 OA 
BRANCH  20  21
HETATM   21  C   UNL     1     -10.996   7.138  72.479  1.00  0.00    -0.273 C  
HETATM   22  C   UNL     1     -10.308   6.825  73.797  1.00  0.00    -0.397 C  
ENDBRANCH  20  21
ENDBRANCH  16  20
ENDBRANCH   1  15
BRANCH   1  23
HETATM   23  N   UNL     1     -11.515  10.827  67.620  1.00  0.00    -0.277 N  
HETATM   24  C   UNL     1     -10.304  10.210  67.452  1.00  0.00    -0.238 C  
HETATM   25  H   UNL     1     -12.125  10.934  66.809  1.00  0.00     0.000 HD 
HETATM   26  O   UNL     1      -9.457  10.062  68.332  1.00  0.00    -0.138 OA 
BRANCH  24  27
HETATM   27  C   UNL     1      -9.972   9.830  66.034  1.00  0.00    -0.342 C  
BRANCH  27  28
HETATM   28  C   UNL     1     -10.310  10.991  65.120  1.00  0.00    -0.346 C  
HETATM   29  O   UNL     1     -10.349  11.728  62.852  1.00  0.00    -0.264 OA 
HETATM   30  C   UNL     1      -9.992  10.863  63.645  1.00  0.00    -0.359 C  
HETATM   31  O   UNL     1      -9.310   9.787  63.225  1.00  0.00    -0.259 OA 
ENDBRANCH  27  28
ENDBRANCH  24  27
ENDBRANCH   1  23
TORSDOF 9
ENDMDL
MODEL       91
REMARK 921   NORMALIZED FREE ENERGY PREDICTED BY IDOCK:   -5.37 KCAL/MOL
REMARK 922        TOTAL FREE ENERGY PREDICTED BY IDOCK:  -10.01 KCAL/MOL
REMARK 923 INTER-LIGAND FREE ENERGY PREDICTED BY IDOCK:   -8.45 KCAL/MOL
REMARK 924 INTRA-LIGAND FREE ENERGY PREDICTED BY IDOCK:   -1.56 KCAL/MOL
REMARK 927      BINDING AFFINITY PREDICTED BY RF-SCORE:    0.00 PKD
ROOT
HETATM    1  C   UNL     1     -11.357  12.161  68.197  1.00  0.00    -0.293 C  
ENDROOT
BRANCH   1   2
HETATM    2  C   UNL     1     -12.285  11.178  68.965  1.00  0.00    -0.194 C  
BRANCH   2   3
HETATM    3  C   UNL     1     -11.711  10.332  70.081  1.00  0.00    -0.364 A  
HETATM    4  C   UNL     1     -10.807   8.451  72.031  1.00  0.00    -0.390 A  
HETATM    5  C   UNL     1     -10.367   9.975  70.171  1.00  0.00    -0.321 A  
HETATM    6  C   UNL     1      -9.936   9.028  71.097  1.00  0.00    -0.365 A  
HETATM    7  C   UNL     1     -12.578   9.846  71.067  1.00  0.00    -0.431 A  
HETATM    8  C   UNL     1     -12.130   8.936  72.035  1.00  0.00    -0.442 A  
BRANCH   4   9
HETATM    9  C   UNL     1     -10.360   7.350  72.908  1.00  0.00    -0.328 A  
HETATM   10  C   UNL     1      -9.037   7.279  73.389  1.00  0.00    -0.213 A  
HETATM   11  C   UNL     1      -8.581   6.183  74.123  1.00  0.00    -0.117 A  
HETATM   12  C   UNL     1      -9.447   5.138  74.424  1.00  0.00    -0.138 A  
HETATM   13  C   UNL     1     -10.767   5.188  73.986  1.00  0.00    -0.320 A  
HETATM   14  C   UNL     1     -11.214   6.280  73.233  1.00  0.00    -0.044 A  
ENDBRANCH   4   9
ENDBRANCH   2   3
ENDBRANCH   1   2
BRANCH   1  15
HETATM   15  C   UNL     1     -11.738  13.659  68.300  1.00  0.00    -0.398 C  
HETATM   16  C   UNL     1     -11.532  15.876  69.391  1.00  0.00    -0.351 C  
HETATM   17  C   UNL     1      -9.458  14.613  68.891  1.00  0.00    -0.173 C  
HETATM   18  C   UNL     1     -10.923  14.488  69.292  1.00  0.00    -0.282 C  
HETATM   19  O   UNL     1     -11.238  16.820  68.671  1.00  0.00    -0.298 OA 
BRANCH  16  20
HETATM   20  O   UNL     1     -12.411  15.922  70.431  1.00  0.00    -0.355 OA 
BRANCH  20  21
HETATM   21  C   UNL     1     -11.828  15.747  71.729  1.00  0.00    -0.467 C  
HETATM   22  C   UNL     1     -12.938  15.331  72.679  1.00  0.00    -0.504 C  
ENDBRANCH  20  21
ENDBRANCH  16  20
ENDBRANCH   1  15
BRANCH   1  23
HETATM   23  N   UNL     1     -11.214  11.801  66.783  1.00  0.00    -0.316 N  
HETATM   24  C   UNL     1      -9.996  11.667  66.173  1.00  0.00    -0.221 C  
HETATM   25  H   UNL     1     -12.057  11.644  66.231  1.00  0.00     0.000 HD 
HETATM   26  O   UNL     1      -8.909  11.876  66.709  1.00  0.00    -0.184 OA 
BRANCH  24  27
HETATM   27  C   UNL     1     -10.049  11.379  64.696  1.00  0.00    -0.330 C  
BRANCH  27  28
HETATM   28  C   UNL     1      -9.858   9.891  64.477  1.00  0.00    -0.129 C  
HETATM   29  O   UNL     1      -8.242   8.145  64.317  1.00  0.00    -0.153 OA 
HETATM   30  C   UNL     1      -8.446   9.352  64.380  1.00  0.00    -0.184 C  
HETATM   31  O   UNL     1      -7.425  10.223  64.362  1.00  0.00    -0.143 OA 
ENDBRANCH  27  28
ENDBRANCH  24  27
ENDBRANCH   1  23
TORSDOF 9
ENDMDL
MODEL       92
REMARK 921   NORMALIZED FREE ENERGY PREDICTED BY IDOCK:   -5.36 KCAL/MOL
REMARK 922        TOTAL FREE ENERGY PREDICTED BY IDOCK:  -10.00 KCAL/MOL
REMARK 923 INTER-LIGAND FREE ENERGY PREDICTED BY IDOCK:   -8.23 KCAL/MOL
REMARK 924 INTRA-LIGAND FREE ENERGY PREDICTED BY IDOCK:   -1.77 KCAL/MOL
REMARK 927      BINDING AFFINITY PREDICTED BY RF-SCORE:    0.00 PKD
ROOT
HETATM    1  C   UNL     1      -9.465  10.874  66.720  1.00  0.00    -0.177 C  
ENDROOT
BRANCH   1   2
HETATM    2  C   UNL     1     -10.363   9.631  66.462  1.00  0.00    -0.264 C  
BRANCH   2   3
HETATM    3  C   UNL     1     -10.653   8.674  67.597  1.00  0.00    -0.272 A  
HETATM    4  C   UNL     1     -10.857   6.738  69.688  1.00  0.00    -0.314 A  
HETATM    5  C   UNL     1     -10.752   9.061  68.932  1.00  0.00    -0.149 A  
HETATM    6  C   UNL     1     -10.812   8.114  69.952  1.00  0.00    -0.215 A  
HETATM    7  C   UNL     1     -10.798   7.312  67.306  1.00  0.00    -0.354 A  
HETATM    8  C   UNL     1     -10.916   6.364  68.331  1.00  0.00    -0.390 A  
BRANCH   4   9
HETATM    9  C   UNL     1     -10.779   5.751  70.784  1.00  0.00    -0.342 A  
HETATM   10  C   UNL     1     -11.407   5.974  72.025  1.00  0.00    -0.345 A  
HETATM   11  C   UNL     1     -11.242   5.098  73.100  1.00  0.00    -0.398 A  
HETATM   12  C   UNL     1     -10.464   3.956  72.952  1.00  0.00    -0.247 A  
HETATM   13  C   UNL     1      -9.849   3.692  71.732  1.00  0.00    -0.235 A  
HETATM   14  C   UNL     1     -10.002   4.584  70.664  1.00  0.00    -0.273 A  
ENDBRANCH   4   9
ENDBRANCH   2   3
ENDBRANCH   1   2
BRANCH   1  15
HETATM   15  C   UNL     1     -10.122  12.245  66.427  1.00  0.00    -0.245 C  
HETATM   16  C   UNL     1     -12.076  13.771  66.497  1.00  0.00    -0.443 C  
HETATM   17  C   UNL     1     -11.511  12.487  68.541  1.00  0.00    -0.346 C  
HETATM   18  C   UNL     1     -11.515  12.459  67.017  1.00  0.00    -0.423 C  
HETATM   19  O   UNL     1     -11.905  14.860  67.026  1.00  0.00    -0.327 OA 
BRANCH  16  20
HETATM   20  O   UNL     1     -12.833  13.543  65.388  1.00  0.00    -0.617 OA 
BRANCH  20  21
HETATM   21  C   UNL     1     -12.170  13.780  64.139  1.00  0.00    -0.396 C  
HETATM   22  C   UNL     1     -12.235  12.495  63.332  1.00  0.00    -0.613 C  
ENDBRANCH  20  21
ENDBRANCH  16  20
ENDBRANCH   1  15
BRANCH   1  23
HETATM   23  N   UNL     1      -8.187  10.794  66.008  1.00  0.00    -0.162 N  
HETATM   24  C   UNL     1      -6.981  10.739  66.655  1.00  0.00    -0.129 C  
HETATM   25  H   UNL     1      -8.195  10.780  64.988  1.00  0.00     0.000 HD 
HETATM   26  O   UNL     1      -6.829  10.797  67.874  1.00  0.00    -0.070 OA 
BRANCH  24  27
HETATM   27  C   UNL     1      -5.773  10.750  65.757  1.00  0.00    -0.144 C  
BRANCH  27  28
HETATM   28  C   UNL     1      -5.622   9.384  65.117  1.00  0.00    -0.054 C  
HETATM   29  O   UNL     1      -5.974   8.127  63.121  1.00  0.00    -0.073 OA 
HETATM   30  C   UNL     1      -6.172   9.178  63.721  1.00  0.00    -0.088 C  
HETATM   31  O   UNL     1      -6.882  10.166  63.157  1.00  0.00    -0.128 OA 
ENDBRANCH  27  28
ENDBRANCH  24  27
ENDBRANCH   1  23
TORSDOF 9
ENDMDL
MODEL       93
REMARK 921   NORMALIZED FREE ENERGY PREDICTED BY IDOCK:   -5.36 KCAL/MOL
REMARK 922        TOTAL FREE ENERGY PREDICTED BY IDOCK:  -10.00 KCAL/MOL
REMARK 923 INTER-LIGAND FREE ENERGY PREDICTED BY IDOCK:   -9.65 KCAL/MOL
REMARK 924 INTRA-LIGAND FREE ENERGY PREDICTED BY IDOCK:   -0.35 KCAL/MOL
REMARK 927      BINDING AFFINITY PREDICTED BY RF-SCORE:    0.00 PKD
ROOT
HETATM    1  C   UNL     1     -12.098  13.217  68.763  1.00  0.00    -0.191 C  
ENDROOT
BRANCH   1   2
HETATM    2  C   UNL     1     -11.421  14.181  69.778  1.00  0.00    -0.309 C  
BRANCH   2   3
HETATM    3  C   UNL     1     -10.486  15.257  69.271  1.00  0.00    -0.258 A  
HETATM    4  C   UNL     1      -8.827  17.486  68.611  1.00  0.00    -0.255 A  
HETATM    5  C   UNL     1      -9.096  15.160  69.311  1.00  0.00    -0.201 A  
HETATM    6  C   UNL     1      -8.291  16.260  69.026  1.00  0.00    -0.239 A  
HETATM    7  C   UNL     1     -11.038  16.439  68.762  1.00  0.00    -0.337 A  
HETATM    8  C   UNL     1     -10.222  17.527  68.421  1.00  0.00    -0.372 A  
BRANCH   4   9
HETATM    9  C   UNL     1      -7.966  18.676  68.450  1.00  0.00    -0.351 A  
HETATM   10  C   UNL     1      -6.965  18.996  69.388  1.00  0.00    -0.244 A  
HETATM   11  C   UNL     1      -6.227  20.178  69.300  1.00  0.00    -0.361 A  
HETATM   12  C   UNL     1      -6.450  21.060  68.250  1.00  0.00    -0.188 A  
HETATM   13  C   UNL     1      -7.415  20.763  67.291  1.00  0.00    -0.381 A  
HETATM   14  C   UNL     1      -8.166  19.586  67.396  1.00  0.00    -0.321 A  
ENDBRANCH   4   9
ENDBRANCH   2   3
ENDBRANCH   1   2
BRANCH   1  15
HETATM   15  C   UNL     1     -11.965  11.708  69.083  1.00  0.00    -0.378 C  
HETATM   16  C   UNL     1     -11.516   9.863  70.680  1.00  0.00    -0.334 C  
HETATM   17  C   UNL     1     -13.034  11.690  71.388  1.00  0.00    -0.426 C  
HETATM   18  C   UNL     1     -11.801  11.350  70.560  1.00  0.00    -0.394 C  
HETATM   19  O   UNL     1     -12.371   8.994  70.772  1.00  0.00    -0.180 OA 
BRANCH  16  20
HETATM   20  O   UNL     1     -10.170   9.652  70.717  1.00  0.00    -0.290 OA 
BRANCH  20  21
HETATM   21  C   UNL     1      -9.765   8.285  70.564  1.00  0.00    -0.171 C  
HETATM   22  C   UNL     1      -9.251   8.114  69.145  1.00  0.00    -0.151 C  
ENDBRANCH  20  21
ENDBRANCH  16  20
ENDBRANCH   1  15
BRANCH   1  23
HETATM   23  N   UNL     1     -11.651  13.454  67.387  1.00  0.00    -0.333 N  
HETATM   24  C   UNL     1     -11.158  12.459  66.587  1.00  0.00    -0.289 C  
HETATM   25  H   UNL     1     -11.710  14.400  67.010  1.00  0.00     0.000 HD 
HETATM   26  O   UNL     1     -10.988  11.291  66.933  1.00  0.00    -0.277 OA 
BRANCH  24  27
HETATM   27  C   UNL     1     -10.668  12.909  65.236  1.00  0.00    -0.318 C  
BRANCH  27  28
HETATM   28  C   UNL     1     -10.968  14.386  65.071  1.00  0.00    -0.398 C  
HETATM   29  O   UNL     1     -12.283  15.977  63.876  1.00  0.00    -0.883 OA 
HETATM   30  C   UNL     1     -11.924  14.809  63.974  1.00  0.00    -0.128 C  
HETATM   31  O   UNL     1     -12.366  13.880  63.113  1.00  0.00    -0.696 OA 
ENDBRANCH  27  28
ENDBRANCH  24  27
ENDBRANCH   1  23
TORSDOF 9
ENDMDL
MODEL       94
REMARK 921   NORMALIZED FREE ENERGY PREDICTED BY IDOCK:   -5.35 KCAL/MOL
REMARK 922        TOTAL FREE ENERGY PREDICTED BY IDOCK:   -9.99 KCAL/MOL
REMARK 923 INTER-LIGAND FREE ENERGY PREDICTED BY IDOCK:   -9.00 KCAL/MOL
REMARK 924 INTRA-LIGAND FREE ENERGY PREDICTED BY IDOCK:   -0.99 KCAL/MOL
REMARK 927      BINDING AFFINITY PREDICTED BY RF-SCORE:    0.00 PKD
ROOT
HETATM    1  C   UNL     1     -10.168  14.225  67.733  1.00  0.00    -0.235 C  
ENDROOT
BRANCH   1   2
HETATM    2  C   UNL     1      -9.093  13.260  68.307  1.00  0.00    -0.184 C  
BRANCH   2   3
HETATM    3  C   UNL     1      -9.189  11.779  68.012  1.00  0.00    -0.181 A  
HETATM    4  C   UNL     1      -9.413   8.938  67.820  1.00  0.00    -0.163 A  
HETATM    5  C   UNL     1     -10.280  11.182  67.385  1.00  0.00    -0.221 A  
HETATM    6  C   UNL     1     -10.406   9.796  67.328  1.00  0.00    -0.308 A  
HETATM    7  C   UNL     1      -8.141  10.945  68.420  1.00  0.00    -0.131 A  
HETATM    8  C   UNL     1      -8.244   9.552  68.309  1.00  0.00    -0.113 A  
BRANCH   4   9
HETATM    9  C   UNL     1      -9.630   7.478  67.875  1.00  0.00    -0.161 A  
HETATM   10  C   UNL     1      -9.970   6.738  66.726  1.00  0.00    -0.242 A  
HETATM   11  C   UNL     1     -10.286   5.379  66.795  1.00  0.00    -0.321 A  
HETATM   12  C   UNL     1     -10.241   4.716  68.015  1.00  0.00    -0.008 A  
HETATM   13  C   UNL     1      -9.885   5.412  69.167  1.00  0.00    -0.242 A  
HETATM   14  C   UNL     1      -9.589   6.778  69.095  1.00  0.00    -0.139 A  
ENDBRANCH   4   9
ENDBRANCH   2   3
ENDBRANCH   1   2
BRANCH   1  15
HETATM   15  C   UNL     1      -9.643  15.306  66.756  1.00  0.00    -0.257 C  
HETATM   16  C   UNL     1      -9.023  17.655  66.254  1.00  0.00    -0.183 C  
HETATM   17  C   UNL     1      -8.221  16.654  68.375  1.00  0.00    -0.206 C  
HETATM   18  C   UNL     1      -9.364  16.679  67.367  1.00  0.00    -0.223 C  
HETATM   19  O   UNL     1      -7.899  17.846  65.814  1.00  0.00    -0.542 OA 
BRANCH  16  20
HETATM   20  O   UNL     1     -10.147  18.315  65.858  1.00  0.00    -0.542 OA 
BRANCH  20  21
HETATM   21  C   UNL     1     -10.068  19.746  65.926  1.00  0.00    -0.419 C  
HETATM   22  C   UNL     1      -9.911  20.129  67.387  1.00  0.00    -0.570 C  
ENDBRANCH  20  21
ENDBRANCH  16  20
ENDBRANCH   1  15
BRANCH   1  23
HETATM   23  N   UNL     1     -10.953  14.875  68.786  1.00  0.00    -0.243 N  
HETATM   24  C   UNL     1     -11.834  14.191  69.581  1.00  0.00    -0.324 C  
HETATM   25  H   UNL     1     -10.840  15.878  68.933  1.00  0.00     0.000 HD 
HETATM   26  O   UNL     1     -12.100  12.995  69.477  1.00  0.00    -0.293 OA 
BRANCH  24  27
HETATM   27  C   UNL     1     -12.614  15.041  70.548  1.00  0.00    -0.420 C  
BRANCH  27  28
HETATM   28  C   UNL     1     -11.974  14.942  71.919  1.00  0.00    -0.432 C  
HETATM   29  O   UNL     1     -12.356  15.185  74.261  1.00  0.00    -0.608 OA 
HETATM   30  C   UNL     1     -12.790  15.354  73.127  1.00  0.00    -0.493 C  
HETATM   31  O   UNL     1     -13.996  15.910  72.929  1.00  0.00    -0.592 OA 
ENDBRANCH  27  28
ENDBRANCH  24  27
ENDBRANCH   1  23
TORSDOF 9
ENDMDL
MODEL       95
REMARK 921   NORMALIZED FREE ENERGY PREDICTED BY IDOCK:   -5.34 KCAL/MOL
REMARK 922        TOTAL FREE ENERGY PREDICTED BY IDOCK:   -9.96 KCAL/MOL
REMARK 923 INTER-LIGAND FREE ENERGY PREDICTED BY IDOCK:   -8.77 KCAL/MOL
REMARK 924 INTRA-LIGAND FREE ENERGY PREDICTED BY IDOCK:   -1.19 KCAL/MOL
REMARK 927      BINDING AFFINITY PREDICTED BY RF-SCORE:    0.00 PKD
ROOT
HETATM    1  C   UNL     1     -10.112   9.917  66.285  1.00  0.00    -0.241 C  
ENDROOT
BRANCH   1   2
HETATM    2  C   UNL     1      -9.604  10.460  67.650  1.00  0.00    -0.168 C  
BRANCH   2   3
HETATM    3  C   UNL     1     -10.414  11.508  68.381  1.00  0.00    -0.226 A  
HETATM    4  C   UNL     1     -11.775  13.367  70.070  1.00  0.00    -0.297 A  
HETATM    5  C   UNL     1     -10.175  12.878  68.288  1.00  0.00    -0.245 A  
HETATM    6  C   UNL     1     -10.811  13.778  69.139  1.00  0.00    -0.205 A  
HETATM    7  C   UNL     1     -11.443  11.088  69.232  1.00  0.00    -0.370 A  
HETATM    8  C   UNL     1     -12.124  12.003  70.047  1.00  0.00    -0.355 A  
BRANCH   4   9
HETATM    9  C   UNL     1     -12.332  14.316  71.055  1.00  0.00    -0.431 A  
HETATM   10  C   UNL     1     -11.576  15.396  71.551  1.00  0.00    -0.475 A  
HETATM   11  C   UNL     1     -12.059  16.227  72.564  1.00  0.00    -0.615 A  
HETATM   12  C   UNL     1     -13.328  16.017  73.089  1.00  0.00    -0.624 A  
HETATM   13  C   UNL     1     -14.112  14.974  72.605  1.00  0.00    -0.397 A  
HETATM   14  C   UNL     1     -13.615  14.132  71.603  1.00  0.00    -0.446 A  
ENDBRANCH   4   9
ENDBRANCH   2   3
ENDBRANCH   1   2
BRANCH   1  15
HETATM   15  C   UNL     1      -9.441   8.611  65.793  1.00  0.00    -0.192 C  
HETATM   16  C   UNL     1      -7.527   7.413  64.765  1.00  0.00    -0.088 C  
HETATM   17  C   UNL     1      -7.057   9.079  66.540  1.00  0.00    -0.081 C  
HETATM   18  C   UNL     1      -7.975   8.730  65.374  1.00  0.00    -0.112 C  
HETATM   19  O   UNL     1      -7.061   6.476  65.396  1.00  0.00    -0.061 OA 
BRANCH  16  20
HETATM   20  O   UNL     1      -7.677   7.456  63.412  1.00  0.00    -0.114 OA 
BRANCH  20  21
HETATM   21  C   UNL     1      -6.542   7.004  62.660  1.00  0.00    -0.052 C  
HETATM   22  C   UNL     1      -5.506   8.115  62.679  1.00  0.00    -0.069 C  
ENDBRANCH  20  21
ENDBRANCH  16  20
ENDBRANCH   1  15
BRANCH   1  23
HETATM   23  N   UNL     1     -10.035  10.923  65.222  1.00  0.00    -0.255 N  
HETATM   24  C   UNL     1     -11.076  11.759  64.918  1.00  0.00    -0.285 C  
HETATM   25  H   UNL     1      -9.171  11.003  64.687  1.00  0.00     0.000 HD 
HETATM   26  O   UNL     1     -12.184  11.733  65.450  1.00  0.00    -0.266 OA 
BRANCH  24  27
HETATM   27  C   UNL     1     -10.842  12.666  63.739  1.00  0.00    -0.466 C  
BRANCH  27  28
HETATM   28  C   UNL     1     -12.053  13.560  63.558  1.00  0.00    -0.425 C  
HETATM   29  O   UNL     1     -12.895  15.771  63.862  1.00  0.00    -0.589 OA 
HETATM   30  C   UNL     1     -11.985  14.979  64.085  1.00  0.00    -0.201 C  
HETATM   31  O   UNL     1     -10.913  15.349  64.802  1.00  0.00    -0.420 OA 
ENDBRANCH  27  28
ENDBRANCH  24  27
ENDBRANCH   1  23
TORSDOF 9
ENDMDL
MODEL       96
REMARK 921   NORMALIZED FREE ENERGY PREDICTED BY IDOCK:   -5.31 KCAL/MOL
REMARK 922        TOTAL FREE ENERGY PREDICTED BY IDOCK:   -9.92 KCAL/MOL
REMARK 923 INTER-LIGAND FREE ENERGY PREDICTED BY IDOCK:   -8.13 KCAL/MOL
REMARK 924 INTRA-LIGAND FREE ENERGY PREDICTED BY IDOCK:   -1.79 KCAL/MOL
REMARK 927      BINDING AFFINITY PREDICTED BY RF-SCORE:    0.00 PKD
ROOT
HETATM    1  C   UNL     1     -11.992  11.173  69.985  1.00  0.00    -0.367 C  
ENDROOT
BRANCH   1   2
HETATM    2  C   UNL     1     -10.984  10.389  70.872  1.00  0.00     0.044 C  
BRANCH   2   3
HETATM    3  C   UNL     1     -10.413   9.081  70.370  1.00  0.00    -0.254 A  
HETATM    4  C   UNL     1      -9.543   6.664  69.120  1.00  0.00    -0.136 A  
HETATM    5  C   UNL     1      -9.096   8.923  69.941  1.00  0.00    -0.166 A  
HETATM    6  C   UNL     1      -8.686   7.758  69.297  1.00  0.00    -0.139 A  
HETATM    7  C   UNL     1     -11.256   7.966  70.294  1.00  0.00    -0.206 A  
HETATM    8  C   UNL     1     -10.823   6.774  69.697  1.00  0.00    -0.314 A  
BRANCH   4   9
HETATM    9  C   UNL     1      -9.130   5.497  68.314  1.00  0.00    -0.113 A  
HETATM   10  C   UNL     1      -9.754   4.242  68.456  1.00  0.00    -0.164 A  
HETATM   11  C   UNL     1      -9.293   3.112  67.778  1.00  0.00    -0.252 A  
HETATM   12  C   UNL     1      -8.209   3.213  66.915  1.00  0.00    -0.088 A  
HETATM   13  C   UNL     1      -7.584   4.444  66.732  1.00  0.00    -0.086 A  
HETATM   14  C   UNL     1      -8.038   5.570  67.429  1.00  0.00    -0.101 A  
ENDBRANCH   4   9
ENDBRANCH   2   3
ENDBRANCH   1   2
BRANCH   1  15
HETATM   15  C   UNL     1     -11.810  11.004  68.456  1.00  0.00    -0.286 C  
HETATM   16  C   UNL     1     -11.200  11.919  66.233  1.00  0.00    -0.337 C  
HETATM   17  C   UNL     1      -9.696  12.380  68.148  1.00  0.00    -0.214 C  
HETATM   18  C   UNL     1     -11.146  12.173  67.729  1.00  0.00    -0.302 C  
HETATM   19  O   UNL     1     -10.353  11.307  65.599  1.00  0.00    -0.241 OA 
BRANCH  16  20
HETATM   20  O   UNL     1     -12.304  12.517  65.702  1.00  0.00    -0.615 OA 
BRANCH  20  21
HETATM   21  C   UNL     1     -12.156  12.977  64.352  1.00  0.00    -0.411 C  
HETATM   22  C   UNL     1     -11.700  14.424  64.407  1.00  0.00    -0.390 C  
ENDBRANCH  20  21
ENDBRANCH  16  20
ENDBRANCH   1  15
BRANCH   1  23
HETATM   23  N   UNL     1     -12.022  12.603  70.307  1.00  0.00    -0.502 N  
HETATM   24  C   UNL     1     -12.748  13.112  71.350  1.00  0.00    -0.297 C  
HETATM   25  H   UNL     1     -11.479  13.245  69.730  1.00  0.00     0.000 HD 
HETATM   26  O   UNL     1     -13.481  12.456  72.089  1.00  0.00    -0.525 OA 
BRANCH  24  27
HETATM   27  C   UNL     1     -12.726  14.612  71.471  1.00  0.00    -0.408 C  
BRANCH  27  28
HETATM   28  C   UNL     1     -11.319  15.107  71.204  1.00  0.00    -0.363 C  
HETATM   29  O   UNL     1      -9.891  16.111  69.579  1.00  0.00    -0.246 OA 
HETATM   30  C   UNL     1     -10.980  15.598  69.811  1.00  0.00    -0.304 C  
HETATM   31  O   UNL     1     -11.894  15.456  68.839  1.00  0.00    -0.349 OA 
ENDBRANCH  27  28
ENDBRANCH  24  27
ENDBRANCH   1  23
TORSDOF 9
ENDMDL
MODEL       97
REMARK 921   NORMALIZED FREE ENERGY PREDICTED BY IDOCK:   -5.31 KCAL/MOL
REMARK 922        TOTAL FREE ENERGY PREDICTED BY IDOCK:   -9.92 KCAL/MOL
REMARK 923 INTER-LIGAND FREE ENERGY PREDICTED BY IDOCK:   -8.77 KCAL/MOL
REMARK 924 INTRA-LIGAND FREE ENERGY PREDICTED BY IDOCK:   -1.14 KCAL/MOL
REMARK 927      BINDING AFFINITY PREDICTED BY RF-SCORE:    0.00 PKD
ROOT
HETATM    1  C   UNL     1     -10.683  15.174  67.178  1.00  0.00    -0.310 C  
ENDROOT
BRANCH   1   2
HETATM    2  C   UNL     1     -10.479  14.690  68.641  1.00  0.00    -0.244 C  
BRANCH   2   3
HETATM    3  C   UNL     1     -10.866  13.277  69.017  1.00  0.00    -0.212 A  
HETATM    4  C   UNL     1     -11.301  10.612  69.949  1.00  0.00    -0.386 A  
HETATM    5  C   UNL     1     -11.970  12.958  69.806  1.00  0.00    -0.365 A  
HETATM    6  C   UNL     1     -12.158  11.666  70.292  1.00  0.00    -0.443 A  
HETATM    7  C   UNL     1     -10.056  12.221  68.582  1.00  0.00    -0.153 A  
HETATM    8  C   UNL     1     -10.280  10.910  69.026  1.00  0.00    -0.219 A  
BRANCH   4   9
HETATM    9  C   UNL     1     -11.437   9.285  70.585  1.00  0.00    -0.327 A  
HETATM   10  C   UNL     1     -12.290   9.079  71.687  1.00  0.00    -0.416 A  
HETATM   11  C   UNL     1     -12.336   7.856  72.361  1.00  0.00    -0.253 A  
HETATM   12  C   UNL     1     -11.549   6.795  71.929  1.00  0.00    -0.330 A  
HETATM   13  C   UNL     1     -10.713   6.957  70.828  1.00  0.00    -0.262 A  
HETATM   14  C   UNL     1     -10.656   8.191  70.170  1.00  0.00    -0.237 A  
ENDBRANCH   4   9
ENDBRANCH   2   3
ENDBRANCH   1   2
BRANCH   1  15
HETATM   15  C   UNL     1     -10.213  14.193  66.077  1.00  0.00    -0.318 C  
HETATM   16  C   UNL     1     -10.697  12.464  64.365  1.00  0.00    -0.339 C  
HETATM   17  C   UNL     1     -12.126  14.488  64.430  1.00  0.00    -0.492 C  
HETATM   18  C   UNL     1     -11.320  13.508  65.274  1.00  0.00    -0.304 C  
HETATM   19  O   UNL     1     -10.288  12.680  63.233  1.00  0.00    -0.308 OA 
BRANCH  16  20
HETATM   20  O   UNL     1     -10.710  11.249  64.980  1.00  0.00    -0.293 OA 
BRANCH  20  21
HETATM   21  C   UNL     1      -9.658  10.357  64.587  1.00  0.00    -0.300 C  
HETATM   22  C   UNL     1      -8.595  10.394  65.671  1.00  0.00    -0.175 C  
ENDBRANCH  20  21
ENDBRANCH  16  20
ENDBRANCH   1  15
BRANCH   1  23
HETATM   23  N   UNL     1     -10.078  16.488  66.937  1.00  0.00    -0.273 N  
HETATM   24  C   UNL     1      -8.750  16.742  67.153  1.00  0.00    -0.200 C  
HETATM   25  H   UNL     1     -10.671  17.244  66.594  1.00  0.00     0.000 HD 
HETATM   26  O   UNL     1      -7.941  15.937  67.610  1.00  0.00    -0.135 OA 
BRANCH  24  27
HETATM   27  C   UNL     1      -8.330  18.171  66.934  1.00  0.00    -0.258 C  
BRANCH  27  28
HETATM   28  C   UNL     1      -7.282  18.540  67.966  1.00  0.00    -0.257 C  
HETATM   29  O   UNL     1      -6.230  20.355  69.100  1.00  0.00    -0.325 OA 
HETATM   30  C   UNL     1      -6.985  20.007  68.198  1.00  0.00    -0.295 C  
HETATM   31  O   UNL     1      -7.562  20.915  67.397  1.00  0.00    -0.345 OA 
ENDBRANCH  27  28
ENDBRANCH  24  27
ENDBRANCH   1  23
TORSDOF 9
ENDMDL
MODEL       98
REMARK 921   NORMALIZED FREE ENERGY PREDICTED BY IDOCK:   -5.29 KCAL/MOL
REMARK 922        TOTAL FREE ENERGY PREDICTED BY IDOCK:   -9.90 KCAL/MOL
REMARK 923 INTER-LIGAND FREE ENERGY PREDICTED BY IDOCK:   -7.39 KCAL/MOL
REMARK 924 INTRA-LIGAND FREE ENERGY PREDICTED BY IDOCK:   -2.50 KCAL/MOL
REMARK 927      BINDING AFFINITY PREDICTED BY RF-SCORE:    0.00 PKD
ROOT
HETATM    1  C   UNL     1      -8.793   9.830  65.357  1.00  0.00    -0.169 C  
ENDROOT
BRANCH   1   2
HETATM    2  C   UNL     1      -8.871   8.282  65.241  1.00  0.00    -0.074 C  
BRANCH   2   3
HETATM    3  C   UNL     1      -9.330   7.469  66.432  1.00  0.00    -0.211 A  
HETATM    4  C   UNL     1     -10.014   6.182  68.889  1.00  0.00    -0.185 A  
HETATM    5  C   UNL     1     -10.648   7.431  66.885  1.00  0.00    -0.375 A  
HETATM    6  C   UNL     1     -10.972   6.837  68.102  1.00  0.00    -0.277 A  
HETATM    7  C   UNL     1      -8.378   6.736  67.150  1.00  0.00    -0.121 A  
HETATM    8  C   UNL     1      -8.718   6.089  68.346  1.00  0.00    -0.113 A  
BRANCH   4   9
HETATM    9  C   UNL     1     -10.352   5.683  70.237  1.00  0.00    -0.336 A  
HETATM   10  C   UNL     1     -11.280   6.350  71.061  1.00  0.00    -0.370 A  
HETATM   11  C   UNL     1     -11.517   5.946  72.377  1.00  0.00    -0.358 A  
HETATM   12  C   UNL     1     -10.851   4.842  72.896  1.00  0.00    -0.306 A  
HETATM   13  C   UNL     1      -9.946   4.145  72.101  1.00  0.00    -0.243 A  
HETATM   14  C   UNL     1      -9.697   4.566  70.789  1.00  0.00    -0.267 A  
ENDBRANCH   4   9
ENDBRANCH   2   3
ENDBRANCH   1   2
BRANCH   1  15
HETATM   15  C   UNL     1      -8.224  10.373  66.691  1.00  0.00    -0.128 C  
HETATM   16  C   UNL     1      -6.408  10.509  68.376  1.00  0.00    -0.054 C  
HETATM   17  C   UNL     1      -5.811  10.736  65.981  1.00  0.00    -0.140 C  
HETATM   18  C   UNL     1      -6.753  10.058  66.968  1.00  0.00    -0.078 C  
HETATM   19  O   UNL     1      -6.015  11.628  68.672  1.00  0.00    -0.049 OA 
BRANCH  16  20
HETATM   20  O   UNL     1      -6.555   9.469  69.243  1.00  0.00    -0.047 OA 
BRANCH  20  21
HETATM   21  C   UNL     1      -7.309   9.766  70.426  1.00  0.00    -0.141 C  
HETATM   22  C   UNL     1      -8.719   9.241  70.216  1.00  0.00    -0.246 C  
ENDBRANCH  20  21
ENDBRANCH  16  20
ENDBRANCH   1  15
BRANCH   1  23
HETATM   23  N   UNL     1     -10.082  10.474  65.091  1.00  0.00    -0.310 N  
HETATM   24  C   UNL     1     -10.335  11.181  63.947  1.00  0.00    -0.380 C  
HETATM   25  H   UNL     1     -10.823  10.393  65.789  1.00  0.00     0.000 HD 
HETATM   26  O   UNL     1      -9.517  11.397  63.053  1.00  0.00    -0.348 OA 
BRANCH  24  27
HETATM   27  C   UNL     1     -11.685  11.845  63.890  1.00  0.00    -0.509 C  
BRANCH  27  28
HETATM   28  C   UNL     1     -12.053  12.332  65.278  1.00  0.00    -0.361 C  
HETATM   29  O   UNL     1     -12.294  14.264  66.656  1.00  0.00    -0.446 OA 
HETATM   30  C   UNL     1     -11.903  13.808  65.587  1.00  0.00    -0.365 C  
HETATM   31  O   UNL     1     -11.332  14.602  64.669  1.00  0.00    -0.387 OA 
ENDBRANCH  27  28
ENDBRANCH  24  27
ENDBRANCH   1  23
TORSDOF 9
ENDMDL
MODEL       99
REMARK 921   NORMALIZED FREE ENERGY PREDICTED BY IDOCK:   -5.28 KCAL/MOL
REMARK 922        TOTAL FREE ENERGY PREDICTED BY IDOCK:   -9.87 KCAL/MOL
REMARK 923 INTER-LIGAND FREE ENERGY PREDICTED BY IDOCK:   -8.56 KCAL/MOL
REMARK 924 INTRA-LIGAND FREE ENERGY PREDICTED BY IDOCK:   -1.31 KCAL/MOL
REMARK 927      BINDING AFFINITY PREDICTED BY RF-SCORE:    0.00 PKD
ROOT
HETATM    1  C   UNL     1      -9.315   7.852  67.580  1.00  0.00    -0.143 C  
ENDROOT
BRANCH   1   2
HETATM    2  C   UNL     1     -10.398   8.893  67.179  1.00  0.00    -0.351 C  
BRANCH   2   3
HETATM    3  C   UNL     1     -10.738  10.017  68.132  1.00  0.00    -0.282 A  
HETATM    4  C   UNL     1     -11.702  12.164  69.751  1.00  0.00    -0.381 A  
HETATM    5  C   UNL     1     -11.032   9.829  69.481  1.00  0.00    -0.256 A  
HETATM    6  C   UNL     1     -11.539  10.868  70.258  1.00  0.00    -0.426 A  
HETATM    7  C   UNL     1     -10.798  11.324  67.633  1.00  0.00    -0.286 A  
HETATM    8  C   UNL     1     -11.254  12.381  68.434  1.00  0.00    -0.316 A  
BRANCH   4   9
HETATM    9  C   UNL     1     -12.370  13.213  70.548  1.00  0.00    -0.380 A  
HETATM   10  C   UNL     1     -12.275  14.576  70.205  1.00  0.00    -0.399 A  
HETATM   11  C   UNL     1     -12.809  15.577  71.018  1.00  0.00    -0.543 A  
HETATM   12  C   UNL     1     -13.482  15.239  72.186  1.00  0.00    -0.546 A  
HETATM   13  C   UNL     1     -13.616  13.900  72.543  1.00  0.00    -0.680 A  
HETATM   14  C   UNL     1     -13.061  12.902  71.734  1.00  0.00    -0.458 A  
ENDBRANCH   4   9
ENDBRANCH   2   3
ENDBRANCH   1   2
BRANCH   1  15
HETATM   15  C   UNL     1      -8.832   6.918  66.443  1.00  0.00    -0.155 C  
HETATM   16  C   UNL     1      -8.582   4.655  65.458  1.00  0.00    -0.127 C  
HETATM   17  C   UNL     1     -10.783   5.289  66.406  1.00  0.00    -0.290 C  
HETATM   18  C   UNL     1      -9.274   5.458  66.545  1.00  0.00    -0.139 C  
HETATM   19  O   UNL     1      -9.014   4.496  64.326  1.00  0.00    -0.148 OA 
BRANCH  16  20
HETATM   20  O   UNL     1      -7.438   4.102  65.950  1.00  0.00    -0.078 OA 
BRANCH  20  21
HETATM   21  C   UNL     1      -7.616   3.250  67.090  1.00  0.00    -0.075 C  
HETATM   22  C   UNL     1      -7.720   1.822  66.584  1.00  0.00    -0.066 C  
ENDBRANCH  20  21
ENDBRANCH  16  20
ENDBRANCH   1  15
BRANCH   1  23
HETATM   23  N   UNL     1      -9.724   7.037  68.727  1.00  0.00    -0.143 N  
HETATM   24  C   UNL     1      -9.150   7.159  69.964  1.00  0.00    -0.145 C  
HETATM   25  H   UNL     1     -10.466   6.349  68.598  1.00  0.00     0.000 HD 
HETATM   26  O   UNL     1      -8.217   7.910  70.241  1.00  0.00    -0.119 OA 
BRANCH  24  27
HETATM   27  C   UNL     1      -9.640   6.177  70.995  1.00  0.00    -0.194 C  
BRANCH  27  28
HETATM   28  C   UNL     1     -11.152   6.100  70.923  1.00  0.00    -0.371 C  
HETATM   29  O   UNL     1     -13.183   7.112  71.656  1.00  0.00    -0.374 OA 
HETATM   30  C   UNL     1     -11.963   7.061  71.767  1.00  0.00    -0.326 C  
HETATM   31  O   UNL     1     -11.320   7.853  72.638  1.00  0.00    -0.361 OA 
ENDBRANCH  27  28
ENDBRANCH  24  27
ENDBRANCH   1  23
TORSDOF 9
ENDMDL
MODEL      100
REMARK 921   NORMALIZED FREE ENERGY PREDICTED BY IDOCK:   -5.25 KCAL/MOL
REMARK 922        TOTAL FREE ENERGY PREDICTED BY IDOCK:   -9.84 KCAL/MOL
REMARK 923 INTER-LIGAND FREE ENERGY PREDICTED BY IDOCK:   -8.22 KCAL/MOL
REMARK 924 INTRA-LIGAND FREE ENERGY PREDICTED BY IDOCK:   -1.61 KCAL/MOL
REMARK 927      BINDING AFFINITY PREDICTED BY RF-SCORE:    0.00 PKD
ROOT
HETATM    1  C   UNL     1     -11.195  11.114  66.848  1.00  0.00    -0.186 C  
ENDROOT
BRANCH   1   2
HETATM    2  C   UNL     1      -9.645  11.045  66.956  1.00  0.00    -0.199 C  
BRANCH   2   3
HETATM    3  C   UNL     1      -9.011  10.132  67.983  1.00  0.00    -0.125 A  
HETATM    4  C   UNL     1      -8.073   8.532  70.155  1.00  0.00    -0.111 A  
HETATM    5  C   UNL     1      -9.102   8.742  67.948  1.00  0.00    -0.145 A  
HETATM    6  C   UNL     1      -8.681   7.967  69.025  1.00  0.00    -0.137 A  
HETATM    7  C   UNL     1      -8.318  10.708  69.054  1.00  0.00    -0.153 A  
HETATM    8  C   UNL     1      -7.842   9.921  70.112  1.00  0.00    -0.186 A  
BRANCH   4   9
HETATM    9  C   UNL     1      -7.762   7.709  71.341  1.00  0.00    -0.081 A  
HETATM   10  C   UNL     1      -7.334   6.372  71.222  1.00  0.00    -0.080 A  
HETATM   11  C   UNL     1      -7.148   5.557  72.341  1.00  0.00    -0.084 A  
HETATM   12  C   UNL     1      -7.358   6.069  73.616  1.00  0.00    -0.089 A  
HETATM   13  C   UNL     1      -7.757   7.393  73.771  1.00  0.00    -0.136 A  
HETATM   14  C   UNL     1      -7.962   8.200  72.645  1.00  0.00    -0.199 A  
ENDBRANCH   4   9
ENDBRANCH   2   3
ENDBRANCH   1   2
BRANCH   1  15
HETATM   15  C   UNL     1     -11.768  12.446  66.306  1.00  0.00    -0.457 C  
HETATM   16  C   UNL     1     -11.682  14.361  64.731  1.00  0.00    -0.416 C  
HETATM   17  C   UNL     1     -11.369  12.075  63.824  1.00  0.00    -0.526 C  
HETATM   18  C   UNL     1     -11.124  12.979  65.026  1.00  0.00    -0.319 C  
HETATM   19  O   UNL     1     -12.690  14.580  64.075  1.00  0.00    -0.759 OA 
BRANCH  16  20
HETATM   20  O   UNL     1     -10.865  15.312  65.264  1.00  0.00    -0.351 OA 
BRANCH  20  21
HETATM   21  C   UNL     1      -9.624  14.823  65.790  1.00  0.00    -0.254 C  
HETATM   22  C   UNL     1      -9.431  15.442  67.163  1.00  0.00    -0.221 C  
ENDBRANCH  20  21
ENDBRANCH  16  20
ENDBRANCH   1  15
BRANCH   1  23
HETATM   23  N   UNL     1     -11.855  10.791  68.116  1.00  0.00    -0.370 N  
HETATM   24  C   UNL     1     -11.830  11.628  69.199  1.00  0.00    -0.326 C  
HETATM   25  H   UNL     1     -12.354   9.904  68.195  1.00  0.00     0.000 HD 
HETATM   26  O   UNL     1     -11.226  12.698  69.253  1.00  0.00    -0.243 OA 
BRANCH  24  27
HETATM   27  C   UNL     1     -12.489  11.087  70.440  1.00  0.00    -0.397 C  
BRANCH  27  28
HETATM   28  C   UNL     1     -11.581  10.046  71.065  1.00  0.00    -0.476 C  
HETATM   29  O   UNL     1     -11.514   8.135  72.491  1.00  0.00    -0.370 OA 
HETATM   30  C   UNL     1     -12.183   9.063  72.048  1.00  0.00    -0.375 C  
HETATM   31  O   UNL     1     -13.460   9.230  72.425  1.00  0.00    -0.451 OA 
ENDBRANCH  27  28
ENDBRANCH  24  27
ENDBRANCH   1  23
TORSDOF 9
ENDMDL
MODEL      101
REMARK 921   NORMALIZED FREE ENERGY PREDICTED BY IDOCK:   -5.24 KCAL/MOL
REMARK 922        TOTAL FREE ENERGY PREDICTED BY IDOCK:   -9.82 KCAL/MOL
REMARK 923 INTER-LIGAND FREE ENERGY PREDICTED BY IDOCK:   -8.30 KCAL/MOL
REMARK 924 INTRA-LIGAND FREE ENERGY PREDICTED BY IDOCK:   -1.52 KCAL/MOL
REMARK 927      BINDING AFFINITY PREDICTED BY RF-SCORE:    0.00 PKD
ROOT
HETATM    1  C   UNL     1     -11.372   6.383  71.094  1.00  0.00    -0.319 C  
ENDROOT
BRANCH   1   2
HETATM    2  C   UNL     1     -10.950   7.710  71.785  1.00  0.00    -0.276 C  
BRANCH   2   3
HETATM    3  C   UNL     1     -11.129   9.021  71.051  1.00  0.00    -0.356 A  
HETATM    4  C   UNL     1     -11.432  11.298  69.353  1.00  0.00    -0.370 A  
HETATM    5  C   UNL     1     -12.340   9.707  70.972  1.00  0.00    -0.396 A  
HETATM    6  C   UNL     1     -12.495  10.793  70.113  1.00  0.00    -0.357 A  
HETATM    7  C   UNL     1     -10.030   9.569  70.379  1.00  0.00    -0.325 A  
HETATM    8  C   UNL     1     -10.175  10.697  69.560  1.00  0.00    -0.190 A  
BRANCH   4   9
HETATM    9  C   UNL     1     -11.653  12.358  68.348  1.00  0.00    -0.373 A  
HETATM   10  C   UNL     1     -11.712  12.069  66.970  1.00  0.00    -0.341 A  
HETATM   11  C   UNL     1     -11.807  13.080  66.012  1.00  0.00    -0.471 A  
HETATM   12  C   UNL     1     -11.877  14.410  66.409  1.00  0.00    -0.402 A  
HETATM   13  C   UNL     1     -11.847  14.729  67.763  1.00  0.00    -0.322 A  
HETATM   14  C   UNL     1     -11.731  13.713  68.719  1.00  0.00    -0.383 A  
ENDBRANCH   4   9
ENDBRANCH   2   3
ENDBRANCH   1   2
BRANCH   1  15
HETATM   15  C   UNL     1     -10.417   5.184  71.310  1.00  0.00    -0.245 C  
HETATM   16  C   UNL     1      -9.004   3.778  72.787  1.00  0.00    -0.097 C  
HETATM   17  C   UNL     1     -11.278   4.385  73.564  1.00  0.00    -0.375 C  
HETATM   18  C   UNL     1     -10.071   4.858  72.763  1.00  0.00    -0.215 C  
HETATM   19  O   UNL     1      -9.228   2.576  72.783  1.00  0.00    -0.077 OA 
BRANCH  16  20
HETATM   20  O   UNL     1      -7.770   4.350  72.863  1.00  0.00    -0.083 OA 
BRANCH  20  21
HETATM   21  C   UNL     1      -7.012   4.327  71.646  1.00  0.00    -0.038 C  
HETATM   22  C   UNL     1      -5.907   3.299  71.811  1.00  0.00    -0.013 C  
ENDBRANCH  20  21
ENDBRANCH  16  20
ENDBRANCH   1  15
BRANCH   1  23
HETATM   23  N   UNL     1     -11.606   6.554  69.657  1.00  0.00    -0.629 N  
HETATM   24  C   UNL     1     -10.608   6.447  68.726  1.00  0.00    -0.251 C  
HETATM   25  H   UNL     1     -12.553   6.761  69.337  1.00  0.00     0.000 HD 
HETATM   26  O   UNL     1      -9.421   6.251  68.981  1.00  0.00    -0.129 OA 
BRANCH  24  27
HETATM   27  C   UNL     1     -11.022   6.741  67.309  1.00  0.00    -0.433 C  
BRANCH  27  28
HETATM   28  C   UNL     1     -10.785   8.211  67.022  1.00  0.00    -0.247 C  
HETATM   29  O   UNL     1      -9.386   9.761  65.868  1.00  0.00    -0.173 OA 
HETATM   30  C   UNL     1      -9.559   8.599  66.220  1.00  0.00    -0.252 C  
HETATM   31  O   UNL     1      -8.666   7.647  65.908  1.00  0.00    -0.157 OA 
ENDBRANCH  27  28
ENDBRANCH  24  27
ENDBRANCH   1  23
TORSDOF 9
ENDMDL
MODEL      102
REMARK 921   NORMALIZED FREE ENERGY PREDICTED BY IDOCK:   -5.23 KCAL/MOL
REMARK 922        TOTAL FREE ENERGY PREDICTED BY IDOCK:   -9.80 KCAL/MOL
REMARK 923 INTER-LIGAND FREE ENERGY PREDICTED BY IDOCK:   -8.51 KCAL/MOL
REMARK 924 INTRA-LIGAND FREE ENERGY PREDICTED BY IDOCK:   -1.28 KCAL/MOL
REMARK 927      BINDING AFFINITY PREDICTED BY RF-SCORE:    0.00 PKD
ROOT
HETATM    1  C   UNL     1     -10.433  10.522  67.321  1.00  0.00    -0.250 C  
ENDROOT
BRANCH   1   2
HETATM    2  C   UNL     1     -11.320  11.669  66.758  1.00  0.00    -0.354 C  
BRANCH   2   3
HETATM    3  C   UNL     1     -10.881  13.106  66.939  1.00  0.00    -0.278 A  
HETATM    4  C   UNL     1     -10.341  15.907  67.066  1.00  0.00    -0.297 A  
HETATM    5  C   UNL     1     -11.016  13.814  68.132  1.00  0.00    -0.265 A  
HETATM    6  C   UNL     1     -10.791  15.188  68.181  1.00  0.00    -0.266 A  
HETATM    7  C   UNL     1     -10.338  13.784  65.842  1.00  0.00    -0.315 A  
HETATM    8  C   UNL     1     -10.056  15.155  65.910  1.00  0.00    -0.349 A  
BRANCH   4   9
HETATM    9  C   UNL     1     -10.242  17.381  67.102  1.00  0.00    -0.323 A  
HETATM   10  C   UNL     1     -10.045  18.078  68.310  1.00  0.00    -0.390 A  
HETATM   11  C   UNL     1     -10.065  19.474  68.364  1.00  0.00    -0.546 A  
HETATM   12  C   UNL     1     -10.252  20.212  67.202  1.00  0.00    -0.554 A  
HETATM   13  C   UNL     1     -10.425  19.555  65.987  1.00  0.00    -0.611 A  
HETATM   14  C   UNL     1     -10.425  18.155  65.942  1.00  0.00    -0.292 A  
ENDBRANCH   4   9
ENDBRANCH   2   3
ENDBRANCH   1   2
BRANCH   1  15
HETATM   15  C   UNL     1     -10.226  10.529  68.855  1.00  0.00    -0.223 C  
HETATM   16  C   UNL     1     -10.633   9.555  71.100  1.00  0.00    -0.318 C  
HETATM   17  C   UNL     1     -10.032   8.025  69.245  1.00  0.00    -0.191 C  
HETATM   18  C   UNL     1     -10.764   9.311  69.607  1.00  0.00    -0.244 C  
HETATM   19  O   UNL     1      -9.646   9.279  71.768  1.00  0.00    -0.291 OA 
BRANCH  16  20
HETATM   20  O   UNL     1     -11.792  10.079  71.587  1.00  0.00    -0.365 OA 
BRANCH  20  21
HETATM   21  C   UNL     1     -12.987   9.406  71.166  1.00  0.00    -0.238 C  
HETATM   22  C   UNL     1     -13.764   9.026  72.414  1.00  0.00    -0.539 C  
ENDBRANCH  20  21
ENDBRANCH  16  20
ENDBRANCH   1  15
BRANCH   1  23
HETATM   23  N   UNL     1      -9.125  10.457  66.663  1.00  0.00    -0.150 N  
HETATM   24  C   UNL     1      -8.695   9.351  65.980  1.00  0.00    -0.150 C  
HETATM   25  H   UNL     1      -8.509  11.268  66.716  1.00  0.00     0.000 HD 
HETATM   26  O   UNL     1      -9.315   8.293  65.882  1.00  0.00    -0.178 OA 
BRANCH  24  27
HETATM   27  C   UNL     1      -7.290   9.436  65.447  1.00  0.00    -0.096 C  
BRANCH  27  28
HETATM   28  C   UNL     1      -7.012   8.215  64.592  1.00  0.00    -0.075 C  
HETATM   29  O   UNL     1      -7.220   7.289  62.404  1.00  0.00    -0.074 OA 
HETATM   30  C   UNL     1      -7.518   8.204  63.164  1.00  0.00    -0.117 C  
HETATM   31  O   UNL     1      -8.300   9.213  62.751  1.00  0.00    -0.172 OA 
ENDBRANCH  27  28
ENDBRANCH  24  27
ENDBRANCH   1  23
TORSDOF 9
ENDMDL
MODEL      103
REMARK 921   NORMALIZED FREE ENERGY PREDICTED BY IDOCK:   -5.22 KCAL/MOL
REMARK 922        TOTAL FREE ENERGY PREDICTED BY IDOCK:   -9.78 KCAL/MOL
REMARK 923 INTER-LIGAND FREE ENERGY PREDICTED BY IDOCK:   -8.69 KCAL/MOL
REMARK 924 INTRA-LIGAND FREE ENERGY PREDICTED BY IDOCK:   -1.09 KCAL/MOL
REMARK 927      BINDING AFFINITY PREDICTED BY RF-SCORE:    0.00 PKD
ROOT
HETATM    1  C   UNL     1      -9.582  15.184  67.494  1.00  0.00    -0.207 C  
ENDROOT
BRANCH   1   2
HETATM    2  C   UNL     1      -9.757  14.198  66.304  1.00  0.00    -0.315 C  
BRANCH   2   3
HETATM    3  C   UNL     1      -9.717  12.708  66.561  1.00  0.00    -0.256 A  
HETATM    4  C   UNL     1      -9.738   9.855  66.691  1.00  0.00    -0.252 A  
HETATM    5  C   UNL     1      -8.541  11.985  66.757  1.00  0.00    -0.177 A  
HETATM    6  C   UNL     1      -8.550  10.592  66.780  1.00  0.00    -0.129 A  
HETATM    7  C   UNL     1     -10.923  11.997  66.571  1.00  0.00    -0.337 A  
HETATM    8  C   UNL     1     -10.934  10.598  66.652  1.00  0.00    -0.144 A  
BRANCH   4   9
HETATM    9  C   UNL     1      -9.711   8.382  66.577  1.00  0.00    -0.330 A  
HETATM   10  C   UNL     1     -10.768   7.584  67.058  1.00  0.00    -0.367 A  
HETATM   11  C   UNL     1     -10.695   6.189  67.055  1.00  0.00    -0.423 A  
HETATM   12  C   UNL     1      -9.571   5.553  66.541  1.00  0.00    -0.169 A  
HETATM   13  C   UNL     1      -8.519   6.311  66.035  1.00  0.00    -0.143 A  
HETATM   14  C   UNL     1      -8.589   7.709  66.059  1.00  0.00    -0.165 A  
ENDBRANCH   4   9
ENDBRANCH   2   3
ENDBRANCH   1   2
BRANCH   1  15
HETATM   15  C   UNL     1     -10.031  14.650  68.876  1.00  0.00    -0.228 C  
HETATM   16  C   UNL     1     -11.651  14.591  70.754  1.00  0.00    -0.205 C  
HETATM   17  C   UNL     1     -12.527  14.452  68.439  1.00  0.00     0.190 C  
HETATM   18  C   UNL     1     -11.438  15.049  69.322  1.00  0.00    -0.326 C  
HETATM   19  O   UNL     1     -12.079  13.492  71.078  1.00  0.00    -0.311 OA 
BRANCH  16  20
HETATM   20  O   UNL     1     -11.342  15.602  71.613  1.00  0.00    -0.391 OA 
BRANCH  20  21
HETATM   21  C   UNL     1     -12.111  15.627  72.823  1.00  0.00    -0.466 C  
HETATM   22  C   UNL     1     -13.572  15.772  72.436  1.00  0.00    -0.542 C  
ENDBRANCH  20  21
ENDBRANCH  16  20
ENDBRANCH   1  15
BRANCH   1  23
HETATM   23  N   UNL     1     -10.231  16.475  67.247  1.00  0.00    -0.282 N  
HETATM   24  C   UNL     1      -9.733  17.397  66.365  1.00  0.00    -0.290 C  
HETATM   25  H   UNL     1     -11.088  16.696  67.753  1.00  0.00     0.000 HD 
HETATM   26  O   UNL     1      -8.686  17.277  65.730  1.00  0.00    -0.531 OA 
BRANCH  24  27
HETATM   27  C   UNL     1     -10.486  18.699  66.310  1.00  0.00    -0.468 C  
BRANCH  27  28
HETATM   28  C   UNL     1      -9.493  19.838  66.193  1.00  0.00    -0.464 C  
HETATM   29  O   UNL     1      -7.828  21.089  67.357  1.00  0.00    -0.282 OA 
HETATM   30  C   UNL     1      -8.721  20.251  67.430  1.00  0.00    -0.341 C  
HETATM   31  O   UNL     1      -9.037  19.685  68.604  1.00  0.00    -0.344 OA 
ENDBRANCH  27  28
ENDBRANCH  24  27
ENDBRANCH   1  23
TORSDOF 9
ENDMDL
MODEL      104
REMARK 921   NORMALIZED FREE ENERGY PREDICTED BY IDOCK:   -5.21 KCAL/MOL
REMARK 922        TOTAL FREE ENERGY PREDICTED BY IDOCK:   -9.77 KCAL/MOL
REMARK 923 INTER-LIGAND FREE ENERGY PREDICTED BY IDOCK:   -8.10 KCAL/MOL
REMARK 924 INTRA-LIGAND FREE ENERGY PREDICTED BY IDOCK:   -1.66 KCAL/MOL
REMARK 927      BINDING AFFINITY PREDICTED BY RF-SCORE:    0.00 PKD
ROOT
HETATM    1  C   UNL     1     -11.542  15.746  69.122  1.00  0.00    -0.392 C  
ENDROOT
BRANCH   1   2
HETATM    2  C   UNL     1     -11.751  15.858  67.585  1.00  0.00     0.153 C  
BRANCH   2   3
HETATM    3  C   UNL     1     -11.466  14.660  66.706  1.00  0.00    -0.371 A  
HETATM    4  C   UNL     1     -10.573  12.444  65.141  1.00  0.00    -0.324 A  
HETATM    5  C   UNL     1     -11.819  13.353  67.037  1.00  0.00    -0.443 A  
HETATM    6  C   UNL     1     -11.349  12.272  66.295  1.00  0.00    -0.395 A  
HETATM    7  C   UNL     1     -10.778  14.859  65.504  1.00  0.00    -0.369 A  
HETATM    8  C   UNL     1     -10.355  13.772  64.726  1.00  0.00    -0.422 A  
BRANCH   4   9
HETATM    9  C   UNL     1      -9.971  11.285  64.451  1.00  0.00    -0.338 A  
HETATM   10  C   UNL     1      -9.258  10.294  65.155  1.00  0.00    -0.252 A  
HETATM   11  C   UNL     1      -8.592   9.259  64.495  1.00  0.00    -0.217 A  
HETATM   12  C   UNL     1      -8.647   9.171  63.109  1.00  0.00    -0.186 A  
HETATM   13  C   UNL     1      -9.363  10.119  62.384  1.00  0.00    -0.297 A  
HETATM   14  C   UNL     1     -10.012  11.166  63.050  1.00  0.00    -0.347 A  
ENDBRANCH   4   9
ENDBRANCH   2   3
ENDBRANCH   1   2
BRANCH   1  15
HETATM   15  C   UNL     1     -10.244  15.030  69.569  1.00  0.00    -0.198 C  
HETATM   16  C   UNL     1      -7.868  14.422  69.201  1.00  0.00    -0.026 C  
HETATM   17  C   UNL     1      -8.550  16.778  68.842  1.00  0.00    -0.218 C  
HETATM   18  C   UNL     1      -8.997  15.325  68.736  1.00  0.00    -0.200 C  
HETATM   19  O   UNL     1      -7.084  14.691  70.100  1.00  0.00    -0.101 OA 
BRANCH  16  20
HETATM   20  O   UNL     1      -7.831  13.297  68.434  1.00  0.00    -0.132 OA 
BRANCH  20  21
HETATM   21  C   UNL     1      -6.729  13.219  67.520  1.00  0.00    -0.148 C  
HETATM   22  C   UNL     1      -6.476  11.750  67.229  1.00  0.00    -0.131 C  
ENDBRANCH  20  21
ENDBRANCH  16  20
ENDBRANCH   1  15
BRANCH   1  23
HETATM   23  N   UNL     1     -12.687  15.124  69.795  1.00  0.00    -0.613 N  
HETATM   24  C   UNL     1     -12.924  15.268  71.136  1.00  0.00    -0.454 C  
HETATM   25  H   UNL     1     -13.333  14.561  69.242  1.00  0.00     0.000 HD 
HETATM   26  O   UNL     1     -12.199  15.875  71.922  1.00  0.00    -0.407 OA 
BRANCH  24  27
HETATM   27  C   UNL     1     -14.096  14.485  71.664  1.00  0.00    -0.540 C  
BRANCH  27  28
HETATM   28  C   UNL     1     -13.583  13.245  72.369  1.00  0.00    -0.694 C  
HETATM   29  O   UNL     1     -12.442  11.172  72.065  1.00  0.00    -0.061 OA 
HETATM   30  C   UNL     1     -12.972  12.141  71.531  1.00  0.00    -0.295 C  
HETATM   31  O   UNL     1     -13.024  12.243  70.194  1.00  0.00     0.312 OA 
ENDBRANCH  27  28
ENDBRANCH  24  27
ENDBRANCH   1  23
TORSDOF 9
ENDMDL
MODEL      105
REMARK 921   NORMALIZED FREE ENERGY PREDICTED BY IDOCK:   -5.20 KCAL/MOL
REMARK 922        TOTAL FREE ENERGY PREDICTED BY IDOCK:   -9.75 KCAL/MOL
REMARK 923 INTER-LIGAND FREE ENERGY PREDICTED BY IDOCK:   -8.31 KCAL/MOL
REMARK 924 INTRA-LIGAND FREE ENERGY PREDICTED BY IDOCK:   -1.44 KCAL/MOL
REMARK 927      BINDING AFFINITY PREDICTED BY RF-SCORE:    0.00 PKD
ROOT
HETATM    1  C   UNL     1      -9.468  14.851  67.173  1.00  0.00    -0.225 C  
ENDROOT
BRANCH   1   2
HETATM    2  C   UNL     1      -9.293  13.641  68.134  1.00  0.00    -0.212 C  
BRANCH   2   3
HETATM    3  C   UNL     1      -9.468  12.236  67.600  1.00  0.00    -0.188 A  
HETATM    4  C   UNL     1      -9.519   9.489  66.818  1.00  0.00    -0.217 A  
HETATM    5  C   UNL     1     -10.551  11.417  67.912  1.00  0.00    -0.224 A  
HETATM    6  C   UNL     1     -10.555  10.068  67.564  1.00  0.00    -0.336 A  
HETATM    7  C   UNL     1      -8.472  11.705  66.771  1.00  0.00    -0.177 A  
HETATM    8  C   UNL     1      -8.507  10.362  66.373  1.00  0.00    -0.138 A  
BRANCH   4   9
HETATM    9  C   UNL     1      -9.477   8.032  66.581  1.00  0.00    -0.273 A  
HETATM   10  C   UNL     1      -8.455   7.437  65.816  1.00  0.00    -0.149 A  
HETATM   11  C   UNL     1      -8.474   6.078  65.495  1.00  0.00    -0.151 A  
HETATM   12  C   UNL     1      -9.504   5.269  65.958  1.00  0.00    -0.169 A  
HETATM   13  C   UNL     1     -10.517   5.819  66.738  1.00  0.00    -0.350 A  
HETATM   14  C   UNL     1     -10.504   7.186  67.040  1.00  0.00    -0.392 A  
ENDBRANCH   4   9
ENDBRANCH   2   3
ENDBRANCH   1   2
BRANCH   1  15
HETATM   15  C   UNL     1      -9.855  16.190  67.847  1.00  0.00    -0.235 C  
HETATM   16  C   UNL     1      -9.633  18.651  68.062  1.00  0.00    -0.316 C  
HETATM   17  C   UNL     1      -9.873  17.685  65.792  1.00  0.00     0.032 C  
HETATM   18  C   UNL     1      -9.304  17.454  67.187  1.00  0.00    -0.246 C  
HETATM   19  O   UNL     1     -10.664  19.305  67.991  1.00  0.00    -0.365 OA 
BRANCH  16  20
HETATM   20  O   UNL     1      -8.590  18.912  68.899  1.00  0.00    -0.316 OA 
BRANCH  20  21
HETATM   21  C   UNL     1      -7.295  18.887  68.283  1.00  0.00    -0.278 C  
HETATM   22  C   UNL     1      -6.337  18.219  69.253  1.00  0.00    -0.259 C  
ENDBRANCH  20  21
ENDBRANCH  16  20
ENDBRANCH   1  15
BRANCH   1  23
HETATM   23  N   UNL     1     -10.416  14.570  66.091  1.00  0.00    -0.289 N  
HETATM   24  C   UNL     1     -11.748  14.348  66.313  1.00  0.00    -0.385 C  
HETATM   25  H   UNL     1     -10.068  14.537  65.132  1.00  0.00     0.000 HD 
HETATM   26  O   UNL     1     -12.285  14.310  67.419  1.00  0.00    -0.378 OA 
BRANCH  24  27
HETATM   27  C   UNL     1     -12.549  13.988  65.090  1.00  0.00    -0.453 C  
BRANCH  27  28
HETATM   28  C   UNL     1     -12.343  12.518  64.782  1.00  0.00    -0.544 C  
HETATM   29  O   UNL     1     -10.785  10.905  63.969  1.00  0.00    -0.353 OA 
HETATM   30  C   UNL     1     -11.042  12.093  64.133  1.00  0.00    -0.364 C  
HETATM   31  O   UNL     1     -10.179  13.042  63.739  1.00  0.00    -0.360 OA 
ENDBRANCH  27  28
ENDBRANCH  24  27
ENDBRANCH   1  23
TORSDOF 9
ENDMDL
MODEL      106
REMARK 921   NORMALIZED FREE ENERGY PREDICTED BY IDOCK:   -5.19 KCAL/MOL
REMARK 922        TOTAL FREE ENERGY PREDICTED BY IDOCK:   -9.73 KCAL/MOL
REMARK 923 INTER-LIGAND FREE ENERGY PREDICTED BY IDOCK:   -8.23 KCAL/MOL
REMARK 924 INTRA-LIGAND FREE ENERGY PREDICTED BY IDOCK:   -1.50 KCAL/MOL
REMARK 927      BINDING AFFINITY PREDICTED BY RF-SCORE:    0.00 PKD
ROOT
HETATM    1  C   UNL     1     -10.941  15.388  67.687  1.00  0.00    -0.315 C  
ENDROOT
BRANCH   1   2
HETATM    2  C   UNL     1     -11.587  14.554  66.545  1.00  0.00    -0.379 C  
BRANCH   2   3
HETATM    3  C   UNL     1     -11.298  13.072  66.451  1.00  0.00    -0.355 A  
HETATM    4  C   UNL     1     -10.401  10.361  66.358  1.00  0.00    -0.278 A  
HETATM    5  C   UNL     1     -11.732  12.135  67.387  1.00  0.00    -0.374 A  
HETATM    6  C   UNL     1     -11.262  10.824  67.362  1.00  0.00    -0.315 A  
HETATM    7  C   UNL     1     -10.520  12.607  65.383  1.00  0.00    -0.306 A  
HETATM    8  C   UNL     1     -10.095  11.273  65.328  1.00  0.00    -0.318 A  
BRANCH   4   9
HETATM    9  C   UNL     1      -9.807   9.011  66.430  1.00  0.00    -0.356 A  
HETATM   10  C   UNL     1     -10.508   7.924  66.989  1.00  0.00    -0.419 A  
HETATM   11  C   UNL     1      -9.909   6.675  67.162  1.00  0.00    -0.194 A  
HETATM   12  C   UNL     1      -8.597   6.470  66.750  1.00  0.00    -0.117 A  
HETATM   13  C   UNL     1      -7.884   7.515  66.171  1.00  0.00    -0.096 A  
HETATM   14  C   UNL     1      -8.483   8.772  66.019  1.00  0.00    -0.144 A  
ENDBRANCH   4   9
ENDBRANCH   2   3
ENDBRANCH   1   2
BRANCH   1  15
HETATM   15  C   UNL     1      -9.464  15.795  67.465  1.00  0.00    -0.218 C  
HETATM   16  C   UNL     1      -7.072  15.710  68.117  1.00  0.00    -0.118 C  
HETATM   17  C   UNL     1      -8.347  13.586  68.042  1.00  0.00    -0.168 C  
HETATM   18  C   UNL     1      -8.435  15.078  68.339  1.00  0.00    -0.153 C  
HETATM   19  O   UNL     1      -6.277  15.368  67.253  1.00  0.00    -0.317 OA 
BRANCH  16  20
HETATM   20  O   UNL     1      -6.852  16.676  69.053  1.00  0.00    -0.182 OA 
BRANCH  20  21
HETATM   21  C   UNL     1      -6.359  17.920  68.538  1.00  0.00    -0.199 C  
HETATM   22  C   UNL     1      -7.500  18.921  68.581  1.00  0.00    -0.355 C  
ENDBRANCH  20  21
ENDBRANCH  16  20
ENDBRANCH   1  15
BRANCH   1  23
HETATM   23  N   UNL     1     -11.065  14.732  68.993  1.00  0.00    -0.244 N  
HETATM   24  C   UNL     1     -12.141  14.923  69.818  1.00  0.00    -0.314 C  
HETATM   25  H   UNL     1     -10.318  14.109  69.300  1.00  0.00     0.000 HD 
HETATM   26  O   UNL     1     -13.081  15.683  69.591  1.00  0.00     0.181 OA 
BRANCH  24  27
HETATM   27  C   UNL     1     -12.050  14.237  71.154  1.00  0.00    -0.409 C  
BRANCH  27  28
HETATM   28  C   UNL     1     -13.241  14.645  71.999  1.00  0.00    -0.439 C  
HETATM   29  O   UNL     1     -14.055  16.260  73.554  1.00  0.00    -0.312 OA 
HETATM   30  C   UNL     1     -13.088  15.825  72.937  1.00  0.00    -0.521 C  
HETATM   31  O   UNL     1     -11.876  16.381  73.079  1.00  0.00    -0.497 OA 
ENDBRANCH  27  28
ENDBRANCH  24  27
ENDBRANCH   1  23
TORSDOF 9
ENDMDL
MODEL      107
REMARK 921   NORMALIZED FREE ENERGY PREDICTED BY IDOCK:   -5.18 KCAL/MOL
REMARK 922        TOTAL FREE ENERGY PREDICTED BY IDOCK:   -9.72 KCAL/MOL
REMARK 923 INTER-LIGAND FREE ENERGY PREDICTED BY IDOCK:   -7.96 KCAL/MOL
REMARK 924 INTRA-LIGAND FREE ENERGY PREDICTED BY IDOCK:   -1.76 KCAL/MOL
REMARK 927      BINDING AFFINITY PREDICTED BY RF-SCORE:    0.00 PKD
ROOT
HETATM    1  C   UNL     1      -9.034   7.937  68.647  1.00  0.00    -0.134 C  
ENDROOT
BRANCH   1   2
HETATM    2  C   UNL     1      -9.892   7.999  67.351  1.00  0.00    -0.244 C  
BRANCH   2   3
HETATM    3  C   UNL     1     -10.312   9.344  66.801  1.00  0.00    -0.303 A  
HETATM    4  C   UNL     1     -10.853  12.029  65.991  1.00  0.00    -0.329 A  
HETATM    5  C   UNL     1     -10.009   9.785  65.514  1.00  0.00    -0.329 A  
HETATM    6  C   UNL     1     -10.238  11.106  65.135  1.00  0.00    -0.347 A  
HETATM    7  C   UNL     1     -11.016  10.219  67.636  1.00  0.00    -0.356 A  
HETATM    8  C   UNL     1     -11.297  11.532  67.232  1.00  0.00    -0.359 A  
BRANCH   4   9
HETATM    9  C   UNL     1     -10.958  13.455  65.621  1.00  0.00    -0.292 A  
HETATM   10  C   UNL     1     -11.949  13.916  64.732  1.00  0.00    -0.426 A  
HETATM   11  C   UNL     1     -11.981  15.241  64.291  1.00  0.00    -0.236 A  
HETATM   12  C   UNL     1     -11.038  16.151  64.754  1.00  0.00    -0.345 A  
HETATM   13  C   UNL     1     -10.059  15.734  65.652  1.00  0.00    -0.401 A  
HETATM   14  C   UNL     1     -10.019  14.400  66.074  1.00  0.00    -0.337 A  
ENDBRANCH   4   9
ENDBRANCH   2   3
ENDBRANCH   1   2
BRANCH   1  15
HETATM   15  C   UNL     1      -9.817   8.091  69.974  1.00  0.00    -0.185 C  
HETATM   16  C   UNL     1     -11.787   7.597  71.397  1.00  0.00    -0.293 C  
HETATM   17  C   UNL     1     -10.702   5.719  70.197  1.00  0.00    -0.390 C  
HETATM   18  C   UNL     1     -11.050   7.201  70.130  1.00  0.00    -0.301 C  
HETATM   19  O   UNL     1     -11.563   7.135  72.507  1.00  0.00    -0.275 OA 
BRANCH  16  20
HETATM   20  O   UNL     1     -12.762   8.501  71.102  1.00  0.00    -0.239 OA 
BRANCH  20  21
HETATM   21  C   UNL     1     -13.173   9.333  72.196  1.00  0.00    -0.461 C  
HETATM   22  C   UNL     1     -13.131  10.773  71.719  1.00  0.00    -0.573 C  
ENDBRANCH  20  21
ENDBRANCH  16  20
ENDBRANCH   1  15
BRANCH   1  23
HETATM   23  N   UNL     1      -7.929   8.900  68.630  1.00  0.00    -0.102 N  
HETATM   24  C   UNL     1      -6.636   8.537  68.364  1.00  0.00    -0.060 C  
HETATM   25  H   UNL     1      -8.132   9.880  68.824  1.00  0.00     0.000 HD 
HETATM   26  O   UNL     1      -6.250   7.387  68.164  1.00  0.00    -0.040 OA 
BRANCH  24  27
HETATM   27  C   UNL     1      -5.625   9.647  68.478  1.00  0.00    -0.039 C  
BRANCH  27  28
HETATM   28  C   UNL     1      -6.326  10.975  68.267  1.00  0.00    -0.056 C  
HETATM   29  O   UNL     1      -6.922  13.041  69.299  1.00  0.00    -0.071 OA 
HETATM   30  C   UNL     1      -6.465  11.913  69.448  1.00  0.00    -0.119 C  
HETATM   31  O   UNL     1      -6.080  11.483  70.660  1.00  0.00    -0.319 OA 
ENDBRANCH  27  28
ENDBRANCH  24  27
ENDBRANCH   1  23
TORSDOF 9
ENDMDL
MODEL      108
REMARK 921   NORMALIZED FREE ENERGY PREDICTED BY IDOCK:   -5.18 KCAL/MOL
REMARK 922        TOTAL FREE ENERGY PREDICTED BY IDOCK:   -9.72 KCAL/MOL
REMARK 923 INTER-LIGAND FREE ENERGY PREDICTED BY IDOCK:   -7.92 KCAL/MOL
REMARK 924 INTRA-LIGAND FREE ENERGY PREDICTED BY IDOCK:   -1.80 KCAL/MOL
REMARK 927      BINDING AFFINITY PREDICTED BY RF-SCORE:    0.00 PKD
ROOT
HETATM    1  C   UNL     1     -10.445   7.856  70.993  1.00  0.00    -0.203 C  
ENDROOT
BRANCH   1   2
HETATM    2  C   UNL     1     -10.853   9.305  71.385  1.00  0.00    -0.434 C  
BRANCH   2   3
HETATM    3  C   UNL     1     -10.913  10.375  70.317  1.00  0.00    -0.353 A  
HETATM    4  C   UNL     1     -11.063  12.117  68.058  1.00  0.00    -0.292 A  
HETATM    5  C   UNL     1     -11.997  11.232  70.136  1.00  0.00    -0.452 A  
HETATM    6  C   UNL     1     -12.086  12.051  69.014  1.00  0.00    -0.223 A  
HETATM    7  C   UNL     1      -9.836  10.498  69.430  1.00  0.00    -0.205 A  
HETATM    8  C   UNL     1      -9.903  11.367  68.332  1.00  0.00    -0.205 A  
BRANCH   4   9
HETATM    9  C   UNL     1     -11.239  12.885  66.809  1.00  0.00    -0.337 A  
HETATM   10  C   UNL     1     -10.868  14.241  66.716  1.00  0.00    -0.298 A  
HETATM   11  C   UNL     1     -11.137  15.000  65.575  1.00  0.00    -0.358 A  
HETATM   12  C   UNL     1     -11.760  14.412  64.480  1.00  0.00    -0.430 A  
HETATM   13  C   UNL     1     -12.118  13.068  64.529  1.00  0.00    -0.468 A  
HETATM   14  C   UNL     1     -11.865  12.317  65.683  1.00  0.00    -0.423 A  
ENDBRANCH   4   9
ENDBRANCH   2   3
ENDBRANCH   1   2
BRANCH   1  15
HETATM   15  C   UNL     1     -10.960   7.365  69.618  1.00  0.00    -0.186 C  
HETATM   16  C   UNL     1     -10.550   6.674  67.271  1.00  0.00    -0.317 C  
HETATM   17  C   UNL     1      -9.093   5.739  69.046  1.00  0.00    -0.123 C  
HETATM   18  C   UNL     1      -9.887   6.964  68.606  1.00  0.00    -0.145 C  
HETATM   19  O   UNL     1     -10.989   5.584  66.933  1.00  0.00    -0.212 OA 
BRANCH  16  20
HETATM   20  O   UNL     1     -10.534   7.794  66.495  1.00  0.00    -0.227 OA 
BRANCH  20  21
HETATM   21  C   UNL     1      -9.239   8.373  66.288  1.00  0.00    -0.208 C  
HETATM   22  C   UNL     1      -9.395   9.504  65.288  1.00  0.00    -0.317 C  
ENDBRANCH  20  21
ENDBRANCH  16  20
ENDBRANCH   1  15
BRANCH   1  23
HETATM   23  N   UNL     1     -10.816   6.877  72.019  1.00  0.00    -0.221 N  
HETATM   24  C   UNL     1     -10.076   6.679  73.154  1.00  0.00    -0.194 C  
HETATM   25  H   UNL     1     -11.659   6.320  71.882  1.00  0.00     0.000 HD 
HETATM   26  O   UNL     1      -9.017   7.246  73.417  1.00  0.00    -0.136 OA 
BRANCH  24  27
HETATM   27  C   UNL     1     -10.564   5.570  74.048  1.00  0.00    -0.283 C  
BRANCH  27  28
HETATM   28  C   UNL     1     -11.044   4.418  73.188  1.00  0.00    -0.326 C  
HETATM   29  O   UNL     1     -10.342   2.571  71.852  1.00  0.00    -0.085 OA 
HETATM   30  C   UNL     1     -10.009   3.579  72.466  1.00  0.00    -0.162 C  
HETATM   31  O   UNL     1      -8.725   3.963  72.511  1.00  0.00    -0.099 OA 
ENDBRANCH  27  28
ENDBRANCH  24  27
ENDBRANCH   1  23
TORSDOF 9
ENDMDL
MODEL      109
REMARK 921   NORMALIZED FREE ENERGY PREDICTED BY IDOCK:   -5.17 KCAL/MOL
REMARK 922        TOTAL FREE ENERGY PREDICTED BY IDOCK:   -9.72 KCAL/MOL
REMARK 923 INTER-LIGAND FREE ENERGY PREDICTED BY IDOCK:   -8.10 KCAL/MOL
REMARK 924 INTRA-LIGAND FREE ENERGY PREDICTED BY IDOCK:   -1.62 KCAL/MOL
REMARK 927      BINDING AFFINITY PREDICTED BY RF-SCORE:    0.00 PKD
ROOT
HETATM    1  C   UNL     1     -10.628  10.692  67.324  1.00  0.00    -0.263 C  
ENDROOT
BRANCH   1   2
HETATM    2  C   UNL     1     -11.347  11.899  66.657  1.00  0.00    -0.400 C  
BRANCH   2   3
HETATM    3  C   UNL     1     -10.959  13.307  67.054  1.00  0.00    -0.291 A  
HETATM    4  C   UNL     1     -10.311  16.060  67.455  1.00  0.00    -0.294 A  
HETATM    5  C   UNL     1     -11.720  14.112  67.900  1.00  0.00    -0.402 A  
HETATM    6  C   UNL     1     -11.425  15.464  68.062  1.00  0.00    -0.333 A  
HETATM    7  C   UNL     1      -9.788  13.856  66.519  1.00  0.00    -0.296 A  
HETATM    8  C   UNL     1      -9.461  15.202  66.730  1.00  0.00    -0.260 A  
BRANCH   4   9
HETATM    9  C   UNL     1     -10.097  17.520  67.528  1.00  0.00    -0.326 A  
HETATM   10  C   UNL     1     -10.626  18.393  66.557  1.00  0.00    -0.344 A  
HETATM   11  C   UNL     1     -10.332  19.759  66.560  1.00  0.00    -0.621 A  
HETATM   12  C   UNL     1      -9.522  20.293  67.554  1.00  0.00    -0.539 A  
HETATM   13  C   UNL     1      -9.003  19.462  68.543  1.00  0.00    -0.418 A  
HETATM   14  C   UNL     1      -9.284  18.091  68.524  1.00  0.00    -0.296 A  
ENDBRANCH   4   9
ENDBRANCH   2   3
ENDBRANCH   1   2
BRANCH   1  15
HETATM   15  C   UNL     1     -10.601  10.703  68.872  1.00  0.00    -0.241 C  
HETATM   16  C   UNL     1     -11.306   9.766  71.058  1.00  0.00    -0.387 C  
HETATM   17  C   UNL     1     -10.559   8.197  69.291  1.00  0.00    -0.191 C  
HETATM   18  C   UNL     1     -11.274   9.515  69.560  1.00  0.00    -0.105 C  
HETATM   19  O   UNL     1     -10.416   9.454  71.836  1.00  0.00    -0.217 OA 
BRANCH  16  20
HETATM   20  O   UNL     1     -12.491  10.342  71.404  1.00  0.00    -0.360 OA 
BRANCH  20  21
HETATM   21  C   UNL     1     -13.646   9.509  71.232  1.00  0.00    -0.232 C  
HETATM   22  C   UNL     1     -13.520   8.344  72.196  1.00  0.00    -0.347 C  
ENDBRANCH  20  21
ENDBRANCH  16  20
ENDBRANCH   1  15
BRANCH   1  23
HETATM   23  N   UNL     1      -9.263  10.511  66.823  1.00  0.00    -0.154 N  
HETATM   24  C   UNL     1      -8.920   9.510  65.954  1.00  0.00    -0.173 C  
HETATM   25  H   UNL     1      -8.538  11.157  67.135  1.00  0.00     0.000 HD 
HETATM   26  O   UNL     1      -9.683   8.638  65.541  1.00  0.00    -0.015 OA 
BRANCH  24  27
HETATM   27  C   UNL     1      -7.454   9.429  65.620  1.00  0.00    -0.095 C  
BRANCH  27  28
HETATM   28  C   UNL     1      -6.861  10.824  65.663  1.00  0.00    -0.023 C  
HETATM   29  O   UNL     1      -5.602  12.358  66.986  1.00  0.00    -0.295 OA 
HETATM   30  C   UNL     1      -6.193  11.284  66.942  1.00  0.00    -0.123 C  
HETATM   31  O   UNL     1      -6.265  10.495  68.025  1.00  0.00    -0.054 OA 
ENDBRANCH  27  28
ENDBRANCH  24  27
ENDBRANCH   1  23
TORSDOF 9
ENDMDL
MODEL      110
REMARK 921   NORMALIZED FREE ENERGY PREDICTED BY IDOCK:   -5.16 KCAL/MOL
REMARK 922        TOTAL FREE ENERGY PREDICTED BY IDOCK:   -9.70 KCAL/MOL
REMARK 923 INTER-LIGAND FREE ENERGY PREDICTED BY IDOCK:   -7.81 KCAL/MOL
REMARK 924 INTRA-LIGAND FREE ENERGY PREDICTED BY IDOCK:   -1.89 KCAL/MOL
REMARK 927      BINDING AFFINITY PREDICTED BY RF-SCORE:    0.00 PKD
ROOT
HETATM    1  C   UNL     1     -11.225   7.646  71.714  1.00  0.00    -0.247 C  
ENDROOT
BRANCH   1   2
HETATM    2  C   UNL     1     -11.864   6.596  70.762  1.00  0.00    -0.441 C  
BRANCH   2   3
HETATM    3  C   UNL     1     -11.076   6.097  69.570  1.00  0.00    -0.490 A  
HETATM    4  C   UNL     1      -9.795   4.846  67.345  1.00  0.00    -0.213 A  
HETATM    5  C   UNL     1     -11.225   6.595  68.277  1.00  0.00    -0.208 A  
HETATM    6  C   UNL     1     -10.631   5.959  67.190  1.00  0.00    -0.373 A  
HETATM    7  C   UNL     1     -10.167   5.049  69.759  1.00  0.00    -0.336 A  
HETATM    8  C   UNL     1      -9.524   4.447  68.668  1.00  0.00    -0.219 A  
BRANCH   4   9
HETATM    9  C   UNL     1      -9.290   4.106  66.170  1.00  0.00    -0.167 A  
HETATM   10  C   UNL     1     -10.030   4.023  64.975  1.00  0.00    -0.207 A  
HETATM   11  C   UNL     1      -9.609   3.232  63.904  1.00  0.00    -0.136 A  
HETATM   12  C   UNL     1      -8.416   2.523  63.989  1.00  0.00    -0.086 A  
HETATM   13  C   UNL     1      -7.648   2.603  65.147  1.00  0.00    -0.076 A  
HETATM   14  C   UNL     1      -8.085   3.381  66.225  1.00  0.00    -0.092 A  
ENDBRANCH   4   9
ENDBRANCH   2   3
ENDBRANCH   1   2
BRANCH   1  15
HETATM   15  C   UNL     1     -11.161   9.094  71.166  1.00  0.00    -0.395 C  
HETATM   16  C   UNL     1     -12.251  11.073  70.143  1.00  0.00    -0.344 C  
HETATM   17  C   UNL     1     -13.388   9.953  72.040  1.00  0.00    -0.532 C  
HETATM   18  C   UNL     1     -12.504   9.736  70.818  1.00  0.00    -0.297 C  
HETATM   19  O   UNL     1     -12.124  12.137  70.731  1.00  0.00    -0.347 OA 
BRANCH  16  20
HETATM   20  O   UNL     1     -12.239  10.913  68.790  1.00  0.00    -0.518 OA 
BRANCH  20  21
HETATM   21  C   UNL     1     -11.043  11.361  68.136  1.00  0.00    -0.248 C  
HETATM   22  C   UNL     1     -10.577  10.246  67.217  1.00  0.00    -0.324 C  
ENDBRANCH  20  21
ENDBRANCH  16  20
ENDBRANCH   1  15
BRANCH   1  23
HETATM   23  N   UNL     1      -9.889   7.248  72.166  1.00  0.00    -0.160 N  
HETATM   24  C   UNL     1      -9.681   6.518  73.306  1.00  0.00    -0.166 C  
HETATM   25  H   UNL     1      -9.081   7.526  71.610  1.00  0.00     0.000 HD 
HETATM   26  O   UNL     1     -10.559   6.163  74.090  1.00  0.00    -0.260 OA 
BRANCH  24  27
HETATM   27  C   UNL     1      -8.236   6.280  73.656  1.00  0.00    -0.113 C  
BRANCH  27  28
HETATM   28  C   UNL     1      -7.364   7.139  72.762  1.00  0.00    -0.076 C  
HETATM   29  O   UNL     1      -6.068   9.139  72.659  1.00  0.00    -0.254 OA 
HETATM   30  C   UNL     1      -6.865   8.465  73.301  1.00  0.00    -0.082 C  
HETATM   31  O   UNL     1      -7.317   8.885  74.493  1.00  0.00    -0.409 OA 
ENDBRANCH  27  28
ENDBRANCH  24  27
ENDBRANCH   1  23
TORSDOF 9
ENDMDL
MODEL      111
REMARK 921   NORMALIZED FREE ENERGY PREDICTED BY IDOCK:   -5.16 KCAL/MOL
REMARK 922        TOTAL FREE ENERGY PREDICTED BY IDOCK:   -9.70 KCAL/MOL
REMARK 923 INTER-LIGAND FREE ENERGY PREDICTED BY IDOCK:   -7.97 KCAL/MOL
REMARK 924 INTRA-LIGAND FREE ENERGY PREDICTED BY IDOCK:   -1.73 KCAL/MOL
REMARK 927      BINDING AFFINITY PREDICTED BY RF-SCORE:    0.00 PKD
ROOT
HETATM    1  C   UNL     1     -10.080  13.453  66.390  1.00  0.00    -0.292 C  
ENDROOT
BRANCH   1   2
HETATM    2  C   UNL     1      -9.230  12.163  66.213  1.00  0.00    -0.183 C  
BRANCH   2   3
HETATM    3  C   UNL     1      -9.225  11.119  67.308  1.00  0.00    -0.166 A  
HETATM    4  C   UNL     1      -9.361   9.411  69.593  1.00  0.00    -0.199 A  
HETATM    5  C   UNL     1     -10.092  10.028  67.344  1.00  0.00    -0.256 A  
HETATM    6  C   UNL     1     -10.184   9.221  68.475  1.00  0.00    -0.225 A  
HETATM    7  C   UNL     1      -8.325  11.266  68.370  1.00  0.00    -0.152 A  
HETATM    8  C   UNL     1      -8.380  10.416  69.484  1.00  0.00    -0.126 A  
BRANCH   4   9
HETATM    9  C   UNL     1      -9.571   8.634  70.832  1.00  0.00    -0.252 A  
HETATM   10  C   UNL     1      -8.604   7.727  71.308  1.00  0.00    -0.127 A  
HETATM   11  C   UNL     1      -8.846   6.909  72.413  1.00  0.00    -0.139 A  
HETATM   12  C   UNL     1     -10.055   6.998  73.093  1.00  0.00    -0.260 A  
HETATM   13  C   UNL     1     -11.023   7.901  72.664  1.00  0.00    -0.440 A  
HETATM   14  C   UNL     1     -10.783   8.705  71.543  1.00  0.00    -0.352 A  
ENDBRANCH   4   9
ENDBRANCH   2   3
ENDBRANCH   1   2
BRANCH   1  15
HETATM   15  C   UNL     1      -9.425  14.761  65.881  1.00  0.00    -0.266 C  
HETATM   16  C   UNL     1      -8.372  16.965  66.310  1.00  0.00    -0.296 C  
HETATM   17  C   UNL     1      -7.620  15.021  67.650  1.00  0.00    -0.198 C  
HETATM   18  C   UNL     1      -8.813  15.662  66.953  1.00  0.00    -0.279 C  
HETATM   19  O   UNL     1      -7.274  17.158  65.807  1.00  0.00    -0.216 OA 
BRANCH  16  20
HETATM   20  O   UNL     1      -9.362  17.894  66.422  1.00  0.00    -0.300 OA 
BRANCH  20  21
HETATM   21  C   UNL     1      -8.928  19.201  66.822  1.00  0.00    -0.311 C  
HETATM   22  C   UNL     1      -8.983  19.260  68.338  1.00  0.00    -0.397 C  
ENDBRANCH  20  21
ENDBRANCH  16  20
ENDBRANCH   1  15
BRANCH   1  23
HETATM   23  N   UNL     1     -10.517  13.645  67.775  1.00  0.00    -0.237 N  
HETATM   24  C   UNL     1     -11.648  13.063  68.283  1.00  0.00    -0.340 C  
HETATM   25  H   UNL     1      -9.956  14.238  68.387  1.00  0.00     0.000 HD 
HETATM   26  O   UNL     1     -12.436  12.369  67.642  1.00  0.00    -0.100 OA 
BRANCH  24  27
HETATM   27  C   UNL     1     -11.983  13.447  69.699  1.00  0.00    -0.386 C  
BRANCH  27  28
HETATM   28  C   UNL     1     -12.148  12.186  70.526  1.00  0.00    -0.383 C  
HETATM   29  O   UNL     1     -13.310  11.211  72.366  1.00  0.00    -0.262 OA 
HETATM   30  C   UNL     1     -13.058  12.233  71.736  1.00  0.00    -0.344 C  
HETATM   31  O   UNL     1     -13.578  13.413  72.105  1.00  0.00    -0.486 OA 
ENDBRANCH  27  28
ENDBRANCH  24  27
ENDBRANCH   1  23
TORSDOF 9
ENDMDL
MODEL      112
REMARK 921   NORMALIZED FREE ENERGY PREDICTED BY IDOCK:   -5.16 KCAL/MOL
REMARK 922        TOTAL FREE ENERGY PREDICTED BY IDOCK:   -9.69 KCAL/MOL
REMARK 923 INTER-LIGAND FREE ENERGY PREDICTED BY IDOCK:   -8.22 KCAL/MOL
REMARK 924 INTRA-LIGAND FREE ENERGY PREDICTED BY IDOCK:   -1.47 KCAL/MOL
REMARK 927      BINDING AFFINITY PREDICTED BY RF-SCORE:    0.00 PKD
ROOT
HETATM    1  C   UNL     1      -8.744   7.231  69.956  1.00  0.00    -0.141 C  
ENDROOT
BRANCH   1   2
HETATM    2  C   UNL     1      -8.395   7.363  68.447  1.00  0.00    -0.125 C  
BRANCH   2   3
HETATM    3  C   UNL     1      -8.837   8.593  67.686  1.00  0.00    -0.138 A  
HETATM    4  C   UNL     1     -10.014  10.775  66.268  1.00  0.00    -0.272 A  
HETATM    5  C   UNL     1      -8.883   9.872  68.237  1.00  0.00    -0.119 A  
HETATM    6  C   UNL     1      -9.493  10.925  67.560  1.00  0.00    -0.168 A  
HETATM    7  C   UNL     1      -9.260   8.445  66.359  1.00  0.00    -0.253 A  
HETATM    8  C   UNL     1      -9.821   9.521  65.657  1.00  0.00    -0.343 A  
BRANCH   4   9
HETATM    9  C   UNL     1     -10.779  11.864  65.626  1.00  0.00    -0.325 A  
HETATM   10  C   UNL     1     -11.379  12.890  66.382  1.00  0.00    -0.361 A  
HETATM   11  C   UNL     1     -12.196  13.856  65.790  1.00  0.00    -0.488 A  
HETATM   12  C   UNL     1     -12.410  13.839  64.417  1.00  0.00    -0.389 A  
HETATM   13  C   UNL     1     -11.811  12.854  63.637  1.00  0.00    -0.599 A  
HETATM   14  C   UNL     1     -11.010  11.876  64.238  1.00  0.00    -0.411 A  
ENDBRANCH   4   9
ENDBRANCH   2   3
ENDBRANCH   1   2
BRANCH   1  15
HETATM   15  C   UNL     1      -8.215   5.955  70.656  1.00  0.00    -0.120 C  
HETATM   16  C   UNL     1      -8.582   3.684  71.585  1.00  0.00    -0.088 C  
HETATM   17  C   UNL     1      -9.528   4.211  69.355  1.00  0.00    -0.260 C  
HETATM   18  C   UNL     1      -9.191   4.780  70.728  1.00  0.00    -0.195 C  
HETATM   19  O   UNL     1      -7.856   2.794  71.166  1.00  0.00    -0.043 OA 
BRANCH  16  20
HETATM   20  O   UNL     1      -9.006   3.815  72.872  1.00  0.00    -0.096 OA 
BRANCH  20  21
HETATM   21  C   UNL     1     -10.387   4.171  73.025  1.00  0.00    -0.171 C  
HETATM   22  C   UNL     1     -10.483   5.160  74.173  1.00  0.00    -0.326 C  
ENDBRANCH  20  21
ENDBRANCH  16  20
ENDBRANCH   1  15
BRANCH   1  23
HETATM   23  N   UNL     1     -10.182   7.353  70.208  1.00  0.00    -0.198 N  
HETATM   24  C   UNL     1     -10.704   8.241  71.110  1.00  0.00    -0.226 C  
HETATM   25  H   UNL     1     -10.822   6.751  69.689  1.00  0.00     0.000 HD 
HETATM   26  O   UNL     1     -10.044   8.985  71.833  1.00  0.00    -0.339 OA 
BRANCH  24  27
HETATM   27  C   UNL     1     -12.196   8.160  71.296  1.00  0.00    -0.302 C  
BRANCH  27  28
HETATM   28  C   UNL     1     -12.649   9.325  72.154  1.00  0.00    -0.443 C  
HETATM   29  O   UNL     1     -13.369  11.599  72.116  1.00  0.00    -0.491 OA 
HETATM   30  C   UNL     1     -12.894  10.661  71.483  1.00  0.00    -0.462 C  
HETATM   31  O   UNL     1     -12.579  10.797  70.186  1.00  0.00    -0.327 OA 
ENDBRANCH  27  28
ENDBRANCH  24  27
ENDBRANCH   1  23
TORSDOF 9
ENDMDL
MODEL      113
REMARK 921   NORMALIZED FREE ENERGY PREDICTED BY IDOCK:   -5.13 KCAL/MOL
REMARK 922        TOTAL FREE ENERGY PREDICTED BY IDOCK:   -9.66 KCAL/MOL
REMARK 923 INTER-LIGAND FREE ENERGY PREDICTED BY IDOCK:   -7.87 KCAL/MOL
REMARK 924 INTRA-LIGAND FREE ENERGY PREDICTED BY IDOCK:   -1.79 KCAL/MOL
REMARK 927      BINDING AFFINITY PREDICTED BY RF-SCORE:    0.00 PKD
ROOT
HETATM    1  C   UNL     1     -10.270  11.089  67.584  1.00  0.00    -0.182 C  
ENDROOT
BRANCH   1   2
HETATM    2  C   UNL     1     -11.537  11.948  67.311  1.00  0.00    -0.364 C  
BRANCH   2   3
HETATM    3  C   UNL     1     -11.416  13.455  67.254  1.00  0.00    -0.374 A  
HETATM    4  C   UNL     1     -10.907  16.262  67.386  1.00  0.00    -0.242 A  
HETATM    5  C   UNL     1     -10.933  14.154  66.150  1.00  0.00    -0.309 A  
HETATM    6  C   UNL     1     -10.648  15.515  66.229  1.00  0.00    -0.310 A  
HETATM    7  C   UNL     1     -11.776  14.199  68.384  1.00  0.00    -0.380 A  
HETATM    8  C   UNL     1     -11.542  15.580  68.442  1.00  0.00    -0.368 A  
BRANCH   4   9
HETATM    9  C   UNL     1     -10.469  17.669  67.495  1.00  0.00    -0.365 A  
HETATM   10  C   UNL     1     -10.535  18.550  66.398  1.00  0.00    -0.443 A  
HETATM   11  C   UNL     1     -10.018  19.846  66.464  1.00  0.00    -0.591 A  
HETATM   12  C   UNL     1      -9.447  20.306  67.645  1.00  0.00    -0.507 A  
HETATM   13  C   UNL     1      -9.388  19.470  68.756  1.00  0.00    -0.423 A  
HETATM   14  C   UNL     1      -9.889  18.165  68.677  1.00  0.00    -0.389 A  
ENDBRANCH   4   9
ENDBRANCH   2   3
ENDBRANCH   1   2
BRANCH   1  15
HETATM   15  C   UNL     1     -10.531   9.679  68.169  1.00  0.00    -0.266 C  
HETATM   16  C   UNL     1     -10.148   7.229  68.169  1.00  0.00    -0.173 C  
HETATM   17  C   UNL     1      -8.182   8.727  67.987  1.00  0.00    -0.118 C  
HETATM   18  C   UNL     1      -9.651   8.555  67.622  1.00  0.00    -0.187 C  
HETATM   19  O   UNL     1      -9.782   6.728  69.223  1.00  0.00    -0.150 OA 
BRANCH  16  20
HETATM   20  O   UNL     1     -11.020   6.663  67.288  1.00  0.00    -0.340 OA 
BRANCH  20  21
HETATM   21  C   UNL     1     -10.726   5.305  66.929  1.00  0.00    -0.130 C  
HETATM   22  C   UNL     1      -9.533   5.326  65.990  1.00  0.00    -0.169 C  
ENDBRANCH  20  21
ENDBRANCH  16  20
ENDBRANCH   1  15
BRANCH   1  23
HETATM   23  N   UNL     1      -9.298  11.786  68.432  1.00  0.00    -0.207 N  
HETATM   24  C   UNL     1      -8.181  12.397  67.929  1.00  0.00    -0.163 C  
HETATM   25  H   UNL     1      -9.460  11.816  69.439  1.00  0.00     0.000 HD 
HETATM   26  O   UNL     1      -7.843  12.392  66.746  1.00  0.00    -0.066 OA 
BRANCH  24  27
HETATM   27  C   UNL     1      -7.255  12.984  68.960  1.00  0.00     0.014 C  
BRANCH  27  28
HETATM   28  C   UNL     1      -7.367  14.495  68.920  1.00  0.00    -0.128 C  
HETATM   29  O   UNL     1      -6.501  16.530  69.814  1.00  0.00    -0.218 OA 
HETATM   30  C   UNL     1      -6.528  15.306  69.886  1.00  0.00    -0.162 C  
HETATM   31  O   UNL     1      -5.819  14.658  70.823  1.00  0.00    -0.161 OA 
ENDBRANCH  27  28
ENDBRANCH  24  27
ENDBRANCH   1  23
TORSDOF 9
ENDMDL
MODEL      114
REMARK 921   NORMALIZED FREE ENERGY PREDICTED BY IDOCK:   -5.13 KCAL/MOL
REMARK 922        TOTAL FREE ENERGY PREDICTED BY IDOCK:   -9.64 KCAL/MOL
REMARK 923 INTER-LIGAND FREE ENERGY PREDICTED BY IDOCK:   -8.53 KCAL/MOL
REMARK 924 INTRA-LIGAND FREE ENERGY PREDICTED BY IDOCK:   -1.12 KCAL/MOL
REMARK 927      BINDING AFFINITY PREDICTED BY RF-SCORE:    0.00 PKD
ROOT
HETATM    1  C   UNL     1     -10.320  12.659  67.386  1.00  0.00    -0.220 C  
ENDROOT
BRANCH   1   2
HETATM    2  C   UNL     1     -11.437  11.610  67.649  1.00  0.00    -0.373 C  
BRANCH   2   3
HETATM    3  C   UNL     1     -11.306  10.663  68.822  1.00  0.00    -0.339 A  
HETATM    4  C   UNL     1     -10.701   8.972  71.043  1.00  0.00    -0.339 A  
HETATM    5  C   UNL     1     -11.836  10.914  70.086  1.00  0.00    -0.438 A  
HETATM    6  C   UNL     1     -11.507  10.111  71.175  1.00  0.00    -0.387 A  
HETATM    7  C   UNL     1     -10.583   9.477  68.647  1.00  0.00    -0.239 A  
HETATM    8  C   UNL     1     -10.301   8.638  69.735  1.00  0.00    -0.212 A  
BRANCH   4   9
HETATM    9  C   UNL     1     -10.253   8.217  72.231  1.00  0.00    -0.375 A  
HETATM   10  C   UNL     1      -8.952   8.362  72.751  1.00  0.00    -0.291 A  
HETATM   11  C   UNL     1      -8.489   7.568  73.802  1.00  0.00    -0.236 A  
HETATM   12  C   UNL     1      -9.328   6.625  74.383  1.00  0.00    -0.257 A  
HETATM   13  C   UNL     1     -10.628   6.473  73.910  1.00  0.00    -0.250 A  
HETATM   14  C   UNL     1     -11.081   7.258  72.843  1.00  0.00    -0.369 A  
ENDBRANCH   4   9
ENDBRANCH   2   3
ENDBRANCH   1   2
BRANCH   1  15
HETATM   15  C   UNL     1     -10.475  13.490  66.088  1.00  0.00    -0.296 C  
HETATM   16  C   UNL     1     -11.756  15.066  64.665  1.00  0.00    -0.382 C  
HETATM   17  C   UNL     1     -11.512  15.589  67.075  1.00  0.00    -0.036 C  
HETATM   18  C   UNL     1     -11.651  14.465  66.055  1.00  0.00    -0.364 C  
HETATM   19  O   UNL     1     -11.171  16.074  64.294  1.00  0.00    -0.517 OA 
BRANCH  16  20
HETATM   20  O   UNL     1     -12.634  14.343  63.914  1.00  0.00    -0.814 OA 
BRANCH  20  21
HETATM   21  C   UNL     1     -12.075  13.194  63.262  1.00  0.00    -0.386 C  
HETATM   22  C   UNL     1     -12.857  11.977  63.723  1.00  0.00    -0.440 C  
ENDBRANCH  20  21
ENDBRANCH  16  20
ENDBRANCH   1  15
BRANCH   1  23
HETATM   23  N   UNL     1      -8.980  12.065  67.416  1.00  0.00    -0.170 N  
HETATM   24  C   UNL     1      -8.532  11.201  66.453  1.00  0.00    -0.167 C  
HETATM   25  H   UNL     1      -8.356  12.306  68.186  1.00  0.00     0.000 HD 
HETATM   26  O   UNL     1      -9.198  10.792  65.503  1.00  0.00    -0.186 OA 
BRANCH  24  27
HETATM   27  C   UNL     1      -7.163  10.625  66.699  1.00  0.00    -0.128 C  
BRANCH  27  28
HETATM   28  C   UNL     1      -7.242   9.114  66.615  1.00  0.00    -0.085 C  
HETATM   29  O   UNL     1      -7.291   7.099  67.890  1.00  0.00    -0.091 OA 
HETATM   30  C   UNL     1      -7.120   8.313  67.895  1.00  0.00    -0.083 C  
HETATM   31  O   UNL     1      -6.821   8.960  69.032  1.00  0.00    -0.057 OA 
ENDBRANCH  27  28
ENDBRANCH  24  27
ENDBRANCH   1  23
TORSDOF 9
ENDMDL
MODEL      115
REMARK 921   NORMALIZED FREE ENERGY PREDICTED BY IDOCK:   -5.12 KCAL/MOL
REMARK 922        TOTAL FREE ENERGY PREDICTED BY IDOCK:   -9.63 KCAL/MOL
REMARK 923 INTER-LIGAND FREE ENERGY PREDICTED BY IDOCK:   -7.87 KCAL/MOL
REMARK 924 INTRA-LIGAND FREE ENERGY PREDICTED BY IDOCK:   -1.76 KCAL/MOL
REMARK 927      BINDING AFFINITY PREDICTED BY RF-SCORE:    0.00 PKD
ROOT
HETATM    1  C   UNL     1      -8.786  10.084  64.858  1.00  0.00    -0.182 C  
ENDROOT
BRANCH   1   2
HETATM    2  C   UNL     1      -8.658   8.552  65.085  1.00  0.00    -0.179 C  
BRANCH   2   3
HETATM    3  C   UNL     1      -9.065   7.961  66.417  1.00  0.00    -0.221 A  
HETATM    4  C   UNL     1      -9.793   7.187  69.068  1.00  0.00    -0.156 A  
HETATM    5  C   UNL     1     -10.358   7.537  66.716  1.00  0.00    -0.332 A  
HETATM    6  C   UNL     1     -10.720   7.198  68.017  1.00  0.00    -0.232 A  
HETATM    7  C   UNL     1      -8.101   7.860  67.428  1.00  0.00    -0.123 A  
HETATM    8  C   UNL     1      -8.456   7.463  68.724  1.00  0.00    -0.129 A  
BRANCH   4   9
HETATM    9  C   UNL     1     -10.227   6.961  70.462  1.00  0.00    -0.209 A  
HETATM   10  C   UNL     1      -9.312   6.978  71.533  1.00  0.00    -0.154 A  
HETATM   11  C   UNL     1      -9.700   6.653  72.835  1.00  0.00    -0.168 A  
HETATM   12  C   UNL     1     -11.024   6.331  73.106  1.00  0.00    -0.251 A  
HETATM   13  C   UNL     1     -11.960   6.330  72.075  1.00  0.00    -0.353 A  
HETATM   14  C   UNL     1     -11.562   6.636  70.769  1.00  0.00    -0.432 A  
ENDBRANCH   4   9
ENDBRANCH   2   3
ENDBRANCH   1   2
BRANCH   1  15
HETATM   15  C   UNL     1      -8.285  10.976  66.021  1.00  0.00    -0.129 C  
HETATM   16  C   UNL     1      -8.685  12.715  67.744  1.00  0.00    -0.179 C  
HETATM   17  C   UNL     1     -10.343  10.887  67.510  1.00  0.00    -0.237 C  
HETATM   18  C   UNL     1      -9.359  11.776  66.759  1.00  0.00    -0.199 C  
HETATM   19  O   UNL     1      -8.395  12.426  68.896  1.00  0.00     0.058 OA 
BRANCH  16  20
HETATM   20  O   UNL     1      -8.501  13.935  67.167  1.00  0.00    -0.203 OA 
BRANCH  20  21
HETATM   21  C   UNL     1      -9.704  14.612  66.777  1.00  0.00    -0.257 C  
HETATM   22  C   UNL     1      -9.717  15.963  67.470  1.00  0.00    -0.223 C  
ENDBRANCH  20  21
ENDBRANCH  16  20
ENDBRANCH   1  15
BRANCH   1  23
HETATM   23  N   UNL     1     -10.151  10.483  64.504  1.00  0.00    -0.346 N  
HETATM   24  C   UNL     1     -10.426  11.370  63.497  1.00  0.00    -0.417 C  
HETATM   25  H   UNL     1     -10.929  10.083  65.029  1.00  0.00     0.000 HD 
HETATM   26  O   UNL     1      -9.582  11.960  62.824  1.00  0.00    -0.307 OA 
BRANCH  24  27
HETATM   27  C   UNL     1     -11.880  11.725  63.338  1.00  0.00    -0.435 C  
BRANCH  27  28
HETATM   28  C   UNL     1     -12.412  12.228  64.666  1.00  0.00    -0.424 C  
HETATM   29  O   UNL     1     -13.383  14.098  65.784  1.00  0.00    -0.503 OA 
HETATM   30  C   UNL     1     -12.842  13.677  64.767  1.00  0.00    -0.123 C  
HETATM   31  O   UNL     1     -12.616  14.490  63.723  1.00  0.00    -0.825 OA 
ENDBRANCH  27  28
ENDBRANCH  24  27
ENDBRANCH   1  23
TORSDOF 9
ENDMDL
MODEL      116
REMARK 921   NORMALIZED FREE ENERGY PREDICTED BY IDOCK:   -5.12 KCAL/MOL
REMARK 922        TOTAL FREE ENERGY PREDICTED BY IDOCK:   -9.63 KCAL/MOL
REMARK 923 INTER-LIGAND FREE ENERGY PREDICTED BY IDOCK:   -7.73 KCAL/MOL
REMARK 924 INTRA-LIGAND FREE ENERGY PREDICTED BY IDOCK:   -1.90 KCAL/MOL
REMARK 927      BINDING AFFINITY PREDICTED BY RF-SCORE:    0.00 PKD
ROOT
HETATM    1  C   UNL     1      -9.109  11.447  68.291  1.00  0.00    -0.179 C  
ENDROOT
BRANCH   1   2
HETATM    2  C   UNL     1      -7.872  12.350  68.560  1.00  0.00    -0.112 C  
BRANCH   2   3
HETATM    3  C   UNL     1      -7.980  13.843  68.340  1.00  0.00    -0.144 A  
HETATM    4  C   UNL     1      -8.454  16.582  67.683  1.00  0.00    -0.182 A  
HETATM    5  C   UNL     1      -8.508  14.730  69.277  1.00  0.00    -0.043 A  
HETATM    6  C   UNL     1      -8.774  16.055  68.941  1.00  0.00    -0.236 A  
HETATM    7  C   UNL     1      -7.561  14.372  67.113  1.00  0.00    -0.021 A  
HETATM    8  C   UNL     1      -7.777  15.721  66.798  1.00  0.00    -0.216 A  
BRANCH   4   9
HETATM    9  C   UNL     1      -8.871  17.947  67.302  1.00  0.00    -0.243 A  
HETATM   10  C   UNL     1      -8.102  19.077  67.644  1.00  0.00    -0.296 A  
HETATM   11  C   UNL     1      -8.549  20.375  67.386  1.00  0.00    -0.403 A  
HETATM   12  C   UNL     1      -9.769  20.577  66.750  1.00  0.00    -0.466 A  
HETATM   13  C   UNL     1     -10.542  19.482  66.376  1.00  0.00    -0.571 A  
HETATM   14  C   UNL     1     -10.098  18.183  66.656  1.00  0.00    -0.376 A  
ENDBRANCH   4   9
ENDBRANCH   2   3
ENDBRANCH   1   2
BRANCH   1  15
HETATM   15  C   UNL     1      -8.798   9.959  67.997  1.00  0.00    -0.125 C  
HETATM   16  C   UNL     1      -8.478   8.087  66.401  1.00  0.00    -0.136 C  
HETATM   17  C   UNL     1      -7.370  10.250  65.915  1.00  0.00    -0.131 C  
HETATM   18  C   UNL     1      -8.603   9.595  66.525  1.00  0.00    -0.135 C  
HETATM   19  O   UNL     1      -7.428   7.465  66.485  1.00  0.00    -0.081 OA 
BRANCH  16  20
HETATM   20  O   UNL     1      -9.698   7.542  66.136  1.00  0.00    -0.083 OA 
BRANCH  20  21
HETATM   21  C   UNL     1      -9.919   6.240  66.698  1.00  0.00    -0.153 C  
HETATM   22  C   UNL     1     -10.982   6.378  67.773  1.00  0.00    -0.425 C  
ENDBRANCH  20  21
ENDBRANCH  16  20
ENDBRANCH   1  15
BRANCH   1  23
HETATM   23  N   UNL     1      -9.963  11.976  67.224  1.00  0.00    -0.194 N  
HETATM   24  C   UNL     1     -11.291  12.254  67.408  1.00  0.00    -0.325 C  
HETATM   25  H   UNL     1      -9.551  12.144  66.305  1.00  0.00     0.000 HD 
HETATM   26  O   UNL     1     -11.919  12.052  68.445  1.00  0.00    -0.377 OA 
BRANCH  24  27
HETATM   27  C   UNL     1     -12.025  12.706  66.174  1.00  0.00    -0.458 C  
BRANCH  27  28
HETATM   28  C   UNL     1     -11.791  14.192  65.978  1.00  0.00    -0.409 C  
HETATM   29  O   UNL     1     -10.747  15.825  64.589  1.00  0.00    -0.497 OA 
HETATM   30  C   UNL     1     -10.876  14.635  64.856  1.00  0.00    -0.419 C  
HETATM   31  O   UNL     1     -10.208  13.700  64.163  1.00  0.00    -0.297 OA 
ENDBRANCH  27  28
ENDBRANCH  24  27
ENDBRANCH   1  23
TORSDOF 9
ENDMDL
MODEL      117
REMARK 921   NORMALIZED FREE ENERGY PREDICTED BY IDOCK:   -5.11 KCAL/MOL
REMARK 922        TOTAL FREE ENERGY PREDICTED BY IDOCK:   -9.63 KCAL/MOL
REMARK 923 INTER-LIGAND FREE ENERGY PREDICTED BY IDOCK:   -7.99 KCAL/MOL
REMARK 924 INTRA-LIGAND FREE ENERGY PREDICTED BY IDOCK:   -1.64 KCAL/MOL
REMARK 927      BINDING AFFINITY PREDICTED BY RF-SCORE:    0.00 PKD
ROOT
HETATM    1  C   UNL     1      -9.776  12.242  67.681  1.00  0.00    -0.194 C  
ENDROOT
BRANCH   1   2
HETATM    2  C   UNL     1      -9.943  11.238  68.856  1.00  0.00    -0.169 C  
BRANCH   2   3
HETATM    3  C   UNL     1     -10.010   9.755  68.564  1.00  0.00    -0.177 A  
HETATM    4  C   UNL     1      -9.797   6.936  68.161  1.00  0.00    -0.145 A  
HETATM    5  C   UNL     1     -10.824   8.863  69.259  1.00  0.00    -0.113 A  
HETATM    6  C   UNL     1     -10.690   7.487  69.090  1.00  0.00    -0.163 A  
HETATM    7  C   UNL     1      -9.185   9.232  67.561  1.00  0.00    -0.140 A  
HETATM    8  C   UNL     1      -9.094   7.849  67.351  1.00  0.00    -0.146 A  
BRANCH   4   9
HETATM    9  C   UNL     1      -9.572   5.477  68.097  1.00  0.00    -0.144 A  
HETATM   10  C   UNL     1      -9.545   4.787  66.869  1.00  0.00    -0.185 A  
HETATM   11  C   UNL     1      -9.446   3.395  66.811  1.00  0.00    -0.163 A  
HETATM   12  C   UNL     1      -9.341   2.656  67.984  1.00  0.00    -0.255 A  
HETATM   13  C   UNL     1      -9.339   3.309  69.213  1.00  0.00    -0.233 A  
HETATM   14  C   UNL     1      -9.459   4.703  69.266  1.00  0.00    -0.231 A  
ENDBRANCH   4   9
ENDBRANCH   2   3
ENDBRANCH   1   2
BRANCH   1  15
HETATM   15  C   UNL     1      -9.706  13.736  68.083  1.00  0.00    -0.227 C  
HETATM   16  C   UNL     1     -10.770  15.962  68.341  1.00  0.00    -0.281 C  
HETATM   17  C   UNL     1     -11.995  13.970  69.162  1.00  0.00    -0.400 C  
HETATM   18  C   UNL     1     -11.037  14.488  68.095  1.00  0.00    -0.280 C  
HETATM   19  O   UNL     1     -10.696  16.483  69.444  1.00  0.00    -0.299 OA 
BRANCH  16  20
HETATM   20  O   UNL     1     -10.675  16.619  67.151  1.00  0.00    -0.294 OA 
BRANCH  20  21
HETATM   21  C   UNL     1      -9.812  17.764  67.155  1.00  0.00    -0.311 C  
HETATM   22  C   UNL     1      -8.411  17.286  66.816  1.00  0.00    -0.275 C  
ENDBRANCH  20  21
ENDBRANCH  16  20
ENDBRANCH   1  15
BRANCH   1  23
HETATM   23  N   UNL     1     -10.806  12.072  66.653  1.00  0.00    -0.260 N  
HETATM   24  C   UNL     1     -10.508  11.836  65.337  1.00  0.00    -0.272 C  
HETATM   25  H   UNL     1     -11.787  12.132  66.928  1.00  0.00     0.000 HD 
HETATM   26  O   UNL     1      -9.372  11.791  64.866  1.00  0.00    -0.104 OA 
BRANCH  24  27
HETATM   27  C   UNL     1     -11.695  11.777  64.414  1.00  0.00    -0.301 C  
BRANCH  27  28
HETATM   28  C   UNL     1     -11.792  13.084  63.652  1.00  0.00    -0.580 C  
HETATM   29  O   UNL     1     -12.532  15.349  63.769  1.00  0.00    -0.663 OA 
HETATM   30  C   UNL     1     -12.526  14.242  64.297  1.00  0.00    -0.272 C  
HETATM   31  O   UNL     1     -13.170  14.030  65.455  1.00  0.00    -0.710 OA 
ENDBRANCH  27  28
ENDBRANCH  24  27
ENDBRANCH   1  23
TORSDOF 9
ENDMDL
MODEL      118
REMARK 921   NORMALIZED FREE ENERGY PREDICTED BY IDOCK:   -5.10 KCAL/MOL
REMARK 922        TOTAL FREE ENERGY PREDICTED BY IDOCK:   -9.61 KCAL/MOL
REMARK 923 INTER-LIGAND FREE ENERGY PREDICTED BY IDOCK:   -7.85 KCAL/MOL
REMARK 924 INTRA-LIGAND FREE ENERGY PREDICTED BY IDOCK:   -1.76 KCAL/MOL
REMARK 927      BINDING AFFINITY PREDICTED BY RF-SCORE:    0.00 PKD
ROOT
HETATM    1  C   UNL     1     -12.167  11.554  69.670  1.00  0.00    -0.229 C  
ENDROOT
BRANCH   1   2
HETATM    2  C   UNL     1     -12.155  11.382  68.125  1.00  0.00    -0.030 C  
BRANCH   2   3
HETATM    3  C   UNL     1     -10.875  10.966  67.433  1.00  0.00    -0.333 A  
HETATM    4  C   UNL     1      -8.661  10.164  65.816  1.00  0.00    -0.166 A  
HETATM    5  C   UNL     1      -9.805  11.826  67.196  1.00  0.00    -0.207 A  
HETATM    6  C   UNL     1      -8.746  11.446  66.375  1.00  0.00    -0.185 A  
HETATM    7  C   UNL     1     -10.762   9.650  66.968  1.00  0.00    -0.225 A  
HETATM    8  C   UNL     1      -9.667   9.252  66.189  1.00  0.00    -0.349 A  
BRANCH   4   9
HETATM    9  C   UNL     1      -7.605   9.830  64.838  1.00  0.00    -0.128 A  
HETATM   10  C   UNL     1      -6.290  10.315  64.977  1.00  0.00    -0.123 A  
HETATM   11  C   UNL     1      -5.319  10.095  63.998  1.00  0.00    -0.116 A  
HETATM   12  C   UNL     1      -5.631   9.356  62.863  1.00  0.00    -0.080 A  
HETATM   13  C   UNL     1      -6.914   8.841  62.706  1.00  0.00    -0.089 A  
HETATM   14  C   UNL     1      -7.890   9.081  63.681  1.00  0.00    -0.137 A  
ENDBRANCH   4   9
ENDBRANCH   2   3
ENDBRANCH   1   2
BRANCH   1  15
HETATM   15  C   UNL     1     -11.565  12.878  70.201  1.00  0.00    -0.131 C  
HETATM   16  C   UNL     1     -11.829  15.214  70.993  1.00  0.00    -0.333 C  
HETATM   17  C   UNL     1     -13.359  13.484  71.896  1.00  0.00    -0.529 C  
HETATM   18  C   UNL     1     -12.571  13.929  70.669  1.00  0.00    -0.405 C  
HETATM   19  O   UNL     1     -11.345  15.483  72.084  1.00  0.00    -0.417 OA 
BRANCH  16  20
HETATM   20  O   UNL     1     -11.828  16.034  69.906  1.00  0.00    -0.315 OA 
BRANCH  20  21
HETATM   21  C   UNL     1     -10.536  16.509  69.503  1.00  0.00    -0.321 C  
HETATM   22  C   UNL     1     -10.635  16.935  68.049  1.00  0.00    -0.367 C  
ENDBRANCH  20  21
ENDBRANCH  16  20
ENDBRANCH   1  15
BRANCH   1  23
HETATM   23  N   UNL     1     -11.528  10.429  70.360  1.00  0.00    -0.315 N  
HETATM   24  C   UNL     1     -12.110   9.782  71.416  1.00  0.00    -0.400 C  
HETATM   25  H   UNL     1     -10.612  10.115  70.039  1.00  0.00     0.000 HD 
HETATM   26  O   UNL     1     -13.184  10.090  71.931  1.00  0.00    -0.414 OA 
BRANCH  24  27
HETATM   27  C   UNL     1     -11.266   8.709  72.052  1.00  0.00    -0.434 C  
BRANCH  27  28
HETATM   28  C   UNL     1     -11.684   7.361  71.498  1.00  0.00    -0.314 C  
HETATM   29  O   UNL     1     -11.187   5.697  69.863  1.00  0.00    -0.278 OA 
HETATM   30  C   UNL     1     -10.961   6.829  70.277  1.00  0.00    -0.291 C  
HETATM   31  O   UNL     1     -10.074   7.623  69.657  1.00  0.00    -0.186 OA 
ENDBRANCH  27  28
ENDBRANCH  24  27
ENDBRANCH   1  23
TORSDOF 9
ENDMDL
MODEL      119
REMARK 921   NORMALIZED FREE ENERGY PREDICTED BY IDOCK:   -5.10 KCAL/MOL
REMARK 922        TOTAL FREE ENERGY PREDICTED BY IDOCK:   -9.60 KCAL/MOL
REMARK 923 INTER-LIGAND FREE ENERGY PREDICTED BY IDOCK:   -8.15 KCAL/MOL
REMARK 924 INTRA-LIGAND FREE ENERGY PREDICTED BY IDOCK:   -1.45 KCAL/MOL
REMARK 927      BINDING AFFINITY PREDICTED BY RF-SCORE:    0.00 PKD
ROOT
HETATM    1  C   UNL     1      -8.989   8.121  71.021  1.00  0.00    -0.151 C  
ENDROOT
BRANCH   1   2
HETATM    2  C   UNL     1      -9.873   9.393  71.159  1.00  0.00    -0.287 C  
BRANCH   2   3
HETATM    3  C   UNL     1     -10.227  10.191  69.924  1.00  0.00    -0.284 A  
HETATM    4  C   UNL     1     -10.813  11.391  67.399  1.00  0.00    -0.301 A  
HETATM    5  C   UNL     1     -11.528  10.557  69.583  1.00  0.00    -0.349 A  
HETATM    6  C   UNL     1     -11.816  11.105  68.335  1.00  0.00    -0.302 A  
HETATM    7  C   UNL     1      -9.200  10.558  69.046  1.00  0.00    -0.193 A  
HETATM    8  C   UNL     1      -9.487  11.163  67.814  1.00  0.00    -0.173 A  
BRANCH   4   9
HETATM    9  C   UNL     1     -11.154  11.840  66.034  1.00  0.00    -0.363 A  
HETATM   10  C   UNL     1     -10.459  11.367  64.904  1.00  0.00    -0.363 A  
HETATM   11  C   UNL     1     -10.702  11.874  63.626  1.00  0.00    -0.502 A  
HETATM   12  C   UNL     1     -11.673  12.851  63.439  1.00  0.00    -0.526 A  
HETATM   13  C   UNL     1     -12.397  13.323  64.530  1.00  0.00    -0.428 A  
HETATM   14  C   UNL     1     -12.134  12.826  65.812  1.00  0.00    -0.505 A  
ENDBRANCH   4   9
ENDBRANCH   2   3
ENDBRANCH   1   2
BRANCH   1  15
HETATM   15  C   UNL     1      -9.155   7.332  69.699  1.00  0.00    -0.140 C  
HETATM   16  C   UNL     1      -9.971   5.354  68.445  1.00  0.00    -0.161 C  
HETATM   17  C   UNL     1     -11.510   6.444  70.054  1.00  0.00    -0.496 C  
HETATM   18  C   UNL     1     -10.054   6.097  69.766  1.00  0.00    -0.229 C  
HETATM   19  O   UNL     1     -10.686   5.572  67.477  1.00  0.00    -0.219 OA 
BRANCH  16  20
HETATM   20  O   UNL     1      -9.021   4.381  68.521  1.00  0.00    -0.104 OA 
BRANCH  20  21
HETATM   21  C   UNL     1      -9.073   3.397  67.478  1.00  0.00    -0.169 C  
HETATM   22  C   UNL     1      -9.449   2.071  68.116  1.00  0.00    -0.218 C  
ENDBRANCH  20  21
ENDBRANCH  16  20
ENDBRANCH   1  15
BRANCH   1  23
HETATM   23  N   UNL     1      -9.156   7.202  72.150  1.00  0.00    -0.130 N  
HETATM   24  C   UNL     1      -8.711   7.491  73.412  1.00  0.00    -0.182 C  
HETATM   25  H   UNL     1      -9.623   6.309  71.989  1.00  0.00     0.000 HD 
HETATM   26  O   UNL     1      -8.091   8.504  73.730  1.00  0.00    -0.378 OA 
BRANCH  24  27
HETATM   27  C   UNL     1      -8.893   6.388  74.421  1.00  0.00    -0.164 C  
BRANCH  27  28
HETATM   28  C   UNL     1     -10.275   5.789  74.252  1.00  0.00    -0.294 C  
HETATM   29  O   UNL     1     -11.491   3.934  73.377  1.00  0.00    -0.223 OA 
HETATM   30  C   UNL     1     -10.414   4.514  73.445  1.00  0.00    -0.201 C  
HETATM   31  O   UNL     1      -9.335   4.037  72.806  1.00  0.00    -0.116 OA 
ENDBRANCH  27  28
ENDBRANCH  24  27
ENDBRANCH   1  23
TORSDOF 9
ENDMDL
MODEL      120
REMARK 921   NORMALIZED FREE ENERGY PREDICTED BY IDOCK:   -5.08 KCAL/MOL
REMARK 922        TOTAL FREE ENERGY PREDICTED BY IDOCK:   -9.58 KCAL/MOL
REMARK 923 INTER-LIGAND FREE ENERGY PREDICTED BY IDOCK:   -8.45 KCAL/MOL
REMARK 924 INTRA-LIGAND FREE ENERGY PREDICTED BY IDOCK:   -1.13 KCAL/MOL
REMARK 927      BINDING AFFINITY PREDICTED BY RF-SCORE:    0.00 PKD
ROOT
HETATM    1  C   UNL     1      -9.671  14.588  65.455  1.00  0.00    -0.128 C  
ENDROOT
BRANCH   1   2
HETATM    2  C   UNL     1     -10.138  15.966  66.002  1.00  0.00    -0.359 C  
BRANCH   2   3
HETATM    3  C   UNL     1     -10.753  16.049  67.382  1.00  0.00    -0.306 A  
HETATM    4  C   UNL     1     -11.746  15.881  70.055  1.00  0.00    -0.340 A  
HETATM    5  C   UNL     1     -10.335  16.944  68.365  1.00  0.00    -0.338 A  
HETATM    6  C   UNL     1     -10.791  16.835  69.677  1.00  0.00    -0.205 A  
HETATM    7  C   UNL     1     -11.779  15.156  67.714  1.00  0.00    -0.250 A  
HETATM    8  C   UNL     1     -12.279  15.086  69.021  1.00  0.00    -0.160 A  
BRANCH   4   9
HETATM    9  C   UNL     1     -12.111  15.693  71.474  1.00  0.00    -0.488 A  
HETATM   10  C   UNL     1     -11.738  16.624  72.463  1.00  0.00    -0.205 A  
HETATM   11  C   UNL     1     -11.981  16.393  73.818  1.00  0.00    -0.371 A  
HETATM   12  C   UNL     1     -12.635  15.234  74.219  1.00  0.00    -0.587 A  
HETATM   13  C   UNL     1     -13.039  14.304  73.266  1.00  0.00    -0.236 A  
HETATM   14  C   UNL     1     -12.774  14.531  71.910  1.00  0.00    -0.410 A  
ENDBRANCH   4   9
ENDBRANCH   2   3
ENDBRANCH   1   2
BRANCH   1  15
HETATM   15  C   UNL     1     -10.605  13.933  64.408  1.00  0.00    -0.256 C  
HETATM   16  C   UNL     1     -11.900  11.987  63.578  1.00  0.00    -0.492 C  
HETATM   17  C   UNL     1     -12.083  12.585  65.976  1.00  0.00    -0.390 C  
HETATM   18  C   UNL     1     -11.150  12.551  64.772  1.00  0.00    -0.338 C  
HETATM   19  O   UNL     1     -13.087  12.172  63.349  1.00  0.00    -0.752 OA 
BRANCH  16  20
HETATM   20  O   UNL     1     -11.066  11.207  62.835  1.00  0.00     0.140 OA 
BRANCH  20  21
HETATM   21  C   UNL     1      -9.943  10.667  63.546  1.00  0.00    -0.285 C  
HETATM   22  C   UNL     1      -9.146   9.820  62.571  1.00  0.00    -0.301 C  
ENDBRANCH  20  21
ENDBRANCH  16  20
ENDBRANCH   1  15
BRANCH   1  23
HETATM   23  N   UNL     1      -9.404  13.625  66.527  1.00  0.00    -0.381 N  
HETATM   24  C   UNL     1      -8.250  13.637  67.264  1.00  0.00    -0.152 C  
HETATM   25  H   UNL     1     -10.108  12.916  66.733  1.00  0.00     0.000 HD 
HETATM   26  O   UNL     1      -7.305  14.403  67.086  1.00  0.00    -0.115 OA 
BRANCH  24  27
HETATM   27  C   UNL     1      -8.117  12.517  68.261  1.00  0.00    -0.165 C  
BRANCH  27  28
HETATM   28  C   UNL     1      -9.242  11.525  68.040  1.00  0.00    -0.175 C  
HETATM   29  O   UNL     1      -9.806   9.411  67.089  1.00  0.00    -0.165 OA 
HETATM   30  C   UNL     1      -8.963  10.295  67.200  1.00  0.00    -0.135 C  
HETATM   31  O   UNL     1      -7.777  10.194  66.580  1.00  0.00    -0.103 OA 
ENDBRANCH  27  28
ENDBRANCH  24  27
ENDBRANCH   1  23
TORSDOF 9
ENDMDL
MODEL      121
REMARK 921   NORMALIZED FREE ENERGY PREDICTED BY IDOCK:   -5.06 KCAL/MOL
REMARK 922        TOTAL FREE ENERGY PREDICTED BY IDOCK:   -9.54 KCAL/MOL
REMARK 923 INTER-LIGAND FREE ENERGY PREDICTED BY IDOCK:   -8.24 KCAL/MOL
REMARK 924 INTRA-LIGAND FREE ENERGY PREDICTED BY IDOCK:   -1.30 KCAL/MOL
REMARK 927      BINDING AFFINITY PREDICTED BY RF-SCORE:    0.00 PKD
ROOT
HETATM    1  C   UNL     1      -9.625   8.849  67.673  1.00  0.00    -0.148 C  
ENDROOT
BRANCH   1   2
HETATM    2  C   UNL     1     -10.747   9.790  67.149  1.00  0.00    -0.273 C  
BRANCH   2   3
HETATM    3  C   UNL     1     -11.292  10.873  68.053  1.00  0.00    -0.382 A  
HETATM    4  C   UNL     1     -12.022  12.858  69.973  1.00  0.00    -0.380 A  
HETATM    5  C   UNL     1     -11.302  12.227  67.724  1.00  0.00    -0.362 A  
HETATM    6  C   UNL     1     -11.620  13.195  68.673  1.00  0.00    -0.356 A  
HETATM    7  C   UNL     1     -11.786  10.509  69.312  1.00  0.00    -0.281 A  
HETATM    8  C   UNL     1     -12.161  11.483  70.247  1.00  0.00    -0.415 A  
BRANCH   4   9
HETATM    9  C   UNL     1     -12.220  13.900  71.001  1.00  0.00    -0.421 A  
HETATM   10  C   UNL     1     -13.190  13.765  72.013  1.00  0.00    -0.520 A  
HETATM   11  C   UNL     1     -13.457  14.795  72.917  1.00  0.00    -0.541 A  
HETATM   12  C   UNL     1     -12.736  15.982  72.851  1.00  0.00    -0.563 A  
HETATM   13  C   UNL     1     -11.753  16.139  71.879  1.00  0.00    -0.575 A  
HETATM   14  C   UNL     1     -11.504  15.110  70.962  1.00  0.00    -0.372 A  
ENDBRANCH   4   9
ENDBRANCH   2   3
ENDBRANCH   1   2
BRANCH   1  15
HETATM   15  C   UNL     1     -10.056   7.837  68.762  1.00  0.00    -0.205 C  
HETATM   16  C   UNL     1      -9.640   6.643  70.897  1.00  0.00    -0.175 C  
HETATM   17  C   UNL     1      -9.241   9.088  70.819  1.00  0.00    -0.299 C  
HETATM   18  C   UNL     1      -9.184   7.794  70.017  1.00  0.00    -0.153 C  
HETATM   19  O   UNL     1     -10.512   6.722  71.751  1.00  0.00    -0.206 OA 
BRANCH  16  20
HETATM   20  O   UNL     1      -8.901   5.532  70.625  1.00  0.00    -0.129 OA 
BRANCH  20  21
HETATM   21  C   UNL     1      -9.657   4.383  70.218  1.00  0.00    -0.193 C  
HETATM   22  C   UNL     1      -9.380   4.149  68.743  1.00  0.00    -0.222 C  
ENDBRANCH  20  21
ENDBRANCH  16  20
ENDBRANCH   1  15
BRANCH   1  23
HETATM   23  N   UNL     1      -8.453   9.591  68.147  1.00  0.00    -0.119 N  
HETATM   24  C   UNL     1      -7.499  10.087  67.300  1.00  0.00    -0.091 C  
HETATM   25  H   UNL     1      -8.343   9.743  69.149  1.00  0.00     0.000 HD 
HETATM   26  O   UNL     1      -7.485   9.932  66.080  1.00  0.00    -0.099 OA 
BRANCH  24  27
HETATM   27  C   UNL     1      -6.324  10.743  67.975  1.00  0.00    -0.058 C  
BRANCH  27  28
HETATM   28  C   UNL     1      -5.950   9.938  69.204  1.00  0.00    -0.034 C  
HETATM   29  O   UNL     1      -5.837   9.972  71.586  1.00  0.00    -0.272 OA 
HETATM   30  C   UNL     1      -6.021  10.614  70.558  1.00  0.00    -0.121 C  
HETATM   31  O   UNL     1      -6.285  11.929  70.607  1.00  0.00    -0.277 OA 
ENDBRANCH  27  28
ENDBRANCH  24  27
ENDBRANCH   1  23
TORSDOF 9
ENDMDL
MODEL      122
REMARK 921   NORMALIZED FREE ENERGY PREDICTED BY IDOCK:   -5.05 KCAL/MOL
REMARK 922        TOTAL FREE ENERGY PREDICTED BY IDOCK:   -9.53 KCAL/MOL
REMARK 923 INTER-LIGAND FREE ENERGY PREDICTED BY IDOCK:   -7.84 KCAL/MOL
REMARK 924 INTRA-LIGAND FREE ENERGY PREDICTED BY IDOCK:   -1.69 KCAL/MOL
REMARK 927      BINDING AFFINITY PREDICTED BY RF-SCORE:    0.00 PKD
ROOT
HETATM    1  C   UNL     1      -9.872   7.112  68.570  1.00  0.00    -0.153 C  
ENDROOT
BRANCH   1   2
HETATM    2  C   UNL     1     -10.610   7.647  67.310  1.00  0.00    -0.388 C  
BRANCH   2   3
HETATM    3  C   UNL     1     -10.530   9.119  66.970  1.00  0.00    -0.311 A  
HETATM    4  C   UNL     1     -10.599  11.819  66.041  1.00  0.00    -0.302 A  
HETATM    5  C   UNL     1     -11.160  10.121  67.707  1.00  0.00    -0.293 A  
HETATM    6  C   UNL     1     -11.226  11.428  67.232  1.00  0.00    -0.370 A  
HETATM    7  C   UNL     1      -9.814   9.507  65.832  1.00  0.00    -0.360 A  
HETATM    8  C   UNL     1      -9.833  10.835  65.386  1.00  0.00    -0.317 A  
BRANCH   4   9
HETATM    9  C   UNL     1     -10.799  13.174  65.487  1.00  0.00    -0.299 A  
HETATM   10  C   UNL     1      -9.939  14.240  65.814  1.00  0.00    -0.346 A  
HETATM   11  C   UNL     1     -10.191  15.545  65.384  1.00  0.00    -0.409 A  
HETATM   12  C   UNL     1     -11.296  15.813  64.585  1.00  0.00    -0.343 A  
HETATM   13  C   UNL     1     -12.153  14.777  64.222  1.00  0.00    -0.415 A  
HETATM   14  C   UNL     1     -11.908  13.475  64.674  1.00  0.00    -0.428 A  
ENDBRANCH   4   9
ENDBRANCH   2   3
ENDBRANCH   1   2
BRANCH   1  15
HETATM   15  C   UNL     1     -10.693   7.127  69.883  1.00  0.00    -0.258 C  
HETATM   16  C   UNL     1     -10.897   7.618  72.305  1.00  0.00    -0.267 C  
HETATM   17  C   UNL     1      -9.889   9.341  70.836  1.00  0.00    -0.363 C  
HETATM   18  C   UNL     1     -10.046   7.843  71.068  1.00  0.00    -0.212 C  
HETATM   19  O   UNL     1     -11.832   8.327  72.647  1.00  0.00    -0.401 OA 
BRANCH  16  20
HETATM   20  O   UNL     1     -10.430   6.541  72.998  1.00  0.00    -0.206 OA 
BRANCH  20  21
HETATM   21  C   UNL     1     -11.276   5.384  72.966  1.00  0.00    -0.311 C  
HETATM   22  C   UNL     1     -10.442   4.217  72.468  1.00  0.00    -0.222 C  
ENDBRANCH  20  21
ENDBRANCH  16  20
ENDBRANCH   1  15
BRANCH   1  23
HETATM   23  N   UNL     1      -8.595   7.795  68.798  1.00  0.00    -0.129 N  
HETATM   24  C   UNL     1      -7.424   7.388  68.217  1.00  0.00    -0.109 C  
HETATM   25  H   UNL     1      -8.577   8.606  69.416  1.00  0.00     0.000 HD 
HETATM   26  O   UNL     1      -7.297   6.400  67.495  1.00  0.00    -0.086 OA 
BRANCH  24  27
HETATM   27  C   UNL     1      -6.200   8.158  68.639  1.00  0.00    -0.045 C  
BRANCH  27  28
HETATM   28  C   UNL     1      -6.602   9.584  68.959  1.00  0.00    -0.050 C  
HETATM   29  O   UNL     1      -6.425  11.334  70.570  1.00  0.00    -0.289 OA 
HETATM   30  C   UNL     1      -6.222  10.153  70.311  1.00  0.00    -0.103 C  
HETATM   31  O   UNL     1      -5.662   9.338  71.218  1.00  0.00    -0.052 OA 
ENDBRANCH  27  28
ENDBRANCH  24  27
ENDBRANCH   1  23
TORSDOF 9
ENDMDL
MODEL      123
REMARK 921   NORMALIZED FREE ENERGY PREDICTED BY IDOCK:   -5.05 KCAL/MOL
REMARK 922        TOTAL FREE ENERGY PREDICTED BY IDOCK:   -9.52 KCAL/MOL
REMARK 923 INTER-LIGAND FREE ENERGY PREDICTED BY IDOCK:   -8.62 KCAL/MOL
REMARK 924 INTRA-LIGAND FREE ENERGY PREDICTED BY IDOCK:   -0.91 KCAL/MOL
REMARK 927      BINDING AFFINITY PREDICTED BY RF-SCORE:    0.00 PKD
ROOT
HETATM    1  C   UNL     1      -9.719  12.705  67.539  1.00  0.00    -0.196 C  
ENDROOT
BRANCH   1   2
HETATM    2  C   UNL     1     -10.217  11.233  67.558  1.00  0.00    -0.217 C  
BRANCH   2   3
HETATM    3  C   UNL     1     -10.179  10.451  68.853  1.00  0.00    -0.220 A  
HETATM    4  C   UNL     1     -10.255   8.696  71.105  1.00  0.00    -0.294 A  
HETATM    5  C   UNL     1      -9.007   9.975  69.438  1.00  0.00    -0.205 A  
HETATM    6  C   UNL     1      -9.048   9.088  70.511  1.00  0.00    -0.259 A  
HETATM    7  C   UNL     1     -11.388  10.152  69.492  1.00  0.00    -0.260 A  
HETATM    8  C   UNL     1     -11.424   9.305  70.608  1.00  0.00    -0.327 A  
BRANCH   4   9
HETATM    9  C   UNL     1     -10.284   7.650  72.148  1.00  0.00    -0.256 A  
HETATM   10  C   UNL     1     -11.123   6.523  72.041  1.00  0.00    -0.296 A  
HETATM   11  C   UNL     1     -11.236   5.591  73.076  1.00  0.00    -0.346 A  
HETATM   12  C   UNL     1     -10.487   5.747  74.236  1.00  0.00    -0.237 A  
HETATM   13  C   UNL     1      -9.629   6.836  74.364  1.00  0.00    -0.296 A  
HETATM   14  C   UNL     1      -9.535   7.777  73.332  1.00  0.00    -0.349 A  
ENDBRANCH   4   9
ENDBRANCH   2   3
ENDBRANCH   1   2
BRANCH   1  15
HETATM   15  C   UNL     1     -10.035  13.502  66.250  1.00  0.00    -0.302 C  
HETATM   16  C   UNL     1     -11.504  15.014  64.943  1.00  0.00    -0.399 C  
HETATM   17  C   UNL     1     -11.014  15.598  67.301  1.00  0.00    -0.275 C  
HETATM   18  C   UNL     1     -11.233  14.448  66.326  1.00  0.00    -0.338 C  
HETATM   19  O   UNL     1     -10.989  16.027  64.491  1.00  0.00    -0.592 OA 
BRANCH  16  20
HETATM   20  O   UNL     1     -12.439  14.254  64.307  1.00  0.00    -0.657 OA 
BRANCH  20  21
HETATM   21  C   UNL     1     -12.545  12.902  64.776  1.00  0.00    -0.425 C  
HETATM   22  C   UNL     1     -12.494  11.990  63.563  1.00  0.00    -0.654 C  
ENDBRANCH  20  21
ENDBRANCH  16  20
ENDBRANCH   1  15
BRANCH   1  23
HETATM   23  N   UNL     1      -8.285  12.811  67.827  1.00  0.00    -0.162 N  
HETATM   24  C   UNL     1      -7.336  12.120  67.122  1.00  0.00    -0.124 C  
HETATM   25  H   UNL     1      -7.982  13.425  68.583  1.00  0.00     0.000 HD 
HETATM   26  O   UNL     1      -7.569  11.313  66.224  1.00  0.00    -0.125 OA 
BRANCH  24  27
HETATM   27  C   UNL     1      -5.925  12.289  67.619  1.00  0.00    -0.119 C  
BRANCH  27  28
HETATM   28  C   UNL     1      -5.717  11.395  68.825  1.00  0.00    -0.042 C  
HETATM   29  O   UNL     1      -5.885  11.272  71.201  1.00  0.00    -0.367 OA 
HETATM   30  C   UNL     1      -5.931  11.985  70.204  1.00  0.00    -0.159 C  
HETATM   31  O   UNL     1      -6.167  13.301  70.311  1.00  0.00    -0.117 OA 
ENDBRANCH  27  28
ENDBRANCH  24  27
ENDBRANCH   1  23
TORSDOF 9
ENDMDL
MODEL      124
REMARK 921   NORMALIZED FREE ENERGY PREDICTED BY IDOCK:   -5.04 KCAL/MOL
REMARK 922        TOTAL FREE ENERGY PREDICTED BY IDOCK:   -9.52 KCAL/MOL
REMARK 923 INTER-LIGAND FREE ENERGY PREDICTED BY IDOCK:   -8.47 KCAL/MOL
REMARK 924 INTRA-LIGAND FREE ENERGY PREDICTED BY IDOCK:   -1.05 KCAL/MOL
REMARK 927      BINDING AFFINITY PREDICTED BY RF-SCORE:    0.00 PKD
ROOT
HETATM    1  C   UNL     1     -10.520  12.525  68.401  1.00  0.00    -0.240 C  
ENDROOT
BRANCH   1   2
HETATM    2  C   UNL     1     -10.564  10.971  68.418  1.00  0.00    -0.224 C  
BRANCH   2   3
HETATM    3  C   UNL     1      -9.771  10.216  69.461  1.00  0.00    -0.251 A  
HETATM    4  C   UNL     1      -8.409   8.483  71.277  1.00  0.00    -0.193 A  
HETATM    5  C   UNL     1      -8.381  10.107  69.451  1.00  0.00    -0.174 A  
HETATM    6  C   UNL     1      -7.723   9.231  70.311  1.00  0.00    -0.133 A  
HETATM    7  C   UNL     1     -10.464   9.556  70.483  1.00  0.00    -0.358 A  
HETATM    8  C   UNL     1      -9.793   8.719  71.385  1.00  0.00    -0.353 A  
BRANCH   4   9
HETATM    9  C   UNL     1      -7.710   7.460  72.082  1.00  0.00    -0.092 A  
HETATM   10  C   UNL     1      -6.314   7.495  72.272  1.00  0.00    -0.043 A  
HETATM   11  C   UNL     1      -5.637   6.470  72.935  1.00  0.00    -0.038 A  
HETATM   12  C   UNL     1      -6.345   5.392  73.455  1.00  0.00    -0.062 A  
HETATM   13  C   UNL     1      -7.727   5.338  73.307  1.00  0.00    -0.100 A  
HETATM   14  C   UNL     1      -8.399   6.359  72.623  1.00  0.00    -0.122 A  
ENDBRANCH   4   9
ENDBRANCH   2   3
ENDBRANCH   1   2
BRANCH   1  15
HETATM   15  C   UNL     1     -11.708  13.236  69.096  1.00  0.00    -0.379 C  
HETATM   16  C   UNL     1     -12.612  14.696  70.885  1.00  0.00    -0.342 C  
HETATM   17  C   UNL     1     -10.575  15.434  69.681  1.00  0.00    -0.285 C  
HETATM   18  C   UNL     1     -11.341  14.224  70.203  1.00  0.00    -0.187 C  
HETATM   19  O   UNL     1     -13.280  15.656  70.528  1.00  0.00    -0.434 OA 
BRANCH  16  20
HETATM   20  O   UNL     1     -12.865  13.922  71.978  1.00  0.00    -0.326 OA 
BRANCH  20  21
HETATM   21  C   UNL     1     -13.303  14.637  73.141  1.00  0.00    -0.317 C  
HETATM   22  C   UNL     1     -12.103  15.376  73.706  1.00  0.00    -0.639 C  
ENDBRANCH  20  21
ENDBRANCH  16  20
ENDBRANCH   1  15
BRANCH   1  23
HETATM   23  N   UNL     1     -10.369  13.063  67.046  1.00  0.00    -0.246 N  
HETATM   24  C   UNL     1     -11.257  12.794  66.039  1.00  0.00    -0.299 C  
HETATM   25  H   UNL     1      -9.568  13.662  66.844  1.00  0.00     0.000 HD 
HETATM   26  O   UNL     1     -12.233  12.051  66.135  1.00  0.00    -0.552 OA 
BRANCH  24  27
HETATM   27  C   UNL     1     -10.889  13.362  64.694  1.00  0.00    -0.405 C  
BRANCH  27  28
HETATM   28  C   UNL     1     -10.607  14.844  64.845  1.00  0.00    -0.417 C  
HETATM   29  O   UNL     1     -11.444  17.034  64.405  1.00  0.00    -1.048 OA 
HETATM   30  C   UNL     1     -11.569  15.829  64.213  1.00  0.00    -0.191 C  
HETATM   31  O   UNL     1     -12.557  15.356  63.438  1.00  0.00    -0.018 OA 
ENDBRANCH  27  28
ENDBRANCH  24  27
ENDBRANCH   1  23
TORSDOF 9
ENDMDL
MODEL      125
REMARK 921   NORMALIZED FREE ENERGY PREDICTED BY IDOCK:   -5.04 KCAL/MOL
REMARK 922        TOTAL FREE ENERGY PREDICTED BY IDOCK:   -9.51 KCAL/MOL
REMARK 923 INTER-LIGAND FREE ENERGY PREDICTED BY IDOCK:   -7.54 KCAL/MOL
REMARK 924 INTRA-LIGAND FREE ENERGY PREDICTED BY IDOCK:   -1.97 KCAL/MOL
REMARK 927      BINDING AFFINITY PREDICTED BY RF-SCORE:    0.00 PKD
ROOT
HETATM    1  C   UNL     1     -11.015   8.343  71.715  1.00  0.00    -0.291 C  
ENDROOT
BRANCH   1   2
HETATM    2  C   UNL     1     -11.850   7.190  71.090  1.00  0.00    -0.363 C  
BRANCH   2   3
HETATM    3  C   UNL     1     -11.203   6.262  70.086  1.00  0.00    -0.470 A  
HETATM    4  C   UNL     1      -9.730   4.778  68.139  1.00  0.00    -0.201 A  
HETATM    5  C   UNL     1     -10.504   5.107  70.435  1.00  0.00    -0.287 A  
HETATM    6  C   UNL     1      -9.755   4.409  69.491  1.00  0.00    -0.280 A  
HETATM    7  C   UNL     1     -11.274   6.590  68.727  1.00  0.00    -0.319 A  
HETATM    8  C   UNL     1     -10.565   5.850  67.770  1.00  0.00    -0.331 A  
BRANCH   4   9
HETATM    9  C   UNL     1      -8.822   4.109  67.186  1.00  0.00    -0.124 A  
HETATM   10  C   UNL     1      -7.756   4.798  66.574  1.00  0.00    -0.091 A  
HETATM   11  C   UNL     1      -6.966   4.202  65.588  1.00  0.00    -0.062 A  
HETATM   12  C   UNL     1      -7.204   2.886  65.209  1.00  0.00    -0.066 A  
HETATM   13  C   UNL     1      -8.234   2.169  65.811  1.00  0.00    -0.089 A  
HETATM   14  C   UNL     1      -9.035   2.778  66.784  1.00  0.00    -0.168 A  
ENDBRANCH   4   9
ENDBRANCH   2   3
ENDBRANCH   1   2
BRANCH   1  15
HETATM   15  C   UNL     1     -10.918   9.634  70.867  1.00  0.00    -0.412 C  
HETATM   16  C   UNL     1     -11.986  11.457  69.567  1.00  0.00    -0.341 C  
HETATM   17  C   UNL     1     -12.951  10.862  71.770  1.00  0.00    -0.557 C  
HETATM   18  C   UNL     1     -12.245  10.317  70.535  1.00  0.00    -0.390 C  
HETATM   19  O   UNL     1     -11.711  12.603  69.896  1.00  0.00    -0.301 OA 
BRANCH  16  20
HETATM   20  O   UNL     1     -12.154  11.024  68.286  1.00  0.00    -0.604 OA 
BRANCH  20  21
HETATM   21  C   UNL     1     -11.125  11.422  67.369  1.00  0.00    -0.289 C  
HETATM   22  C   UNL     1     -11.760  12.335  66.335  1.00  0.00    -0.431 C  
ENDBRANCH  20  21
ENDBRANCH  16  20
ENDBRANCH   1  15
BRANCH   1  23
HETATM   23  N   UNL     1      -9.664   7.913  72.086  1.00  0.00    -0.184 N  
HETATM   24  C   UNL     1      -9.377   7.329  73.291  1.00  0.00    -0.182 C  
HETATM   25  H   UNL     1      -8.905   8.055  71.419  1.00  0.00     0.000 HD 
HETATM   26  O   UNL     1     -10.186   7.147  74.200  1.00  0.00    -0.309 OA 
BRANCH  24  27
HETATM   27  C   UNL     1      -7.919   7.036  73.528  1.00  0.00    -0.122 C  
BRANCH  27  28
HETATM   28  C   UNL     1      -7.390   6.206  72.375  1.00  0.00    -0.093 C  
HETATM   29  O   UNL     1      -6.969   3.985  71.615  1.00  0.00    -0.029 OA 
HETATM   30  C   UNL     1      -7.284   4.706  72.556  1.00  0.00    -0.081 C  
HETATM   31  O   UNL     1      -7.537   4.184  73.766  1.00  0.00    -0.077 OA 
ENDBRANCH  27  28
ENDBRANCH  24  27
ENDBRANCH   1  23
TORSDOF 9
ENDMDL
MODEL      126
REMARK 921   NORMALIZED FREE ENERGY PREDICTED BY IDOCK:   -5.00 KCAL/MOL
REMARK 922        TOTAL FREE ENERGY PREDICTED BY IDOCK:   -9.45 KCAL/MOL
REMARK 923 INTER-LIGAND FREE ENERGY PREDICTED BY IDOCK:   -7.67 KCAL/MOL
REMARK 924 INTRA-LIGAND FREE ENERGY PREDICTED BY IDOCK:   -1.77 KCAL/MOL
REMARK 927      BINDING AFFINITY PREDICTED BY RF-SCORE:    0.00 PKD
ROOT
HETATM    1  C   UNL     1     -10.392   8.564  67.422  1.00  0.00    -0.286 C  
ENDROOT
BRANCH   1   2
HETATM    2  C   UNL     1     -10.513   9.700  66.367  1.00  0.00    -0.181 C  
BRANCH   2   3
HETATM    3  C   UNL     1     -10.462  11.143  66.819  1.00  0.00    -0.297 A  
HETATM    4  C   UNL     1     -10.303  13.951  67.316  1.00  0.00    -0.257 A  
HETATM    5  C   UNL     1     -11.579  11.868  67.229  1.00  0.00    -0.364 A  
HETATM    6  C   UNL     1     -11.507  13.244  67.432  1.00  0.00    -0.371 A  
HETATM    7  C   UNL     1      -9.231  11.809  66.795  1.00  0.00    -0.196 A  
HETATM    8  C   UNL     1      -9.150  13.184  67.057  1.00  0.00    -0.231 A  
BRANCH   4   9
HETATM    9  C   UNL     1     -10.277  15.426  67.399  1.00  0.00    -0.249 A  
HETATM   10  C   UNL     1     -10.347  16.098  68.635  1.00  0.00    -0.252 A  
HETATM   11  C   UNL     1     -10.437  17.490  68.710  1.00  0.00    -0.318 A  
HETATM   12  C   UNL     1     -10.429  18.250  67.547  1.00  0.00    -0.431 A  
HETATM   13  C   UNL     1     -10.335  17.620  66.310  1.00  0.00    -0.342 A  
HETATM   14  C   UNL     1     -10.266  16.223  66.239  1.00  0.00    -0.339 A  
ENDBRANCH   4   9
ENDBRANCH   2   3
ENDBRANCH   1   2
BRANCH   1  15
HETATM   15  C   UNL     1     -10.134   9.027  68.877  1.00  0.00    -0.207 C  
HETATM   16  C   UNL     1     -10.822   9.185  71.255  1.00  0.00    -0.332 C  
HETATM   17  C   UNL     1     -11.031   6.995  70.112  1.00  0.00    -0.306 C  
HETATM   18  C   UNL     1     -11.114   8.506  69.928  1.00  0.00    -0.114 C  
HETATM   19  O   UNL     1     -10.025   8.775  72.087  1.00  0.00    -0.320 OA 
BRANCH  16  20
HETATM   20  O   UNL     1     -11.614  10.284  71.396  1.00  0.00    -0.317 OA 
BRANCH  20  21
HETATM   21  C   UNL     1     -13.016  10.052  71.197  1.00  0.00    -0.387 C  
HETATM   22  C   UNL     1     -13.503   9.172  72.335  1.00  0.00    -0.535 C  
ENDBRANCH  20  21
ENDBRANCH  16  20
ENDBRANCH   1  15
BRANCH   1  23
HETATM   23  N   UNL     1      -9.385   7.566  67.053  1.00  0.00    -0.142 N  
HETATM   24  C   UNL     1      -9.706   6.278  66.718  1.00  0.00    -0.156 C  
HETATM   25  H   UNL     1      -8.403   7.842  67.045  1.00  0.00     0.000 HD 
HETATM   26  O   UNL     1     -10.841   5.804  66.736  1.00  0.00    -0.298 OA 
BRANCH  24  27
HETATM   27  C   UNL     1      -8.531   5.374  66.454  1.00  0.00    -0.114 C  
BRANCH  27  28
HETATM   28  C   UNL     1      -8.340   5.240  64.956  1.00  0.00    -0.146 C  
HETATM   29  O   UNL     1      -7.192   6.120  63.060  1.00  0.00    -0.048 OA 
HETATM   30  C   UNL     1      -7.466   6.254  64.248  1.00  0.00    -0.086 C  
HETATM   31  O   UNL     1      -7.001   7.302  64.946  1.00  0.00    -0.049 OA 
ENDBRANCH  27  28
ENDBRANCH  24  27
ENDBRANCH   1  23
TORSDOF 9
ENDMDL
MODEL      127
REMARK 921   NORMALIZED FREE ENERGY PREDICTED BY IDOCK:   -4.99 KCAL/MOL
REMARK 922        TOTAL FREE ENERGY PREDICTED BY IDOCK:   -9.44 KCAL/MOL
REMARK 923 INTER-LIGAND FREE ENERGY PREDICTED BY IDOCK:   -8.14 KCAL/MOL
REMARK 924 INTRA-LIGAND FREE ENERGY PREDICTED BY IDOCK:   -1.31 KCAL/MOL
REMARK 927      BINDING AFFINITY PREDICTED BY RF-SCORE:    0.00 PKD
ROOT
HETATM    1  C   UNL     1     -10.328   7.488  71.541  1.00  0.00    -0.196 C  
ENDROOT
BRANCH   1   2
HETATM    2  C   UNL     1     -10.703   6.027  71.165  1.00  0.00    -0.323 C  
BRANCH   2   3
HETATM    3  C   UNL     1     -10.531   5.559  69.736  1.00  0.00    -0.389 A  
HETATM    4  C   UNL     1      -9.981   4.967  66.997  1.00  0.00    -0.238 A  
HETATM    5  C   UNL     1      -9.810   4.423  69.374  1.00  0.00    -0.239 A  
HETATM    6  C   UNL     1      -9.509   4.158  68.040  1.00  0.00    -0.215 A  
HETATM    7  C   UNL     1     -11.095   6.323  68.708  1.00  0.00    -0.424 A  
HETATM    8  C   UNL     1     -10.839   6.021  67.363  1.00  0.00    -0.394 A  
BRANCH   4   9
HETATM    9  C   UNL     1      -9.535   4.748  65.605  1.00  0.00    -0.173 A  
HETATM   10  C   UNL     1      -8.571   5.576  64.999  1.00  0.00    -0.128 A  
HETATM   11  C   UNL     1      -8.231   5.443  63.651  1.00  0.00    -0.121 A  
HETATM   12  C   UNL     1      -8.828   4.454  62.878  1.00  0.00    -0.118 A  
HETATM   13  C   UNL     1      -9.767   3.602  63.452  1.00  0.00    -0.141 A  
HETATM   14  C   UNL     1     -10.119   3.754  64.799  1.00  0.00    -0.172 A  
ENDBRANCH   4   9
ENDBRANCH   2   3
ENDBRANCH   1   2
BRANCH   1  15
HETATM   15  C   UNL     1     -11.399   8.268  72.342  1.00  0.00    -0.457 C  
HETATM   16  C   UNL     1     -13.498   9.586  72.439  1.00  0.00    -0.393 C  
HETATM   17  C   UNL     1     -13.473   7.510  71.085  1.00  0.00    -0.228 C  
HETATM   18  C   UNL     1     -12.640   8.695  71.558  1.00  0.00    -0.360 C  
HETATM   19  O   UNL     1     -14.365   9.185  73.202  1.00  0.00    -0.322 OA 
BRANCH  16  20
HETATM   20  O   UNL     1     -13.190  10.894  72.214  1.00  0.00    -0.406 OA 
BRANCH  20  21
HETATM   21  C   UNL     1     -12.501  11.153  70.983  1.00  0.00    -0.403 C  
HETATM   22  C   UNL     1     -12.416  12.659  70.812  1.00  0.00    -0.357 C  
ENDBRANCH  20  21
ENDBRANCH  16  20
ENDBRANCH   1  15
BRANCH   1  23
HETATM   23  N   UNL     1      -9.935   8.280  70.371  1.00  0.00    -0.187 N  
HETATM   24  C   UNL     1      -8.838   9.100  70.367  1.00  0.00    -0.220 C  
HETATM   25  H   UNL     1     -10.503   8.219  69.526  1.00  0.00     0.000 HD 
HETATM   26  O   UNL     1      -8.102   9.302  71.331  1.00  0.00    -0.330 OA 
BRANCH  24  27
HETATM   27  C   UNL     1      -8.644   9.900  69.107  1.00  0.00    -0.157 C  
BRANCH  27  28
HETATM   28  C   UNL     1      -9.937   9.892  68.314  1.00  0.00    -0.172 C  
HETATM   29  O   UNL     1     -11.522  11.261  67.173  1.00  0.00    -0.460 OA 
HETATM   30  C   UNL     1     -10.542  11.221  67.909  1.00  0.00    -0.194 C  
HETATM   31  O   UNL     1      -9.985  12.349  68.375  1.00  0.00    -0.220 OA 
ENDBRANCH  27  28
ENDBRANCH  24  27
ENDBRANCH   1  23
TORSDOF 9
ENDMDL
MODEL      128
REMARK 921   NORMALIZED FREE ENERGY PREDICTED BY IDOCK:   -4.99 KCAL/MOL
REMARK 922        TOTAL FREE ENERGY PREDICTED BY IDOCK:   -9.44 KCAL/MOL
REMARK 923 INTER-LIGAND FREE ENERGY PREDICTED BY IDOCK:   -8.55 KCAL/MOL
REMARK 924 INTRA-LIGAND FREE ENERGY PREDICTED BY IDOCK:   -0.89 KCAL/MOL
REMARK 927      BINDING AFFINITY PREDICTED BY RF-SCORE:    0.00 PKD
ROOT
HETATM    1  C   UNL     1     -11.421  14.153  68.811  1.00  0.00    -0.299 C  
ENDROOT
BRANCH   1   2
HETATM    2  C   UNL     1     -11.393  13.048  67.718  1.00  0.00    -0.333 C  
BRANCH   2   3
HETATM    3  C   UNL     1     -10.948  11.649  68.086  1.00  0.00    -0.275 A  
HETATM    4  C   UNL     1      -9.833   9.059  68.539  1.00  0.00    -0.184 A  
HETATM    5  C   UNL     1     -10.370  11.315  69.310  1.00  0.00    -0.101 A  
HETATM    6  C   UNL     1      -9.792  10.065  69.513  1.00  0.00    -0.249 A  
HETATM    7  C   UNL     1     -11.089  10.629  67.137  1.00  0.00    -0.267 A  
HETATM    8  C   UNL     1     -10.557   9.353  67.367  1.00  0.00    -0.326 A  
BRANCH   4   9
HETATM    9  C   UNL     1      -9.095   7.793  68.722  1.00  0.00    -0.140 A  
HETATM   10  C   UNL     1      -9.638   6.720  69.457  1.00  0.00    -0.148 A  
HETATM   11  C   UNL     1      -8.898   5.567  69.729  1.00  0.00    -0.129 A  
HETATM   12  C   UNL     1      -7.602   5.443  69.245  1.00  0.00    -0.077 A  
HETATM   13  C   UNL     1      -7.043   6.473  68.494  1.00  0.00    -0.083 A  
HETATM   14  C   UNL     1      -7.781   7.636  68.242  1.00  0.00    -0.120 A  
ENDBRANCH   4   9
ENDBRANCH   2   3
ENDBRANCH   1   2
BRANCH   1  15
HETATM   15  C   UNL     1     -12.583  14.057  69.830  1.00  0.00    -0.128 C  
HETATM   16  C   UNL     1     -13.412  13.920  72.163  1.00  0.00    -0.485 C  
HETATM   17  C   UNL     1     -11.668  15.599  71.630  1.00  0.00    -0.521 C  
HETATM   18  C   UNL     1     -12.196  14.208  71.301  1.00  0.00    -0.419 C  
HETATM   19  O   UNL     1     -14.238  14.755  72.504  1.00  0.00    -0.435 OA 
BRANCH  16  20
HETATM   20  O   UNL     1     -13.414  12.610  72.538  1.00  0.00    -0.488 OA 
BRANCH  20  21
HETATM   21  C   UNL     1     -12.958  11.691  71.536  1.00  0.00    -0.358 C  
HETATM   22  C   UNL     1     -13.228  10.286  72.044  1.00  0.00    -0.516 C  
ENDBRANCH  20  21
ENDBRANCH  16  20
ENDBRANCH   1  15
BRANCH   1  23
HETATM   23  N   UNL     1     -11.399  15.502  68.238  1.00  0.00    -0.344 N  
HETATM   24  C   UNL     1     -10.292  16.308  68.283  1.00  0.00    -0.272 C  
HETATM   25  H   UNL     1     -12.243  15.857  67.788  1.00  0.00     0.000 HD 
HETATM   26  O   UNL     1      -9.232  16.023  68.837  1.00  0.00    -0.207 OA 
BRANCH  24  27
HETATM   27  C   UNL     1     -10.486  17.691  67.722  1.00  0.00    -0.379 C  
BRANCH  27  28
HETATM   28  C   UNL     1      -9.131  18.350  67.556  1.00  0.00    -0.278 C  
HETATM   29  O   UNL     1      -7.970  20.433  67.578  1.00  0.00    -0.313 OA 
HETATM   30  C   UNL     1      -9.055  19.862  67.594  1.00  0.00    -0.340 C  
HETATM   31  O   UNL     1     -10.199  20.562  67.643  1.00  0.00    -0.336 OA 
ENDBRANCH  27  28
ENDBRANCH  24  27
ENDBRANCH   1  23
TORSDOF 9
ENDMDL
MODEL      129
REMARK 921   NORMALIZED FREE ENERGY PREDICTED BY IDOCK:   -4.99 KCAL/MOL
REMARK 922        TOTAL FREE ENERGY PREDICTED BY IDOCK:   -9.44 KCAL/MOL
REMARK 923 INTER-LIGAND FREE ENERGY PREDICTED BY IDOCK:   -9.69 KCAL/MOL
REMARK 924 INTRA-LIGAND FREE ENERGY PREDICTED BY IDOCK:    0.25 KCAL/MOL
REMARK 927      BINDING AFFINITY PREDICTED BY RF-SCORE:    0.00 PKD
ROOT
HETATM    1  C   UNL     1     -11.814  14.119  67.230  1.00  0.00    -0.419 C  
ENDROOT
BRANCH   1   2
HETATM    2  C   UNL     1     -11.416  12.810  66.492  1.00  0.00    -0.409 C  
BRANCH   2   3
HETATM    3  C   UNL     1     -10.983  11.605  67.297  1.00  0.00    -0.318 A  
HETATM    4  C   UNL     1     -10.503   9.195  68.752  1.00  0.00    -0.236 A  
HETATM    5  C   UNL     1     -10.065  10.658  66.844  1.00  0.00    -0.260 A  
HETATM    6  C   UNL     1      -9.863   9.466  67.535  1.00  0.00    -0.220 A  
HETATM    7  C   UNL     1     -11.555  11.400  68.558  1.00  0.00    -0.384 A  
HETATM    8  C   UNL     1     -11.305  10.224  69.280  1.00  0.00    -0.253 A  
BRANCH   4   9
HETATM    9  C   UNL     1     -10.381   7.870  69.395  1.00  0.00    -0.220 A  
HETATM   10  C   UNL     1      -9.348   6.975  69.054  1.00  0.00    -0.136 A  
HETATM   11  C   UNL     1      -9.295   5.681  69.576  1.00  0.00    -0.165 A  
HETATM   12  C   UNL     1     -10.262   5.256  70.479  1.00  0.00    -0.334 A  
HETATM   13  C   UNL     1     -11.283   6.123  70.857  1.00  0.00    -0.365 A  
HETATM   14  C   UNL     1     -11.342   7.413  70.315  1.00  0.00    -0.244 A  
ENDBRANCH   4   9
ENDBRANCH   2   3
ENDBRANCH   1   2
BRANCH   1  15
HETATM   15  C   UNL     1     -10.751  15.245  67.215  1.00  0.00    -0.311 C  
HETATM   16  C   UNL     1      -8.896  16.459  66.102  1.00  0.00    -0.314 C  
HETATM   17  C   UNL     1     -10.920  15.926  64.773  1.00  0.00    -0.392 C  
HETATM   18  C   UNL     1     -10.007  15.445  65.895  1.00  0.00    -0.374 C  
HETATM   19  O   UNL     1      -9.025  17.669  65.980  1.00  0.00    -0.495 OA 
BRANCH  16  20
HETATM   20  O   UNL     1      -7.732  15.815  66.394  1.00  0.00    -0.111 OA 
BRANCH  20  21
HETATM   21  C   UNL     1      -6.909  16.461  67.375  1.00  0.00    -0.169 C  
HETATM   22  C   UNL     1      -7.062  15.697  68.679  1.00  0.00    -0.127 C  
ENDBRANCH  20  21
ENDBRANCH  16  20
ENDBRANCH   1  15
BRANCH   1  23
HETATM   23  N   UNL     1     -12.231  13.873  68.614  1.00  0.00    -0.487 N  
HETATM   24  C   UNL     1     -12.331  14.872  69.545  1.00  0.00    -0.167 C  
HETATM   25  H   UNL     1     -12.454  12.919  68.895  1.00  0.00     0.000 HD 
HETATM   26  O   UNL     1     -12.045  16.052  69.351  1.00  0.00    -0.279 OA 
BRANCH  24  27
HETATM   27  C   UNL     1     -12.688  14.415  70.935  1.00  0.00    -0.425 C  
BRANCH  27  28
HETATM   28  C   UNL     1     -13.274  15.584  71.702  1.00  0.00    -0.575 C  
HETATM   29  O   UNL     1     -13.500  16.570  73.862  1.00  0.00    -0.513 OA 
HETATM   30  C   UNL     1     -13.143  15.594  73.211  1.00  0.00    -0.564 C  
HETATM   31  O   UNL     1     -12.631  14.513  73.819  1.00  0.00    -0.427 OA 
ENDBRANCH  27  28
ENDBRANCH  24  27
ENDBRANCH   1  23
TORSDOF 9
ENDMDL
MODEL      130
REMARK 921   NORMALIZED FREE ENERGY PREDICTED BY IDOCK:   -4.97 KCAL/MOL
REMARK 922        TOTAL FREE ENERGY PREDICTED BY IDOCK:   -9.40 KCAL/MOL
REMARK 923 INTER-LIGAND FREE ENERGY PREDICTED BY IDOCK:   -7.87 KCAL/MOL
REMARK 924 INTRA-LIGAND FREE ENERGY PREDICTED BY IDOCK:   -1.53 KCAL/MOL
REMARK 927      BINDING AFFINITY PREDICTED BY RF-SCORE:    0.00 PKD
ROOT
HETATM    1  C   UNL     1     -10.748  10.183  66.601  1.00  0.00    -0.086 C  
ENDROOT
BRANCH   1   2
HETATM    2  C   UNL     1     -10.194  11.331  65.711  1.00  0.00    -0.301 C  
BRANCH   2   3
HETATM    3  C   UNL     1     -10.313  12.763  66.185  1.00  0.00    -0.283 A  
HETATM    4  C   UNL     1     -10.314  15.553  66.797  1.00  0.00    -0.288 A  
HETATM    5  C   UNL     1     -11.468  13.532  66.051  1.00  0.00    -0.345 A  
HETATM    6  C   UNL     1     -11.455  14.900  66.312  1.00  0.00    -0.269 A  
HETATM    7  C   UNL     1      -9.193  13.374  66.763  1.00  0.00    -0.242 A  
HETATM    8  C   UNL     1      -9.200  14.739  67.079  1.00  0.00    -0.248 A  
BRANCH   4   9
HETATM    9  C   UNL     1     -10.281  17.024  66.934  1.00  0.00    -0.305 A  
HETATM   10  C   UNL     1     -10.147  17.646  68.191  1.00  0.00    -0.347 A  
HETATM   11  C   UNL     1     -10.230  19.032  68.336  1.00  0.00    -0.450 A  
HETATM   12  C   UNL     1     -10.420  19.838  67.220  1.00  0.00    -0.579 A  
HETATM   13  C   UNL     1     -10.532  19.258  65.960  1.00  0.00    -0.573 A  
HETATM   14  C   UNL     1     -10.469  17.866  65.823  1.00  0.00    -0.196 A  
ENDBRANCH   4   9
ENDBRANCH   2   3
ENDBRANCH   1   2
BRANCH   1  15
HETATM   15  C   UNL     1     -11.555  10.631  67.844  1.00  0.00    -0.132 C  
HETATM   16  C   UNL     1     -11.917  10.658  70.298  1.00  0.00    -0.339 C  
HETATM   17  C   UNL     1      -9.627  11.063  69.442  1.00  0.00     0.094 C  
HETATM   18  C   UNL     1     -10.928  10.308  69.200  1.00  0.00    -0.280 C  
HETATM   19  O   UNL     1     -12.010  11.755  70.829  1.00  0.00    -0.319 OA 
BRANCH  16  20
HETATM   20  O   UNL     1     -12.646   9.556  70.632  1.00  0.00    -0.155 OA 
BRANCH  20  21
HETATM   21  C   UNL     1     -12.695   9.261  72.035  1.00  0.00    -0.401 C  
HETATM   22  C   UNL     1     -11.601   8.250  72.330  1.00  0.00    -0.464 C  
ENDBRANCH  20  21
ENDBRANCH  16  20
ENDBRANCH   1  15
BRANCH   1  23
HETATM   23  N   UNL     1      -9.699   9.250  67.023  1.00  0.00    -0.172 N  
HETATM   24  C   UNL     1      -9.891   7.896  67.078  1.00  0.00    -0.225 C  
HETATM   25  H   UNL     1      -8.789   9.626  67.289  1.00  0.00     0.000 HD 
HETATM   26  O   UNL     1     -10.951   7.321  66.834  1.00  0.00    -0.343 OA 
BRANCH  24  27
HETATM   27  C   UNL     1      -8.729   7.107  67.619  1.00  0.00    -0.121 C  
BRANCH  27  28
HETATM   28  C   UNL     1      -8.728   7.207  69.132  1.00  0.00    -0.133 C  
HETATM   29  O   UNL     1      -8.803   5.953  71.159  1.00  0.00    -0.134 OA 
HETATM   30  C   UNL     1      -8.910   5.937  69.938  1.00  0.00    -0.129 C  
HETATM   31  O   UNL     1      -9.194   4.798  69.288  1.00  0.00    -0.102 OA 
ENDBRANCH  27  28
ENDBRANCH  24  27
ENDBRANCH   1  23
TORSDOF 9
ENDMDL
MODEL      131
REMARK 921   NORMALIZED FREE ENERGY PREDICTED BY IDOCK:   -4.96 KCAL/MOL
REMARK 922        TOTAL FREE ENERGY PREDICTED BY IDOCK:   -9.39 KCAL/MOL
REMARK 923 INTER-LIGAND FREE ENERGY PREDICTED BY IDOCK:   -8.48 KCAL/MOL
REMARK 924 INTRA-LIGAND FREE ENERGY PREDICTED BY IDOCK:   -0.91 KCAL/MOL
REMARK 927      BINDING AFFINITY PREDICTED BY RF-SCORE:    0.00 PKD
ROOT
HETATM    1  C   UNL     1      -8.421  14.777  66.847  1.00  0.00    -0.198 C  
ENDROOT
BRANCH   1   2
HETATM    2  C   UNL     1      -9.106  14.274  68.149  1.00  0.00    -0.193 C  
BRANCH   2   3
HETATM    3  C   UNL     1      -9.369  12.795  68.327  1.00  0.00    -0.194 A  
HETATM    4  C   UNL     1      -9.947   9.998  68.302  1.00  0.00    -0.173 A  
HETATM    5  C   UNL     1      -8.368  11.849  68.536  1.00  0.00    -0.118 A  
HETATM    6  C   UNL     1      -8.646  10.485  68.484  1.00  0.00    -0.135 A  
HETATM    7  C   UNL     1     -10.688  12.334  68.244  1.00  0.00    -0.244 A  
HETATM    8  C   UNL     1     -10.973  10.961  68.250  1.00  0.00    -0.293 A  
BRANCH   4   9
HETATM    9  C   UNL     1     -10.199   8.555  68.111  1.00  0.00    -0.254 A  
HETATM   10  C   UNL     1     -10.135   7.956  66.837  1.00  0.00    -0.362 A  
HETATM   11  C   UNL     1     -10.482   6.618  66.637  1.00  0.00    -0.222 A  
HETATM   12  C   UNL     1     -10.874   5.833  67.714  1.00  0.00    -0.259 A  
HETATM   13  C   UNL     1     -10.924   6.386  68.990  1.00  0.00    -0.410 A  
HETATM   14  C   UNL     1     -10.595   7.733  69.183  1.00  0.00    -0.193 A  
ENDBRANCH   4   9
ENDBRANCH   2   3
ENDBRANCH   1   2
BRANCH   1  15
HETATM   15  C   UNL     1      -7.686  16.136  66.960  1.00  0.00    -0.256 C  
HETATM   16  C   UNL     1      -7.208  18.246  68.174  1.00  0.00    -0.249 C  
HETATM   17  C   UNL     1      -7.201  16.124  69.455  1.00  0.00    -0.204 C  
HETATM   18  C   UNL     1      -7.842  16.871  68.291  1.00  0.00    -0.208 C  
HETATM   19  O   UNL     1      -6.033  18.494  68.405  1.00  0.00    -0.184 OA 
BRANCH  16  20
HETATM   20  O   UNL     1      -8.153  19.162  67.821  1.00  0.00    -0.268 OA 
BRANCH  20  21
HETATM   21  C   UNL     1      -9.357  19.123  68.599  1.00  0.00    -0.388 C  
HETATM   22  C   UNL     1     -10.503  19.535  67.692  1.00  0.00    -0.593 C  
ENDBRANCH  20  21
ENDBRANCH  16  20
ENDBRANCH   1  15
BRANCH   1  23
HETATM   23  N   UNL     1      -9.349  14.830  65.714  1.00  0.00    -0.514 N  
HETATM   24  C   UNL     1     -10.644  15.256  65.836  1.00  0.00    -0.335 C  
HETATM   25  H   UNL     1      -9.016  14.536  64.795  1.00  0.00     0.000 HD 
HETATM   26  O   UNL     1     -11.183  15.589  66.891  1.00  0.00    -0.276 OA 
BRANCH  24  27
HETATM   27  C   UNL     1     -11.471  15.157  64.582  1.00  0.00    -0.363 C  
BRANCH  27  28
HETATM   28  C   UNL     1     -12.184  13.819  64.567  1.00  0.00    -0.441 C  
HETATM   29  O   UNL     1     -11.916  11.482  64.175  1.00  0.00    -0.185 OA 
HETATM   30  C   UNL     1     -11.417  12.599  64.098  1.00  0.00    -0.387 C  
HETATM   31  O   UNL     1     -10.185  12.768  63.594  1.00  0.00    -0.384 OA 
ENDBRANCH  27  28
ENDBRANCH  24  27
ENDBRANCH   1  23
TORSDOF 9
ENDMDL
MODEL      132
REMARK 921   NORMALIZED FREE ENERGY PREDICTED BY IDOCK:   -4.95 KCAL/MOL
REMARK 922        TOTAL FREE ENERGY PREDICTED BY IDOCK:   -9.38 KCAL/MOL
REMARK 923 INTER-LIGAND FREE ENERGY PREDICTED BY IDOCK:   -7.71 KCAL/MOL
REMARK 924 INTRA-LIGAND FREE ENERGY PREDICTED BY IDOCK:   -1.67 KCAL/MOL
REMARK 927      BINDING AFFINITY PREDICTED BY RF-SCORE:    0.00 PKD
ROOT
HETATM    1  C   UNL     1     -10.256  10.374  67.150  1.00  0.00    -0.222 C  
ENDROOT
BRANCH   1   2
HETATM    2  C   UNL     1     -11.319  11.485  67.382  1.00  0.00    -0.367 C  
BRANCH   2   3
HETATM    3  C   UNL     1     -10.899  12.937  67.335  1.00  0.00    -0.272 A  
HETATM    4  C   UNL     1     -10.468  15.760  67.271  1.00  0.00    -0.308 A  
HETATM    5  C   UNL     1     -10.253  13.593  68.382  1.00  0.00    -0.245 A  
HETATM    6  C   UNL     1     -10.080  14.975  68.365  1.00  0.00    -0.225 A  
HETATM    7  C   UNL     1     -11.203  13.686  66.192  1.00  0.00    -0.309 A  
HETATM    8  C   UNL     1     -10.975  15.069  66.154  1.00  0.00    -0.334 A  
BRANCH   4   9
HETATM    9  C   UNL     1     -10.403  17.235  67.333  1.00  0.00    -0.338 A  
HETATM   10  C   UNL     1     -10.388  18.024  66.166  1.00  0.00    -0.368 A  
HETATM   11  C   UNL     1     -10.213  19.408  66.218  1.00  0.00    -0.566 A  
HETATM   12  C   UNL     1     -10.076  20.046  67.445  1.00  0.00    -0.568 A  
HETATM   13  C   UNL     1     -10.111  19.300  68.619  1.00  0.00    -0.499 A  
HETATM   14  C   UNL     1     -10.267  17.910  68.561  1.00  0.00    -0.393 A  
ENDBRANCH   4   9
ENDBRANCH   2   3
ENDBRANCH   1   2
BRANCH   1  15
HETATM   15  C   UNL     1     -10.685   8.942  67.555  1.00  0.00    -0.223 C  
HETATM   16  C   UNL     1     -10.568   6.999  69.091  1.00  0.00    -0.219 C  
HETATM   17  C   UNL     1     -10.822   9.260  70.072  1.00  0.00    -0.264 C  
HETATM   18  C   UNL     1     -10.209   8.465  68.927  1.00  0.00    -0.223 C  
HETATM   19  O   UNL     1     -11.628   6.586  69.540  1.00  0.00    -0.357 OA 
BRANCH  16  20
HETATM   20  O   UNL     1      -9.516   6.220  68.712  1.00  0.00    -0.123 OA 
BRANCH  20  21
HETATM   21  C   UNL     1      -8.265   6.541  69.335  1.00  0.00    -0.119 C  
HETATM   22  C   UNL     1      -8.265   5.913  70.718  1.00  0.00    -0.124 C  
ENDBRANCH  20  21
ENDBRANCH  16  20
ENDBRANCH   1  15
BRANCH   1  23
HETATM   23  N   UNL     1      -8.975  10.687  67.790  1.00  0.00    -0.139 N  
HETATM   24  C   UNL     1      -7.828  10.914  67.078  1.00  0.00    -0.132 C  
HETATM   25  H   UNL     1      -8.936  10.738  68.808  1.00  0.00     0.000 HD 
HETATM   26  O   UNL     1      -7.726  10.835  65.855  1.00  0.00    -0.154 OA 
BRANCH  24  27
HETATM   27  C   UNL     1      -6.592  11.134  67.910  1.00  0.00    -0.062 C  
BRANCH  27  28
HETATM   28  C   UNL     1      -6.962  11.030  69.377  1.00  0.00    -0.126 C  
HETATM   29  O   UNL     1      -6.550   9.841  71.403  1.00  0.00    -0.312 OA 
HETATM   30  C   UNL     1      -6.370   9.898  70.191  1.00  0.00    -0.084 C  
HETATM   31  O   UNL     1      -5.649   8.960  69.559  1.00  0.00    -0.034 OA 
ENDBRANCH  27  28
ENDBRANCH  24  27
ENDBRANCH   1  23
TORSDOF 9
ENDMDL
MODEL      133
REMARK 921   NORMALIZED FREE ENERGY PREDICTED BY IDOCK:   -4.94 KCAL/MOL
REMARK 922        TOTAL FREE ENERGY PREDICTED BY IDOCK:   -9.36 KCAL/MOL
REMARK 923 INTER-LIGAND FREE ENERGY PREDICTED BY IDOCK:   -7.78 KCAL/MOL
REMARK 924 INTRA-LIGAND FREE ENERGY PREDICTED BY IDOCK:   -1.58 KCAL/MOL
REMARK 927      BINDING AFFINITY PREDICTED BY RF-SCORE:    0.00 PKD
ROOT
HETATM    1  C   UNL     1     -10.439  10.102  67.697  1.00  0.00    -0.245 C  
ENDROOT
BRANCH   1   2
HETATM    2  C   UNL     1     -10.442  10.828  66.322  1.00  0.00    -0.287 C  
BRANCH   2   3
HETATM    3  C   UNL     1      -9.985  12.268  66.241  1.00  0.00    -0.249 A  
HETATM    4  C   UNL     1      -9.470  15.077  66.183  1.00  0.00    -0.347 A  
HETATM    5  C   UNL     1      -9.130  12.865  67.165  1.00  0.00    -0.220 A  
HETATM    6  C   UNL     1      -8.912  14.240  67.159  1.00  0.00    -0.237 A  
HETATM    7  C   UNL     1     -10.471  13.068  65.199  1.00  0.00    -0.335 A  
HETATM    8  C   UNL     1     -10.203  14.443  65.161  1.00  0.00    -0.420 A  
BRANCH   4   9
HETATM    9  C   UNL     1      -9.339  16.546  66.277  1.00  0.00    -0.334 A  
HETATM   10  C   UNL     1      -8.081  17.179  66.248  1.00  0.00    -0.325 A  
HETATM   11  C   UNL     1      -7.946  18.554  66.450  1.00  0.00    -0.291 A  
HETATM   12  C   UNL     1      -9.074  19.340  66.657  1.00  0.00    -0.374 A  
HETATM   13  C   UNL     1     -10.334  18.750  66.667  1.00  0.00    -0.472 A  
HETATM   14  C   UNL     1     -10.462  17.368  66.484  1.00  0.00    -0.264 A  
ENDBRANCH   4   9
ENDBRANCH   2   3
ENDBRANCH   1   2
BRANCH   1  15
HETATM   15  C   UNL     1     -10.178   8.577  67.647  1.00  0.00    -0.297 C  
HETATM   16  C   UNL     1      -8.684   6.648  67.200  1.00  0.00    -0.111 C  
HETATM   17  C   UNL     1      -7.791   8.548  68.517  1.00  0.00    -0.108 C  
HETATM   18  C   UNL     1      -8.733   8.154  67.385  1.00  0.00    -0.124 C  
HETATM   19  O   UNL     1      -8.544   5.838  68.105  1.00  0.00    -0.109 OA 
BRANCH  16  20
HETATM   20  O   UNL     1      -8.769   6.343  65.875  1.00  0.00    -0.149 OA 
BRANCH  20  21
HETATM   21  C   UNL     1      -8.013   7.196  65.004  1.00  0.00    -0.129 C  
HETATM   22  C   UNL     1      -6.608   6.628  64.911  1.00  0.00    -0.042 C  
ENDBRANCH  20  21
ENDBRANCH  16  20
ENDBRANCH   1  15
BRANCH   1  23
HETATM   23  N   UNL     1     -11.665  10.352  68.461  1.00  0.00    -0.508 N  
HETATM   24  C   UNL     1     -11.661  10.593  69.809  1.00  0.00    -0.310 C  
HETATM   25  H   UNL     1     -12.558  10.345  67.968  1.00  0.00     0.000 HD 
HETATM   26  O   UNL     1     -10.663  10.580  70.527  1.00  0.00    -0.166 OA 
BRANCH  24  27
HETATM   27  C   UNL     1     -13.022  10.740  70.435  1.00  0.00    -0.196 C  
BRANCH  27  28
HETATM   28  C   UNL     1     -12.871  11.390  71.796  1.00  0.00    -0.449 C  
HETATM   29  O   UNL     1     -13.028  13.447  72.992  1.00  0.00    -0.248 OA 
HETATM   30  C   UNL     1     -13.030  12.893  71.898  1.00  0.00    -0.301 C  
HETATM   31  O   UNL     1     -13.169  13.603  70.769  1.00  0.00    -0.130 OA 
ENDBRANCH  27  28
ENDBRANCH  24  27
ENDBRANCH   1  23
TORSDOF 9
ENDMDL
MODEL      134
REMARK 921   NORMALIZED FREE ENERGY PREDICTED BY IDOCK:   -4.93 KCAL/MOL
REMARK 922        TOTAL FREE ENERGY PREDICTED BY IDOCK:   -9.35 KCAL/MOL
REMARK 923 INTER-LIGAND FREE ENERGY PREDICTED BY IDOCK:   -7.44 KCAL/MOL
REMARK 924 INTRA-LIGAND FREE ENERGY PREDICTED BY IDOCK:   -1.91 KCAL/MOL
REMARK 927      BINDING AFFINITY PREDICTED BY RF-SCORE:    0.00 PKD
ROOT
HETATM    1  C   UNL     1     -11.224  10.679  67.712  1.00  0.00    -0.313 C  
ENDROOT
BRANCH   1   2
HETATM    2  C   UNL     1     -10.349   9.780  66.794  1.00  0.00    -0.289 C  
BRANCH   2   3
HETATM    3  C   UNL     1     -10.094   8.341  67.186  1.00  0.00    -0.334 A  
HETATM    4  C   UNL     1      -9.642   5.741  68.278  1.00  0.00    -0.139 A  
HETATM    5  C   UNL     1     -11.017   7.313  67.008  1.00  0.00    -0.243 A  
HETATM    6  C   UNL     1     -10.813   6.057  67.576  1.00  0.00    -0.393 A  
HETATM    7  C   UNL     1      -8.876   8.018  67.797  1.00  0.00    -0.126 A  
HETATM    8  C   UNL     1      -8.647   6.737  68.317  1.00  0.00    -0.124 A  
BRANCH   4   9
HETATM    9  C   UNL     1      -9.507   4.452  68.988  1.00  0.00    -0.237 A  
HETATM   10  C   UNL     1      -9.272   3.248  68.296  1.00  0.00    -0.239 A  
HETATM   11  C   UNL     1      -9.257   2.015  68.951  1.00  0.00    -0.212 A  
HETATM   12  C   UNL     1      -9.448   1.957  70.327  1.00  0.00    -0.143 A  
HETATM   13  C   UNL     1      -9.659   3.130  71.045  1.00  0.00    -0.228 A  
HETATM   14  C   UNL     1      -9.693   4.361  70.380  1.00  0.00    -0.284 A  
ENDBRANCH   4   9
ENDBRANCH   2   3
ENDBRANCH   1   2
BRANCH   1  15
HETATM   15  C   UNL     1     -11.060  12.205  67.506  1.00  0.00    -0.328 C  
HETATM   16  C   UNL     1     -10.511  14.150  66.068  1.00  0.00    -0.304 C  
HETATM   17  C   UNL     1     -12.008  12.398  65.156  1.00  0.00    -0.454 C  
HETATM   18  C   UNL     1     -10.816  12.663  66.068  1.00  0.00    -0.306 C  
HETATM   19  O   UNL     1     -11.352  15.035  65.993  1.00  0.00    -0.338 OA 
BRANCH  16  20
HETATM   20  O   UNL     1      -9.164  14.346  66.114  1.00  0.00    -0.231 OA 
BRANCH  20  21
HETATM   21  C   UNL     1      -8.690  15.047  67.272  1.00  0.00    -0.203 C  
HETATM   22  C   UNL     1      -7.516  14.265  67.835  1.00  0.00    -0.157 C  
ENDBRANCH  20  21
ENDBRANCH  16  20
ENDBRANCH   1  15
BRANCH   1  23
HETATM   23  N   UNL     1     -11.042  10.367  69.133  1.00  0.00    -0.234 N  
HETATM   24  C   UNL     1     -12.084  10.326  70.020  1.00  0.00    -0.156 C  
HETATM   25  H   UNL     1     -10.101  10.173  69.475  1.00  0.00     0.000 HD 
HETATM   26  O   UNL     1     -13.255  10.588  69.750  1.00  0.00     0.007 OA 
BRANCH  24  27
HETATM   27  C   UNL     1     -11.693  10.076  71.452  1.00  0.00    -0.414 C  
BRANCH  27  28
HETATM   28  C   UNL     1     -11.244   8.635  71.596  1.00  0.00    -0.379 C  
HETATM   29  O   UNL     1      -9.351   7.210  71.867  1.00  0.00    -0.140 OA 
HETATM   30  C   UNL     1      -9.758   8.344  71.639  1.00  0.00    -0.219 C  
HETATM   31  O   UNL     1      -8.899   9.350  71.420  1.00  0.00    -0.281 OA 
ENDBRANCH  27  28
ENDBRANCH  24  27
ENDBRANCH   1  23
TORSDOF 9
ENDMDL
MODEL      135
REMARK 921   NORMALIZED FREE ENERGY PREDICTED BY IDOCK:   -4.93 KCAL/MOL
REMARK 922        TOTAL FREE ENERGY PREDICTED BY IDOCK:   -9.35 KCAL/MOL
REMARK 923 INTER-LIGAND FREE ENERGY PREDICTED BY IDOCK:   -8.14 KCAL/MOL
REMARK 924 INTRA-LIGAND FREE ENERGY PREDICTED BY IDOCK:   -1.21 KCAL/MOL
REMARK 927      BINDING AFFINITY PREDICTED BY RF-SCORE:    0.00 PKD
ROOT
HETATM    1  C   UNL     1      -8.001  16.003  66.846  1.00  0.00    -0.248 C  
ENDROOT
BRANCH   1   2
HETATM    2  C   UNL     1      -9.380  15.504  66.330  1.00  0.00    -0.355 C  
BRANCH   2   3
HETATM    3  C   UNL     1     -10.239  14.636  67.223  1.00  0.00    -0.241 A  
HETATM    4  C   UNL     1     -11.543  12.880  69.059  1.00  0.00    -0.372 A  
HETATM    5  C   UNL     1     -11.033  15.131  68.255  1.00  0.00    -0.276 A  
HETATM    6  C   UNL     1     -11.635  14.273  69.173  1.00  0.00    -0.346 A  
HETATM    7  C   UNL     1     -10.216  13.249  67.032  1.00  0.00    -0.244 A  
HETATM    8  C   UNL     1     -10.871  12.388  67.923  1.00  0.00    -0.253 A  
BRANCH   4   9
HETATM    9  C   UNL     1     -12.070  11.995  70.118  1.00  0.00    -0.377 A  
HETATM   10  C   UNL     1     -11.952  10.593  70.037  1.00  0.00    -0.408 A  
HETATM   11  C   UNL     1     -12.547   9.750  70.978  1.00  0.00    -0.406 A  
HETATM   12  C   UNL     1     -13.254  10.290  72.046  1.00  0.00    -0.516 A  
HETATM   13  C   UNL     1     -13.369  11.672  72.170  1.00  0.00    -0.310 A  
HETATM   14  C   UNL     1     -12.788  12.511  71.213  1.00  0.00    -0.337 A  
ENDBRANCH   4   9
ENDBRANCH   2   3
ENDBRANCH   1   2
BRANCH   1  15
HETATM   15  C   UNL     1      -7.511  15.364  68.169  1.00  0.00    -0.120 C  
HETATM   16  C   UNL     1      -5.719  14.348  69.551  1.00  0.00    -0.095 C  
HETATM   17  C   UNL     1      -5.206  16.426  68.300  1.00  0.00    -0.107 C  
HETATM   18  C   UNL     1      -6.005  15.128  68.279  1.00  0.00    -0.126 C  
HETATM   19  O   UNL     1      -5.517  14.852  70.647  1.00  0.00    -0.127 OA 
BRANCH  16  20
HETATM   20  O   UNL     1      -5.673  13.015  69.274  1.00  0.00    -0.076 OA 
BRANCH  20  21
HETATM   21  C   UNL     1      -5.183  12.190  70.340  1.00  0.00    -0.116 C  
HETATM   22  C   UNL     1      -5.887  10.848  70.243  1.00  0.00    -0.118 C  
ENDBRANCH  20  21
ENDBRANCH  16  20
ENDBRANCH   1  15
BRANCH   1  23
HETATM   23  N   UNL     1      -7.949  17.462  66.973  1.00  0.00    -0.205 N  
HETATM   24  C   UNL     1      -7.240  18.256  66.111  1.00  0.00    -0.266 C  
HETATM   25  H   UNL     1      -8.461  17.905  67.736  1.00  0.00     0.000 HD 
HETATM   26  O   UNL     1      -6.542  17.847  65.185  1.00  0.00    -0.237 OA 
BRANCH  24  27
HETATM   27  C   UNL     1      -7.232  19.722  66.453  1.00  0.00    -0.267 C  
BRANCH  27  28
HETATM   28  C   UNL     1      -8.263  19.981  67.535  1.00  0.00    -0.369 C  
HETATM   29  O   UNL     1     -10.599  20.088  68.004  1.00  0.00    -0.357 OA 
HETATM   30  C   UNL     1      -9.727  19.996  67.146  1.00  0.00    -0.411 C  
HETATM   31  O   UNL     1     -10.049  19.908  65.847  1.00  0.00    -0.452 OA 
ENDBRANCH  27  28
ENDBRANCH  24  27
ENDBRANCH   1  23
TORSDOF 9
ENDMDL
MODEL      136
REMARK 921   NORMALIZED FREE ENERGY PREDICTED BY IDOCK:   -4.91 KCAL/MOL
REMARK 922        TOTAL FREE ENERGY PREDICTED BY IDOCK:   -9.32 KCAL/MOL
REMARK 923 INTER-LIGAND FREE ENERGY PREDICTED BY IDOCK:   -7.81 KCAL/MOL
REMARK 924 INTRA-LIGAND FREE ENERGY PREDICTED BY IDOCK:   -1.52 KCAL/MOL
REMARK 927      BINDING AFFINITY PREDICTED BY RF-SCORE:    0.00 PKD
ROOT
HETATM    1  C   UNL     1     -10.090   8.919  68.384  1.00  0.00    -0.189 C  
ENDROOT
BRANCH   1   2
HETATM    2  C   UNL     1     -10.709   9.492  67.077  1.00  0.00    -0.220 C  
BRANCH   2   3
HETATM    3  C   UNL     1     -10.758  10.990  66.872  1.00  0.00    -0.325 A  
HETATM    4  C   UNL     1     -10.737  13.846  66.836  1.00  0.00    -0.284 A  
HETATM    5  C   UNL     1      -9.854  11.695  66.081  1.00  0.00    -0.250 A  
HETATM    6  C   UNL     1      -9.820  13.088  66.096  1.00  0.00    -0.275 A  
HETATM    7  C   UNL     1     -11.745  11.726  67.539  1.00  0.00    -0.312 A  
HETATM    8  C   UNL     1     -11.745  13.127  67.507  1.00  0.00    -0.414 A  
BRANCH   4   9
HETATM    9  C   UNL     1     -10.595  15.312  66.948  1.00  0.00    -0.304 A  
HETATM   10  C   UNL     1     -10.758  15.979  68.178  1.00  0.00    -0.311 A  
HETATM   11  C   UNL     1     -10.737  17.373  68.267  1.00  0.00    -0.327 A  
HETATM   12  C   UNL     1     -10.521  18.138  67.127  1.00  0.00    -0.392 A  
HETATM   13  C   UNL     1     -10.332  17.511  65.899  1.00  0.00    -0.265 A  
HETATM   14  C   UNL     1     -10.374  16.114  65.813  1.00  0.00    -0.398 A  
ENDBRANCH   4   9
ENDBRANCH   2   3
ENDBRANCH   1   2
BRANCH   1  15
HETATM   15  C   UNL     1      -9.120   7.727  68.197  1.00  0.00    -0.129 C  
HETATM   16  C   UNL     1      -8.625   5.299  68.307  1.00  0.00    -0.099 C  
HETATM   17  C   UNL     1     -10.755   6.020  67.263  1.00  0.00    -0.400 C  
HETATM   18  C   UNL     1      -9.734   6.335  68.350  1.00  0.00    -0.130 C  
HETATM   19  O   UNL     1      -8.198   4.777  67.287  1.00  0.00    -0.105 OA 
BRANCH  16  20
HETATM   20  O   UNL     1      -8.218   5.005  69.573  1.00  0.00    -0.083 OA 
BRANCH  20  21
HETATM   21  C   UNL     1      -6.920   5.503  69.925  1.00  0.00    -0.061 C  
HETATM   22  C   UNL     1      -6.105   4.334  70.449  1.00  0.00    -0.018 C  
ENDBRANCH  20  21
ENDBRANCH  16  20
ENDBRANCH   1  15
BRANCH   1  23
HETATM   23  N   UNL     1     -11.111   8.554  69.370  1.00  0.00    -0.432 N  
HETATM   24  C   UNL     1     -11.460   9.372  70.411  1.00  0.00    -0.223 C  
HETATM   25  H   UNL     1     -11.581   7.654  69.277  1.00  0.00     0.000 HD 
HETATM   26  O   UNL     1     -10.938  10.456  70.666  1.00  0.00    -0.289 OA 
BRANCH  24  27
HETATM   27  C   UNL     1     -12.463   8.790  71.371  1.00  0.00    -0.348 C  
BRANCH  27  28
HETATM   28  C   UNL     1     -11.727   8.214  72.565  1.00  0.00    -0.457 C  
HETATM   29  O   UNL     1     -10.483   6.340  73.357  1.00  0.00    -0.221 OA 
HETATM   30  C   UNL     1     -11.181   6.804  72.462  1.00  0.00    -0.268 C  
HETATM   31  O   UNL     1     -11.479   6.076  71.376  1.00  0.00    -0.277 OA 
ENDBRANCH  27  28
ENDBRANCH  24  27
ENDBRANCH   1  23
TORSDOF 9
ENDMDL
MODEL      137
REMARK 921   NORMALIZED FREE ENERGY PREDICTED BY IDOCK:   -4.88 KCAL/MOL
REMARK 922        TOTAL FREE ENERGY PREDICTED BY IDOCK:   -9.27 KCAL/MOL
REMARK 923 INTER-LIGAND FREE ENERGY PREDICTED BY IDOCK:   -7.92 KCAL/MOL
REMARK 924 INTRA-LIGAND FREE ENERGY PREDICTED BY IDOCK:   -1.35 KCAL/MOL
REMARK 927      BINDING AFFINITY PREDICTED BY RF-SCORE:    0.00 PKD
ROOT
HETATM    1  C   UNL     1     -11.985  11.328  69.620  1.00  0.00    -0.353 C  
ENDROOT
BRANCH   1   2
HETATM    2  C   UNL     1     -11.840  10.642  71.007  1.00  0.00    -0.396 C  
BRANCH   2   3
HETATM    3  C   UNL     1     -11.227   9.261  71.094  1.00  0.00    -0.413 A  
HETATM    4  C   UNL     1     -10.108   6.641  70.888  1.00  0.00    -0.208 A  
HETATM    5  C   UNL     1      -9.885   9.024  71.386  1.00  0.00    -0.381 A  
HETATM    6  C   UNL     1      -9.334   7.753  71.246  1.00  0.00    -0.171 A  
HETATM    7  C   UNL     1     -12.039   8.150  70.833  1.00  0.00    -0.158 A  
HETATM    8  C   UNL     1     -11.492   6.862  70.750  1.00  0.00    -0.381 A  
BRANCH   4   9
HETATM    9  C   UNL     1      -9.478   5.334  70.611  1.00  0.00    -0.222 A  
HETATM   10  C   UNL     1      -8.426   4.838  71.405  1.00  0.00    -0.113 A  
HETATM   11  C   UNL     1      -7.753   3.658  71.079  1.00  0.00    -0.047 A  
HETATM   12  C   UNL     1      -8.137   2.925  69.963  1.00  0.00    -0.056 A  
HETATM   13  C   UNL     1      -9.190   3.373  69.170  1.00  0.00    -0.227 A  
HETATM   14  C   UNL     1      -9.847   4.567  69.490  1.00  0.00    -0.277 A  
ENDBRANCH   4   9
ENDBRANCH   2   3
ENDBRANCH   1   2
BRANCH   1  15
HETATM   15  C   UNL     1     -11.558  10.472  68.402  1.00  0.00    -0.205 C  
HETATM   16  C   UNL     1     -10.102  10.081  66.433  1.00  0.00    -0.241 C  
HETATM   17  C   UNL     1      -9.040  10.771  68.563  1.00  0.00    -0.170 C  
HETATM   18  C   UNL     1     -10.280  10.914  67.690  1.00  0.00    -0.214 C  
HETATM   19  O   UNL     1      -9.517   9.008  66.385  1.00  0.00    -0.187 OA 
BRANCH  16  20
HETATM   20  O   UNL     1     -10.646  10.730  65.366  1.00  0.00    -0.242 OA 
BRANCH  20  21
HETATM   21  C   UNL     1      -9.914  10.605  64.139  1.00  0.00    -0.342 C  
HETATM   22  C   UNL     1     -10.253  11.808  63.277  1.00  0.00    -0.452 C  
ENDBRANCH  20  21
ENDBRANCH  16  20
ENDBRANCH   1  15
BRANCH   1  23
HETATM   23  N   UNL     1     -11.293  12.619  69.562  1.00  0.00    -0.448 N  
HETATM   24  C   UNL     1     -11.866  13.786  69.989  1.00  0.00    -0.307 C  
HETATM   25  H   UNL     1     -10.344  12.649  69.188  1.00  0.00     0.000 HD 
HETATM   26  O   UNL     1     -13.015  13.897  70.413  1.00  0.00    -0.212 OA 
BRANCH  24  27
HETATM   27  C   UNL     1     -11.036  15.023  69.770  1.00  0.00    -0.297 C  
BRANCH  27  28
HETATM   28  C   UNL     1     -10.069  14.772  68.629  1.00  0.00    -0.238 C  
HETATM   29  O   UNL     1      -9.884  14.497  66.267  1.00  0.00    -0.276 OA 
HETATM   30  C   UNL     1     -10.632  14.590  67.235  1.00  0.00    -0.280 C  
HETATM   31  O   UNL     1     -11.964  14.529  67.081  1.00  0.00    -0.406 OA 
ENDBRANCH  27  28
ENDBRANCH  24  27
ENDBRANCH   1  23
TORSDOF 9
ENDMDL
MODEL      138
REMARK 921   NORMALIZED FREE ENERGY PREDICTED BY IDOCK:   -4.86 KCAL/MOL
REMARK 922        TOTAL FREE ENERGY PREDICTED BY IDOCK:   -9.24 KCAL/MOL
REMARK 923 INTER-LIGAND FREE ENERGY PREDICTED BY IDOCK:   -7.68 KCAL/MOL
REMARK 924 INTRA-LIGAND FREE ENERGY PREDICTED BY IDOCK:   -1.56 KCAL/MOL
REMARK 927      BINDING AFFINITY PREDICTED BY RF-SCORE:    0.00 PKD
ROOT
HETATM    1  C   UNL     1     -10.343   9.240  67.534  1.00  0.00    -0.262 C  
ENDROOT
BRANCH   1   2
HETATM    2  C   UNL     1     -10.613  10.314  66.442  1.00  0.00    -0.177 C  
BRANCH   2   3
HETATM    3  C   UNL     1     -10.443  11.778  66.781  1.00  0.00    -0.260 A  
HETATM    4  C   UNL     1     -10.033  14.591  67.063  1.00  0.00    -0.255 A  
HETATM    5  C   UNL     1     -11.502  12.637  67.069  1.00  0.00    -0.406 A  
HETATM    6  C   UNL     1     -11.305  14.012  67.167  1.00  0.00    -0.348 A  
HETATM    7  C   UNL     1      -9.152  12.322  66.774  1.00  0.00    -0.211 A  
HETATM    8  C   UNL     1      -8.951  13.700  66.931  1.00  0.00    -0.229 A  
BRANCH   4   9
HETATM    9  C   UNL     1      -9.867  16.059  67.031  1.00  0.00    -0.240 A  
HETATM   10  C   UNL     1     -10.727  16.916  67.745  1.00  0.00    -0.315 A  
HETATM   11  C   UNL     1     -10.644  18.305  67.627  1.00  0.00    -0.427 A  
HETATM   12  C   UNL     1      -9.674  18.876  66.811  1.00  0.00    -0.362 A  
HETATM   13  C   UNL     1      -8.792  18.059  66.111  1.00  0.00    -0.111 A  
HETATM   14  C   UNL     1      -8.893  16.666  66.217  1.00  0.00    -0.348 A  
ENDBRANCH   4   9
ENDBRANCH   2   3
ENDBRANCH   1   2
BRANCH   1  15
HETATM   15  C   UNL     1     -10.548   7.771  67.092  1.00  0.00    -0.401 C  
HETATM   16  C   UNL     1      -9.647   5.518  66.574  1.00  0.00    -0.155 C  
HETATM   17  C   UNL     1      -8.876   6.647  68.641  1.00  0.00    -0.122 C  
HETATM   18  C   UNL     1      -9.323   6.863  67.200  1.00  0.00    -0.162 C  
HETATM   19  O   UNL     1     -10.148   4.574  67.168  1.00  0.00    -0.184 OA 
BRANCH  16  20
HETATM   20  O   UNL     1      -9.252   5.509  65.270  1.00  0.00    -0.084 OA 
BRANCH  20  21
HETATM   21  C   UNL     1      -9.503   4.284  64.567  1.00  0.00    -0.156 C  
HETATM   22  C   UNL     1      -8.162   3.622  64.303  1.00  0.00    -0.090 C  
ENDBRANCH  20  21
ENDBRANCH  16  20
ENDBRANCH   1  15
BRANCH   1  23
HETATM   23  N   UNL     1     -11.115   9.483  68.756  1.00  0.00    -0.456 N  
HETATM   24  C   UNL     1     -10.527   9.781  69.956  1.00  0.00    -0.270 C  
HETATM   25  H   UNL     1     -12.133   9.428  68.711  1.00  0.00     0.000 HD 
HETATM   26  O   UNL     1      -9.315   9.829  70.158  1.00  0.00    -0.234 OA 
BRANCH  24  27
HETATM   27  C   UNL     1     -11.477   9.910  71.118  1.00  0.00    -0.459 C  
BRANCH  27  28
HETATM   28  C   UNL     1     -12.497   8.791  71.047  1.00  0.00    -0.152 C  
HETATM   29  O   UNL     1     -12.971   6.552  71.719  1.00  0.00    -0.262 OA 
HETATM   30  C   UNL     1     -12.137   7.449  71.652  1.00  0.00    -0.317 C  
HETATM   31  O   UNL     1     -10.890   7.263  72.108  1.00  0.00    -0.217 OA 
ENDBRANCH  27  28
ENDBRANCH  24  27
ENDBRANCH   1  23
TORSDOF 9
ENDMDL
MODEL      139
REMARK 921   NORMALIZED FREE ENERGY PREDICTED BY IDOCK:   -4.84 KCAL/MOL
REMARK 922        TOTAL FREE ENERGY PREDICTED BY IDOCK:   -9.21 KCAL/MOL
REMARK 923 INTER-LIGAND FREE ENERGY PREDICTED BY IDOCK:   -7.16 KCAL/MOL
REMARK 924 INTRA-LIGAND FREE ENERGY PREDICTED BY IDOCK:   -2.05 KCAL/MOL
REMARK 927      BINDING AFFINITY PREDICTED BY RF-SCORE:    0.00 PKD
ROOT
HETATM    1  C   UNL     1     -10.892  10.643  68.018  1.00  0.00    -0.261 C  
ENDROOT
BRANCH   1   2
HETATM    2  C   UNL     1     -10.708   9.697  66.798  1.00  0.00    -0.149 C  
BRANCH   2   3
HETATM    3  C   UNL     1     -10.190   8.293  67.017  1.00  0.00    -0.380 A  
HETATM    4  C   UNL     1      -9.133   5.750  67.776  1.00  0.00    -0.106 A  
HETATM    5  C   UNL     1     -11.009   7.169  67.111  1.00  0.00    -0.342 A  
HETATM    6  C   UNL     1     -10.498   5.940  67.520  1.00  0.00    -0.306 A  
HETATM    7  C   UNL     1      -8.811   8.103  67.169  1.00  0.00    -0.138 A  
HETATM    8  C   UNL     1      -8.291   6.851  67.524  1.00  0.00    -0.123 A  
BRANCH   4   9
HETATM    9  C   UNL     1      -8.636   4.479  68.340  1.00  0.00    -0.104 A  
HETATM   10  C   UNL     1      -7.420   4.410  69.048  1.00  0.00    -0.056 A  
HETATM   11  C   UNL     1      -6.892   3.193  69.484  1.00  0.00    -0.037 A  
HETATM   12  C   UNL     1      -7.584   2.011  69.250  1.00  0.00    -0.043 A  
HETATM   13  C   UNL     1      -8.802   2.046  68.576  1.00  0.00    -0.146 A  
HETATM   14  C   UNL     1      -9.316   3.266  68.123  1.00  0.00    -0.244 A  
ENDBRANCH   4   9
ENDBRANCH   2   3
ENDBRANCH   1   2
BRANCH   1  15
HETATM   15  C   UNL     1     -10.096  11.970  67.962  1.00  0.00    -0.199 C  
HETATM   16  C   UNL     1      -9.963  14.398  67.473  1.00  0.00    -0.224 C  
HETATM   17  C   UNL     1     -11.909  13.561  68.760  1.00  0.00    -0.390 C  
HETATM   18  C   UNL     1     -10.912  13.226  67.658  1.00  0.00    -0.281 C  
HETATM   19  O   UNL     1      -9.563  15.120  68.375  1.00  0.00    -0.202 OA 
BRANCH  16  20
HETATM   20  O   UNL     1      -9.669  14.549  66.151  1.00  0.00    -0.294 OA 
BRANCH  20  21
HETATM   21  C   UNL     1     -10.044  15.813  65.586  1.00  0.00    -0.371 C  
HETATM   22  C   UNL     1     -11.162  15.557  64.591  1.00  0.00    -0.381 C  
ENDBRANCH  20  21
ENDBRANCH  16  20
ENDBRANCH   1  15
BRANCH   1  23
HETATM   23  N   UNL     1     -10.612   9.971  69.290  1.00  0.00    -0.213 N  
HETATM   24  C   UNL     1     -11.502   9.954  70.330  1.00  0.00    -0.301 C  
HETATM   25  H   UNL     1      -9.716   9.497  69.406  1.00  0.00     0.000 HD 
HETATM   26  O   UNL     1     -12.591  10.526  70.340  1.00  0.00    -0.320 OA 
BRANCH  24  27
HETATM   27  C   UNL     1     -11.003   9.291  71.587  1.00  0.00    -0.433 C  
BRANCH  27  28
HETATM   28  C   UNL     1     -10.390   7.952  71.227  1.00  0.00    -0.222 C  
HETATM   29  O   UNL     1     -10.850   5.637  70.884  1.00  0.00    -0.265 OA 
HETATM   30  C   UNL     1     -11.271   6.720  71.274  1.00  0.00    -0.276 C  
HETATM   31  O   UNL     1     -12.518   6.839  71.754  1.00  0.00    -0.353 OA 
ENDBRANCH  27  28
ENDBRANCH  24  27
ENDBRANCH   1  23
TORSDOF 9
ENDMDL
MODEL      140
REMARK 921   NORMALIZED FREE ENERGY PREDICTED BY IDOCK:   -4.84 KCAL/MOL
REMARK 922        TOTAL FREE ENERGY PREDICTED BY IDOCK:   -9.21 KCAL/MOL
REMARK 923 INTER-LIGAND FREE ENERGY PREDICTED BY IDOCK:   -7.84 KCAL/MOL
REMARK 924 INTRA-LIGAND FREE ENERGY PREDICTED BY IDOCK:   -1.36 KCAL/MOL
REMARK 927      BINDING AFFINITY PREDICTED BY RF-SCORE:    0.00 PKD
ROOT
HETATM    1  C   UNL     1     -10.644  12.944  67.819  1.00  0.00    -0.222 C  
ENDROOT
BRANCH   1   2
HETATM    2  C   UNL     1     -10.745  11.876  68.944  1.00  0.00    -0.236 C  
BRANCH   2   3
HETATM    3  C   UNL     1     -10.190  10.489  68.705  1.00  0.00    -0.197 A  
HETATM    4  C   UNL     1      -9.432   7.819  68.028  1.00  0.00    -0.153 A  
HETATM    5  C   UNL     1      -9.037  10.231  67.966  1.00  0.00    -0.132 A  
HETATM    6  C   UNL     1      -8.692   8.931  67.604  1.00  0.00    -0.124 A  
HETATM    7  C   UNL     1     -10.886   9.390  69.222  1.00  0.00    -0.190 A  
HETATM    8  C   UNL     1     -10.504   8.080  68.905  1.00  0.00    -0.207 A  
BRANCH   4   9
HETATM    9  C   UNL     1      -9.130   6.466  67.519  1.00  0.00    -0.114 A  
HETATM   10  C   UNL     1      -8.033   6.225  66.668  1.00  0.00    -0.108 A  
HETATM   11  C   UNL     1      -7.810   4.971  66.095  1.00  0.00    -0.099 A  
HETATM   12  C   UNL     1      -8.665   3.914  66.382  1.00  0.00    -0.115 A  
HETATM   13  C   UNL     1      -9.745   4.111  67.238  1.00  0.00    -0.214 A  
HETATM   14  C   UNL     1      -9.975   5.375  67.794  1.00  0.00    -0.198 A  
ENDBRANCH   4   9
ENDBRANCH   2   3
ENDBRANCH   1   2
BRANCH   1  15
HETATM   15  C   UNL     1     -11.015  14.389  68.233  1.00  0.00    -0.259 C  
HETATM   16  C   UNL     1     -10.887  16.286  69.826  1.00  0.00    -0.356 C  
HETATM   17  C   UNL     1      -8.790  15.103  69.234  1.00  0.00    -0.207 C  
HETATM   18  C   UNL     1     -10.288  14.939  69.461  1.00  0.00    -0.168 C  
HETATM   19  O   UNL     1     -10.514  17.360  69.375  1.00  0.00    -0.303 OA 
BRANCH  16  20
HETATM   20  O   UNL     1     -11.861  16.120  70.763  1.00  0.00    -0.369 OA 
BRANCH  20  21
HETATM   21  C   UNL     1     -11.479  15.343  71.907  1.00  0.00    -0.433 C  
HETATM   22  C   UNL     1     -12.694  14.547  72.348  1.00  0.00    -0.414 C  
ENDBRANCH  20  21
ENDBRANCH  16  20
ENDBRANCH   1  15
BRANCH   1  23
HETATM   23  N   UNL     1     -11.419  12.575  66.630  1.00  0.00    -0.338 N  
HETATM   24  C   UNL     1     -10.842  12.055  65.502  1.00  0.00    -0.292 C  
HETATM   25  H   UNL     1     -12.430  12.711  66.643  1.00  0.00     0.000 HD 
HETATM   26  O   UNL     1      -9.634  11.888  65.338  1.00  0.00    -0.232 OA 
BRANCH  24  27
HETATM   27  C   UNL     1     -11.785  11.820  64.353  1.00  0.00    -0.301 C  
BRANCH  27  28
HETATM   28  C   UNL     1     -11.902  13.096  63.542  1.00  0.00    -0.539 C  
HETATM   29  O   UNL     1     -12.661  15.357  63.582  1.00  0.00    -0.508 OA 
HETATM   30  C   UNL     1     -12.639  14.271  64.151  1.00  0.00    -0.057 C  
HETATM   31  O   UNL     1     -13.269  14.098  65.323  1.00  0.00    -0.760 OA 
ENDBRANCH  27  28
ENDBRANCH  24  27
ENDBRANCH   1  23
TORSDOF 9
ENDMDL
MODEL      141
REMARK 921   NORMALIZED FREE ENERGY PREDICTED BY IDOCK:   -4.84 KCAL/MOL
REMARK 922        TOTAL FREE ENERGY PREDICTED BY IDOCK:   -9.20 KCAL/MOL
REMARK 923 INTER-LIGAND FREE ENERGY PREDICTED BY IDOCK:   -7.67 KCAL/MOL
REMARK 924 INTRA-LIGAND FREE ENERGY PREDICTED BY IDOCK:   -1.54 KCAL/MOL
REMARK 927      BINDING AFFINITY PREDICTED BY RF-SCORE:    0.00 PKD
ROOT
HETATM    1  C   UNL     1      -8.385  13.234  67.242  1.00  0.00    -0.177 C  
ENDROOT
BRANCH   1   2
HETATM    2  C   UNL     1      -7.912  12.524  68.541  1.00  0.00    -0.097 C  
BRANCH   2   3
HETATM    3  C   UNL     1      -8.007  11.017  68.642  1.00  0.00    -0.143 A  
HETATM    4  C   UNL     1      -8.464   8.198  68.587  1.00  0.00    -0.127 A  
HETATM    5  C   UNL     1      -7.060  10.142  68.113  1.00  0.00    -0.079 A  
HETATM    6  C   UNL     1      -7.302   8.772  68.052  1.00  0.00    -0.088 A  
HETATM    7  C   UNL     1      -9.126  10.457  69.270  1.00  0.00    -0.188 A  
HETATM    8  C   UNL     1      -9.340   9.072  69.259  1.00  0.00    -0.150 A  
BRANCH   4   9
HETATM    9  C   UNL     1      -8.764   6.766  68.387  1.00  0.00    -0.123 A  
HETATM   10  C   UNL     1      -9.060   6.244  67.112  1.00  0.00    -0.119 A  
HETATM   11  C   UNL     1      -9.455   4.915  66.936  1.00  0.00    -0.156 A  
HETATM   12  C   UNL     1      -9.534   4.063  68.031  1.00  0.00    -0.220 A  
HETATM   13  C   UNL     1      -9.225   4.540  69.302  1.00  0.00    -0.195 A  
HETATM   14  C   UNL     1      -8.849   5.878  69.475  1.00  0.00    -0.123 A  
ENDBRANCH   4   9
ENDBRANCH   2   3
ENDBRANCH   1   2
BRANCH   1  15
HETATM   15  C   UNL     1      -7.967  14.719  67.100  1.00  0.00    -0.205 C  
HETATM   16  C   UNL     1      -8.497  17.139  67.211  1.00  0.00    -0.196 C  
HETATM   17  C   UNL     1      -9.239  15.685  69.077  1.00  0.00    -0.243 C  
HETATM   18  C   UNL     1      -8.991  15.750  67.574  1.00  0.00    -0.201 C  
HETATM   19  O   UNL     1      -7.776  17.829  67.917  1.00  0.00    -0.215 OA 
BRANCH  16  20
HETATM   20  O   UNL     1      -9.018  17.515  66.010  1.00  0.00    -0.497 OA 
BRANCH  20  21
HETATM   21  C   UNL     1     -10.373  17.983  66.054  1.00  0.00    -0.331 C  
HETATM   22  C   UNL     1     -10.334  19.499  66.134  1.00  0.00    -0.614 C  
ENDBRANCH  20  21
ENDBRANCH  16  20
ENDBRANCH   1  15
BRANCH   1  23
HETATM   23  N   UNL     1      -9.834  13.126  67.044  1.00  0.00    -0.238 N  
HETATM   24  C   UNL     1     -10.396  12.255  66.150  1.00  0.00    -0.242 C  
HETATM   25  H   UNL     1     -10.449  13.725  67.596  1.00  0.00     0.000 HD 
HETATM   26  O   UNL     1      -9.770  11.516  65.392  1.00  0.00    -0.224 OA 
BRANCH  24  27
HETATM   27  C   UNL     1     -11.893  12.348  66.023  1.00  0.00    -0.459 C  
BRANCH  27  28
HETATM   28  C   UNL     1     -12.265  13.756  65.601  1.00  0.00    -0.484 C  
HETATM   29  O   UNL     1     -12.806  15.144  63.738  1.00  0.00    -0.636 OA 
HETATM   30  C   UNL     1     -12.398  14.053  64.121  1.00  0.00    -0.332 C  
HETATM   31  O   UNL     1     -12.058  13.099  63.241  1.00  0.00    -0.563 OA 
ENDBRANCH  27  28
ENDBRANCH  24  27
ENDBRANCH   1  23
TORSDOF 9
ENDMDL
MODEL      142
REMARK 921   NORMALIZED FREE ENERGY PREDICTED BY IDOCK:   -4.83 KCAL/MOL
REMARK 922        TOTAL FREE ENERGY PREDICTED BY IDOCK:   -9.19 KCAL/MOL
REMARK 923 INTER-LIGAND FREE ENERGY PREDICTED BY IDOCK:   -7.70 KCAL/MOL
REMARK 924 INTRA-LIGAND FREE ENERGY PREDICTED BY IDOCK:   -1.50 KCAL/MOL
REMARK 927      BINDING AFFINITY PREDICTED BY RF-SCORE:    0.00 PKD
ROOT
HETATM    1  C   UNL     1     -10.100  10.852  67.442  1.00  0.00    -0.191 C  
ENDROOT
BRANCH   1   2
HETATM    2  C   UNL     1     -10.325   9.499  68.174  1.00  0.00    -0.251 C  
BRANCH   2   3
HETATM    3  C   UNL     1      -9.875   8.213  67.516  1.00  0.00    -0.230 A  
HETATM    4  C   UNL     1      -9.276   5.861  66.012  1.00  0.00    -0.143 A  
HETATM    5  C   UNL     1      -8.644   8.055  66.883  1.00  0.00    -0.130 A  
HETATM    6  C   UNL     1      -8.370   6.924  66.118  1.00  0.00    -0.130 A  
HETATM    7  C   UNL     1     -10.752   7.122  67.507  1.00  0.00    -0.344 A  
HETATM    8  C   UNL     1     -10.450   5.961  66.783  1.00  0.00    -0.344 A  
BRANCH   4   9
HETATM    9  C   UNL     1      -9.024   4.737  65.086  1.00  0.00    -0.152 A  
HETATM   10  C   UNL     1      -9.247   3.400  65.468  1.00  0.00    -0.153 A  
HETATM   11  C   UNL     1      -8.904   2.331  64.637  1.00  0.00    -0.115 A  
HETATM   12  C   UNL     1      -8.353   2.574  63.385  1.00  0.00    -0.085 A  
HETATM   13  C   UNL     1      -8.142   3.885  62.965  1.00  0.00    -0.080 A  
HETATM   14  C   UNL     1      -8.469   4.952  63.811  1.00  0.00    -0.133 A  
ENDBRANCH   4   9
ENDBRANCH   2   3
ENDBRANCH   1   2
BRANCH   1  15
HETATM   15  C   UNL     1     -10.308  12.122  68.303  1.00  0.00    -0.218 C  
HETATM   16  C   UNL     1     -11.794  13.814  69.343  1.00  0.00    -0.341 C  
HETATM   17  C   UNL     1     -12.410  11.422  69.549  1.00  0.00    -0.211 C  
HETATM   18  C   UNL     1     -11.758  12.464  68.649  1.00  0.00    -0.372 C  
HETATM   19  O   UNL     1     -11.679  13.981  70.549  1.00  0.00    -0.274 OA 
BRANCH  16  20
HETATM   20  O   UNL     1     -12.022  14.798  68.429  1.00  0.00    -0.303 OA 
BRANCH  20  21
HETATM   21  C   UNL     1     -11.439  16.070  68.746  1.00  0.00    -0.375 C  
HETATM   22  C   UNL     1      -9.991  16.038  68.291  1.00  0.00    -0.220 C  
ENDBRANCH  20  21
ENDBRANCH  16  20
ENDBRANCH   1  15
BRANCH   1  23
HETATM   23  N   UNL     1     -10.904  10.966  66.222  1.00  0.00    -0.179 N  
HETATM   24  C   UNL     1     -10.367  11.311  65.011  1.00  0.00    -0.301 C  
HETATM   25  H   UNL     1     -11.905  10.780  66.277  1.00  0.00     0.000 HD 
HETATM   26  O   UNL     1      -9.189  11.609  64.817  1.00  0.00    -0.061 OA 
BRANCH  24  27
HETATM   27  C   UNL     1     -11.362  11.463  63.891  1.00  0.00    -0.302 C  
BRANCH  27  28
HETATM   28  C   UNL     1     -11.447  12.926  63.503  1.00  0.00    -0.470 C  
HETATM   29  O   UNL     1     -12.277  15.063  64.161  1.00  0.00    -0.589 OA 
HETATM   30  C   UNL     1     -12.272  13.855  64.371  1.00  0.00    -0.413 C  
HETATM   31  O   UNL     1     -12.996  13.329  65.369  1.00  0.00    -0.588 OA 
ENDBRANCH  27  28
ENDBRANCH  24  27
ENDBRANCH   1  23
TORSDOF 9
ENDMDL
MODEL      143
REMARK 921   NORMALIZED FREE ENERGY PREDICTED BY IDOCK:   -4.82 KCAL/MOL
REMARK 922        TOTAL FREE ENERGY PREDICTED BY IDOCK:   -9.18 KCAL/MOL
REMARK 923 INTER-LIGAND FREE ENERGY PREDICTED BY IDOCK:   -7.08 KCAL/MOL
REMARK 924 INTRA-LIGAND FREE ENERGY PREDICTED BY IDOCK:   -2.10 KCAL/MOL
REMARK 927      BINDING AFFINITY PREDICTED BY RF-SCORE:    0.00 PKD
ROOT
HETATM    1  C   UNL     1      -8.350   8.593  67.538  1.00  0.00    -0.120 C  
ENDROOT
BRANCH   1   2
HETATM    2  C   UNL     1      -9.901   8.564  67.430  1.00  0.00    -0.244 C  
BRANCH   2   3
HETATM    3  C   UNL     1     -10.719   9.579  68.198  1.00  0.00    -0.247 A  
HETATM    4  C   UNL     1     -11.948  11.577  69.828  1.00  0.00    -0.415 A  
HETATM    5  C   UNL     1     -11.203  10.764  67.646  1.00  0.00    -0.370 A  
HETATM    6  C   UNL     1     -11.766  11.753  68.450  1.00  0.00    -0.389 A  
HETATM    7  C   UNL     1     -10.981   9.342  69.553  1.00  0.00    -0.169 A  
HETATM    8  C   UNL     1     -11.601  10.316  70.348  1.00  0.00    -0.411 A  
BRANCH   4   9
HETATM    9  C   UNL     1     -12.417  12.689  70.680  1.00  0.00    -0.323 A  
HETATM   10  C   UNL     1     -13.265  12.468  71.783  1.00  0.00    -0.444 A  
HETATM   11  C   UNL     1     -13.801  13.526  72.521  1.00  0.00    -0.624 A  
HETATM   12  C   UNL     1     -13.478  14.837  72.192  1.00  0.00    -0.491 A  
HETATM   13  C   UNL     1     -12.624  15.090  71.123  1.00  0.00    -0.416 A  
HETATM   14  C   UNL     1     -12.105  14.027  70.374  1.00  0.00    -0.426 A  
ENDBRANCH   4   9
ENDBRANCH   2   3
ENDBRANCH   1   2
BRANCH   1  15
HETATM   15  C   UNL     1      -7.734   7.626  68.579  1.00  0.00    -0.119 C  
HETATM   16  C   UNL     1      -7.503   5.360  69.560  1.00  0.00    -0.069 C  
HETATM   17  C   UNL     1      -7.407   5.590  67.094  1.00  0.00    -0.080 C  
HETATM   18  C   UNL     1      -8.032   6.141  68.370  1.00  0.00    -0.108 C  
HETATM   19  O   UNL     1      -6.369   4.913  69.652  1.00  0.00    -0.028 OA 
BRANCH  16  20
HETATM   20  O   UNL     1      -8.494   5.192  70.479  1.00  0.00    -0.106 OA 
BRANCH  20  21
HETATM   21  C   UNL     1      -8.336   5.946  71.689  1.00  0.00    -0.127 C  
HETATM   22  C   UNL     1      -9.707   6.455  72.096  1.00  0.00    -0.161 C  
ENDBRANCH  20  21
ENDBRANCH  16  20
ENDBRANCH   1  15
BRANCH   1  23
HETATM   23  N   UNL     1      -7.834   9.944  67.776  1.00  0.00    -0.094 N  
HETATM   24  C   UNL     1      -7.412  10.764  66.764  1.00  0.00    -0.129 C  
HETATM   25  H   UNL     1      -7.786  10.287  68.736  1.00  0.00     0.000 HD 
HETATM   26  O   UNL     1      -7.370  10.457  65.574  1.00  0.00    -0.145 OA 
BRANCH  24  27
HETATM   27  C   UNL     1      -6.832  12.080  67.209  1.00  0.00    -0.150 C  
BRANCH  27  28
HETATM   28  C   UNL     1      -7.703  12.656  68.309  1.00  0.00    -0.135 C  
HETATM   29  O   UNL     1      -9.376  14.281  68.808  1.00  0.00    -0.189 OA 
HETATM   30  C   UNL     1      -8.574  13.853  67.986  1.00  0.00    -0.178 C  
HETATM   31  O   UNL     1      -8.446  14.436  66.784  1.00  0.00    -0.172 OA 
ENDBRANCH  27  28
ENDBRANCH  24  27
ENDBRANCH   1  23
TORSDOF 9
ENDMDL
MODEL      144
REMARK 921   NORMALIZED FREE ENERGY PREDICTED BY IDOCK:   -4.81 KCAL/MOL
REMARK 922        TOTAL FREE ENERGY PREDICTED BY IDOCK:   -9.17 KCAL/MOL
REMARK 923 INTER-LIGAND FREE ENERGY PREDICTED BY IDOCK:   -7.62 KCAL/MOL
REMARK 924 INTRA-LIGAND FREE ENERGY PREDICTED BY IDOCK:   -1.55 KCAL/MOL
REMARK 927      BINDING AFFINITY PREDICTED BY RF-SCORE:    0.00 PKD
ROOT
HETATM    1  C   UNL     1     -11.027  13.505  68.344  1.00  0.00    -0.266 C  
ENDROOT
BRANCH   1   2
HETATM    2  C   UNL     1     -11.392  12.130  67.718  1.00  0.00    -0.371 C  
BRANCH   2   3
HETATM    3  C   UNL     1     -10.913  10.859  68.384  1.00  0.00    -0.288 A  
HETATM    4  C   UNL     1     -10.363   8.352  69.638  1.00  0.00    -0.218 A  
HETATM    5  C   UNL     1     -10.172   9.873  67.734  1.00  0.00    -0.241 A  
HETATM    6  C   UNL     1      -9.939   8.637  68.333  1.00  0.00    -0.204 A  
HETATM    7  C   UNL     1     -11.257  10.632  69.722  1.00  0.00    -0.363 A  
HETATM    8  C   UNL     1     -10.971   9.408  70.343  1.00  0.00    -0.317 A  
BRANCH   4   9
HETATM    9  C   UNL     1     -10.229   6.992  70.199  1.00  0.00    -0.206 A  
HETATM   10  C   UNL     1     -10.314   6.753  71.585  1.00  0.00    -0.215 A  
HETATM   11  C   UNL     1     -10.076   5.489  72.128  1.00  0.00    -0.231 A  
HETATM   12  C   UNL     1      -9.773   4.419  71.294  1.00  0.00    -0.252 A  
HETATM   13  C   UNL     1      -9.705   4.615  69.917  1.00  0.00    -0.279 A  
HETATM   14  C   UNL     1      -9.925   5.889  69.380  1.00  0.00    -0.229 A  
ENDBRANCH   4   9
ENDBRANCH   2   3
ENDBRANCH   1   2
BRANCH   1  15
HETATM   15  C   UNL     1      -9.591  13.622  68.912  1.00  0.00     0.090 C  
HETATM   16  C   UNL     1      -7.145  13.872  68.583  1.00  0.00    -0.110 C  
HETATM   17  C   UNL     1      -8.663  15.357  67.304  1.00  0.00    -0.215 C  
HETATM   18  C   UNL     1      -8.498  13.964  67.899  1.00  0.00    -0.177 C  
HETATM   19  O   UNL     1      -6.601  14.791  69.178  1.00  0.00    -0.100 OA 
BRANCH  16  20
HETATM   20  O   UNL     1      -6.614  12.632  68.391  1.00  0.00    -0.070 OA 
BRANCH  20  21
HETATM   21  C   UNL     1      -6.562  12.198  67.025  1.00  0.00    -0.080 C  
HETATM   22  C   UNL     1      -5.146  11.725  66.746  1.00  0.00    -0.078 C  
ENDBRANCH  20  21
ENDBRANCH  16  20
ENDBRANCH   1  15
BRANCH   1  23
HETATM   23  N   UNL     1     -11.983  13.918  69.376  1.00  0.00    -0.336 N  
HETATM   24  C   UNL     1     -12.157  15.226  69.744  1.00  0.00    -0.328 C  
HETATM   25  H   UNL     1     -12.542  13.202  69.840  1.00  0.00     0.000 HD 
HETATM   26  O   UNL     1     -11.514  16.177  69.302  1.00  0.00    -0.334 OA 
BRANCH  24  27
HETATM   27  C   UNL     1     -13.118  15.447  70.881  1.00  0.00    -0.528 C  
BRANCH  27  28
HETATM   28  C   UNL     1     -12.730  14.545  72.037  1.00  0.00    -0.410 C  
HETATM   29  O   UNL     1     -12.052  14.504  74.323  1.00  0.00    -0.334 OA 
HETATM   30  C   UNL     1     -12.267  15.188  73.328  1.00  0.00    -0.429 C  
HETATM   31  O   UNL     1     -12.094  16.518  73.358  1.00  0.00    -0.498 OA 
ENDBRANCH  27  28
ENDBRANCH  24  27
ENDBRANCH   1  23
TORSDOF 9
ENDMDL
MODEL      145
REMARK 921   NORMALIZED FREE ENERGY PREDICTED BY IDOCK:   -4.81 KCAL/MOL
REMARK 922        TOTAL FREE ENERGY PREDICTED BY IDOCK:   -9.16 KCAL/MOL
REMARK 923 INTER-LIGAND FREE ENERGY PREDICTED BY IDOCK:   -7.53 KCAL/MOL
REMARK 924 INTRA-LIGAND FREE ENERGY PREDICTED BY IDOCK:   -1.63 KCAL/MOL
REMARK 927      BINDING AFFINITY PREDICTED BY RF-SCORE:    0.00 PKD
ROOT
HETATM    1  C   UNL     1      -9.551  10.799  66.693  1.00  0.00    -0.178 C  
ENDROOT
BRANCH   1   2
HETATM    2  C   UNL     1     -10.566  11.693  67.459  1.00  0.00    -0.245 C  
BRANCH   2   3
HETATM    3  C   UNL     1     -10.570  13.187  67.219  1.00  0.00    -0.250 A  
HETATM    4  C   UNL     1     -10.490  16.041  67.125  1.00  0.00    -0.308 A  
HETATM    5  C   UNL     1      -9.589  13.859  66.492  1.00  0.00    -0.299 A  
HETATM    6  C   UNL     1      -9.529  15.250  66.480  1.00  0.00    -0.308 A  
HETATM    7  C   UNL     1     -11.595  13.954  67.785  1.00  0.00    -0.381 A  
HETATM    8  C   UNL     1     -11.565  15.354  67.724  1.00  0.00    -0.237 A  
BRANCH   4   9
HETATM    9  C   UNL     1     -10.330  17.506  67.217  1.00  0.00    -0.337 A  
HETATM   10  C   UNL     1     -10.102  18.149  68.450  1.00  0.00    -0.401 A  
HETATM   11  C   UNL     1     -10.063  19.541  68.557  1.00  0.00    -0.543 A  
HETATM   12  C   UNL     1     -10.222  20.329  67.424  1.00  0.00    -0.494 A  
HETATM   13  C   UNL     1     -10.425  19.726  66.186  1.00  0.00    -0.613 A  
HETATM   14  C   UNL     1     -10.483  18.331  66.088  1.00  0.00    -0.403 A  
ENDBRANCH   4   9
ENDBRANCH   2   3
ENDBRANCH   1   2
BRANCH   1  15
HETATM   15  C   UNL     1     -10.069   9.398  66.285  1.00  0.00    -0.328 C  
HETATM   16  C   UNL     1     -10.082   6.931  66.549  1.00  0.00    -0.070 C  
HETATM   17  C   UNL     1     -10.209   8.334  68.589  1.00  0.00    -0.223 C  
HETATM   18  C   UNL     1      -9.634   8.237  67.181  1.00  0.00    -0.234 C  
HETATM   19  O   UNL     1     -11.169   6.403  66.736  1.00  0.00    -0.327 OA 
BRANCH  16  20
HETATM   20  O   UNL     1      -9.076   6.417  65.787  1.00  0.00    -0.112 OA 
BRANCH  20  21
HETATM   21  C   UNL     1      -7.765   6.527  66.358  1.00  0.00    -0.099 C  
HETATM   22  C   UNL     1      -6.844   7.086  65.288  1.00  0.00    -0.051 C  
ENDBRANCH  20  21
ENDBRANCH  16  20
ENDBRANCH   1  15
BRANCH   1  23
HETATM   23  N   UNL     1      -8.286  10.647  67.418  1.00  0.00    -0.115 N  
HETATM   24  C   UNL     1      -7.065  10.739  66.804  1.00  0.00    -0.127 C  
HETATM   25  H   UNL     1      -8.315  10.465  68.421  1.00  0.00     0.000 HD 
HETATM   26  O   UNL     1      -6.890  10.905  65.598  1.00  0.00    -0.070 OA 
BRANCH  24  27
HETATM   27  C   UNL     1      -5.881  10.469  67.693  1.00  0.00    -0.044 C  
BRANCH  27  28
HETATM   28  C   UNL     1      -5.645  11.675  68.581  1.00  0.00    -0.045 C  
HETATM   29  O   UNL     1      -5.941  12.555  70.778  1.00  0.00    -0.269 OA 
HETATM   30  C   UNL     1      -6.203  11.653  69.989  1.00  0.00    -0.140 C  
HETATM   31  O   UNL     1      -6.991  10.630  70.353  1.00  0.00    -0.276 OA 
ENDBRANCH  27  28
ENDBRANCH  24  27
ENDBRANCH   1  23
TORSDOF 9
ENDMDL
MODEL      146
REMARK 921   NORMALIZED FREE ENERGY PREDICTED BY IDOCK:   -4.80 KCAL/MOL
REMARK 922        TOTAL FREE ENERGY PREDICTED BY IDOCK:   -9.14 KCAL/MOL
REMARK 923 INTER-LIGAND FREE ENERGY PREDICTED BY IDOCK:   -8.27 KCAL/MOL
REMARK 924 INTRA-LIGAND FREE ENERGY PREDICTED BY IDOCK:   -0.88 KCAL/MOL
REMARK 927      BINDING AFFINITY PREDICTED BY RF-SCORE:    0.00 PKD
ROOT
HETATM    1  C   UNL     1     -10.909  15.018  67.609  1.00  0.00    -0.291 C  
ENDROOT
BRANCH   1   2
HETATM    2  C   UNL     1     -11.171  13.883  66.580  1.00  0.00    -0.328 C  
BRANCH   2   3
HETATM    3  C   UNL     1     -11.128  12.441  67.037  1.00  0.00    -0.327 A  
HETATM    4  C   UNL     1     -10.694   9.784  67.990  1.00  0.00    -0.298 A  
HETATM    5  C   UNL     1     -11.773  11.969  68.178  1.00  0.00    -0.398 A  
HETATM    6  C   UNL     1     -11.529  10.686  68.663  1.00  0.00    -0.332 A  
HETATM    7  C   UNL     1     -10.371  11.525  66.296  1.00  0.00    -0.280 A  
HETATM    8  C   UNL     1     -10.172  10.216  66.755  1.00  0.00    -0.289 A  
BRANCH   4   9
HETATM    9  C   UNL     1     -10.340   8.482  68.593  1.00  0.00    -0.224 A  
HETATM   10  C   UNL     1      -9.714   7.467  67.844  1.00  0.00    -0.166 A  
HETATM   11  C   UNL     1      -9.481   6.197  68.378  1.00  0.00    -0.119 A  
HETATM   12  C   UNL     1      -9.843   5.919  69.691  1.00  0.00    -0.215 A  
HETATM   13  C   UNL     1     -10.440   6.907  70.467  1.00  0.00    -0.234 A  
HETATM   14  C   UNL     1     -10.690   8.172  69.920  1.00  0.00    -0.241 A  
ENDBRANCH   4   9
ENDBRANCH   2   3
ENDBRANCH   1   2
BRANCH   1  15
HETATM   15  C   UNL     1      -9.536  14.969  68.324  1.00  0.00    -0.196 C  
HETATM   16  C   UNL     1      -7.085  14.592  68.284  1.00  0.00    -0.113 C  
HETATM   17  C   UNL     1      -8.092  15.979  66.493  1.00  0.00    -0.304 C  
HETATM   18  C   UNL     1      -8.317  14.789  67.419  1.00  0.00    -0.218 C  
HETATM   19  O   UNL     1      -6.381  15.496  68.712  1.00  0.00    -0.100 OA 
BRANCH  16  20
HETATM   20  O   UNL     1      -6.856  13.261  68.466  1.00  0.00    -0.084 OA 
BRANCH  20  21
HETATM   21  C   UNL     1      -6.537  12.530  67.274  1.00  0.00    -0.123 C  
HETATM   22  C   UNL     1      -5.637  11.374  67.671  1.00  0.00    -0.050 C  
ENDBRANCH  20  21
ENDBRANCH  16  20
ENDBRANCH   1  15
BRANCH   1  23
HETATM   23  N   UNL     1     -11.969  15.112  68.617  1.00  0.00    -0.552 N  
HETATM   24  C   UNL     1     -11.758  15.630  69.867  1.00  0.00    -0.362 C  
HETATM   25  H   UNL     1     -12.902  14.777  68.377  1.00  0.00     0.000 HD 
HETATM   26  O   UNL     1     -10.675  16.021  70.298  1.00  0.00    -0.311 OA 
BRANCH  24  27
HETATM   27  C   UNL     1     -12.943  15.563  70.793  1.00  0.00    -0.490 C  
BRANCH  27  28
HETATM   28  C   UNL     1     -13.245  14.110  71.102  1.00  0.00    -0.369 C  
HETATM   29  O   UNL     1     -13.711  12.554  72.849  1.00  0.00    -0.156 OA 
HETATM   30  C   UNL     1     -13.358  13.690  72.554  1.00  0.00    -0.534 C  
HETATM   31  O   UNL     1     -13.061  14.586  73.507  1.00  0.00    -0.564 OA 
ENDBRANCH  27  28
ENDBRANCH  24  27
ENDBRANCH   1  23
TORSDOF 9
ENDMDL
MODEL      147
REMARK 921   NORMALIZED FREE ENERGY PREDICTED BY IDOCK:   -4.79 KCAL/MOL
REMARK 922        TOTAL FREE ENERGY PREDICTED BY IDOCK:   -9.13 KCAL/MOL
REMARK 923 INTER-LIGAND FREE ENERGY PREDICTED BY IDOCK:   -7.72 KCAL/MOL
REMARK 924 INTRA-LIGAND FREE ENERGY PREDICTED BY IDOCK:   -1.41 KCAL/MOL
REMARK 927      BINDING AFFINITY PREDICTED BY RF-SCORE:    0.00 PKD
ROOT
HETATM    1  C   UNL     1     -10.447   9.761  69.179  1.00  0.00    -0.215 C  
ENDROOT
BRANCH   1   2
HETATM    2  C   UNL     1     -10.652   8.237  69.407  1.00  0.00    -0.203 C  
BRANCH   2   3
HETATM    3  C   UNL     1     -10.169   7.257  68.360  1.00  0.00    -0.203 A  
HETATM    4  C   UNL     1      -9.504   5.563  66.159  1.00  0.00    -0.166 A  
HETATM    5  C   UNL     1      -8.925   7.338  67.736  1.00  0.00    -0.126 A  
HETATM    6  C   UNL     1      -8.619   6.539  66.638  1.00  0.00    -0.118 A  
HETATM    7  C   UNL     1     -11.025   6.223  67.963  1.00  0.00    -0.418 A  
HETATM    8  C   UNL     1     -10.691   5.381  66.894  1.00  0.00    -0.264 A  
BRANCH   4   9
HETATM    9  C   UNL     1      -9.217   4.825  64.912  1.00  0.00    -0.120 A  
HETATM   10  C   UNL     1      -8.121   5.158  64.091  1.00  0.00    -0.119 A  
HETATM   11  C   UNL     1      -7.913   4.538  62.857  1.00  0.00    -0.071 A  
HETATM   12  C   UNL     1      -8.782   3.544  62.423  1.00  0.00    -0.081 A  
HETATM   13  C   UNL     1      -9.861   3.174  63.220  1.00  0.00    -0.111 A  
HETATM   14  C   UNL     1     -10.077   3.812  64.447  1.00  0.00    -0.220 A  
ENDBRANCH   4   9
ENDBRANCH   2   3
ENDBRANCH   1   2
BRANCH   1  15
HETATM   15  C   UNL     1     -10.950  10.681  70.318  1.00  0.00    -0.237 C  
HETATM   16  C   UNL     1     -12.691  12.139  71.316  1.00  0.00    -0.261 C  
HETATM   17  C   UNL     1     -13.383   9.951  70.380  1.00  0.00     0.206 C  
HETATM   18  C   UNL     1     -12.413  11.116  70.229  1.00  0.00    -0.354 C  
HETATM   19  O   UNL     1     -13.051  11.868  72.453  1.00  0.00    -0.263 OA 
BRANCH  16  20
HETATM   20  O   UNL     1     -12.528  13.397  70.819  1.00  0.00    -0.354 OA 
BRANCH  20  21
HETATM   21  C   UNL     1     -13.122  14.442  71.602  1.00  0.00    -0.350 C  
HETATM   22  C   UNL     1     -11.996  15.294  72.161  1.00  0.00    -0.503 C  
ENDBRANCH  20  21
ENDBRANCH  16  20
ENDBRANCH   1  15
BRANCH   1  23
HETATM   23  N   UNL     1     -11.020  10.217  67.909  1.00  0.00    -0.352 N  
HETATM   24  C   UNL     1     -10.252  10.678  66.873  1.00  0.00    -0.223 C  
HETATM   25  H   UNL     1     -12.033  10.189  67.792  1.00  0.00     0.000 HD 
HETATM   26  O   UNL     1      -9.030  10.809  66.902  1.00  0.00    -0.138 OA 
BRANCH  24  27
HETATM   27  C   UNL     1     -11.023  11.184  65.683  1.00  0.00    -0.149 C  
BRANCH  27  28
HETATM   28  C   UNL     1     -11.753  12.454  66.073  1.00  0.00    -0.469 C  
HETATM   29  O   UNL     1     -13.213  14.171  65.291  1.00  0.00    -0.760 OA 
HETATM   30  C   UNL     1     -12.517  13.204  65.000  1.00  0.00    -0.460 C  
HETATM   31  O   UNL     1     -12.414  12.790  63.728  1.00  0.00    -0.615 OA 
ENDBRANCH  27  28
ENDBRANCH  24  27
ENDBRANCH   1  23
TORSDOF 9
ENDMDL
MODEL      148
REMARK 921   NORMALIZED FREE ENERGY PREDICTED BY IDOCK:   -4.77 KCAL/MOL
REMARK 922        TOTAL FREE ENERGY PREDICTED BY IDOCK:   -9.09 KCAL/MOL
REMARK 923 INTER-LIGAND FREE ENERGY PREDICTED BY IDOCK:   -7.51 KCAL/MOL
REMARK 924 INTRA-LIGAND FREE ENERGY PREDICTED BY IDOCK:   -1.58 KCAL/MOL
REMARK 927      BINDING AFFINITY PREDICTED BY RF-SCORE:    0.00 PKD
ROOT
HETATM    1  C   UNL     1     -10.981  15.611  67.298  1.00  0.00    -0.275 C  
ENDROOT
BRANCH   1   2
HETATM    2  C   UNL     1     -11.360  14.484  68.300  1.00  0.00    -0.319 C  
BRANCH   2   3
HETATM    3  C   UNL     1     -10.488  13.252  68.398  1.00  0.00    -0.261 A  
HETATM    4  C   UNL     1      -8.996  10.820  68.262  1.00  0.00    -0.143 A  
HETATM    5  C   UNL     1      -9.107  13.261  68.213  1.00  0.00    -0.184 A  
HETATM    6  C   UNL     1      -8.388  12.073  68.108  1.00  0.00    -0.165 A  
HETATM    7  C   UNL     1     -11.098  12.018  68.655  1.00  0.00    -0.298 A  
HETATM    8  C   UNL     1     -10.362  10.826  68.606  1.00  0.00    -0.208 A  
BRANCH   4   9
HETATM    9  C   UNL     1      -8.244   9.574  68.009  1.00  0.00    -0.114 A  
HETATM   10  C   UNL     1      -6.836   9.553  67.989  1.00  0.00    -0.074 A  
HETATM   11  C   UNL     1      -6.123   8.404  67.639  1.00  0.00    -0.052 A  
HETATM   12  C   UNL     1      -6.804   7.232  67.327  1.00  0.00    -0.077 A  
HETATM   13  C   UNL     1      -8.195   7.212  67.361  1.00  0.00    -0.116 A  
HETATM   14  C   UNL     1      -8.904   8.372  67.693  1.00  0.00    -0.138 A  
ENDBRANCH   4   9
ENDBRANCH   2   3
ENDBRANCH   1   2
BRANCH   1  15
HETATM   15  C   UNL     1     -11.003  15.210  65.803  1.00  0.00    -0.350 C  
HETATM   16  C   UNL     1     -11.468  13.563  64.008  1.00  0.00    -0.320 C  
HETATM   17  C   UNL     1     -13.180  13.899  65.769  1.00  0.00     0.130 C  
HETATM   18  C   UNL     1     -11.684  13.881  65.477  1.00  0.00    -0.356 C  
HETATM   19  O   UNL     1     -12.201  13.929  63.100  1.00  0.00    -0.577 OA 
BRANCH  16  20
HETATM   20  O   UNL     1     -10.370  12.770  63.863  1.00  0.00    -0.420 OA 
BRANCH  20  21
HETATM   21  C   UNL     1     -10.647  11.392  63.581  1.00  0.00    -0.412 C  
HETATM   22  C   UNL     1     -10.390  10.602  64.852  1.00  0.00    -0.347 C  
ENDBRANCH  20  21
ENDBRANCH  16  20
ENDBRANCH   1  15
BRANCH   1  23
HETATM   23  N   UNL     1      -9.685  16.221  67.610  1.00  0.00    -0.232 N  
HETATM   24  C   UNL     1      -9.564  17.501  68.082  1.00  0.00    -0.294 C  
HETATM   25  H   UNL     1      -8.839  15.669  67.470  1.00  0.00     0.000 HD 
HETATM   26  O   UNL     1     -10.496  18.286  68.247  1.00  0.00    -0.358 OA 
BRANCH  24  27
HETATM   27  C   UNL     1      -8.149  17.983  68.261  1.00  0.00    -0.296 C  
BRANCH  27  28
HETATM   28  C   UNL     1      -7.357  17.663  67.008  1.00  0.00    -0.219 C  
HETATM   29  O   UNL     1      -6.417  18.584  65.019  1.00  0.00    -0.464 OA 
HETATM   30  C   UNL     1      -7.145  18.764  65.989  1.00  0.00    -0.268 C  
HETATM   31  O   UNL     1      -7.771  19.937  66.169  1.00  0.00    -0.306 OA 
ENDBRANCH  27  28
ENDBRANCH  24  27
ENDBRANCH   1  23
TORSDOF 9
ENDMDL
MODEL      149
REMARK 921   NORMALIZED FREE ENERGY PREDICTED BY IDOCK:   -4.75 KCAL/MOL
REMARK 922        TOTAL FREE ENERGY PREDICTED BY IDOCK:   -9.06 KCAL/MOL
REMARK 923 INTER-LIGAND FREE ENERGY PREDICTED BY IDOCK:   -8.08 KCAL/MOL
REMARK 924 INTRA-LIGAND FREE ENERGY PREDICTED BY IDOCK:   -0.99 KCAL/MOL
REMARK 927      BINDING AFFINITY PREDICTED BY RF-SCORE:    0.00 PKD
ROOT
HETATM    1  C   UNL     1      -8.750  11.049  67.822  1.00  0.00    -0.130 C  
ENDROOT
BRANCH   1   2
HETATM    2  C   UNL     1      -9.449  11.964  66.776  1.00  0.00    -0.207 C  
BRANCH   2   3
HETATM    3  C   UNL     1      -9.684  13.422  67.104  1.00  0.00    -0.237 A  
HETATM    4  C   UNL     1      -9.956  16.249  67.402  1.00  0.00    -0.249 A  
HETATM    5  C   UNL     1     -10.934  14.036  67.054  1.00  0.00    -0.302 A  
HETATM    6  C   UNL     1     -11.059  15.419  67.160  1.00  0.00    -0.291 A  
HETATM    7  C   UNL     1      -8.585  14.219  67.444  1.00  0.00    -0.223 A  
HETATM    8  C   UNL     1      -8.722  15.604  67.608  1.00  0.00    -0.182 A  
BRANCH   4   9
HETATM    9  C   UNL     1     -10.092  17.720  67.372  1.00  0.00    -0.338 A  
HETATM   10  C   UNL     1     -10.361  18.413  66.175  1.00  0.00    -0.431 A  
HETATM   11  C   UNL     1     -10.377  19.809  66.122  1.00  0.00    -0.627 A  
HETATM   12  C   UNL     1     -10.153  20.550  67.276  1.00  0.00    -0.439 A  
HETATM   13  C   UNL     1      -9.909  19.897  68.481  1.00  0.00    -0.463 A  
HETATM   14  C   UNL     1      -9.874  18.498  68.524  1.00  0.00    -0.414 A  
ENDBRANCH   4   9
ENDBRANCH   2   3
ENDBRANCH   1   2
BRANCH   1  15
HETATM   15  C   UNL     1      -8.190   9.713  67.274  1.00  0.00    -0.114 C  
HETATM   16  C   UNL     1      -6.791   8.450  65.662  1.00  0.00    -0.066 C  
HETATM   17  C   UNL     1      -5.820  10.459  66.741  1.00  0.00    -0.058 C  
HETATM   18  C   UNL     1      -7.102   9.833  66.206  1.00  0.00    -0.095 C  
HETATM   19  O   UNL     1      -5.961   7.685  66.134  1.00  0.00    -0.036 OA 
BRANCH  16  20
HETATM   20  O   UNL     1      -7.536   8.214  64.546  1.00  0.00    -0.090 OA 
BRANCH  20  21
HETATM   21  C   UNL     1      -6.781   7.942  63.357  1.00  0.00    -0.075 C  
HETATM   22  C   UNL     1      -7.231   6.592  62.826  1.00  0.00    -0.061 C  
ENDBRANCH  20  21
ENDBRANCH  16  20
ENDBRANCH   1  15
BRANCH   1  23
HETATM   23  N   UNL     1      -9.607  10.769  68.977  1.00  0.00    -0.268 N  
HETATM   24  C   UNL     1     -10.936  10.461  68.856  1.00  0.00    -0.245 C  
HETATM   25  H   UNL     1      -9.197  10.806  69.911  1.00  0.00     0.000 HD 
HETATM   26  O   UNL     1     -11.562  10.432  67.798  1.00  0.00    -0.405 OA 
BRANCH  24  27
HETATM   27  C   UNL     1     -11.673  10.292  70.158  1.00  0.00    -0.364 C  
BRANCH  27  28
HETATM   28  C   UNL     1     -12.208  11.640  70.600  1.00  0.00    -0.461 C  
HETATM   29  O   UNL     1     -13.417  12.782  72.309  1.00  0.00    -0.565 OA 
HETATM   30  C   UNL     1     -13.059  11.702  71.852  1.00  0.00    -0.385 C  
HETATM   31  O   UNL     1     -13.413  10.553  72.447  1.00  0.00    -0.258 OA 
ENDBRANCH  27  28
ENDBRANCH  24  27
ENDBRANCH   1  23
TORSDOF 9
ENDMDL
MODEL      150
REMARK 921   NORMALIZED FREE ENERGY PREDICTED BY IDOCK:   -4.74 KCAL/MOL
REMARK 922        TOTAL FREE ENERGY PREDICTED BY IDOCK:   -9.06 KCAL/MOL
REMARK 923 INTER-LIGAND FREE ENERGY PREDICTED BY IDOCK:   -7.47 KCAL/MOL
REMARK 924 INTRA-LIGAND FREE ENERGY PREDICTED BY IDOCK:   -1.60 KCAL/MOL
REMARK 927      BINDING AFFINITY PREDICTED BY RF-SCORE:    0.00 PKD
ROOT
HETATM    1  C   UNL     1      -9.418  10.676  66.842  1.00  0.00    -0.165 C  
ENDROOT
BRANCH   1   2
HETATM    2  C   UNL     1      -9.146  11.435  68.171  1.00  0.00    -0.174 C  
BRANCH   2   3
HETATM    3  C   UNL     1      -9.034  12.943  68.157  1.00  0.00    -0.202 A  
HETATM    4  C   UNL     1      -8.874  15.768  67.763  1.00  0.00    -0.173 A  
HETATM    5  C   UNL     1     -10.011  13.799  68.662  1.00  0.00    -0.175 A  
HETATM    6  C   UNL     1      -9.950  15.172  68.434  1.00  0.00    -0.222 A  
HETATM    7  C   UNL     1      -7.902  13.526  67.573  1.00  0.00    -0.184 A  
HETATM    8  C   UNL     1      -7.816  14.913  67.396  1.00  0.00    -0.224 A  
BRANCH   4   9
HETATM    9  C   UNL     1      -8.898  17.202  67.412  1.00  0.00    -0.218 A  
HETATM   10  C   UNL     1      -7.814  17.822  66.758  1.00  0.00    -0.262 A  
HETATM   11  C   UNL     1      -7.786  19.199  66.526  1.00  0.00    -0.288 A  
HETATM   12  C   UNL     1      -8.859  19.991  66.916  1.00  0.00    -0.433 A  
HETATM   13  C   UNL     1      -9.957  19.408  67.542  1.00  0.00    -0.473 A  
HETATM   14  C   UNL     1      -9.971  18.030  67.791  1.00  0.00    -0.329 A  
ENDBRANCH   4   9
ENDBRANCH   2   3
ENDBRANCH   1   2
BRANCH   1  15
HETATM   15  C   UNL     1     -10.541  11.265  65.953  1.00  0.00    -0.309 C  
HETATM   16  C   UNL     1     -11.296  12.366  63.862  1.00  0.00    -0.433 C  
HETATM   17  C   UNL     1      -9.727  10.455  63.686  1.00  0.00    -0.338 C  
HETATM   18  C   UNL     1     -10.133  11.656  64.532  1.00  0.00    -0.321 C  
HETATM   19  O   UNL     1     -12.186  11.808  63.237  1.00  0.00    -0.489 OA 
BRANCH  16  20
HETATM   20  O   UNL     1     -11.168  13.713  64.021  1.00  0.00    -0.321 OA 
BRANCH  20  21
HETATM   21  C   UNL     1     -12.364  14.394  64.426  1.00  0.00    -0.403 C  
HETATM   22  C   UNL     1     -12.528  14.184  65.921  1.00  0.00    -0.479 C  
ENDBRANCH  20  21
ENDBRANCH  16  20
ENDBRANCH   1  15
BRANCH   1  23
HETATM   23  N   UNL     1      -9.680   9.250  67.059  1.00  0.00    -0.172 N  
HETATM   24  C   UNL     1      -8.693   8.302  67.027  1.00  0.00    -0.127 C  
HETATM   25  H   UNL     1     -10.639   8.951  67.240  1.00  0.00     0.000 HD 
HETATM   26  O   UNL     1      -7.510   8.521  66.770  1.00  0.00    -0.082 OA 
BRANCH  24  27
HETATM   27  C   UNL     1      -9.165   6.882  67.184  1.00  0.00    -0.153 C  
BRANCH  27  28
HETATM   28  C   UNL     1      -8.016   5.943  66.873  1.00  0.00    -0.102 C  
HETATM   29  O   UNL     1      -6.581   5.136  65.147  1.00  0.00    -0.038 OA 
HETATM   30  C   UNL     1      -7.576   5.795  65.431  1.00  0.00    -0.084 C  
HETATM   31  O   UNL     1      -8.299   6.395  64.473  1.00  0.00    -0.094 OA 
ENDBRANCH  27  28
ENDBRANCH  24  27
ENDBRANCH   1  23
TORSDOF 9
ENDMDL
MODEL      151
REMARK 921   NORMALIZED FREE ENERGY PREDICTED BY IDOCK:   -4.74 KCAL/MOL
REMARK 922        TOTAL FREE ENERGY PREDICTED BY IDOCK:   -9.06 KCAL/MOL
REMARK 923 INTER-LIGAND FREE ENERGY PREDICTED BY IDOCK:   -7.39 KCAL/MOL
REMARK 924 INTRA-LIGAND FREE ENERGY PREDICTED BY IDOCK:   -1.67 KCAL/MOL
REMARK 927      BINDING AFFINITY PREDICTED BY RF-SCORE:    0.00 PKD
ROOT
HETATM    1  C   UNL     1      -9.775   8.109  68.408  1.00  0.00    -0.161 C  
ENDROOT
BRANCH   1   2
HETATM    2  C   UNL     1     -10.778   8.765  67.418  1.00  0.00    -0.216 C  
BRANCH   2   3
HETATM    3  C   UNL     1     -10.894  10.273  67.367  1.00  0.00    -0.336 A  
HETATM    4  C   UNL     1     -10.872  13.123  67.551  1.00  0.00    -0.269 A  
HETATM    5  C   UNL     1     -10.364  11.058  66.345  1.00  0.00    -0.302 A  
HETATM    6  C   UNL     1     -10.319  12.446  66.456  1.00  0.00    -0.248 A  
HETATM    7  C   UNL     1     -11.541  10.931  68.420  1.00  0.00    -0.346 A  
HETATM    8  C   UNL     1     -11.545  12.330  68.501  1.00  0.00    -0.359 A  
BRANCH   4   9
HETATM    9  C   UNL     1     -10.689  14.580  67.714  1.00  0.00    -0.256 A  
HETATM   10  C   UNL     1     -10.964  15.227  68.935  1.00  0.00    -0.261 A  
HETATM   11  C   UNL     1     -10.901  16.616  69.060  1.00  0.00    -0.314 A  
HETATM   12  C   UNL     1     -10.532  17.396  67.971  1.00  0.00    -0.383 A  
HETATM   13  C   UNL     1     -10.229  16.787  66.756  1.00  0.00    -0.304 A  
HETATM   14  C   UNL     1     -10.314  15.395  66.631  1.00  0.00    -0.281 A  
ENDBRANCH   4   9
ENDBRANCH   2   3
ENDBRANCH   1   2
BRANCH   1  15
HETATM   15  C   UNL     1      -9.090   6.814  67.907  1.00  0.00    -0.114 C  
HETATM   16  C   UNL     1      -7.795   5.572  66.194  1.00  0.00    -0.100 C  
HETATM   17  C   UNL     1      -7.027   7.840  66.834  1.00  0.00    -0.073 C  
HETATM   18  C   UNL     1      -8.249   6.952  66.637  1.00  0.00    -0.115 C  
HETATM   19  O   UNL     1      -6.770   5.021  66.570  1.00  0.00    -0.057 OA 
BRANCH  16  20
HETATM   20  O   UNL     1      -8.672   5.068  65.281  1.00  0.00    -0.139 OA 
BRANCH  20  21
HETATM   21  C   UNL     1      -9.386   3.899  65.705  1.00  0.00    -0.161 C  
HETATM   22  C   UNL     1      -9.021   2.769  64.758  1.00  0.00    -0.126 C  
ENDBRANCH  20  21
ENDBRANCH  16  20
ENDBRANCH   1  15
BRANCH   1  23
HETATM   23  N   UNL     1     -10.375   7.853  69.721  1.00  0.00    -0.214 N  
HETATM   24  C   UNL     1     -10.069   8.593  70.832  1.00  0.00    -0.211 C  
HETATM   25  H   UNL     1     -11.048   7.092  69.811  1.00  0.00     0.000 HD 
HETATM   26  O   UNL     1      -9.241   9.502  70.871  1.00  0.00    -0.217 OA 
BRANCH  24  27
HETATM   27  C   UNL     1     -10.718   8.127  72.108  1.00  0.00    -0.360 C  
BRANCH  27  28
HETATM   28  C   UNL     1     -12.168   7.787  71.828  1.00  0.00    -0.338 C  
HETATM   29  O   UNL     1     -14.336   8.703  71.438  1.00  0.00    -0.386 OA 
HETATM   30  C   UNL     1     -13.176   8.917  71.772  1.00  0.00    -0.378 C  
HETATM   31  O   UNL     1     -12.773  10.155  72.100  1.00  0.00    -0.360 OA 
ENDBRANCH  27  28
ENDBRANCH  24  27
ENDBRANCH   1  23
TORSDOF 9
ENDMDL
MODEL      152
REMARK 921   NORMALIZED FREE ENERGY PREDICTED BY IDOCK:   -4.70 KCAL/MOL
REMARK 922        TOTAL FREE ENERGY PREDICTED BY IDOCK:   -9.00 KCAL/MOL
REMARK 923 INTER-LIGAND FREE ENERGY PREDICTED BY IDOCK:   -7.03 KCAL/MOL
REMARK 924 INTRA-LIGAND FREE ENERGY PREDICTED BY IDOCK:   -1.97 KCAL/MOL
REMARK 927      BINDING AFFINITY PREDICTED BY RF-SCORE:    0.00 PKD
ROOT
HETATM    1  C   UNL     1      -9.807   7.894  68.298  1.00  0.00    -0.169 C  
ENDROOT
BRANCH   1   2
HETATM    2  C   UNL     1     -10.565   8.493  67.080  1.00  0.00    -0.314 C  
BRANCH   2   3
HETATM    3  C   UNL     1     -10.651   9.996  66.924  1.00  0.00    -0.261 A  
HETATM    4  C   UNL     1     -10.638  12.852  66.954  1.00  0.00    -0.262 A  
HETATM    5  C   UNL     1      -9.903  10.724  66.001  1.00  0.00    -0.285 A  
HETATM    6  C   UNL     1      -9.868  12.116  66.044  1.00  0.00    -0.260 A  
HETATM    7  C   UNL     1     -11.504  10.711  67.774  1.00  0.00    -0.219 A  
HETATM    8  C   UNL     1     -11.510  12.112  67.776  1.00  0.00    -0.398 A  
BRANCH   4   9
HETATM    9  C   UNL     1     -10.479  14.316  67.074  1.00  0.00    -0.271 A  
HETATM   10  C   UNL     1     -11.170  15.056  68.054  1.00  0.00    -0.324 A  
HETATM   11  C   UNL     1     -11.111  16.451  68.098  1.00  0.00    -0.320 A  
HETATM   12  C   UNL     1     -10.331  17.143  67.179  1.00  0.00    -0.307 A  
HETATM   13  C   UNL     1      -9.615  16.440  66.213  1.00  0.00    -0.338 A  
HETATM   14  C   UNL     1      -9.695  15.044  66.161  1.00  0.00    -0.334 A  
ENDBRANCH   4   9
ENDBRANCH   2   3
ENDBRANCH   1   2
BRANCH   1  15
HETATM   15  C   UNL     1     -10.698   7.410  69.468  1.00  0.00    -0.233 C  
HETATM   16  C   UNL     1     -11.308   7.414  71.872  1.00  0.00    -0.260 C  
HETATM   17  C   UNL     1     -10.883   9.589  70.762  1.00  0.00    -0.386 C  
HETATM   18  C   UNL     1     -10.487   8.118  70.806  1.00  0.00    -0.223 C  
HETATM   19  O   UNL     1     -12.470   7.679  72.145  1.00  0.00    -0.285 OA 
BRANCH  16  20
HETATM   20  O   UNL     1     -10.541   6.484  72.507  1.00  0.00    -0.200 OA 
BRANCH  20  21
HETATM   21  C   UNL     1     -10.362   6.701  73.913  1.00  0.00    -0.360 C  
HETATM   22  C   UNL     1      -9.036   7.416  74.103  1.00  0.00    -0.267 C  
ENDBRANCH  20  21
ENDBRANCH  16  20
ENDBRANCH   1  15
BRANCH   1  23
HETATM   23  N   UNL     1      -8.786   8.806  68.821  1.00  0.00    -0.136 N  
HETATM   24  C   UNL     1      -7.504   8.836  68.341  1.00  0.00    -0.091 C  
HETATM   25  H   UNL     1      -9.040   9.444  69.576  1.00  0.00     0.000 HD 
HETATM   26  O   UNL     1      -7.056   8.089  67.472  1.00  0.00    -0.076 OA 
BRANCH  24  27
HETATM   27  C   UNL     1      -6.574   9.775  69.061  1.00  0.00    -0.049 C  
BRANCH  27  28
HETATM   28  C   UNL     1      -7.316  11.059  69.376  1.00  0.00    -0.092 C  
HETATM   29  O   UNL     1      -7.707  13.300  68.658  1.00  0.00    -0.129 OA 
HETATM   30  C   UNL     1      -7.048  12.276  68.513  1.00  0.00    -0.099 C  
HETATM   31  O   UNL     1      -6.076  12.209  67.592  1.00  0.00    -0.081 OA 
ENDBRANCH  27  28
ENDBRANCH  24  27
ENDBRANCH   1  23
TORSDOF 9
ENDMDL
MODEL      153
REMARK 921   NORMALIZED FREE ENERGY PREDICTED BY IDOCK:   -4.69 KCAL/MOL
REMARK 922        TOTAL FREE ENERGY PREDICTED BY IDOCK:   -8.98 KCAL/MOL
REMARK 923 INTER-LIGAND FREE ENERGY PREDICTED BY IDOCK:   -7.34 KCAL/MOL
REMARK 924 INTRA-LIGAND FREE ENERGY PREDICTED BY IDOCK:   -1.65 KCAL/MOL
REMARK 927      BINDING AFFINITY PREDICTED BY RF-SCORE:    0.00 PKD
ROOT
HETATM    1  C   UNL     1     -11.017  10.949  67.796  1.00  0.00    -0.283 C  
ENDROOT
BRANCH   1   2
HETATM    2  C   UNL     1     -10.645   9.680  66.980  1.00  0.00    -0.267 C  
BRANCH   2   3
HETATM    3  C   UNL     1     -10.388   8.378  67.706  1.00  0.00    -0.297 A  
HETATM    4  C   UNL     1     -10.076   6.074  69.366  1.00  0.00    -0.243 A  
HETATM    5  C   UNL     1     -11.049   7.185  67.418  1.00  0.00    -0.208 A  
HETATM    6  C   UNL     1     -10.926   6.076  68.251  1.00  0.00    -0.347 A  
HETATM    7  C   UNL     1      -9.459   8.366  68.753  1.00  0.00    -0.147 A  
HETATM    8  C   UNL     1      -9.293   7.229  69.556  1.00  0.00    -0.152 A  
BRANCH   4   9
HETATM    9  C   UNL     1     -10.066   4.940  70.312  1.00  0.00    -0.322 A  
HETATM   10  C   UNL     1     -10.395   5.109  71.671  1.00  0.00    -0.274 A  
HETATM   11  C   UNL     1     -10.277   4.064  72.591  1.00  0.00    -0.232 A  
HETATM   12  C   UNL     1      -9.856   2.809  72.167  1.00  0.00    -0.239 A  
HETATM   13  C   UNL     1      -9.547   2.601  70.826  1.00  0.00    -0.181 A  
HETATM   14  C   UNL     1      -9.647   3.658  69.912  1.00  0.00    -0.238 A  
ENDBRANCH   4   9
ENDBRANCH   2   3
ENDBRANCH   1   2
BRANCH   1  15
HETATM   15  C   UNL     1      -9.858  11.942  68.054  1.00  0.00    -0.190 C  
HETATM   16  C   UNL     1      -7.828  13.148  67.293  1.00  0.00    -0.117 C  
HETATM   17  C   UNL     1      -9.794  13.086  65.786  1.00  0.00    -0.217 C  
HETATM   18  C   UNL     1      -9.009  12.310  66.837  1.00  0.00    -0.207 C  
HETATM   19  O   UNL     1      -7.837  14.366  67.403  1.00  0.00    -0.177 OA 
BRANCH  16  20
HETATM   20  O   UNL     1      -6.749  12.345  67.513  1.00  0.00    -0.116 OA 
BRANCH  20  21
HETATM   21  C   UNL     1      -6.657  11.201  66.651  1.00  0.00    -0.137 C  
HETATM   22  C   UNL     1      -6.127  10.044  67.479  1.00  0.00    -0.058 C  
ENDBRANCH  20  21
ENDBRANCH  16  20
ENDBRANCH   1  15
BRANCH   1  23
HETATM   23  N   UNL     1     -11.659  10.622  69.073  1.00  0.00    -0.403 N  
HETATM   24  C   UNL     1     -12.234  11.569  69.877  1.00  0.00    -0.258 C  
HETATM   25  H   UNL     1     -11.677   9.648  69.375  1.00  0.00     0.000 HD 
HETATM   26  O   UNL     1     -12.237  12.779  69.655  1.00  0.00    -0.234 OA 
BRANCH  24  27
HETATM   27  C   UNL     1     -12.765  11.056  71.189  1.00  0.00    -0.521 C  
BRANCH  27  28
HETATM   28  C   UNL     1     -13.391   9.693  70.968  1.00  0.00    -0.268 C  
HETATM   29  O   UNL     1     -13.181   7.363  71.434  1.00  0.00    -0.364 OA 
HETATM   30  C   UNL     1     -12.660   8.472  71.489  1.00  0.00    -0.316 C  
HETATM   31  O   UNL     1     -11.433   8.629  72.008  1.00  0.00    -0.322 OA 
ENDBRANCH  27  28
ENDBRANCH  24  27
ENDBRANCH   1  23
TORSDOF 9
ENDMDL
MODEL      154
REMARK 921   NORMALIZED FREE ENERGY PREDICTED BY IDOCK:   -4.68 KCAL/MOL
REMARK 922        TOTAL FREE ENERGY PREDICTED BY IDOCK:   -8.96 KCAL/MOL
REMARK 923 INTER-LIGAND FREE ENERGY PREDICTED BY IDOCK:   -7.96 KCAL/MOL
REMARK 924 INTRA-LIGAND FREE ENERGY PREDICTED BY IDOCK:   -1.00 KCAL/MOL
REMARK 927      BINDING AFFINITY PREDICTED BY RF-SCORE:    0.00 PKD
ROOT
HETATM    1  C   UNL     1     -11.130   6.331  70.948  1.00  0.00    -0.306 C  
ENDROOT
BRANCH   1   2
HETATM    2  C   UNL     1     -12.171   7.103  71.807  1.00  0.00    -0.379 C  
BRANCH   2   3
HETATM    3  C   UNL     1     -12.428   8.568  71.525  1.00  0.00    -0.353 A  
HETATM    4  C   UNL     1     -12.819  11.391  71.347  1.00  0.00    -0.502 A  
HETATM    5  C   UNL     1     -11.599   9.363  70.736  1.00  0.00    -0.364 A  
HETATM    6  C   UNL     1     -11.768  10.745  70.683  1.00  0.00    -0.442 A  
HETATM    7  C   UNL     1     -13.541   9.178  72.114  1.00  0.00    -0.534 A  
HETATM    8  C   UNL     1     -13.743  10.562  72.012  1.00  0.00    -0.077 A  
BRANCH   4   9
HETATM    9  C   UNL     1     -12.897  12.866  71.391  1.00  0.00    -0.377 A  
HETATM   10  C   UNL     1     -12.058  13.674  70.598  1.00  0.00    -0.398 A  
HETATM   11  C   UNL     1     -12.049  15.065  70.720  1.00  0.00    -0.377 A  
HETATM   12  C   UNL     1     -12.906  15.689  71.619  1.00  0.00    -0.533 A  
HETATM   13  C   UNL     1     -13.766  14.922  72.400  1.00  0.00    -0.576 A  
HETATM   14  C   UNL     1     -13.755  13.527  72.289  1.00  0.00    -0.700 A  
ENDBRANCH   4   9
ENDBRANCH   2   3
ENDBRANCH   1   2
BRANCH   1  15
HETATM   15  C   UNL     1      -9.972   5.670  71.736  1.00  0.00    -0.222 C  
HETATM   16  C   UNL     1      -7.620   5.655  72.524  1.00  0.00    -0.098 C  
HETATM   17  C   UNL     1      -8.915   7.759  72.725  1.00  0.00    -0.236 C  
HETATM   18  C   UNL     1      -8.701   6.507  71.883  1.00  0.00    -0.130 C  
HETATM   19  O   UNL     1      -7.444   5.543  73.729  1.00  0.00    -0.089 OA 
BRANCH  16  20
HETATM   20  O   UNL     1      -6.852   5.078  71.558  1.00  0.00    -0.044 OA 
BRANCH  20  21
HETATM   21  C   UNL     1      -7.012   3.659  71.420  1.00  0.00    -0.032 C  
HETATM   22  C   UNL     1      -5.903   2.992  72.214  1.00  0.00    -0.009 C  
ENDBRANCH  20  21
ENDBRANCH  16  20
ENDBRANCH   1  15
BRANCH   1  23
HETATM   23  N   UNL     1     -10.568   7.159  69.877  1.00  0.00    -0.224 N  
HETATM   24  C   UNL     1     -10.360   6.688  68.609  1.00  0.00    -0.188 C  
HETATM   25  H   UNL     1     -10.320   8.126  70.086  1.00  0.00     0.000 HD 
HETATM   26  O   UNL     1     -10.568   5.533  68.240  1.00  0.00    -0.195 OA 
BRANCH  24  27
HETATM   27  C   UNL     1      -9.693   7.656  67.669  1.00  0.00    -0.189 C  
BRANCH  27  28
HETATM   28  C   UNL     1      -8.199   7.639  67.923  1.00  0.00    -0.123 C  
HETATM   29  O   UNL     1      -6.451   8.526  69.282  1.00  0.00    -0.041 OA 
HETATM   30  C   UNL     1      -7.634   8.584  68.964  1.00  0.00    -0.094 C  
HETATM   31  O   UNL     1      -8.452   9.486  69.526  1.00  0.00    -0.129 OA 
ENDBRANCH  27  28
ENDBRANCH  24  27
ENDBRANCH   1  23
TORSDOF 9
ENDMDL
MODEL      155
REMARK 921   NORMALIZED FREE ENERGY PREDICTED BY IDOCK:   -4.67 KCAL/MOL
REMARK 922        TOTAL FREE ENERGY PREDICTED BY IDOCK:   -8.95 KCAL/MOL
REMARK 923 INTER-LIGAND FREE ENERGY PREDICTED BY IDOCK:   -7.04 KCAL/MOL
REMARK 924 INTRA-LIGAND FREE ENERGY PREDICTED BY IDOCK:   -1.91 KCAL/MOL
REMARK 927      BINDING AFFINITY PREDICTED BY RF-SCORE:    0.00 PKD
ROOT
HETATM    1  C   UNL     1      -8.372   7.932  68.774  1.00  0.00    -0.128 C  
ENDROOT
BRANCH   1   2
HETATM    2  C   UNL     1      -9.664   7.846  67.914  1.00  0.00    -0.184 C  
BRANCH   2   3
HETATM    3  C   UNL     1     -10.184   9.090  67.228  1.00  0.00    -0.323 A  
HETATM    4  C   UNL     1     -10.928  11.626  66.145  1.00  0.00    -0.339 A  
HETATM    5  C   UNL     1      -9.909   9.418  65.902  1.00  0.00    -0.362 A  
HETATM    6  C   UNL     1     -10.237  10.670  65.388  1.00  0.00    -0.341 A  
HETATM    7  C   UNL     1     -10.961   9.989  67.969  1.00  0.00    -0.296 A  
HETATM    8  C   UNL     1     -11.341  11.227  67.430  1.00  0.00    -0.349 A  
BRANCH   4   9
HETATM    9  C   UNL     1     -11.142  12.994  65.628  1.00  0.00    -0.301 A  
HETATM   10  C   UNL     1     -12.287  13.330  64.879  1.00  0.00    -0.476 A  
HETATM   11  C   UNL     1     -12.438  14.589  64.294  1.00  0.00    -0.293 A  
HETATM   12  C   UNL     1     -11.458  15.559  64.468  1.00  0.00    -0.311 A  
HETATM   13  C   UNL     1     -10.326  15.268  65.223  1.00  0.00    -0.430 A  
HETATM   14  C   UNL     1     -10.170  13.998  65.791  1.00  0.00    -0.343 A  
ENDBRANCH   4   9
ENDBRANCH   2   3
ENDBRANCH   1   2
BRANCH   1  15
HETATM   15  C   UNL     1      -8.551   8.526  70.193  1.00  0.00    -0.132 C  
HETATM   16  C   UNL     1      -9.161   8.277  72.584  1.00  0.00    -0.274 C  
HETATM   17  C   UNL     1      -7.688   6.566  71.561  1.00  0.00    -0.099 C  
HETATM   18  C   UNL     1      -8.848   7.520  71.306  1.00  0.00    -0.137 C  
HETATM   19  O   UNL     1      -8.328   8.633  73.405  1.00  0.00    -0.398 OA 
BRANCH  16  20
HETATM   20  O   UNL     1     -10.507   8.452  72.700  1.00  0.00    -0.326 OA 
BRANCH  20  21
HETATM   21  C   UNL     1     -11.301   7.304  72.372  1.00  0.00    -0.284 C  
HETATM   22  C   UNL     1     -12.231   7.696  71.237  1.00  0.00    -0.339 C  
ENDBRANCH  20  21
ENDBRANCH  16  20
ENDBRANCH   1  15
BRANCH   1  23
HETATM   23  N   UNL     1      -7.293   8.650  68.089  1.00  0.00    -0.090 N  
HETATM   24  C   UNL     1      -6.365   8.019  67.305  1.00  0.00    -0.056 C  
HETATM   25  H   UNL     1      -7.232   9.662  68.201  1.00  0.00     0.000 HD 
HETATM   26  O   UNL     1      -6.296   6.804  67.128  1.00  0.00    -0.038 OA 
BRANCH  24  27
HETATM   27  C   UNL     1      -5.282   8.910  66.755  1.00  0.00    -0.039 C  
BRANCH  27  28
HETATM   28  C   UNL     1      -5.910   9.939  65.836  1.00  0.00    -0.070 C  
HETATM   29  O   UNL     1      -6.935  10.271  63.708  1.00  0.00    -0.127 OA 
HETATM   30  C   UNL     1      -6.322   9.506  64.444  1.00  0.00    -0.093 C  
HETATM   31  O   UNL     1      -5.999   8.270  64.033  1.00  0.00    -0.064 OA 
ENDBRANCH  27  28
ENDBRANCH  24  27
ENDBRANCH   1  23
TORSDOF 9
ENDMDL
MODEL      156
REMARK 921   NORMALIZED FREE ENERGY PREDICTED BY IDOCK:   -4.67 KCAL/MOL
REMARK 922        TOTAL FREE ENERGY PREDICTED BY IDOCK:   -8.95 KCAL/MOL
REMARK 923 INTER-LIGAND FREE ENERGY PREDICTED BY IDOCK:   -8.58 KCAL/MOL
REMARK 924 INTRA-LIGAND FREE ENERGY PREDICTED BY IDOCK:   -0.37 KCAL/MOL
REMARK 927      BINDING AFFINITY PREDICTED BY RF-SCORE:    0.00 PKD
ROOT
HETATM    1  C   UNL     1      -9.574  14.702  65.424  1.00  0.00    -0.005 C  
ENDROOT
BRANCH   1   2
HETATM    2  C   UNL     1     -10.217  16.012  65.959  1.00  0.00    -0.360 C  
BRANCH   2   3
HETATM    3  C   UNL     1     -10.791  16.041  67.359  1.00  0.00    -0.277 A  
HETATM    4  C   UNL     1     -11.682  15.785  70.061  1.00  0.00    -0.362 A  
HETATM    5  C   UNL     1     -10.412  16.961  68.334  1.00  0.00    -0.355 A  
HETATM    6  C   UNL     1     -10.816  16.811  69.659  1.00  0.00    -0.205 A  
HETATM    7  C   UNL     1     -11.733  15.070  67.717  1.00  0.00    -0.294 A  
HETATM    8  C   UNL     1     -12.184  14.955  69.039  1.00  0.00    -0.171 A  
BRANCH   4   9
HETATM    9  C   UNL     1     -11.984  15.562  71.489  1.00  0.00    -0.463 A  
HETATM   10  C   UNL     1     -12.656  14.405  71.931  1.00  0.00    -0.413 A  
HETATM   11  C   UNL     1     -13.044  14.244  73.263  1.00  0.00    -0.236 A  
HETATM   12  C   UNL     1     -12.742  15.227  74.198  1.00  0.00    -0.508 A  
HETATM   13  C   UNL     1     -12.057  16.372  73.801  1.00  0.00    -0.487 A  
HETATM   14  C   UNL     1     -11.689  16.537  72.460  1.00  0.00    -0.350 A  
ENDBRANCH   4   9
ENDBRANCH   2   3
ENDBRANCH   1   2
BRANCH   1  15
HETATM   15  C   UNL     1     -10.428  13.907  64.405  1.00  0.00    -0.189 C  
HETATM   16  C   UNL     1     -11.654  11.856  63.739  1.00  0.00    -0.462 C  
HETATM   17  C   UNL     1     -12.014  12.754  66.021  1.00  0.00    -0.491 C  
HETATM   18  C   UNL     1     -10.995  12.577  64.902  1.00  0.00    -0.335 C  
HETATM   19  O   UNL     1     -12.821  11.997  63.402  1.00  0.00    -0.760 OA 
BRANCH  16  20
HETATM   20  O   UNL     1     -10.766  10.998  63.165  1.00  0.00    -0.203 OA 
BRANCH  20  21
HETATM   21  C   UNL     1      -9.800  10.432  64.062  1.00  0.00    -0.289 C  
HETATM   22  C   UNL     1      -8.989   9.413  63.280  1.00  0.00    -0.155 C  
ENDBRANCH  20  21
ENDBRANCH  16  20
ENDBRANCH   1  15
BRANCH   1  23
HETATM   23  N   UNL     1      -9.161  13.802  66.504  1.00  0.00    -0.444 N  
HETATM   24  C   UNL     1      -7.955  13.918  67.143  1.00  0.00    -0.050 C  
HETATM   25  H   UNL     1      -9.797  13.059  66.793  1.00  0.00     0.000 HD 
HETATM   26  O   UNL     1      -7.079  14.734  66.860  1.00  0.00    -0.036 OA 
BRANCH  24  27
HETATM   27  C   UNL     1      -7.669  12.850  68.165  1.00  0.00    -0.138 C  
BRANCH  27  28
HETATM   28  C   UNL     1      -6.459  13.261  68.981  1.00  0.00    -0.102 C  
HETATM   29  O   UNL     1      -5.680  14.725  70.695  1.00  0.00    -0.143 OA 
HETATM   30  C   UNL     1      -6.596  14.430  69.935  1.00  0.00    -0.133 C  
HETATM   31  O   UNL     1      -7.737  15.136  69.928  1.00  0.00    -0.160 OA 
ENDBRANCH  27  28
ENDBRANCH  24  27
ENDBRANCH   1  23
TORSDOF 9
ENDMDL
MODEL      157
REMARK 921   NORMALIZED FREE ENERGY PREDICTED BY IDOCK:   -4.67 KCAL/MOL
REMARK 922        TOTAL FREE ENERGY PREDICTED BY IDOCK:   -8.94 KCAL/MOL
REMARK 923 INTER-LIGAND FREE ENERGY PREDICTED BY IDOCK:   -7.21 KCAL/MOL
REMARK 924 INTRA-LIGAND FREE ENERGY PREDICTED BY IDOCK:   -1.73 KCAL/MOL
REMARK 927      BINDING AFFINITY PREDICTED BY RF-SCORE:    0.00 PKD
ROOT
HETATM    1  C   UNL     1      -9.208  11.643  68.136  1.00  0.00    -0.184 C  
ENDROOT
BRANCH   1   2
HETATM    2  C   UNL     1      -7.854  12.407  68.144  1.00  0.00    -0.146 C  
BRANCH   2   3
HETATM    3  C   UNL     1      -7.855  13.920  68.113  1.00  0.00    -0.147 A  
HETATM    4  C   UNL     1      -7.486  16.752  68.089  1.00  0.00    -0.172 A  
HETATM    5  C   UNL     1      -8.123  14.673  66.972  1.00  0.00    -0.153 A  
HETATM    6  C   UNL     1      -7.904  16.049  66.952  1.00  0.00    -0.284 A  
HETATM    7  C   UNL     1      -7.534  14.614  69.286  1.00  0.00    -0.132 A  
HETATM    8  C   UNL     1      -7.371  16.006  69.278  1.00  0.00    -0.231 A  
BRANCH   4   9
HETATM    9  C   UNL     1      -7.128  18.183  68.008  1.00  0.00    -0.222 A  
HETATM   10  C   UNL     1      -6.470  18.841  69.065  1.00  0.00    -0.293 A  
HETATM   11  C   UNL     1      -6.231  20.217  69.039  1.00  0.00    -0.361 A  
HETATM   12  C   UNL     1      -6.619  20.969  67.937  1.00  0.00    -0.333 A  
HETATM   13  C   UNL     1      -7.250  20.346  66.864  1.00  0.00    -0.333 A  
HETATM   14  C   UNL     1      -7.505  18.970  66.904  1.00  0.00    -0.230 A  
ENDBRANCH   4   9
ENDBRANCH   2   3
ENDBRANCH   1   2
BRANCH   1  15
HETATM   15  C   UNL     1      -9.105  10.102  68.018  1.00  0.00    -0.131 C  
HETATM   16  C   UNL     1      -8.314   7.912  68.873  1.00  0.00    -0.127 C  
HETATM   17  C   UNL     1      -9.355   9.494  70.473  1.00  0.00    -0.296 C  
HETATM   18  C   UNL     1      -8.496   9.379  69.219  1.00  0.00    -0.141 C  
HETATM   19  O   UNL     1      -9.162   7.046  69.038  1.00  0.00    -0.139 OA 
BRANCH  16  20
HETATM   20  O   UNL     1      -7.054   7.702  68.400  1.00  0.00    -0.076 OA 
BRANCH  20  21
HETATM   21  C   UNL     1      -6.965   6.805  67.284  1.00  0.00    -0.074 C  
HETATM   22  C   UNL     1      -6.868   7.646  66.024  1.00  0.00    -0.061 C  
ENDBRANCH  20  21
ENDBRANCH  16  20
ENDBRANCH   1  15
BRANCH   1  23
HETATM   23  N   UNL     1     -10.122  12.140  67.103  1.00  0.00    -0.206 N  
HETATM   24  C   UNL     1     -11.402  12.541  67.378  1.00  0.00    -0.313 C  
HETATM   25  H   UNL     1      -9.791  12.190  66.140  1.00  0.00     0.000 HD 
HETATM   26  O   UNL     1     -11.939  12.485  68.483  1.00  0.00    -0.313 OA 
BRANCH  24  27
HETATM   27  C   UNL     1     -12.219  12.937  66.178  1.00  0.00    -0.385 C  
BRANCH  27  28
HETATM   28  C   UNL     1     -12.073  14.430  65.954  1.00  0.00    -0.358 C  
HETATM   29  O   UNL     1     -10.951  16.099  64.672  1.00  0.00    -0.642 OA 
HETATM   30  C   UNL     1     -11.028  14.912  64.969  1.00  0.00    -0.420 C  
HETATM   31  O   UNL     1     -10.188  14.014  64.431  1.00  0.00    -0.310 OA 
ENDBRANCH  27  28
ENDBRANCH  24  27
ENDBRANCH   1  23
TORSDOF 9
ENDMDL
MODEL      158
REMARK 921   NORMALIZED FREE ENERGY PREDICTED BY IDOCK:   -4.66 KCAL/MOL
REMARK 922        TOTAL FREE ENERGY PREDICTED BY IDOCK:   -8.93 KCAL/MOL
REMARK 923 INTER-LIGAND FREE ENERGY PREDICTED BY IDOCK:   -7.22 KCAL/MOL
REMARK 924 INTRA-LIGAND FREE ENERGY PREDICTED BY IDOCK:   -1.70 KCAL/MOL
REMARK 927      BINDING AFFINITY PREDICTED BY RF-SCORE:    0.00 PKD
ROOT
HETATM    1  C   UNL     1      -9.359  10.773  65.680  1.00  0.00    -0.207 C  
ENDROOT
BRANCH   1   2
HETATM    2  C   UNL     1      -9.865   9.350  66.047  1.00  0.00    -0.366 C  
BRANCH   2   3
HETATM    3  C   UNL     1      -9.823   8.893  67.488  1.00  0.00    -0.237 A  
HETATM    4  C   UNL     1      -9.975   7.763  70.107  1.00  0.00    -0.186 A  
HETATM    5  C   UNL     1      -8.718   8.280  68.076  1.00  0.00    -0.135 A  
HETATM    6  C   UNL     1      -8.807   7.695  69.337  1.00  0.00    -0.139 A  
HETATM    7  C   UNL     1     -10.966   9.060  68.279  1.00  0.00     0.025 A  
HETATM    8  C   UNL     1     -11.034   8.521  69.571  1.00  0.00    -0.057 A  
BRANCH   4   9
HETATM    9  C   UNL     1     -10.092   7.018  71.377  1.00  0.00    -0.197 A  
HETATM   10  C   UNL     1     -10.105   5.610  71.410  1.00  0.00    -0.254 A  
HETATM   11  C   UNL     1     -10.329   4.904  72.594  1.00  0.00    -0.250 A  
HETATM   12  C   UNL     1     -10.516   5.592  73.788  1.00  0.00    -0.302 A  
HETATM   13  C   UNL     1     -10.484   6.983  73.796  1.00  0.00    -0.392 A  
HETATM   14  C   UNL     1     -10.280   7.685  72.602  1.00  0.00    -0.321 A  
ENDBRANCH   4   9
ENDBRANCH   2   3
ENDBRANCH   1   2
BRANCH   1  15
HETATM   15  C   UNL     1      -8.197  11.314  66.549  1.00  0.00    -0.165 C  
HETATM   16  C   UNL     1      -7.213  13.065  68.005  1.00  0.00    -0.119 C  
HETATM   17  C   UNL     1      -9.552  12.361  68.427  1.00  0.00    -0.180 C  
HETATM   18  C   UNL     1      -8.495  12.581  67.351  1.00  0.00    -0.181 C  
HETATM   19  O   UNL     1      -6.812  12.706  69.103  1.00  0.00    -0.102 OA 
BRANCH  16  20
HETATM   20  O   UNL     1      -6.608  13.989  67.208  1.00  0.00    -0.266 OA 
BRANCH  20  21
HETATM   21  C   UNL     1      -6.069  15.126  67.896  1.00  0.00    -0.154 C  
HETATM   22  C   UNL     1      -7.231  16.025  68.280  1.00  0.00    -0.132 C  
ENDBRANCH  20  21
ENDBRANCH  16  20
ENDBRANCH   1  15
BRANCH   1  23
HETATM   23  N   UNL     1     -10.441  11.762  65.662  1.00  0.00    -0.255 N  
HETATM   24  C   UNL     1     -11.150  12.063  64.530  1.00  0.00    -0.331 C  
HETATM   25  H   UNL     1     -10.676  12.246  66.529  1.00  0.00     0.000 HD 
HETATM   26  O   UNL     1     -10.936  11.592  63.415  1.00  0.00    -0.392 OA 
BRANCH  24  27
HETATM   27  C   UNL     1     -12.163  13.166  64.686  1.00  0.00    -0.471 C  
BRANCH  27  28
HETATM   28  C   UNL     1     -12.005  13.790  66.059  1.00  0.00    -0.443 C  
HETATM   29  O   UNL     1     -11.132  15.661  67.252  1.00  0.00    -0.309 OA 
HETATM   30  C   UNL     1     -11.192  15.061  66.184  1.00  0.00    -0.307 C  
HETATM   31  O   UNL     1     -10.537  15.515  65.104  1.00  0.00    -0.394 OA 
ENDBRANCH  27  28
ENDBRANCH  24  27
ENDBRANCH   1  23
TORSDOF 9
ENDMDL
MODEL      159
REMARK 921   NORMALIZED FREE ENERGY PREDICTED BY IDOCK:   -4.64 KCAL/MOL
REMARK 922        TOTAL FREE ENERGY PREDICTED BY IDOCK:   -8.91 KCAL/MOL
REMARK 923 INTER-LIGAND FREE ENERGY PREDICTED BY IDOCK:   -7.81 KCAL/MOL
REMARK 924 INTRA-LIGAND FREE ENERGY PREDICTED BY IDOCK:   -1.10 KCAL/MOL
REMARK 927      BINDING AFFINITY PREDICTED BY RF-SCORE:    0.00 PKD
ROOT
HETATM    1  C   UNL     1      -9.453   7.297  68.471  1.00  0.00    -0.140 C  
ENDROOT
BRANCH   1   2
HETATM    2  C   UNL     1     -10.572   7.879  67.561  1.00  0.00    -0.312 C  
BRANCH   2   3
HETATM    3  C   UNL     1     -10.580   9.359  67.248  1.00  0.00    -0.314 A  
HETATM    4  C   UNL     1     -10.812  12.067  66.369  1.00  0.00    -0.314 A  
HETATM    5  C   UNL     1     -11.265  10.309  68.005  1.00  0.00    -0.303 A  
HETATM    6  C   UNL     1     -11.410  11.618  67.555  1.00  0.00    -0.364 A  
HETATM    7  C   UNL     1      -9.892   9.809  66.115  1.00  0.00    -0.329 A  
HETATM    8  C   UNL     1      -9.992  11.143  65.694  1.00  0.00    -0.297 A  
BRANCH   4   9
HETATM    9  C   UNL     1     -11.093  13.418  65.841  1.00  0.00    -0.293 A  
HETATM   10  C   UNL     1     -12.056  13.632  64.835  1.00  0.00    -0.426 A  
HETATM   11  C   UNL     1     -12.245  14.888  64.254  1.00  0.00    -0.365 A  
HETATM   12  C   UNL     1     -11.493  15.973  64.686  1.00  0.00    -0.252 A  
HETATM   13  C   UNL     1     -10.549  15.802  65.696  1.00  0.00    -0.393 A  
HETATM   14  C   UNL     1     -10.350  14.537  66.260  1.00  0.00    -0.300 A  
ENDBRANCH   4   9
ENDBRANCH   2   3
ENDBRANCH   1   2
BRANCH   1  15
HETATM   15  C   UNL     1      -8.999   5.856  68.132  1.00  0.00    -0.115 C  
HETATM   16  C   UNL     1      -7.908   4.230  66.609  1.00  0.00    -0.098 C  
HETATM   17  C   UNL     1      -6.762   6.384  67.047  1.00  0.00    -0.060 C  
HETATM   18  C   UNL     1      -8.119   5.707  66.891  1.00  0.00    -0.102 C  
HETATM   19  O   UNL     1      -7.006   3.552  67.082  1.00  0.00    -0.056 OA 
BRANCH  16  20
HETATM   20  O   UNL     1      -8.839   3.792  65.717  1.00  0.00    -0.116 OA 
BRANCH  20  21
HETATM   21  C   UNL     1      -8.390   2.764  64.823  1.00  0.00    -0.088 C  
HETATM   22  C   UNL     1      -9.599   1.933  64.434  1.00  0.00    -0.096 C  
ENDBRANCH  20  21
ENDBRANCH  16  20
ENDBRANCH   1  15
BRANCH   1  23
HETATM   23  N   UNL     1      -9.800   7.366  69.893  1.00  0.00    -0.178 N  
HETATM   24  C   UNL     1     -10.906   6.751  70.416  1.00  0.00    -0.262 C  
HETATM   25  H   UNL     1      -9.193   7.894  70.520  1.00  0.00     0.000 HD 
HETATM   26  O   UNL     1     -11.744   6.128  69.766  1.00  0.00    -0.340 OA 
BRANCH  24  27
HETATM   27  C   UNL     1     -11.147   7.007  71.880  1.00  0.00    -0.274 C  
BRANCH  27  28
HETATM   28  C   UNL     1     -11.452   8.479  72.079  1.00  0.00    -0.431 C  
HETATM   29  O   UNL     1     -13.202  10.084  72.309  1.00  0.00    -0.427 OA 
HETATM   30  C   UNL     1     -12.900   8.926  72.041  1.00  0.00    -0.397 C  
HETATM   31  O   UNL     1     -13.841   8.031  71.706  1.00  0.00    -0.365 OA 
ENDBRANCH  27  28
ENDBRANCH  24  27
ENDBRANCH   1  23
TORSDOF 9
ENDMDL
MODEL      160
REMARK 921   NORMALIZED FREE ENERGY PREDICTED BY IDOCK:   -4.62 KCAL/MOL
REMARK 922        TOTAL FREE ENERGY PREDICTED BY IDOCK:   -8.87 KCAL/MOL
REMARK 923 INTER-LIGAND FREE ENERGY PREDICTED BY IDOCK:   -7.19 KCAL/MOL
REMARK 924 INTRA-LIGAND FREE ENERGY PREDICTED BY IDOCK:   -1.69 KCAL/MOL
REMARK 927      BINDING AFFINITY PREDICTED BY RF-SCORE:    0.00 PKD
ROOT
HETATM    1  C   UNL     1     -10.324   7.378  67.395  1.00  0.00    -0.270 C  
ENDROOT
BRANCH   1   2
HETATM    2  C   UNL     1     -10.228   8.616  66.460  1.00  0.00    -0.295 C  
BRANCH   2   3
HETATM    3  C   UNL     1     -10.241  10.005  67.060  1.00  0.00    -0.295 A  
HETATM    4  C   UNL     1     -10.200  12.750  67.850  1.00  0.00    -0.229 A  
HETATM    5  C   UNL     1     -11.393  10.642  67.518  1.00  0.00    -0.241 A  
HETATM    6  C   UNL     1     -11.378  11.991  67.865  1.00  0.00    -0.369 A  
HETATM    7  C   UNL     1      -9.037  10.715  67.134  1.00  0.00    -0.154 A  
HETATM    8  C   UNL     1      -9.015  12.057  67.539  1.00  0.00    -0.174 A  
BRANCH   4   9
HETATM    9  C   UNL     1     -10.233  14.208  68.086  1.00  0.00    -0.241 A  
HETATM   10  C   UNL     1      -9.065  14.993  68.023  1.00  0.00    -0.178 A  
HETATM   11  C   UNL     1      -9.073  16.349  68.357  1.00  0.00    -0.214 A  
HETATM   12  C   UNL     1     -10.260  16.965  68.734  1.00  0.00    -0.311 A  
HETATM   13  C   UNL     1     -11.437  16.224  68.783  1.00  0.00    -0.289 A  
HETATM   14  C   UNL     1     -11.420  14.860  68.467  1.00  0.00    -0.336 A  
ENDBRANCH   4   9
ENDBRANCH   2   3
ENDBRANCH   1   2
BRANCH   1  15
HETATM   15  C   UNL     1     -10.185   7.672  68.909  1.00  0.00    -0.217 C  
HETATM   16  C   UNL     1     -10.932   7.359  71.254  1.00  0.00    -0.242 C  
HETATM   17  C   UNL     1     -10.692   5.354  69.817  1.00  0.00    -0.280 C  
HETATM   18  C   UNL     1     -11.063   6.832  69.836  1.00  0.00    -0.374 C  
HETATM   19  O   UNL     1     -10.085   6.995  72.058  1.00  0.00    -0.185 OA 
BRANCH  16  20
HETATM   20  O   UNL     1     -11.925   8.257  71.507  1.00  0.00    -0.278 OA 
BRANCH  20  21
HETATM   21  C   UNL     1     -11.513   9.630  71.527  1.00  0.00    -0.369 C  
HETATM   22  C   UNL     1     -12.716  10.477  71.150  1.00  0.00    -0.518 C  
ENDBRANCH  20  21
ENDBRANCH  16  20
ENDBRANCH   1  15
BRANCH   1  23
HETATM   23  N   UNL     1      -9.373   6.326  67.025  1.00  0.00    -0.122 N  
HETATM   24  C   UNL     1      -9.748   5.191  66.357  1.00  0.00    -0.173 C  
HETATM   25  H   UNL     1      -8.391   6.444  67.275  1.00  0.00     0.000 HD 
HETATM   26  O   UNL     1     -10.902   4.904  66.041  1.00  0.00    -0.301 OA 
BRANCH  24  27
HETATM   27  C   UNL     1      -8.650   4.185  66.141  1.00  0.00    -0.113 C  
BRANCH  27  28
HETATM   28  C   UNL     1      -9.065   2.863  66.757  1.00  0.00    -0.171 C  
HETATM   29  O   UNL     1      -9.105   1.589  68.772  1.00  0.00    -0.092 OA 
HETATM   30  C   UNL     1      -8.694   2.593  68.200  1.00  0.00    -0.103 C  
HETATM   31  O   UNL     1      -7.905   3.472  68.837  1.00  0.00    -0.052 OA 
ENDBRANCH  27  28
ENDBRANCH  24  27
ENDBRANCH   1  23
TORSDOF 9
ENDMDL
MODEL      161
REMARK 921   NORMALIZED FREE ENERGY PREDICTED BY IDOCK:   -4.61 KCAL/MOL
REMARK 922        TOTAL FREE ENERGY PREDICTED BY IDOCK:   -8.86 KCAL/MOL
REMARK 923 INTER-LIGAND FREE ENERGY PREDICTED BY IDOCK:   -7.17 KCAL/MOL
REMARK 924 INTRA-LIGAND FREE ENERGY PREDICTED BY IDOCK:   -1.70 KCAL/MOL
REMARK 927      BINDING AFFINITY PREDICTED BY RF-SCORE:    0.00 PKD
ROOT
HETATM    1  C   UNL     1     -10.143   8.902  68.645  1.00  0.00    -0.188 C  
ENDROOT
BRANCH   1   2
HETATM    2  C   UNL     1     -10.792   9.711  67.487  1.00  0.00    -0.265 C  
BRANCH   2   3
HETATM    3  C   UNL     1     -10.448  11.174  67.318  1.00  0.00    -0.263 A  
HETATM    4  C   UNL     1     -10.097  14.007  67.208  1.00  0.00    -0.249 A  
HETATM    5  C   UNL     1      -9.358  11.791  67.929  1.00  0.00    -0.184 A  
HETATM    6  C   UNL     1      -9.212  13.176  67.907  1.00  0.00    -0.207 A  
HETATM    7  C   UNL     1     -11.287  11.973  66.531  1.00  0.00    -0.413 A  
HETATM    8  C   UNL     1     -11.103  13.361  66.463  1.00  0.00    -0.312 A  
BRANCH   4   9
HETATM    9  C   UNL     1     -10.003  15.477  67.313  1.00  0.00    -0.238 A  
HETATM   10  C   UNL     1     -10.787  16.204  68.231  1.00  0.00    -0.326 A  
HETATM   11  C   UNL     1     -10.784  17.600  68.255  1.00  0.00    -0.285 A  
HETATM   12  C   UNL     1      -9.970  18.309  67.379  1.00  0.00    -0.344 A  
HETATM   13  C   UNL     1      -9.164  17.622  66.477  1.00  0.00    -0.286 A  
HETATM   14  C   UNL     1      -9.186  16.222  66.443  1.00  0.00    -0.332 A  
ENDBRANCH   4   9
ENDBRANCH   2   3
ENDBRANCH   1   2
BRANCH   1  15
HETATM   15  C   UNL     1      -9.133   7.810  68.213  1.00  0.00    -0.130 C  
HETATM   16  C   UNL     1      -7.202   7.063  66.847  1.00  0.00    -0.077 C  
HETATM   17  C   UNL     1      -7.049   9.250  68.005  1.00  0.00    -0.078 C  
HETATM   18  C   UNL     1      -7.992   8.275  67.309  1.00  0.00    -0.105 C  
HETATM   19  O   UNL     1      -6.256   6.576  67.450  1.00  0.00    -0.032 OA 
BRANCH  16  20
HETATM   20  O   UNL     1      -7.674   6.636  65.643  1.00  0.00    -0.085 OA 
BRANCH  20  21
HETATM   21  C   UNL     1      -6.960   7.128  64.500  1.00  0.00    -0.051 C  
HETATM   22  C   UNL     1      -7.966   7.805  63.586  1.00  0.00    -0.103 C  
ENDBRANCH  20  21
ENDBRANCH  16  20
ENDBRANCH   1  15
BRANCH   1  23
HETATM   23  N   UNL     1     -11.142   8.303  69.534  1.00  0.00    -0.442 N  
HETATM   24  C   UNL     1     -11.530   8.886  70.711  1.00  0.00    -0.275 C  
HETATM   25  H   UNL     1     -11.566   7.415  69.266  1.00  0.00     0.000 HD 
HETATM   26  O   UNL     1     -11.064   9.926  71.173  1.00  0.00    -0.350 OA 
BRANCH  24  27
HETATM   27  C   UNL     1     -12.501   8.081  71.533  1.00  0.00    -0.334 C  
BRANCH  27  28
HETATM   28  C   UNL     1     -11.962   6.673  71.692  1.00  0.00    -0.395 C  
HETATM   29  O   UNL     1     -10.729   5.218  73.124  1.00  0.00    -0.220 OA 
HETATM   30  C   UNL     1     -11.093   6.366  72.894  1.00  0.00    -0.226 C  
HETATM   31  O   UNL     1     -10.727   7.376  73.698  1.00  0.00    -0.371 OA 
ENDBRANCH  27  28
ENDBRANCH  24  27
ENDBRANCH   1  23
TORSDOF 9
ENDMDL
MODEL      162
REMARK 921   NORMALIZED FREE ENERGY PREDICTED BY IDOCK:   -4.61 KCAL/MOL
REMARK 922        TOTAL FREE ENERGY PREDICTED BY IDOCK:   -8.85 KCAL/MOL
REMARK 923 INTER-LIGAND FREE ENERGY PREDICTED BY IDOCK:   -7.16 KCAL/MOL
REMARK 924 INTRA-LIGAND FREE ENERGY PREDICTED BY IDOCK:   -1.69 KCAL/MOL
REMARK 927      BINDING AFFINITY PREDICTED BY RF-SCORE:    0.00 PKD
ROOT
HETATM    1  C   UNL     1     -10.383  11.324  67.477  1.00  0.00    -0.194 C  
ENDROOT
BRANCH   1   2
HETATM    2  C   UNL     1      -9.210  12.148  68.080  1.00  0.00    -0.194 C  
BRANCH   2   3
HETATM    3  C   UNL     1      -9.286  13.659  68.081  1.00  0.00    -0.212 A  
HETATM    4  C   UNL     1      -9.474  16.486  67.716  1.00  0.00    -0.222 A  
HETATM    5  C   UNL     1     -10.370  14.381  68.578  1.00  0.00    -0.248 A  
HETATM    6  C   UNL     1     -10.477  15.753  68.364  1.00  0.00    -0.245 A  
HETATM    7  C   UNL     1      -8.227  14.384  67.521  1.00  0.00    -0.201 A  
HETATM    8  C   UNL     1      -8.312  15.774  67.359  1.00  0.00    -0.189 A  
BRANCH   4   9
HETATM    9  C   UNL     1      -9.671  17.910  67.378  1.00  0.00    -0.288 A  
HETATM   10  C   UNL     1      -8.892  18.551  66.395  1.00  0.00    -0.267 A  
HETATM   11  C   UNL     1      -8.998  19.922  66.153  1.00  0.00    -0.373 A  
HETATM   12  C   UNL     1      -9.912  20.686  66.869  1.00  0.00    -0.339 A  
HETATM   13  C   UNL     1     -10.716  20.079  67.830  1.00  0.00    -0.295 A  
HETATM   14  C   UNL     1     -10.591  18.708  68.083  1.00  0.00    -0.288 A  
ENDBRANCH   4   9
ENDBRANCH   2   3
ENDBRANCH   1   2
BRANCH   1  15
HETATM   15  C   UNL     1     -10.501   9.864  67.978  1.00  0.00    -0.266 C  
HETATM   16  C   UNL     1     -10.572   8.205  69.821  1.00  0.00    -0.231 C  
HETATM   17  C   UNL     1     -11.944  10.258  70.032  1.00  0.00    -0.273 C  
HETATM   18  C   UNL     1     -10.640   9.685  69.490  1.00  0.00    -0.247 C  
HETATM   19  O   UNL     1     -11.535   7.451  69.846  1.00  0.00    -0.145 OA 
BRANCH  16  20
HETATM   20  O   UNL     1      -9.292   7.859  70.131  1.00  0.00    -0.156 OA 
BRANCH  20  21
HETATM   21  C   UNL     1      -9.110   7.317  71.447  1.00  0.00    -0.142 C  
HETATM   22  C   UNL     1      -8.858   8.480  72.391  1.00  0.00    -0.268 C  
ENDBRANCH  20  21
ENDBRANCH  16  20
ENDBRANCH   1  15
BRANCH   1  23
HETATM   23  N   UNL     1     -10.369  11.326  66.011  1.00  0.00    -0.245 N  
HETATM   24  C   UNL     1     -11.075  12.231  65.265  1.00  0.00    -0.316 C  
HETATM   25  H   UNL     1      -9.810  10.624  65.526  1.00  0.00     0.000 HD 
HETATM   26  O   UNL     1     -11.823  13.094  65.722  1.00  0.00    -0.356 OA 
BRANCH  24  27
HETATM   27  C   UNL     1     -11.008  12.022  63.776  1.00  0.00    -0.492 C  
BRANCH  27  28
HETATM   28  C   UNL     1      -9.568  12.159  63.323  1.00  0.00     0.132 C  
HETATM   29  O   UNL     1      -7.714  10.997  62.374  1.00  0.00    -0.131 OA 
HETATM   30  C   UNL     1      -8.839  10.916  62.855  1.00  0.00    -0.251 C  
HETATM   31  O   UNL     1      -9.449   9.728  62.978  1.00  0.00    -0.219 OA 
ENDBRANCH  27  28
ENDBRANCH  24  27
ENDBRANCH   1  23
TORSDOF 9
ENDMDL
MODEL      163
REMARK 921   NORMALIZED FREE ENERGY PREDICTED BY IDOCK:   -4.61 KCAL/MOL
REMARK 922        TOTAL FREE ENERGY PREDICTED BY IDOCK:   -8.85 KCAL/MOL
REMARK 923 INTER-LIGAND FREE ENERGY PREDICTED BY IDOCK:   -6.67 KCAL/MOL
REMARK 924 INTRA-LIGAND FREE ENERGY PREDICTED BY IDOCK:   -2.18 KCAL/MOL
REMARK 927      BINDING AFFINITY PREDICTED BY RF-SCORE:    0.00 PKD
ROOT
HETATM    1  C   UNL     1      -9.515  10.681  67.476  1.00  0.00    -0.153 C  
ENDROOT
BRANCH   1   2
HETATM    2  C   UNL     1      -9.050  10.779  68.956  1.00  0.00    -0.153 C  
BRANCH   2   3
HETATM    3  C   UNL     1      -9.216   9.582  69.868  1.00  0.00    -0.242 A  
HETATM    4  C   UNL     1      -9.730   7.175  71.316  1.00  0.00    -0.170 A  
HETATM    5  C   UNL     1      -8.191   8.686  70.165  1.00  0.00    -0.123 A  
HETATM    6  C   UNL     1      -8.452   7.494  70.837  1.00  0.00    -0.125 A  
HETATM    7  C   UNL     1     -10.476   9.332  70.423  1.00  0.00    -0.296 A  
HETATM    8  C   UNL     1     -10.723   8.159  71.149  1.00  0.00    -0.258 A  
BRANCH   4   9
HETATM    9  C   UNL     1     -10.012   5.848  71.901  1.00  0.00    -0.203 A  
HETATM   10  C   UNL     1      -9.387   4.681  71.419  1.00  0.00    -0.206 A  
HETATM   11  C   UNL     1      -9.735   3.413  71.892  1.00  0.00    -0.235 A  
HETATM   12  C   UNL     1     -10.700   3.282  72.884  1.00  0.00    -0.173 A  
HETATM   13  C   UNL     1     -11.319   4.417  73.400  1.00  0.00    -0.353 A  
HETATM   14  C   UNL     1     -10.981   5.683  72.908  1.00  0.00    -0.323 A  
ENDBRANCH   4   9
ENDBRANCH   2   3
ENDBRANCH   1   2
BRANCH   1  15
HETATM   15  C   UNL     1     -10.835  11.418  67.139  1.00  0.00    -0.316 C  
HETATM   16  C   UNL     1     -12.102  13.508  66.715  1.00  0.00    -0.375 C  
HETATM   17  C   UNL     1      -9.912  13.211  65.593  1.00  0.00    -0.237 C  
HETATM   18  C   UNL     1     -10.711  12.916  66.856  1.00  0.00    -0.272 C  
HETATM   19  O   UNL     1     -12.731  13.568  65.669  1.00  0.00    -0.480 OA 
BRANCH  16  20
HETATM   20  O   UNL     1     -12.516  14.005  67.914  1.00  0.00    -0.115 OA 
BRANCH  20  21
HETATM   21  C   UNL     1     -11.679  15.027  68.472  1.00  0.00    -0.320 C  
HETATM   22  C   UNL     1     -11.980  15.109  69.958  1.00  0.00    -0.374 C  
ENDBRANCH  20  21
ENDBRANCH  16  20
ENDBRANCH   1  15
BRANCH   1  23
HETATM   23  N   UNL     1      -9.612   9.294  67.013  1.00  0.00    -0.161 N  
HETATM   24  C   UNL     1      -8.604   8.670  66.328  1.00  0.00    -0.137 C  
HETATM   25  H   UNL     1     -10.466   8.772  67.208  1.00  0.00     0.000 HD 
HETATM   26  O   UNL     1      -7.547   9.199  65.987  1.00  0.00    -0.093 OA 
BRANCH  24  27
HETATM   27  C   UNL     1      -8.919   7.275  65.858  1.00  0.00    -0.103 C  
BRANCH  27  28
HETATM   28  C   UNL     1      -8.996   6.355  67.061  1.00  0.00    -0.119 C  
HETATM   29  O   UNL     1     -10.477   5.154  68.493  1.00  0.00    -0.126 OA 
HETATM   30  C   UNL     1     -10.363   5.982  67.596  1.00  0.00    -0.206 C  
HETATM   31  O   UNL     1     -11.444   6.578  67.071  1.00  0.00    -0.223 OA 
ENDBRANCH  27  28
ENDBRANCH  24  27
ENDBRANCH   1  23
TORSDOF 9
ENDMDL
MODEL      164
REMARK 921   NORMALIZED FREE ENERGY PREDICTED BY IDOCK:   -4.59 KCAL/MOL
REMARK 922        TOTAL FREE ENERGY PREDICTED BY IDOCK:   -8.82 KCAL/MOL
REMARK 923 INTER-LIGAND FREE ENERGY PREDICTED BY IDOCK:   -7.81 KCAL/MOL
REMARK 924 INTRA-LIGAND FREE ENERGY PREDICTED BY IDOCK:   -1.01 KCAL/MOL
REMARK 927      BINDING AFFINITY PREDICTED BY RF-SCORE:    0.00 PKD
ROOT
HETATM    1  C   UNL     1     -11.008  13.786  68.190  1.00  0.00    -0.246 C  
ENDROOT
BRANCH   1   2
HETATM    2  C   UNL     1     -11.889  12.751  67.434  1.00  0.00    -0.404 C  
BRANCH   2   3
HETATM    3  C   UNL     1     -11.224  11.657  66.628  1.00  0.00    -0.362 A  
HETATM    4  C   UNL     1      -9.690   9.830  65.057  1.00  0.00    -0.303 A  
HETATM    5  C   UNL     1     -10.691  10.497  67.185  1.00  0.00    -0.323 A  
HETATM    6  C   UNL     1      -9.910   9.628  66.426  1.00  0.00    -0.309 A  
HETATM    7  C   UNL     1     -11.102  11.825  65.243  1.00  0.00    -0.333 A  
HETATM    8  C   UNL     1     -10.364  10.918  64.470  1.00  0.00    -0.417 A  
BRANCH   4   9
HETATM    9  C   UNL     1      -8.748   8.976  64.305  1.00  0.00    -0.140 A  
HETATM   10  C   UNL     1      -8.457   7.659  64.714  1.00  0.00     0.037 A  
HETATM   11  C   UNL     1      -7.484   6.890  64.073  1.00  0.00    -0.098 A  
HETATM   12  C   UNL     1      -6.795   7.408  62.983  1.00  0.00    -0.058 A  
HETATM   13  C   UNL     1      -7.075   8.697  62.537  1.00  0.00    -0.097 A  
HETATM   14  C   UNL     1      -8.038   9.471  63.196  1.00  0.00    -0.149 A  
ENDBRANCH   4   9
ENDBRANCH   2   3
ENDBRANCH   1   2
BRANCH   1  15
HETATM   15  C   UNL     1     -11.401  14.048  69.664  1.00  0.00    -0.270 C  
HETATM   16  C   UNL     1     -12.902  13.679  71.605  1.00  0.00    -0.338 C  
HETATM   17  C   UNL     1     -12.157  11.707  70.302  1.00  0.00    -0.443 C  
HETATM   18  C   UNL     1     -12.532  13.182  70.219  1.00  0.00    -0.233 C  
HETATM   19  O   UNL     1     -12.377  13.304  72.644  1.00  0.00     0.389 OA 
BRANCH  16  20
HETATM   20  O   UNL     1     -13.934  14.565  71.518  1.00  0.00    -0.397 OA 
BRANCH  20  21
HETATM   21  C   UNL     1     -13.998  15.530  72.577  1.00  0.00    -0.555 C  
HETATM   22  C   UNL     1     -12.692  16.306  72.570  1.00  0.00    -0.279 C  
ENDBRANCH  20  21
ENDBRANCH  16  20
ENDBRANCH   1  15
BRANCH   1  23
HETATM   23  N   UNL     1     -10.924  15.067  67.483  1.00  0.00    -0.298 N  
HETATM   24  C   UNL     1     -10.041  15.293  66.461  1.00  0.00    -0.270 C  
HETATM   25  H   UNL     1     -11.549  15.823  67.764  1.00  0.00     0.000 HD 
HETATM   26  O   UNL     1      -9.202  14.487  66.060  1.00  0.00    -0.208 OA 
BRANCH  24  27
HETATM   27  C   UNL     1     -10.039  16.696  65.917  1.00  0.00    -0.341 C  
BRANCH  27  28
HETATM   28  C   UNL     1      -9.132  17.556  66.774  1.00  0.00    -0.276 C  
HETATM   29  O   UNL     1      -9.073  19.366  68.327  1.00  0.00    -0.323 OA 
HETATM   30  C   UNL     1      -9.745  18.714  67.535  1.00  0.00    -0.310 C  
HETATM   31  O   UNL     1     -11.036  19.013  67.322  1.00  0.00    -0.459 OA 
ENDBRANCH  27  28
ENDBRANCH  24  27
ENDBRANCH   1  23
TORSDOF 9
ENDMDL
MODEL      165
REMARK 921   NORMALIZED FREE ENERGY PREDICTED BY IDOCK:   -4.59 KCAL/MOL
REMARK 922        TOTAL FREE ENERGY PREDICTED BY IDOCK:   -8.82 KCAL/MOL
REMARK 923 INTER-LIGAND FREE ENERGY PREDICTED BY IDOCK:   -6.47 KCAL/MOL
REMARK 924 INTRA-LIGAND FREE ENERGY PREDICTED BY IDOCK:   -2.36 KCAL/MOL
REMARK 927      BINDING AFFINITY PREDICTED BY RF-SCORE:    0.00 PKD
ROOT
HETATM    1  C   UNL     1     -10.115   8.972  67.652  1.00  0.00    -0.216 C  
ENDROOT
BRANCH   1   2
HETATM    2  C   UNL     1     -11.012  10.164  67.213  1.00  0.00    -0.250 C  
BRANCH   2   3
HETATM    3  C   UNL     1     -10.450  11.568  67.241  1.00  0.00    -0.246 A  
HETATM    4  C   UNL     1      -9.084  14.068  67.445  1.00  0.00    -0.209 A  
HETATM    5  C   UNL     1     -10.045  12.265  66.104  1.00  0.00    -0.265 A  
HETATM    6  C   UNL     1      -9.345  13.464  66.207  1.00  0.00    -0.137 A  
HETATM    7  C   UNL     1     -10.289  12.201  68.479  1.00  0.00    -0.233 A  
HETATM    8  C   UNL     1      -9.635  13.437  68.577  1.00  0.00    -0.141 A  
BRANCH   4   9
HETATM    9  C   UNL     1      -8.222  15.264  67.539  1.00  0.00    -0.191 A  
HETATM   10  C   UNL     1      -7.575  15.615  68.740  1.00  0.00    -0.162 A  
HETATM   11  C   UNL     1      -6.852  16.804  68.864  1.00  0.00    -0.198 A  
HETATM   12  C   UNL     1      -6.731  17.661  67.777  1.00  0.00    -0.190 A  
HETATM   13  C   UNL     1      -7.337  17.332  66.568  1.00  0.00    -0.312 A  
HETATM   14  C   UNL     1      -8.078  16.149  66.455  1.00  0.00    -0.305 A  
ENDBRANCH   4   9
ENDBRANCH   2   3
ENDBRANCH   1   2
BRANCH   1  15
HETATM   15  C   UNL     1     -10.274   8.524  69.126  1.00  0.00    -0.218 C  
HETATM   16  C   UNL     1     -11.377   7.138  70.862  1.00  0.00    -0.286 C  
HETATM   17  C   UNL     1     -10.681   6.044  68.750  1.00  0.00    -0.375 C  
HETATM   18  C   UNL     1     -11.205   7.335  69.367  1.00  0.00    -0.019 C  
HETATM   19  O   UNL     1     -10.649   6.451  71.564  1.00  0.00    -0.221 OA 
BRANCH  16  20
HETATM   20  O   UNL     1     -12.489   7.799  71.290  1.00  0.00    -0.312 OA 
BRANCH  20  21
HETATM   21  C   UNL     1     -12.240   8.889  72.189  1.00  0.00    -0.367 C  
HETATM   22  C   UNL     1     -12.678  10.167  71.495  1.00  0.00    -0.541 C  
ENDBRANCH  20  21
ENDBRANCH  16  20
ENDBRANCH   1  15
BRANCH   1  23
HETATM   23  N   UNL     1      -8.696   9.212  67.376  1.00  0.00    -0.115 N  
HETATM   24  C   UNL     1      -8.135   9.000  66.145  1.00  0.00    -0.111 C  
HETATM   25  H   UNL     1      -8.101   9.551  68.132  1.00  0.00     0.000 HD 
HETATM   26  O   UNL     1      -8.727   8.548  65.166  1.00  0.00    -0.180 OA 
BRANCH  24  27
HETATM   27  C   UNL     1      -6.647   9.218  66.076  1.00  0.00    -0.072 C  
BRANCH  27  28
HETATM   28  C   UNL     1      -6.372  10.702  65.940  1.00  0.00    -0.128 C  
HETATM   29  O   UNL     1      -5.630  12.652  67.095  1.00  0.00    -0.311 OA 
HETATM   30  C   UNL     1      -5.971  11.477  67.178  1.00  0.00    -0.111 C  
HETATM   31  O   UNL     1      -6.000  10.853  68.365  1.00  0.00    -0.043 OA 
ENDBRANCH  27  28
ENDBRANCH  24  27
ENDBRANCH   1  23
TORSDOF 9
ENDMDL
MODEL      166
REMARK 921   NORMALIZED FREE ENERGY PREDICTED BY IDOCK:   -4.58 KCAL/MOL
REMARK 922        TOTAL FREE ENERGY PREDICTED BY IDOCK:   -8.81 KCAL/MOL
REMARK 923 INTER-LIGAND FREE ENERGY PREDICTED BY IDOCK:   -8.48 KCAL/MOL
REMARK 924 INTRA-LIGAND FREE ENERGY PREDICTED BY IDOCK:   -0.33 KCAL/MOL
REMARK 927      BINDING AFFINITY PREDICTED BY RF-SCORE:    0.00 PKD
ROOT
HETATM    1  C   UNL     1      -9.218  11.295  67.438  1.00  0.00    -0.162 C  
ENDROOT
BRANCH   1   2
HETATM    2  C   UNL     1     -10.524  11.936  66.891  1.00  0.00    -0.253 C  
BRANCH   2   3
HETATM    3  C   UNL     1     -10.654  13.443  66.853  1.00  0.00    -0.273 A  
HETATM    4  C   UNL     1     -10.624  16.294  67.030  1.00  0.00    -0.284 A  
HETATM    5  C   UNL     1     -10.253  14.230  65.774  1.00  0.00    -0.351 A  
HETATM    6  C   UNL     1     -10.202  15.618  65.877  1.00  0.00    -0.372 A  
HETATM    7  C   UNL     1     -11.174  14.100  67.975  1.00  0.00    -0.302 A  
HETATM    8  C   UNL     1     -11.175  15.500  68.054  1.00  0.00    -0.332 A  
BRANCH   4   9
HETATM    9  C   UNL     1     -10.431  17.752  67.168  1.00  0.00    -0.338 A  
HETATM   10  C   UNL     1     -10.433  18.607  66.049  1.00  0.00    -0.456 A  
HETATM   11  C   UNL     1     -10.138  19.968  66.164  1.00  0.00    -0.588 A  
HETATM   12  C   UNL     1      -9.862  20.516  67.410  1.00  0.00    -0.574 A  
HETATM   13  C   UNL     1      -9.876  19.704  68.541  1.00  0.00    -0.519 A  
HETATM   14  C   UNL     1     -10.152  18.337  68.417  1.00  0.00    -0.412 A  
ENDBRANCH   4   9
ENDBRANCH   2   3
ENDBRANCH   1   2
BRANCH   1  15
HETATM   15  C   UNL     1      -8.451  10.390  66.443  1.00  0.00    -0.138 C  
HETATM   16  C   UNL     1      -8.424   8.662  64.664  1.00  0.00    -0.132 C  
HETATM   17  C   UNL     1     -10.036  10.534  64.462  1.00  0.00    -0.413 C  
HETATM   18  C   UNL     1      -9.310   9.619  65.441  1.00  0.00    -0.320 C  
HETATM   19  O   UNL     1      -7.831   8.943  63.632  1.00  0.00    -0.126 OA 
BRANCH  16  20
HETATM   20  O   UNL     1      -8.432   7.437  65.261  1.00  0.00    -0.129 OA 
BRANCH  20  21
HETATM   21  C   UNL     1      -7.162   6.996  65.761  1.00  0.00    -0.073 C  
HETATM   22  C   UNL     1      -7.281   6.869  67.269  1.00  0.00    -0.089 C  
ENDBRANCH  20  21
ENDBRANCH  16  20
ENDBRANCH   1  15
BRANCH   1  23
HETATM   23  N   UNL     1      -9.439  10.555  68.684  1.00  0.00    -0.164 N  
HETATM   24  C   UNL     1     -10.604   9.885  68.950  1.00  0.00    -0.218 C  
HETATM   25  H   UNL     1      -8.696  10.539  69.382  1.00  0.00     0.000 HD 
HETATM   26  O   UNL     1     -11.592   9.866  68.219  1.00  0.00    -0.019 OA 
BRANCH  24  27
HETATM   27  C   UNL     1     -10.681   9.258  70.316  1.00  0.00    -0.284 C  
BRANCH  27  28
HETATM   28  C   UNL     1     -10.165   7.835  70.235  1.00  0.00    -0.199 C  
HETATM   29  O   UNL     1     -10.800   5.537  70.256  1.00  0.00    -0.289 OA 
HETATM   30  C   UNL     1     -11.149   6.700  70.424  1.00  0.00    -0.322 C  
HETATM   31  O   UNL     1     -12.409   6.993  70.782  1.00  0.00    -0.352 OA 
ENDBRANCH  27  28
ENDBRANCH  24  27
ENDBRANCH   1  23
TORSDOF 9
ENDMDL
MODEL      167
REMARK 921   NORMALIZED FREE ENERGY PREDICTED BY IDOCK:   -4.57 KCAL/MOL
REMARK 922        TOTAL FREE ENERGY PREDICTED BY IDOCK:   -8.80 KCAL/MOL
REMARK 923 INTER-LIGAND FREE ENERGY PREDICTED BY IDOCK:   -7.73 KCAL/MOL
REMARK 924 INTRA-LIGAND FREE ENERGY PREDICTED BY IDOCK:   -1.07 KCAL/MOL
REMARK 927      BINDING AFFINITY PREDICTED BY RF-SCORE:    0.00 PKD
ROOT
HETATM    1  C   UNL     1      -9.750  11.543  67.497  1.00  0.00    -0.179 C  
ENDROOT
BRANCH   1   2
HETATM    2  C   UNL     1     -10.402  11.491  68.907  1.00  0.00    -0.191 C  
BRANCH   2   3
HETATM    3  C   UNL     1     -10.588  10.155  69.592  1.00  0.00    -0.286 A  
HETATM    4  C   UNL     1     -10.581   7.657  70.976  1.00  0.00    -0.226 A  
HETATM    5  C   UNL     1     -11.312   9.980  70.770  1.00  0.00    -0.439 A  
HETATM    6  C   UNL     1     -11.275   8.773  71.463  1.00  0.00    -0.377 A  
HETATM    7  C   UNL     1      -9.973   9.026  69.037  1.00  0.00    -0.191 A  
HETATM    8  C   UNL     1      -9.985   7.796  69.708  1.00  0.00    -0.189 A  
BRANCH   4   9
HETATM    9  C   UNL     1     -10.440   6.434  71.794  1.00  0.00    -0.246 A  
HETATM   10  C   UNL     1     -11.456   6.013  72.674  1.00  0.00    -0.297 A  
HETATM   11  C   UNL     1     -11.281   4.923  73.530  1.00  0.00    -0.375 A  
HETATM   12  C   UNL     1     -10.091   4.206  73.507  1.00  0.00    -0.188 A  
HETATM   13  C   UNL     1      -9.075   4.580  72.632  1.00  0.00    -0.137 A  
HETATM   14  C   UNL     1      -9.249   5.686  71.790  1.00  0.00    -0.159 A  
ENDBRANCH   4   9
ENDBRANCH   2   3
ENDBRANCH   1   2
BRANCH   1  15
HETATM   15  C   UNL     1      -8.491  12.437  67.375  1.00  0.00    -0.179 C  
HETATM   16  C   UNL     1      -6.222  13.097  68.126  1.00  0.00    -0.106 C  
HETATM   17  C   UNL     1      -6.708  10.685  67.829  1.00  0.00    -0.068 C  
HETATM   18  C   UNL     1      -7.296  12.030  68.237  1.00  0.00    -0.095 C  
HETATM   19  O   UNL     1      -5.344  13.118  67.275  1.00  0.00    -0.343 OA 
BRANCH  16  20
HETATM   20  O   UNL     1      -6.355  13.994  69.143  1.00  0.00    -0.096 OA 
BRANCH  20  21
HETATM   21  C   UNL     1      -5.252  14.044  70.059  1.00  0.00    -0.091 C  
HETATM   22  C   UNL     1      -5.784  13.704  71.439  1.00  0.00    -0.160 C  
ENDBRANCH  20  21
ENDBRANCH  16  20
ENDBRANCH   1  15
BRANCH   1  23
HETATM   23  N   UNL     1     -10.708  11.922  66.454  1.00  0.00    -0.256 N  
HETATM   24  C   UNL     1     -11.548  12.996  66.576  1.00  0.00    -0.356 C  
HETATM   25  H   UNL     1     -10.751  11.363  65.603  1.00  0.00     0.000 HD 
HETATM   26  O   UNL     1     -11.632  13.720  67.567  1.00  0.00    -0.315 OA 
BRANCH  24  27
HETATM   27  C   UNL     1     -12.522  13.177  65.443  1.00  0.00    -0.535 C  
BRANCH  27  28
HETATM   28  C   UNL     1     -12.562  14.643  65.056  1.00  0.00    -0.162 C  
HETATM   29  O   UNL     1     -11.322  16.421  64.063  1.00  0.00    -0.964 OA 
HETATM   30  C   UNL     1     -11.305  15.273  64.493  1.00  0.00    -0.300 C  
HETATM   31  O   UNL     1     -10.174  14.552  64.479  1.00  0.00    -0.221 OA 
ENDBRANCH  27  28
ENDBRANCH  24  27
ENDBRANCH   1  23
TORSDOF 9
ENDMDL
MODEL      168
REMARK 921   NORMALIZED FREE ENERGY PREDICTED BY IDOCK:   -4.57 KCAL/MOL
REMARK 922        TOTAL FREE ENERGY PREDICTED BY IDOCK:   -8.79 KCAL/MOL
REMARK 923 INTER-LIGAND FREE ENERGY PREDICTED BY IDOCK:   -7.18 KCAL/MOL
REMARK 924 INTRA-LIGAND FREE ENERGY PREDICTED BY IDOCK:   -1.62 KCAL/MOL
REMARK 927      BINDING AFFINITY PREDICTED BY RF-SCORE:    0.00 PKD
ROOT
HETATM    1  C   UNL     1      -9.041  11.514  66.599  1.00  0.00    -0.190 C  
ENDROOT
BRANCH   1   2
HETATM    2  C   UNL     1      -9.954  10.257  66.652  1.00  0.00    -0.270 C  
BRANCH   2   3
HETATM    3  C   UNL     1     -10.258   9.614  67.987  1.00  0.00    -0.235 A  
HETATM    4  C   UNL     1     -10.488   8.261  70.492  1.00  0.00    -0.225 A  
HETATM    5  C   UNL     1     -10.362  10.322  69.184  1.00  0.00    -0.241 A  
HETATM    6  C   UNL     1     -10.434   9.658  70.406  1.00  0.00    -0.352 A  
HETATM    7  C   UNL     1     -10.411   8.223  68.043  1.00  0.00    -0.268 A  
HETATM    8  C   UNL     1     -10.542   7.561  69.271  1.00  0.00    -0.215 A  
BRANCH   4   9
HETATM    9  C   UNL     1     -10.423   7.577  71.800  1.00  0.00    -0.222 A  
HETATM   10  C   UNL     1      -9.542   8.003  72.814  1.00  0.00    -0.345 A  
HETATM   11  C   UNL     1      -9.397   7.292  74.007  1.00  0.00    -0.301 A  
HETATM   12  C   UNL     1     -10.154   6.149  74.232  1.00  0.00    -0.322 A  
HETATM   13  C   UNL     1     -11.053   5.714  73.261  1.00  0.00    -0.288 A  
HETATM   14  C   UNL     1     -11.179   6.419  72.058  1.00  0.00    -0.324 A  
ENDBRANCH   4   9
ENDBRANCH   2   3
ENDBRANCH   1   2
BRANCH   1  15
HETATM   15  C   UNL     1      -9.737  12.828  66.165  1.00  0.00    -0.246 C  
HETATM   16  C   UNL     1     -10.428  15.166  66.621  1.00  0.00    -0.287 C  
HETATM   17  C   UNL     1      -8.105  14.497  67.169  1.00  0.00    -0.196 C  
HETATM   18  C   UNL     1      -9.551  14.022  67.101  1.00  0.00    -0.245 C  
HETATM   19  O   UNL     1     -10.088  16.010  65.805  1.00  0.00    -0.325 OA 
BRANCH  16  20
HETATM   20  O   UNL     1     -11.624  15.136  67.273  1.00  0.00    -0.323 OA 
BRANCH  20  21
HETATM   21  C   UNL     1     -11.563  15.448  68.671  1.00  0.00    -0.359 C  
HETATM   22  C   UNL     1     -12.141  14.267  69.431  1.00  0.00    -0.361 C  
ENDBRANCH  20  21
ENDBRANCH  16  20
ENDBRANCH   1  15
BRANCH   1  23
HETATM   23  N   UNL     1      -7.854  11.305  65.765  1.00  0.00    -0.371 N  
HETATM   24  C   UNL     1      -6.715  10.708  66.235  1.00  0.00    -0.129 C  
HETATM   25  H   UNL     1      -7.877  11.617  64.794  1.00  0.00     0.000 HD 
HETATM   26  O   UNL     1      -6.539  10.332  67.393  1.00  0.00    -0.066 OA 
BRANCH  24  27
HETATM   27  C   UNL     1      -5.570  10.659  65.259  1.00  0.00    -0.137 C  
BRANCH  27  28
HETATM   28  C   UNL     1      -6.077  10.135  63.930  1.00  0.00    -0.137 C  
HETATM   29  O   UNL     1      -6.501   8.165  62.656  1.00  0.00    -0.085 OA 
HETATM   30  C   UNL     1      -6.001   8.645  63.667  1.00  0.00    -0.072 C  
HETATM   31  O   UNL     1      -5.373   7.865  64.560  1.00  0.00    -0.035 OA 
ENDBRANCH  27  28
ENDBRANCH  24  27
ENDBRANCH   1  23
TORSDOF 9
ENDMDL
MODEL      169
REMARK 921   NORMALIZED FREE ENERGY PREDICTED BY IDOCK:   -4.55 KCAL/MOL
REMARK 922        TOTAL FREE ENERGY PREDICTED BY IDOCK:   -8.77 KCAL/MOL
REMARK 923 INTER-LIGAND FREE ENERGY PREDICTED BY IDOCK:   -7.30 KCAL/MOL
REMARK 924 INTRA-LIGAND FREE ENERGY PREDICTED BY IDOCK:   -1.47 KCAL/MOL
REMARK 927      BINDING AFFINITY PREDICTED BY RF-SCORE:    0.00 PKD
ROOT
HETATM    1  C   UNL     1      -8.739  11.438  68.544  1.00  0.00    -0.149 C  
ENDROOT
BRANCH   1   2
HETATM    2  C   UNL     1      -7.373  12.176  68.463  1.00  0.00    -0.105 C  
BRANCH   2   3
HETATM    3  C   UNL     1      -7.348  13.684  68.344  1.00  0.00    -0.118 A  
HETATM    4  C   UNL     1      -7.228  16.478  67.761  1.00  0.00    -0.156 A  
HETATM    5  C   UNL     1      -8.484  14.488  68.421  1.00  0.00    -0.163 A  
HETATM    6  C   UNL     1      -8.430  15.841  68.098  1.00  0.00    -0.162 A  
HETATM    7  C   UNL     1      -6.122  14.318  68.109  1.00  0.00    -0.138 A  
HETATM    8  C   UNL     1      -6.061  15.692  67.841  1.00  0.00    -0.163 A  
BRANCH   4   9
HETATM    9  C   UNL     1      -7.216  17.877  67.288  1.00  0.00    -0.202 A  
HETATM   10  C   UNL     1      -6.800  18.212  65.985  1.00  0.00    -0.318 A  
HETATM   11  C   UNL     1      -6.679  19.541  65.571  1.00  0.00    -0.310 A  
HETATM   12  C   UNL     1      -7.002  20.573  66.445  1.00  0.00    -0.284 A  
HETATM   13  C   UNL     1      -7.440  20.276  67.732  1.00  0.00    -0.319 A  
HETATM   14  C   UNL     1      -7.540  18.943  68.148  1.00  0.00    -0.305 A  
ENDBRANCH   4   9
ENDBRANCH   2   3
ENDBRANCH   1   2
BRANCH   1  15
HETATM   15  C   UNL     1      -8.713  10.057  69.243  1.00  0.00    -0.182 C  
HETATM   16  C   UNL     1      -9.424   8.540  71.073  1.00  0.00    -0.186 C  
HETATM   17  C   UNL     1     -11.151   9.913  69.943  1.00  0.00    -0.318 C  
HETATM   18  C   UNL     1      -9.697   9.873  70.398  1.00  0.00    -0.151 C  
HETATM   19  O   UNL     1      -9.925   7.475  70.742  1.00  0.00    -0.183 OA 
BRANCH  16  20
HETATM   20  O   UNL     1      -8.580   8.721  72.127  1.00  0.00    -0.355 OA 
BRANCH  20  21
HETATM   21  C   UNL     1      -8.241   7.527  72.846  1.00  0.00    -0.118 C  
HETATM   22  C   UNL     1      -8.789   7.670  74.256  1.00  0.00    -0.234 C  
ENDBRANCH  20  21
ENDBRANCH  16  20
ENDBRANCH   1  15
BRANCH   1  23
HETATM   23  N   UNL     1      -9.374  11.296  67.231  1.00  0.00    -0.165 N  
HETATM   24  C   UNL     1     -10.572  11.883  66.920  1.00  0.00    -0.230 C  
HETATM   25  H   UNL     1      -8.905  10.737  66.518  1.00  0.00     0.000 HD 
HETATM   26  O   UNL     1     -11.262  12.539  67.699  1.00  0.00    -0.250 OA 
BRANCH  24  27
HETATM   27  C   UNL     1     -11.109  11.553  65.553  1.00  0.00    -0.254 C  
BRANCH  27  28
HETATM   28  C   UNL     1     -12.223  12.524  65.214  1.00  0.00    -0.493 C  
HETATM   29  O   UNL     1     -12.785  14.469  63.953  1.00  0.00    -0.782 OA 
HETATM   30  C   UNL     1     -11.896  13.721  64.345  1.00  0.00    -0.427 C  
HETATM   31  O   UNL     1     -10.615  13.947  64.018  1.00  0.00    -0.080 OA 
ENDBRANCH  27  28
ENDBRANCH  24  27
ENDBRANCH   1  23
TORSDOF 9
ENDMDL
MODEL      170
REMARK 921   NORMALIZED FREE ENERGY PREDICTED BY IDOCK:   -4.55 KCAL/MOL
REMARK 922        TOTAL FREE ENERGY PREDICTED BY IDOCK:   -8.76 KCAL/MOL
REMARK 923 INTER-LIGAND FREE ENERGY PREDICTED BY IDOCK:   -7.12 KCAL/MOL
REMARK 924 INTRA-LIGAND FREE ENERGY PREDICTED BY IDOCK:   -1.64 KCAL/MOL
REMARK 927      BINDING AFFINITY PREDICTED BY RF-SCORE:    0.00 PKD
ROOT
HETATM    1  C   UNL     1      -9.690   8.863  68.250  1.00  0.00    -0.157 C  
ENDROOT
BRANCH   1   2
HETATM    2  C   UNL     1      -8.387   8.082  67.919  1.00  0.00    -0.129 C  
BRANCH   2   3
HETATM    3  C   UNL     1      -8.442   6.916  66.957  1.00  0.00    -0.121 A  
HETATM    4  C   UNL     1      -8.915   4.741  65.167  1.00  0.00    -0.152 A  
HETATM    5  C   UNL     1      -8.109   7.007  65.607  1.00  0.00    -0.129 A  
HETATM    6  C   UNL     1      -8.378   5.959  64.729  1.00  0.00    -0.103 A  
HETATM    7  C   UNL     1      -8.885   5.676  67.433  1.00  0.00    -0.105 A  
HETATM    8  C   UNL     1      -9.100   4.603  66.556  1.00  0.00    -0.123 A  
BRANCH   4   9
HETATM    9  C   UNL     1      -9.320   3.699  64.201  1.00  0.00    -0.142 A  
HETATM   10  C   UNL     1     -10.650   3.586  63.751  1.00  0.00    -0.280 A  
HETATM   11  C   UNL     1     -11.060   2.535  62.928  1.00  0.00    -0.179 A  
HETATM   12  C   UNL     1     -10.140   1.582  62.507  1.00  0.00    -0.094 A  
HETATM   13  C   UNL     1      -8.812   1.678  62.913  1.00  0.00    -0.075 A  
HETATM   14  C   UNL     1      -8.411   2.722  63.755  1.00  0.00    -0.086 A  
ENDBRANCH   4   9
ENDBRANCH   2   3
ENDBRANCH   1   2
BRANCH   1  15
HETATM   15  C   UNL     1     -10.771   8.064  69.019  1.00  0.00    -0.107 C  
HETATM   16  C   UNL     1     -11.540   6.855  71.044  1.00  0.00    -0.328 C  
HETATM   17  C   UNL     1     -10.427   9.051  71.336  1.00  0.00    -0.395 C  
HETATM   18  C   UNL     1     -10.472   7.783  70.492  1.00  0.00    -0.217 C  
HETATM   19  O   UNL     1     -12.596   7.224  71.538  1.00  0.00    -0.345 OA 
BRANCH  16  20
HETATM   20  O   UNL     1     -11.122   5.562  70.951  1.00  0.00    -0.186 OA 
BRANCH  20  21
HETATM   21  C   UNL     1      -9.744   5.343  71.284  1.00  0.00    -0.162 C  
HETATM   22  C   UNL     1      -9.359   3.969  70.766  1.00  0.00    -0.217 C  
ENDBRANCH  20  21
ENDBRANCH  16  20
ENDBRANCH   1  15
BRANCH   1  23
HETATM   23  N   UNL     1     -10.298   9.462  67.058  1.00  0.00    -0.253 N  
HETATM   24  C   UNL     1      -9.985  10.722  66.622  1.00  0.00    -0.206 C  
HETATM   25  H   UNL     1     -10.982   8.918  66.532  1.00  0.00     0.000 HD 
HETATM   26  O   UNL     1      -9.218  11.498  67.189  1.00  0.00    -0.165 OA 
BRANCH  24  27
HETATM   27  C   UNL     1     -10.775  11.200  65.432  1.00  0.00    -0.259 C  
BRANCH  27  28
HETATM   28  C   UNL     1     -11.419  12.530  65.771  1.00  0.00    -0.407 C  
HETATM   29  O   UNL     1     -13.265  13.966  65.305  1.00  0.00    -0.774 OA 
HETATM   30  C   UNL     1     -12.646  12.955  64.990  1.00  0.00    -0.472 C  
HETATM   31  O   UNL     1     -13.038  12.206  63.949  1.00  0.00    -0.749 OA 
ENDBRANCH  27  28
ENDBRANCH  24  27
ENDBRANCH   1  23
TORSDOF 9
ENDMDL
MODEL      171
REMARK 921   NORMALIZED FREE ENERGY PREDICTED BY IDOCK:   -4.54 KCAL/MOL
REMARK 922        TOTAL FREE ENERGY PREDICTED BY IDOCK:   -8.75 KCAL/MOL
REMARK 923 INTER-LIGAND FREE ENERGY PREDICTED BY IDOCK:   -6.86 KCAL/MOL
REMARK 924 INTRA-LIGAND FREE ENERGY PREDICTED BY IDOCK:   -1.89 KCAL/MOL
REMARK 927      BINDING AFFINITY PREDICTED BY RF-SCORE:    0.00 PKD
ROOT
HETATM    1  C   UNL     1     -10.305  10.708  67.362  1.00  0.00    -0.219 C  
ENDROOT
BRANCH   1   2
HETATM    2  C   UNL     1      -9.996   9.467  66.478  1.00  0.00    -0.329 C  
BRANCH   2   3
HETATM    3  C   UNL     1      -9.955   8.094  67.112  1.00  0.00    -0.304 A  
HETATM    4  C   UNL     1      -9.814   5.678  68.629  1.00  0.00    -0.190 A  
HETATM    5  C   UNL     1     -11.077   7.288  67.292  1.00  0.00    -0.151 A  
HETATM    6  C   UNL     1     -11.015   6.132  68.065  1.00  0.00    -0.399 A  
HETATM    7  C   UNL     1      -8.728   7.609  67.581  1.00  0.00    -0.122 A  
HETATM    8  C   UNL     1      -8.657   6.414  68.310  1.00  0.00    -0.114 A  
BRANCH   4   9
HETATM    9  C   UNL     1      -9.798   4.530  69.558  1.00  0.00    -0.277 A  
HETATM   10  C   UNL     1     -10.039   4.690  70.936  1.00  0.00    -0.257 A  
HETATM   11  C   UNL     1      -9.913   3.627  71.833  1.00  0.00    -0.223 A  
HETATM   12  C   UNL     1      -9.570   2.363  71.368  1.00  0.00    -0.224 A  
HETATM   13  C   UNL     1      -9.349   2.164  70.009  1.00  0.00    -0.172 A  
HETATM   14  C   UNL     1      -9.457   3.238  69.117  1.00  0.00    -0.189 A  
ENDBRANCH   4   9
ENDBRANCH   2   3
ENDBRANCH   1   2
BRANCH   1  15
HETATM   15  C   UNL     1      -9.328  11.900  67.207  1.00  0.00    -0.177 C  
HETATM   16  C   UNL     1      -7.556  13.380  68.114  1.00  0.00    -0.138 C  
HETATM   17  C   UNL     1      -7.318  10.932  68.425  1.00  0.00    -0.094 C  
HETATM   18  C   UNL     1      -8.314  12.083  68.336  1.00  0.00    -0.151 C  
HETATM   19  O   UNL     1      -6.534  13.485  67.451  1.00  0.00    -0.260 OA 
BRANCH  16  20
HETATM   20  O   UNL     1      -8.157  14.390  68.802  1.00  0.00    -0.140 OA 
BRANCH  20  21
HETATM   21  C   UNL     1      -8.491  15.545  68.019  1.00  0.00    -0.143 C  
HETATM   22  C   UNL     1      -7.875  16.755  68.700  1.00  0.00    -0.241 C  
ENDBRANCH  20  21
ENDBRANCH  16  20
ENDBRANCH   1  15
BRANCH   1  23
HETATM   23  N   UNL     1     -10.419  10.365  68.783  1.00  0.00    -0.187 N  
HETATM   24  C   UNL     1     -11.610  10.394  69.458  1.00  0.00    -0.219 C  
HETATM   25  H   UNL     1      -9.576  10.095  69.289  1.00  0.00     0.000 HD 
HETATM   26  O   UNL     1     -12.686  10.748  68.981  1.00  0.00    -0.188 OA 
BRANCH  24  27
HETATM   27  C   UNL     1     -11.515  10.096  70.931  1.00  0.00    -0.444 C  
BRANCH  27  28
HETATM   28  C   UNL     1     -11.813   8.627  71.156  1.00  0.00    -0.331 C  
HETATM   29  O   UNL     1     -13.542   7.041  71.584  1.00  0.00    -0.358 OA 
HETATM   30  C   UNL     1     -13.232   8.224  71.505  1.00  0.00    -0.287 C  
HETATM   31  O   UNL     1     -14.138   9.188  71.727  1.00  0.00    -0.337 OA 
ENDBRANCH  27  28
ENDBRANCH  24  27
ENDBRANCH   1  23
TORSDOF 9
ENDMDL
MODEL      172
REMARK 921   NORMALIZED FREE ENERGY PREDICTED BY IDOCK:   -4.53 KCAL/MOL
REMARK 922        TOTAL FREE ENERGY PREDICTED BY IDOCK:   -8.74 KCAL/MOL
REMARK 923 INTER-LIGAND FREE ENERGY PREDICTED BY IDOCK:   -7.89 KCAL/MOL
REMARK 924 INTRA-LIGAND FREE ENERGY PREDICTED BY IDOCK:   -0.85 KCAL/MOL
REMARK 927      BINDING AFFINITY PREDICTED BY RF-SCORE:    0.00 PKD
ROOT
HETATM    1  C   UNL     1     -11.258   6.912  69.846  1.00  0.00    -0.285 C  
ENDROOT
BRANCH   1   2
HETATM    2  C   UNL     1     -10.184   8.034  69.774  1.00  0.00    -0.206 C  
BRANCH   2   3
HETATM    3  C   UNL     1     -10.369   9.180  68.803  1.00  0.00    -0.235 A  
HETATM    4  C   UNL     1     -11.002  11.146  66.830  1.00  0.00    -0.309 A  
HETATM    5  C   UNL     1     -10.867  10.430  69.163  1.00  0.00    -0.274 A  
HETATM    6  C   UNL     1     -11.212  11.372  68.197  1.00  0.00    -0.343 A  
HETATM    7  C   UNL     1     -10.058   8.971  67.454  1.00  0.00    -0.291 A  
HETATM    8  C   UNL     1     -10.352   9.944  66.488  1.00  0.00    -0.259 A  
BRANCH   4   9
HETATM    9  C   UNL     1     -11.501  12.098  65.817  1.00  0.00    -0.414 A  
HETATM   10  C   UNL     1     -11.316  11.875  64.438  1.00  0.00    -0.395 A  
HETATM   11  C   UNL     1     -11.685  12.826  63.484  1.00  0.00    -0.597 A  
HETATM   12  C   UNL     1     -12.280  14.017  63.884  1.00  0.00    -0.336 A  
HETATM   13  C   UNL     1     -12.501  14.258  65.237  1.00  0.00    -0.428 A  
HETATM   14  C   UNL     1     -12.110  13.310  66.190  1.00  0.00    -0.477 A  
ENDBRANCH   4   9
ENDBRANCH   2   3
ENDBRANCH   1   2
BRANCH   1  15
HETATM   15  C   UNL     1     -11.109   5.920  71.026  1.00  0.00    -0.315 C  
HETATM   16  C   UNL     1     -10.151   5.300  73.228  1.00  0.00    -0.175 C  
HETATM   17  C   UNL     1     -11.078   7.582  72.948  1.00  0.00    -0.426 C  
HETATM   18  C   UNL     1     -10.351   6.441  72.246  1.00  0.00    -0.215 C  
HETATM   19  O   UNL     1     -10.944   4.989  74.106  1.00  0.00    -0.304 OA 
BRANCH  16  20
HETATM   20  O   UNL     1      -8.940   4.713  73.014  1.00  0.00    -0.117 OA 
BRANCH  20  21
HETATM   21  C   UNL     1      -8.739   3.468  73.698  1.00  0.00    -0.081 C  
HETATM   22  C   UNL     1      -7.254   3.152  73.649  1.00  0.00    -0.046 C  
ENDBRANCH  20  21
ENDBRANCH  16  20
ENDBRANCH   1  15
BRANCH   1  23
HETATM   23  N   UNL     1     -11.356   6.155  68.595  1.00  0.00    -0.379 N  
HETATM   24  C   UNL     1     -10.285   5.517  68.029  1.00  0.00    -0.181 C  
HETATM   25  H   UNL     1     -12.260   6.101  68.126  1.00  0.00     0.000 HD 
HETATM   26  O   UNL     1      -9.135   5.544  68.464  1.00  0.00    -0.113 OA 
BRANCH  24  27
HETATM   27  C   UNL     1     -10.559   4.866  66.700  1.00  0.00    -0.200 C  
BRANCH  27  28
HETATM   28  C   UNL     1      -9.332   5.008  65.820  1.00  0.00    -0.167 C  
HETATM   29  O   UNL     1      -7.642   3.810  64.639  1.00  0.00    -0.077 OA 
HETATM   30  C   UNL     1      -8.570   3.756  65.439  1.00  0.00    -0.114 C  
HETATM   31  O   UNL     1      -8.929   2.589  65.996  1.00  0.00    -0.130 OA 
ENDBRANCH  27  28
ENDBRANCH  24  27
ENDBRANCH   1  23
TORSDOF 9
ENDMDL
MODEL      173
REMARK 921   NORMALIZED FREE ENERGY PREDICTED BY IDOCK:   -4.51 KCAL/MOL
REMARK 922        TOTAL FREE ENERGY PREDICTED BY IDOCK:   -8.70 KCAL/MOL
REMARK 923 INTER-LIGAND FREE ENERGY PREDICTED BY IDOCK:   -6.91 KCAL/MOL
REMARK 924 INTRA-LIGAND FREE ENERGY PREDICTED BY IDOCK:   -1.79 KCAL/MOL
REMARK 927      BINDING AFFINITY PREDICTED BY RF-SCORE:    0.00 PKD
ROOT
HETATM    1  C   UNL     1     -10.226   6.907  68.424  1.00  0.00    -0.176 C  
ENDROOT
BRANCH   1   2
HETATM    2  C   UNL     1     -10.472   7.906  67.258  1.00  0.00    -0.390 C  
BRANCH   2   3
HETATM    3  C   UNL     1     -10.319   9.391  67.506  1.00  0.00    -0.314 A  
HETATM    4  C   UNL     1      -9.972  12.224  67.611  1.00  0.00    -0.199 A  
HETATM    5  C   UNL     1     -11.379  10.237  67.827  1.00  0.00    -0.137 A  
HETATM    6  C   UNL     1     -11.216  11.620  67.838  1.00  0.00    -0.334 A  
HETATM    7  C   UNL     1      -9.049   9.965  67.376  1.00  0.00    -0.147 A  
HETATM    8  C   UNL     1      -8.876  11.355  67.445  1.00  0.00    -0.150 A  
BRANCH   4   9
HETATM    9  C   UNL     1      -9.851  13.691  67.490  1.00  0.00    -0.227 A  
HETATM   10  C   UNL     1      -8.953  14.427  68.289  1.00  0.00    -0.187 A  
HETATM   11  C   UNL     1      -8.917  15.823  68.258  1.00  0.00    -0.182 A  
HETATM   12  C   UNL     1      -9.760  16.521  67.401  1.00  0.00    -0.246 A  
HETATM   13  C   UNL     1     -10.642  15.824  66.580  1.00  0.00    -0.307 A  
HETATM   14  C   UNL     1     -10.688  14.426  66.630  1.00  0.00    -0.292 A  
ENDBRANCH   4   9
ENDBRANCH   2   3
ENDBRANCH   1   2
BRANCH   1  15
HETATM   15  C   UNL     1     -11.420   6.695  69.386  1.00  0.00    -0.288 C  
HETATM   16  C   UNL     1     -12.442   6.860  71.640  1.00  0.00    -0.375 C  
HETATM   17  C   UNL     1     -11.216   8.825  70.756  1.00  0.00    -0.309 C  
HETATM   18  C   UNL     1     -11.271   7.302  70.781  1.00  0.00    -0.300 C  
HETATM   19  O   UNL     1     -13.511   7.450  71.718  1.00  0.00    -0.353 OA 
BRANCH  16  20
HETATM   20  O   UNL     1     -12.105   5.743  72.342  1.00  0.00    -0.249 OA 
BRANCH  20  21
HETATM   21  C   UNL     1     -10.767   5.731  72.859  1.00  0.00    -0.247 C  
HETATM   22  C   UNL     1     -10.129   4.415  72.450  1.00  0.00    -0.243 C  
ENDBRANCH  20  21
ENDBRANCH  16  20
ENDBRANCH   1  15
BRANCH   1  23
HETATM   23  N   UNL     1      -9.036   7.249  69.208  1.00  0.00    -0.136 N  
HETATM   24  C   UNL     1      -8.061   6.336  69.511  1.00  0.00    -0.117 C  
HETATM   25  H   UNL     1      -8.929   8.206  69.543  1.00  0.00     0.000 HD 
HETATM   26  O   UNL     1      -8.091   5.143  69.212  1.00  0.00    -0.083 OA 
BRANCH  24  27
HETATM   27  C   UNL     1      -6.959   6.849  70.399  1.00  0.00    -0.063 C  
BRANCH  27  28
HETATM   28  C   UNL     1      -7.487   6.976  71.815  1.00  0.00    -0.087 C  
HETATM   29  O   UNL     1      -8.502   8.460  73.382  1.00  0.00    -0.311 OA 
HETATM   30  C   UNL     1      -7.964   8.334  72.287  1.00  0.00    -0.139 C  
HETATM   31  O   UNL     1      -7.782   9.394  71.486  1.00  0.00    -0.321 OA 
ENDBRANCH  27  28
ENDBRANCH  24  27
ENDBRANCH   1  23
TORSDOF 9
ENDMDL
MODEL      174
REMARK 921   NORMALIZED FREE ENERGY PREDICTED BY IDOCK:   -4.50 KCAL/MOL
REMARK 922        TOTAL FREE ENERGY PREDICTED BY IDOCK:   -8.68 KCAL/MOL
REMARK 923 INTER-LIGAND FREE ENERGY PREDICTED BY IDOCK:   -8.00 KCAL/MOL
REMARK 924 INTRA-LIGAND FREE ENERGY PREDICTED BY IDOCK:   -0.69 KCAL/MOL
REMARK 927      BINDING AFFINITY PREDICTED BY RF-SCORE:    0.00 PKD
ROOT
HETATM    1  C   UNL     1      -9.822  10.995  67.786  1.00  0.00    -0.173 C  
ENDROOT
BRANCH   1   2
HETATM    2  C   UNL     1     -10.092  12.056  66.682  1.00  0.00    -0.220 C  
BRANCH   2   3
HETATM    3  C   UNL     1      -9.367  13.383  66.731  1.00  0.00    -0.260 A  
HETATM    4  C   UNL     1      -8.211  15.966  67.118  1.00  0.00    -0.233 A  
HETATM    5  C   UNL     1      -8.041  13.528  67.135  1.00  0.00    -0.097 A  
HETATM    6  C   UNL     1      -7.492  14.788  67.361  1.00  0.00    -0.221 A  
HETATM    7  C   UNL     1     -10.069  14.544  66.388  1.00  0.00    -0.293 A  
HETATM    8  C   UNL     1      -9.495  15.811  66.561  1.00  0.00    -0.298 A  
BRANCH   4   9
HETATM    9  C   UNL     1      -7.660  17.284  67.496  1.00  0.00    -0.194 A  
HETATM   10  C   UNL     1      -7.332  17.592  68.830  1.00  0.00    -0.239 A  
HETATM   11  C   UNL     1      -6.918  18.871  69.208  1.00  0.00    -0.273 A  
HETATM   12  C   UNL     1      -6.793  19.872  68.252  1.00  0.00    -0.330 A  
HETATM   13  C   UNL     1      -7.085  19.594  66.920  1.00  0.00    -0.232 A  
HETATM   14  C   UNL     1      -7.519  18.316  66.550  1.00  0.00    -0.266 A  
ENDBRANCH   4   9
ENDBRANCH   2   3
ENDBRANCH   1   2
BRANCH   1  15
HETATM   15  C   UNL     1     -10.287   9.555  67.458  1.00  0.00    -0.306 C  
HETATM   16  C   UNL     1      -9.995   7.097  67.609  1.00  0.00    -0.158 C  
HETATM   17  C   UNL     1      -9.741   8.441  69.676  1.00  0.00    -0.173 C  
HETATM   18  C   UNL     1      -9.532   8.431  68.166  1.00  0.00    -0.148 C  
HETATM   19  O   UNL     1     -10.944   6.454  68.036  1.00  0.00    -0.293 OA 
BRANCH  16  20
HETATM   20  O   UNL     1      -9.168   6.704  66.601  1.00  0.00    -0.148 OA 
BRANCH  20  21
HETATM   21  C   UNL     1      -9.458   5.416  66.042  1.00  0.00    -0.146 C  
HETATM   22  C   UNL     1      -8.153   4.642  65.967  1.00  0.00    -0.103 C  
ENDBRANCH  20  21
ENDBRANCH  16  20
ENDBRANCH   1  15
BRANCH   1  23
HETATM   23  N   UNL     1     -10.373  11.391  69.085  1.00  0.00    -0.390 N  
HETATM   24  C   UNL     1     -11.683  11.751  69.255  1.00  0.00    -0.335 C  
HETATM   25  H   UNL     1      -9.755  11.400  69.896  1.00  0.00     0.000 HD 
HETATM   26  O   UNL     1     -12.517  11.831  68.355  1.00  0.00    -0.207 OA 
BRANCH  24  27
HETATM   27  C   UNL     1     -12.044  12.211  70.642  1.00  0.00    -0.344 C  
BRANCH  27  28
HETATM   28  C   UNL     1     -12.470  13.665  70.583  1.00  0.00    -0.417 C  
HETATM   29  O   UNL     1     -13.597  15.406  71.761  1.00  0.00    -0.433 OA 
HETATM   30  C   UNL     1     -13.324  14.212  71.709  1.00  0.00    -0.380 C  
HETATM   31  O   UNL     1     -13.777  13.362  72.643  1.00  0.00    -0.687 OA 
ENDBRANCH  27  28
ENDBRANCH  24  27
ENDBRANCH   1  23
TORSDOF 9
ENDMDL
MODEL      175
REMARK 921   NORMALIZED FREE ENERGY PREDICTED BY IDOCK:   -4.48 KCAL/MOL
REMARK 922        TOTAL FREE ENERGY PREDICTED BY IDOCK:   -8.66 KCAL/MOL
REMARK 923 INTER-LIGAND FREE ENERGY PREDICTED BY IDOCK:   -8.40 KCAL/MOL
REMARK 924 INTRA-LIGAND FREE ENERGY PREDICTED BY IDOCK:   -0.26 KCAL/MOL
REMARK 927      BINDING AFFINITY PREDICTED BY RF-SCORE:    0.00 PKD
ROOT
HETATM    1  C   UNL     1     -11.741  11.798  69.291  1.00  0.00    -0.335 C  
ENDROOT
BRANCH   1   2
HETATM    2  C   UNL     1     -11.281  12.553  68.011  1.00  0.00    -0.316 C  
BRANCH   2   3
HETATM    3  C   UNL     1     -10.750  13.965  68.131  1.00  0.00    -0.260 A  
HETATM    4  C   UNL     1      -9.567  16.563  68.040  1.00  0.00    -0.227 A  
HETATM    5  C   UNL     1     -11.527  15.106  67.940  1.00  0.00    -0.344 A  
HETATM    6  C   UNL     1     -10.942  16.367  67.857  1.00  0.00    -0.298 A  
HETATM    7  C   UNL     1      -9.391  14.147  68.417  1.00  0.00    -0.208 A  
HETATM    8  C   UNL     1      -8.815  15.425  68.389  1.00  0.00    -0.177 A  
BRANCH   4   9
HETATM    9  C   UNL     1      -8.951  17.886  67.810  1.00  0.00    -0.254 A  
HETATM   10  C   UNL     1      -9.728  19.056  67.713  1.00  0.00    -0.383 A  
HETATM   11  C   UNL     1      -9.162  20.289  67.383  1.00  0.00    -0.507 A  
HETATM   12  C   UNL     1      -7.792  20.390  67.170  1.00  0.00    -0.378 A  
HETATM   13  C   UNL     1      -6.991  19.257  67.281  1.00  0.00    -0.216 A  
HETATM   14  C   UNL     1      -7.567  18.020  67.592  1.00  0.00    -0.219 A  
ENDBRANCH   4   9
ENDBRANCH   2   3
ENDBRANCH   1   2
BRANCH   1  15
HETATM   15  C   UNL     1     -12.032  12.688  70.524  1.00  0.00    -0.279 C  
HETATM   16  C   UNL     1     -13.485  13.353  72.421  1.00  0.00    -0.584 C  
HETATM   17  C   UNL     1     -13.069  10.938  72.047  1.00  0.00    -0.462 C  
HETATM   18  C   UNL     1     -13.245  12.289  71.365  1.00  0.00    -0.179 C  
HETATM   19  O   UNL     1     -12.972  13.361  73.531  1.00  0.00     0.365 OA 
BRANCH  16  20
HETATM   20  O   UNL     1     -14.391  14.262  71.965  1.00  0.00    -0.501 OA 
BRANCH  20  21
HETATM   21  C   UNL     1     -13.942  15.070  70.867  1.00  0.00    -0.136 C  
HETATM   22  C   UNL     1     -12.529  15.528  71.182  1.00  0.00    -0.491 C  
ENDBRANCH  20  21
ENDBRANCH  16  20
ENDBRANCH   1  15
BRANCH   1  23
HETATM   23  N   UNL     1     -10.806  10.738  69.677  1.00  0.00    -0.312 N  
HETATM   24  C   UNL     1     -10.505   9.682  68.859  1.00  0.00    -0.215 C  
HETATM   25  H   UNL     1     -10.362  10.788  70.594  1.00  0.00     0.000 HD 
HETATM   26  O   UNL     1     -11.006   9.476  67.755  1.00  0.00    -0.244 OA 
BRANCH  24  27
HETATM   27  C   UNL     1      -9.593   8.647  69.462  1.00  0.00    -0.170 C  
BRANCH  27  28
HETATM   28  C   UNL     1     -10.422   7.458  69.906  1.00  0.00    -0.238 C  
HETATM   29  O   UNL     1     -11.867   6.628  71.612  1.00  0.00    -0.304 OA 
HETATM   30  C   UNL     1     -11.097   7.515  71.261  1.00  0.00    -0.246 C  
HETATM   31  O   UNL     1     -10.832   8.554  72.068  1.00  0.00    -0.286 OA 
ENDBRANCH  27  28
ENDBRANCH  24  27
ENDBRANCH   1  23
TORSDOF 9
ENDMDL
MODEL      176
REMARK 921   NORMALIZED FREE ENERGY PREDICTED BY IDOCK:   -4.47 KCAL/MOL
REMARK 922        TOTAL FREE ENERGY PREDICTED BY IDOCK:   -8.64 KCAL/MOL
REMARK 923 INTER-LIGAND FREE ENERGY PREDICTED BY IDOCK:   -7.82 KCAL/MOL
REMARK 924 INTRA-LIGAND FREE ENERGY PREDICTED BY IDOCK:   -0.82 KCAL/MOL
REMARK 927      BINDING AFFINITY PREDICTED BY RF-SCORE:    0.00 PKD
ROOT
HETATM    1  C   UNL     1     -11.136  13.315  67.884  1.00  0.00    -0.262 C  
ENDROOT
BRANCH   1   2
HETATM    2  C   UNL     1     -11.596  12.093  67.039  1.00  0.00    -0.406 C  
BRANCH   2   3
HETATM    3  C   UNL     1     -10.608  10.991  66.727  1.00  0.00    -0.317 A  
HETATM    4  C   UNL     1      -9.012   8.759  65.933  1.00  0.00    -0.240 A  
HETATM    5  C   UNL     1      -9.498  11.155  65.901  1.00  0.00    -0.241 A  
HETATM    6  C   UNL     1      -8.745  10.059  65.483  1.00  0.00    -0.171 A  
HETATM    7  C   UNL     1     -10.831   9.718  67.267  1.00  0.00    -0.247 A  
HETATM    8  C   UNL     1     -10.036   8.627  66.890  1.00  0.00    -0.355 A  
BRANCH   4   9
HETATM    9  C   UNL     1      -8.292   7.598  65.370  1.00  0.00    -0.134 A  
HETATM   10  C   UNL     1      -7.282   7.755  64.401  1.00  0.00    -0.078 A  
HETATM   11  C   UNL     1      -6.679   6.656  63.785  1.00  0.00    -0.048 A  
HETATM   12  C   UNL     1      -7.051   5.366  64.145  1.00  0.00    -0.049 A  
HETATM   13  C   UNL     1      -8.028   5.176  65.118  1.00  0.00    -0.106 A  
HETATM   14  C   UNL     1      -8.644   6.281  65.717  1.00  0.00    -0.153 A  
ENDBRANCH   4   9
ENDBRANCH   2   3
ENDBRANCH   1   2
BRANCH   1  15
HETATM   15  C   UNL     1     -12.087  13.731  69.032  1.00  0.00    -0.359 C  
HETATM   16  C   UNL     1     -12.534  14.969  71.135  1.00  0.00    -0.334 C  
HETATM   17  C   UNL     1     -11.362  16.152  69.299  1.00  0.00    -0.328 C  
HETATM   18  C   UNL     1     -11.558  14.805  69.983  1.00  0.00    -0.332 C  
HETATM   19  O   UNL     1     -13.492  15.729  71.134  1.00  0.00    -0.575 OA 
BRANCH  16  20
HETATM   20  O   UNL     1     -12.152  14.182  72.180  1.00  0.00    -0.106 OA 
BRANCH  20  21
HETATM   21  C   UNL     1     -13.201  13.402  72.769  1.00  0.00    -0.160 C  
HETATM   22  C   UNL     1     -13.221  12.055  72.070  1.00  0.00    -0.481 C  
ENDBRANCH  20  21
ENDBRANCH  16  20
ENDBRANCH   1  15
BRANCH   1  23
HETATM   23  N   UNL     1     -10.848  14.489  67.053  1.00  0.00    -0.292 N  
HETATM   24  C   UNL     1      -9.573  14.894  66.760  1.00  0.00    -0.251 C  
HETATM   25  H   UNL     1     -11.630  15.026  66.679  1.00  0.00     0.000 HD 
HETATM   26  O   UNL     1      -8.547  14.367  67.187  1.00  0.00    -0.202 OA 
BRANCH  24  27
HETATM   27  C   UNL     1      -9.475  16.170  65.968  1.00  0.00    -0.374 C  
BRANCH  27  28
HETATM   28  C   UNL     1      -8.183  16.876  66.329  1.00  0.00    -0.344 C  
HETATM   29  O   UNL     1      -7.204  18.989  66.841  1.00  0.00    -0.208 OA 
HETATM   30  C   UNL     1      -8.194  18.386  66.442  1.00  0.00    -0.257 C  
HETATM   31  O   UNL     1      -9.308  19.049  66.094  1.00  0.00    -0.409 OA 
ENDBRANCH  27  28
ENDBRANCH  24  27
ENDBRANCH   1  23
TORSDOF 9
ENDMDL
MODEL      177
REMARK 921   NORMALIZED FREE ENERGY PREDICTED BY IDOCK:   -4.44 KCAL/MOL
REMARK 922        TOTAL FREE ENERGY PREDICTED BY IDOCK:   -8.60 KCAL/MOL
REMARK 923 INTER-LIGAND FREE ENERGY PREDICTED BY IDOCK:   -8.36 KCAL/MOL
REMARK 924 INTRA-LIGAND FREE ENERGY PREDICTED BY IDOCK:   -0.24 KCAL/MOL
REMARK 927      BINDING AFFINITY PREDICTED BY RF-SCORE:    0.00 PKD
ROOT
HETATM    1  C   UNL     1     -11.586   6.662  71.332  1.00  0.00    -0.313 C  
ENDROOT
BRANCH   1   2
HETATM    2  C   UNL     1     -11.935   7.993  72.055  1.00  0.00    -0.375 C  
BRANCH   2   3
HETATM    3  C   UNL     1     -11.924   9.289  71.275  1.00  0.00    -0.414 A  
HETATM    4  C   UNL     1     -11.811  11.899  70.120  1.00  0.00    -0.390 A  
HETATM    5  C   UNL     1     -10.949   9.621  70.336  1.00  0.00    -0.356 A  
HETATM    6  C   UNL     1     -10.873  10.906  69.805  1.00  0.00    -0.247 A  
HETATM    7  C   UNL     1     -12.928  10.231  71.527  1.00  0.00    -0.556 A  
HETATM    8  C   UNL     1     -12.882  11.506  70.946  1.00  0.00    -0.293 A  
BRANCH   4   9
HETATM    9  C   UNL     1     -11.630  13.289  69.656  1.00  0.00    -0.329 A  
HETATM   10  C   UNL     1     -11.716  14.381  70.541  1.00  0.00    -0.328 A  
HETATM   11  C   UNL     1     -11.659  15.701  70.088  1.00  0.00    -0.366 A  
HETATM   12  C   UNL     1     -11.484  15.964  68.735  1.00  0.00    -0.393 A  
HETATM   13  C   UNL     1     -11.370  14.908  67.835  1.00  0.00    -0.340 A  
HETATM   14  C   UNL     1     -11.448  13.587  68.292  1.00  0.00    -0.345 A  
ENDBRANCH   4   9
ENDBRANCH   2   3
ENDBRANCH   1   2
BRANCH   1  15
HETATM   15  C   UNL     1     -10.218   6.037  71.703  1.00  0.00    -0.245 C  
HETATM   16  C   UNL     1      -7.990   6.187  72.783  1.00  0.00    -0.106 C  
HETATM   17  C   UNL     1      -9.967   6.983  74.048  1.00  0.00    -0.353 C  
HETATM   18  C   UNL     1      -9.350   6.853  72.661  1.00  0.00    -0.155 C  
HETATM   19  O   UNL     1      -7.711   5.314  73.593  1.00  0.00    -0.100 OA 
BRANCH  16  20
HETATM   20  O   UNL     1      -7.122   6.742  71.891  1.00  0.00    -0.076 OA 
BRANCH  20  21
HETATM   21  C   UNL     1      -7.033   6.067  70.629  1.00  0.00    -0.063 C  
HETATM   22  C   UNL     1      -6.996   7.128  69.543  1.00  0.00    -0.058 C  
ENDBRANCH  20  21
ENDBRANCH  16  20
ENDBRANCH   1  15
BRANCH   1  23
HETATM   23  N   UNL     1     -11.677   6.780  69.874  1.00  0.00    -0.627 N  
HETATM   24  C   UNL     1     -11.030   5.928  69.020  1.00  0.00    -0.289 C  
HETATM   25  H   UNL     1     -12.245   7.530  69.478  1.00  0.00     0.000 HD 
HETATM   26  O   UNL     1     -10.278   5.017  69.363  1.00  0.00    -0.228 OA 
BRANCH  24  27
HETATM   27  C   UNL     1     -11.170   6.260  67.558  1.00  0.00    -0.234 C  
BRANCH  27  28
HETATM   28  C   UNL     1     -10.372   7.513  67.259  1.00  0.00    -0.366 C  
HETATM   29  O   UNL     1      -8.496   8.381  66.069  1.00  0.00    -0.117 OA 
HETATM   30  C   UNL     1      -9.110   7.383  66.431  1.00  0.00    -0.160 C  
HETATM   31  O   UNL     1      -8.679   6.156  66.104  1.00  0.00    -0.138 OA 
ENDBRANCH  27  28
ENDBRANCH  24  27
ENDBRANCH   1  23
TORSDOF 9
ENDMDL
MODEL      178
REMARK 921   NORMALIZED FREE ENERGY PREDICTED BY IDOCK:   -4.44 KCAL/MOL
REMARK 922        TOTAL FREE ENERGY PREDICTED BY IDOCK:   -8.60 KCAL/MOL
REMARK 923 INTER-LIGAND FREE ENERGY PREDICTED BY IDOCK:   -7.46 KCAL/MOL
REMARK 924 INTRA-LIGAND FREE ENERGY PREDICTED BY IDOCK:   -1.14 KCAL/MOL
REMARK 927      BINDING AFFINITY PREDICTED BY RF-SCORE:    0.00 PKD
ROOT
HETATM    1  C   UNL     1     -10.105  10.465  66.737  1.00  0.00    -0.214 C  
ENDROOT
BRANCH   1   2
HETATM    2  C   UNL     1      -8.817  11.254  67.106  1.00  0.00    -0.153 C  
BRANCH   2   3
HETATM    3  C   UNL     1      -8.938  12.651  67.674  1.00  0.00    -0.186 A  
HETATM    4  C   UNL     1      -8.929  15.392  68.480  1.00  0.00    -0.192 A  
HETATM    5  C   UNL     1     -10.075  13.447  67.541  1.00  0.00    -0.227 A  
HETATM    6  C   UNL     1     -10.055  14.793  67.898  1.00  0.00    -0.221 A  
HETATM    7  C   UNL     1      -7.839  13.201  68.344  1.00  0.00    -0.135 A  
HETATM    8  C   UNL     1      -7.841  14.541  68.755  1.00  0.00    -0.145 A  
BRANCH   4   9
HETATM    9  C   UNL     1      -8.882  16.848  68.721  1.00  0.00    -0.255 A  
HETATM   10  C   UNL     1     -10.057  17.609  68.880  1.00  0.00    -0.351 A  
HETATM   11  C   UNL     1     -10.022  19.000  68.995  1.00  0.00    -0.390 A  
HETATM   12  C   UNL     1      -8.803  19.668  68.984  1.00  0.00    -0.164 A  
HETATM   13  C   UNL     1      -7.621  18.944  68.853  1.00  0.00    -0.337 A  
HETATM   14  C   UNL     1      -7.664  17.552  68.718  1.00  0.00    -0.252 A  
ENDBRANCH   4   9
ENDBRANCH   2   3
ENDBRANCH   1   2
BRANCH   1  15
HETATM   15  C   UNL     1      -9.886   8.995  66.300  1.00  0.00    -0.361 C  
HETATM   16  C   UNL     1      -8.918   6.744  66.680  1.00  0.00    -0.144 C  
HETATM   17  C   UNL     1     -10.054   7.871  68.573  1.00  0.00    -0.216 C  
HETATM   18  C   UNL     1      -9.206   8.088  67.325  1.00  0.00    -0.164 C  
HETATM   19  O   UNL     1      -9.695   5.799  66.659  1.00  0.00    -0.144 OA 
BRANCH  16  20
HETATM   20  O   UNL     1      -7.653   6.735  66.176  1.00  0.00    -0.082 OA 
BRANCH  20  21
HETATM   21  C   UNL     1      -7.519   6.138  64.878  1.00  0.00    -0.083 C  
HETATM   22  C   UNL     1      -7.685   7.240  63.847  1.00  0.00    -0.120 C  
ENDBRANCH  20  21
ENDBRANCH  16  20
ENDBRANCH   1  15
BRANCH   1  23
HETATM   23  N   UNL     1     -10.906  11.151  65.720  1.00  0.00    -0.201 N  
HETATM   24  C   UNL     1     -10.511  11.256  64.413  1.00  0.00    -0.345 C  
HETATM   25  H   UNL     1     -11.795  11.569  65.997  1.00  0.00     0.000 HD 
HETATM   26  O   UNL     1      -9.445  10.842  63.960  1.00  0.00    -0.226 OA 
BRANCH  24  27
HETATM   27  C   UNL     1     -11.421  12.072  63.534  1.00  0.00    -0.536 C  
BRANCH  27  28
HETATM   28  C   UNL     1     -12.604  12.546  64.356  1.00  0.00    -0.497 C  
HETATM   29  O   UNL     1     -13.644  14.454  65.339  1.00  0.00    -0.428 OA 
HETATM   30  C   UNL     1     -12.655  14.002  64.773  1.00  0.00    -0.296 C  
HETATM   31  O   UNL     1     -11.595  14.783  64.513  1.00  0.00    -0.395 OA 
ENDBRANCH  27  28
ENDBRANCH  24  27
ENDBRANCH   1  23
TORSDOF 9
ENDMDL
MODEL      179
REMARK 921   NORMALIZED FREE ENERGY PREDICTED BY IDOCK:   -4.40 KCAL/MOL
REMARK 922        TOTAL FREE ENERGY PREDICTED BY IDOCK:   -8.54 KCAL/MOL
REMARK 923 INTER-LIGAND FREE ENERGY PREDICTED BY IDOCK:   -8.41 KCAL/MOL
REMARK 924 INTRA-LIGAND FREE ENERGY PREDICTED BY IDOCK:   -0.13 KCAL/MOL
REMARK 927      BINDING AFFINITY PREDICTED BY RF-SCORE:    0.00 PKD
ROOT
HETATM    1  C   UNL     1      -9.981   8.541  68.285  1.00  0.00    -0.184 C  
ENDROOT
BRANCH   1   2
HETATM    2  C   UNL     1     -10.594   9.775  67.565  1.00  0.00    -0.335 C  
BRANCH   2   3
HETATM    3  C   UNL     1     -11.249  10.865  68.384  1.00  0.00    -0.347 A  
HETATM    4  C   UNL     1     -12.201  12.885  70.166  1.00  0.00    -0.336 A  
HETATM    5  C   UNL     1     -11.299  12.203  67.998  1.00  0.00    -0.353 A  
HETATM    6  C   UNL     1     -11.727  13.190  68.883  1.00  0.00    -0.368 A  
HETATM    7  C   UNL     1     -11.811  10.527  69.621  1.00  0.00    -0.306 A  
HETATM    8  C   UNL     1     -12.295  11.517  70.488  1.00  0.00    -0.432 A  
BRANCH   4   9
HETATM    9  C   UNL     1     -12.517  13.955  71.133  1.00  0.00    -0.450 A  
HETATM   10  C   UNL     1     -13.764  14.018  71.785  1.00  0.00    -0.479 A  
HETATM   11  C   UNL     1     -14.107  15.089  72.613  1.00  0.00    -0.397 A  
HETATM   12  C   UNL     1     -13.196  16.115  72.835  1.00  0.00    -0.418 A  
HETATM   13  C   UNL     1     -11.945  16.072  72.227  1.00  0.00    -0.633 A  
HETATM   14  C   UNL     1     -11.614  15.006  71.382  1.00  0.00    -0.397 A  
ENDBRANCH   4   9
ENDBRANCH   2   3
ENDBRANCH   1   2
BRANCH   1  15
HETATM   15  C   UNL     1     -10.669   8.129  69.609  1.00  0.00    -0.196 C  
HETATM   16  C   UNL     1     -12.139   6.610  70.906  1.00  0.00    -0.320 C  
HETATM   17  C   UNL     1     -10.425   5.607  69.423  1.00  0.00    -0.367 C  
HETATM   18  C   UNL     1     -11.384   6.778  69.599  1.00  0.00    -0.326 C  
HETATM   19  O   UNL     1     -11.670   6.126  71.926  1.00  0.00    -0.309 OA 
BRANCH  16  20
HETATM   20  O   UNL     1     -13.426   7.031  70.753  1.00  0.00    -0.024 OA 
BRANCH  20  21
HETATM   21  C   UNL     1     -13.931   7.843  71.822  1.00  0.00    -0.399 C  
HETATM   22  C   UNL     1     -12.762   8.622  72.399  1.00  0.00    -0.423 C  
ENDBRANCH  20  21
ENDBRANCH  16  20
ENDBRANCH   1  15
BRANCH   1  23
HETATM   23  N   UNL     1      -8.542   8.693  68.521  1.00  0.00    -0.134 N  
HETATM   24  C   UNL     1      -7.598   7.992  67.818  1.00  0.00    -0.102 C  
HETATM   25  H   UNL     1      -8.231   9.346  69.239  1.00  0.00     0.000 HD 
HETATM   26  O   UNL     1      -7.839   7.140  66.964  1.00  0.00    -0.105 OA 
BRANCH  24  27
HETATM   27  C   UNL     1      -6.177   8.215  68.261  1.00  0.00    -0.050 C  
BRANCH  27  28
HETATM   28  C   UNL     1      -5.905   9.705  68.314  1.00  0.00    -0.043 C  
HETATM   29  O   UNL     1      -5.527  11.656  66.995  1.00  0.00    -0.092 OA 
HETATM   30  C   UNL     1      -5.639  10.435  67.013  1.00  0.00    -0.042 C  
HETATM   31  O   UNL     1      -5.527   9.719  65.884  1.00  0.00    -0.042 OA 
ENDBRANCH  27  28
ENDBRANCH  24  27
ENDBRANCH   1  23
TORSDOF 9
ENDMDL
MODEL      180
REMARK 921   NORMALIZED FREE ENERGY PREDICTED BY IDOCK:   -4.40 KCAL/MOL
REMARK 922        TOTAL FREE ENERGY PREDICTED BY IDOCK:   -8.54 KCAL/MOL
REMARK 923 INTER-LIGAND FREE ENERGY PREDICTED BY IDOCK:   -7.02 KCAL/MOL
REMARK 924 INTRA-LIGAND FREE ENERGY PREDICTED BY IDOCK:   -1.52 KCAL/MOL
REMARK 927      BINDING AFFINITY PREDICTED BY RF-SCORE:    0.00 PKD
ROOT
HETATM    1  C   UNL     1      -8.001   6.261  68.245  1.00  0.00    -0.108 C  
ENDROOT
BRANCH   1   2
HETATM    2  C   UNL     1      -7.565   7.647  67.691  1.00  0.00    -0.109 C  
BRANCH   2   3
HETATM    3  C   UNL     1      -8.618   8.613  67.193  1.00  0.00    -0.123 A  
HETATM    4  C   UNL     1     -10.350  10.701  66.300  1.00  0.00    -0.296 A  
HETATM    5  C   UNL     1      -9.045   8.680  65.868  1.00  0.00    -0.259 A  
HETATM    6  C   UNL     1      -9.858   9.722  65.427  1.00  0.00    -0.365 A  
HETATM    7  C   UNL     1      -9.178   9.520  68.100  1.00  0.00    -0.134 A  
HETATM    8  C   UNL     1     -10.042  10.534  67.664  1.00  0.00    -0.211 A  
BRANCH   4   9
HETATM    9  C   UNL     1     -11.093  11.871  65.788  1.00  0.00    -0.367 A  
HETATM   10  C   UNL     1     -11.125  12.182  64.415  1.00  0.00    -0.387 A  
HETATM   11  C   UNL     1     -11.730  13.348  63.940  1.00  0.00    -0.455 A  
HETATM   12  C   UNL     1     -12.347  14.222  64.828  1.00  0.00    -0.440 A  
HETATM   13  C   UNL     1     -12.355  13.932  66.189  1.00  0.00    -0.504 A  
HETATM   14  C   UNL     1     -11.730  12.772  66.661  1.00  0.00    -0.459 A  
ENDBRANCH   4   9
ENDBRANCH   2   3
ENDBRANCH   1   2
BRANCH   1  15
HETATM   15  C   UNL     1      -8.280   5.172  67.181  1.00  0.00    -0.107 C  
HETATM   16  C   UNL     1      -7.887   4.181  64.941  1.00  0.00    -0.092 C  
HETATM   17  C   UNL     1      -5.921   4.876  66.281  1.00  0.00    -0.023 C  
HETATM   18  C   UNL     1      -7.374   5.194  65.949  1.00  0.00    -0.081 C  
HETATM   19  O   UNL     1      -7.562   3.003  64.909  1.00  0.00    -0.074 OA 
BRANCH  16  20
HETATM   20  O   UNL     1      -8.720   4.794  64.054  1.00  0.00    -0.141 OA 
BRANCH  20  21
HETATM   21  C   UNL     1      -9.292   3.931  63.061  1.00  0.00    -0.115 C  
HETATM   22  C   UNL     1     -10.614   3.417  63.604  1.00  0.00    -0.270 C  
ENDBRANCH  20  21
ENDBRANCH  16  20
ENDBRANCH   1  15
BRANCH   1  23
HETATM   23  N   UNL     1      -9.156   6.359  69.142  1.00  0.00    -0.132 N  
HETATM   24  C   UNL     1      -9.298   5.574  70.255  1.00  0.00    -0.154 C  
HETATM   25  H   UNL     1      -9.885   7.040  68.929  1.00  0.00     0.000 HD 
HETATM   26  O   UNL     1      -8.522   4.683  70.597  1.00  0.00    -0.091 OA 
BRANCH  24  27
HETATM   27  C   UNL     1     -10.591   5.756  71.004  1.00  0.00    -0.318 C  
BRANCH  27  28
HETATM   28  C   UNL     1     -10.796   7.232  71.282  1.00  0.00    -0.255 C  
HETATM   29  O   UNL     1     -12.417   8.900  71.809  1.00  0.00    -0.319 OA 
HETATM   30  C   UNL     1     -12.211   7.740  71.472  1.00  0.00    -0.318 C  
HETATM   31  O   UNL     1     -13.232   6.895  71.260  1.00  0.00    -0.311 OA 
ENDBRANCH  27  28
ENDBRANCH  24  27
ENDBRANCH   1  23
TORSDOF 9
ENDMDL
MODEL      181
REMARK 921   NORMALIZED FREE ENERGY PREDICTED BY IDOCK:   -4.40 KCAL/MOL
REMARK 922        TOTAL FREE ENERGY PREDICTED BY IDOCK:   -8.53 KCAL/MOL
REMARK 923 INTER-LIGAND FREE ENERGY PREDICTED BY IDOCK:   -6.68 KCAL/MOL
REMARK 924 INTRA-LIGAND FREE ENERGY PREDICTED BY IDOCK:   -1.86 KCAL/MOL
REMARK 927      BINDING AFFINITY PREDICTED BY RF-SCORE:    0.00 PKD
ROOT
HETATM    1  C   UNL     1      -7.890   7.032  68.802  1.00  0.00    -0.118 C  
ENDROOT
BRANCH   1   2
HETATM    2  C   UNL     1      -7.275   7.820  67.611  1.00  0.00    -0.091 C  
BRANCH   2   3
HETATM    3  C   UNL     1      -8.038   8.982  67.015  1.00  0.00    -0.106 A  
HETATM    4  C   UNL     1      -9.769  11.055  66.085  1.00  0.00    -0.257 A  
HETATM    5  C   UNL     1      -7.828  10.313  67.372  1.00  0.00    -0.102 A  
HETATM    6  C   UNL     1      -8.697  11.316  66.949  1.00  0.00    -0.157 A  
HETATM    7  C   UNL     1      -9.040   8.715  66.074  1.00  0.00    -0.255 A  
HETATM    8  C   UNL     1      -9.878   9.736  65.605  1.00  0.00    -0.371 A  
BRANCH   4   9
HETATM    9  C   UNL     1     -10.757  12.105  65.762  1.00  0.00    -0.303 A  
HETATM   10  C   UNL     1     -11.295  12.945  66.758  1.00  0.00    -0.367 A  
HETATM   11  C   UNL     1     -12.311  13.861  66.476  1.00  0.00    -0.447 A  
HETATM   12  C   UNL     1     -12.796  13.983  65.179  1.00  0.00    -0.368 A  
HETATM   13  C   UNL     1     -12.269  13.186  64.167  1.00  0.00    -0.465 A  
HETATM   14  C   UNL     1     -11.265  12.255  64.459  1.00  0.00    -0.378 A  
ENDBRANCH   4   9
ENDBRANCH   2   3
ENDBRANCH   1   2
BRANCH   1  15
HETATM   15  C   UNL     1      -8.853   5.882  68.418  1.00  0.00    -0.111 C  
HETATM   16  C   UNL     1      -9.443   3.932  67.003  1.00  0.00    -0.200 C  
HETATM   17  C   UNL     1      -7.140   4.076  67.907  1.00  0.00    -0.059 C  
HETATM   18  C   UNL     1      -8.324   4.883  67.389  1.00  0.00    -0.105 C  
HETATM   19  O   UNL     1      -9.703   2.888  67.584  1.00  0.00    -0.099 OA 
BRANCH  16  20
HETATM   20  O   UNL     1     -10.077   4.393  65.888  1.00  0.00    -0.226 OA 
BRANCH  20  21
HETATM   21  C   UNL     1      -9.278   4.410  64.697  1.00  0.00    -0.156 C  
HETATM   22  C   UNL     1     -10.133   3.876  63.562  1.00  0.00    -0.176 C  
ENDBRANCH  20  21
ENDBRANCH  16  20
ENDBRANCH   1  15
BRANCH   1  23
HETATM   23  N   UNL     1      -8.557   7.912  69.766  1.00  0.00    -0.132 N  
HETATM   24  C   UNL     1      -8.238   7.930  71.097  1.00  0.00    -0.107 C  
HETATM   25  H   UNL     1      -9.291   8.537  69.431  1.00  0.00     0.000 HD 
HETATM   26  O   UNL     1      -7.412   7.196  71.637  1.00  0.00    -0.084 OA 
BRANCH  24  27
HETATM   27  C   UNL     1      -9.091   8.835  71.946  1.00  0.00    -0.291 C  
BRANCH  27  28
HETATM   28  C   UNL     1     -10.167   8.007  72.620  1.00  0.00    -0.385 C  
HETATM   29  O   UNL     1     -12.190   6.793  72.265  1.00  0.00    -0.243 OA 
HETATM   30  C   UNL     1     -11.354   7.557  71.793  1.00  0.00    -0.254 C  
HETATM   31  O   UNL     1     -11.473   8.014  70.537  1.00  0.00    -0.264 OA 
ENDBRANCH  27  28
ENDBRANCH  24  27
ENDBRANCH   1  23
TORSDOF 9
ENDMDL
MODEL      182
REMARK 921   NORMALIZED FREE ENERGY PREDICTED BY IDOCK:   -4.37 KCAL/MOL
REMARK 922        TOTAL FREE ENERGY PREDICTED BY IDOCK:   -8.49 KCAL/MOL
REMARK 923 INTER-LIGAND FREE ENERGY PREDICTED BY IDOCK:   -6.83 KCAL/MOL
REMARK 924 INTRA-LIGAND FREE ENERGY PREDICTED BY IDOCK:   -1.66 KCAL/MOL
REMARK 927      BINDING AFFINITY PREDICTED BY RF-SCORE:    0.00 PKD
ROOT
HETATM    1  C   UNL     1      -7.581   8.502  70.162  1.00  0.00    -0.068 C  
ENDROOT
BRANCH   1   2
HETATM    2  C   UNL     1      -7.749  10.047  70.106  1.00  0.00    -0.158 C  
BRANCH   2   3
HETATM    3  C   UNL     1      -8.438  10.677  68.915  1.00  0.00    -0.154 A  
HETATM    4  C   UNL     1      -9.900  12.094  66.912  1.00  0.00    -0.213 A  
HETATM    5  C   UNL     1      -7.788  11.471  67.973  1.00  0.00    -0.126 A  
HETATM    6  C   UNL     1      -8.507  12.192  67.022  1.00  0.00    -0.183 A  
HETATM    7  C   UNL     1      -9.817  10.486  68.760  1.00  0.00    -0.191 A  
HETATM    8  C   UNL     1     -10.531  11.168  67.765  1.00  0.00    -0.225 A  
BRANCH   4   9
HETATM    9  C   UNL     1     -10.653  12.971  65.991  1.00  0.00    -0.292 A  
HETATM   10  C   UNL     1     -10.204  14.268  65.675  1.00  0.00    -0.366 A  
HETATM   11  C   UNL     1     -10.969  15.140  64.896  1.00  0.00    -0.434 A  
HETATM   12  C   UNL     1     -12.194  14.724  64.387  1.00  0.00    -0.447 A  
HETATM   13  C   UNL     1     -12.655  13.440  64.660  1.00  0.00    -0.322 A  
HETATM   14  C   UNL     1     -11.894  12.577  65.458  1.00  0.00    -0.491 A  
ENDBRANCH   4   9
ENDBRANCH   2   3
ENDBRANCH   1   2
BRANCH   1  15
HETATM   15  C   UNL     1      -8.343   7.706  69.074  1.00  0.00    -0.128 C  
HETATM   16  C   UNL     1      -8.573   6.904  66.738  1.00  0.00    -0.120 C  
HETATM   17  C   UNL     1      -6.358   6.717  67.835  1.00  0.00    -0.047 C  
HETATM   18  C   UNL     1      -7.627   7.554  67.732  1.00  0.00    -0.106 C  
HETATM   19  O   UNL     1      -8.697   5.698  66.580  1.00  0.00    -0.117 OA 
BRANCH  16  20
HETATM   20  O   UNL     1      -9.221   7.864  66.021  1.00  0.00    -0.172 OA 
BRANCH  20  21
HETATM   21  C   UNL     1      -8.369   8.818  65.372  1.00  0.00    -0.151 C  
HETATM   22  C   UNL     1      -9.232   9.642  64.434  1.00  0.00    -0.258 C  
ENDBRANCH  20  21
ENDBRANCH  16  20
ENDBRANCH   1  15
BRANCH   1  23
HETATM   23  N   UNL     1      -7.917   7.953  71.479  1.00  0.00    -0.094 N  
HETATM   24  C   UNL     1      -9.079   8.260  72.134  1.00  0.00    -0.212 C  
HETATM   25  H   UNL     1      -7.257   7.316  71.926  1.00  0.00     0.000 HD 
HETATM   26  O   UNL     1      -9.932   9.049  71.731  1.00  0.00    -0.325 OA 
BRANCH  24  27
HETATM   27  C   UNL     1      -9.209   7.671  73.514  1.00  0.00    -0.331 C  
BRANCH  27  28
HETATM   28  C   UNL     1     -10.512   6.900  73.599  1.00  0.00    -0.400 C  
HETATM   29  O   UNL     1     -11.512   4.747  73.367  1.00  0.00    -0.338 OA 
HETATM   30  C   UNL     1     -10.511   5.437  73.207  1.00  0.00    -0.226 C  
HETATM   31  O   UNL     1      -9.394   4.914  72.678  1.00  0.00    -0.132 OA 
ENDBRANCH  27  28
ENDBRANCH  24  27
ENDBRANCH   1  23
TORSDOF 9
ENDMDL
MODEL      183
REMARK 921   NORMALIZED FREE ENERGY PREDICTED BY IDOCK:   -4.34 KCAL/MOL
REMARK 922        TOTAL FREE ENERGY PREDICTED BY IDOCK:   -8.45 KCAL/MOL
REMARK 923 INTER-LIGAND FREE ENERGY PREDICTED BY IDOCK:   -7.23 KCAL/MOL
REMARK 924 INTRA-LIGAND FREE ENERGY PREDICTED BY IDOCK:   -1.22 KCAL/MOL
REMARK 927      BINDING AFFINITY PREDICTED BY RF-SCORE:    0.00 PKD
ROOT
HETATM    1  C   UNL     1      -9.495  15.114  68.039  1.00  0.00    -0.199 C  
ENDROOT
BRANCH   1   2
HETATM    2  C   UNL     1      -8.635  14.014  67.355  1.00  0.00    -0.211 C  
BRANCH   2   3
HETATM    3  C   UNL     1      -8.448  12.681  68.045  1.00  0.00    -0.177 A  
HETATM    4  C   UNL     1      -8.035  10.359  69.656  1.00  0.00    -0.129 A  
HETATM    5  C   UNL     1      -9.487  11.790  68.307  1.00  0.00    -0.193 A  
HETATM    6  C   UNL     1      -9.292  10.680  69.126  1.00  0.00    -0.174 A  
HETATM    7  C   UNL     1      -7.166  12.326  68.481  1.00  0.00    -0.103 A  
HETATM    8  C   UNL     1      -6.960  11.176  69.256  1.00  0.00    -0.118 A  
BRANCH   4   9
HETATM    9  C   UNL     1      -7.881   9.260  70.632  1.00  0.00    -0.181 A  
HETATM   10  C   UNL     1      -6.655   9.016  71.281  1.00  0.00    -0.086 A  
HETATM   11  C   UNL     1      -6.474   7.911  72.117  1.00  0.00    -0.056 A  
HETATM   12  C   UNL     1      -7.528   7.035  72.349  1.00  0.00    -0.085 A  
HETATM   13  C   UNL     1      -8.760   7.261  71.743  1.00  0.00    -0.123 A  
HETATM   14  C   UNL     1      -8.930   8.359  70.890  1.00  0.00    -0.188 A  
ENDBRANCH   4   9
ENDBRANCH   2   3
ENDBRANCH   1   2
BRANCH   1  15
HETATM   15  C   UNL     1      -8.711  16.333  68.584  1.00  0.00    -0.226 C  
HETATM   16  C   UNL     1      -7.801  18.624  68.305  1.00  0.00    -0.307 C  
HETATM   17  C   UNL     1     -10.144  18.197  67.620  1.00  0.00    -0.367 C  
HETATM   18  C   UNL     1      -8.749  17.593  67.718  1.00  0.00    -0.232 C  
HETATM   19  O   UNL     1      -8.105  19.445  69.159  1.00  0.00    -0.320 OA 
BRANCH  16  20
HETATM   20  O   UNL     1      -6.583  18.527  67.703  1.00  0.00    -0.201 OA 
BRANCH  20  21
HETATM   21  C   UNL     1      -6.618  18.398  66.275  1.00  0.00    -0.220 C  
HETATM   22  C   UNL     1      -5.183  18.377  65.780  1.00  0.00    -0.202 C  
ENDBRANCH  20  21
ENDBRANCH  16  20
ENDBRANCH   1  15
BRANCH   1  23
HETATM   23  N   UNL     1     -10.341  14.575  69.108  1.00  0.00    -0.333 N  
HETATM   24  C   UNL     1     -11.672  14.875  69.220  1.00  0.00    -0.316 C  
HETATM   25  H   UNL     1      -9.921  13.951  69.797  1.00  0.00     0.000 HD 
HETATM   26  O   UNL     1     -12.288  15.649  68.490  1.00  0.00     0.010 OA 
BRANCH  24  27
HETATM   27  C   UNL     1     -12.357  14.299  70.431  1.00  0.00    -0.419 C  
BRANCH  27  28
HETATM   28  C   UNL     1     -12.391  15.350  71.524  1.00  0.00    -0.443 C  
HETATM   29  O   UNL     1     -13.076  15.797  73.764  1.00  0.00    -0.512 OA 
HETATM   30  C   UNL     1     -13.118  15.025  72.813  1.00  0.00    -0.453 C  
HETATM   31  O   UNL     1     -13.811  13.878  72.889  1.00  0.00    -0.662 OA 
ENDBRANCH  27  28
ENDBRANCH  24  27
ENDBRANCH   1  23
TORSDOF 9
ENDMDL
MODEL      184
REMARK 921   NORMALIZED FREE ENERGY PREDICTED BY IDOCK:   -4.28 KCAL/MOL
REMARK 922        TOTAL FREE ENERGY PREDICTED BY IDOCK:   -8.35 KCAL/MOL
REMARK 923 INTER-LIGAND FREE ENERGY PREDICTED BY IDOCK:   -7.22 KCAL/MOL
REMARK 924 INTRA-LIGAND FREE ENERGY PREDICTED BY IDOCK:   -1.13 KCAL/MOL
REMARK 927      BINDING AFFINITY PREDICTED BY RF-SCORE:    0.00 PKD
ROOT
HETATM    1  C   UNL     1      -9.888  10.108  69.467  1.00  0.00    -0.232 C  
ENDROOT
BRANCH   1   2
HETATM    2  C   UNL     1     -10.019  10.586  67.993  1.00  0.00    -0.177 C  
BRANCH   2   3
HETATM    3  C   UNL     1      -9.712  12.027  67.649  1.00  0.00    -0.187 A  
HETATM    4  C   UNL     1      -9.188  14.820  67.358  1.00  0.00    -0.200 A  
HETATM    5  C   UNL     1      -8.440  12.493  67.322  1.00  0.00    -0.185 A  
HETATM    6  C   UNL     1      -8.179  13.857  67.219  1.00  0.00    -0.176 A  
HETATM    7  C   UNL     1     -10.752  12.963  67.692  1.00  0.00    -0.237 A  
HETATM    8  C   UNL     1     -10.497  14.332  67.531  1.00  0.00    -0.252 A  
BRANCH   4   9
HETATM    9  C   UNL     1      -8.864  16.261  67.384  1.00  0.00    -0.198 A  
HETATM   10  C   UNL     1      -8.363  16.927  66.248  1.00  0.00    -0.331 A  
HETATM   11  C   UNL     1      -7.950  18.260  66.301  1.00  0.00    -0.267 A  
HETATM   12  C   UNL     1      -8.055  18.974  67.489  1.00  0.00    -0.292 A  
HETATM   13  C   UNL     1      -8.568  18.353  68.624  1.00  0.00    -0.315 A  
HETATM   14  C   UNL     1      -8.962  17.011  68.571  1.00  0.00    -0.263 A  
ENDBRANCH   4   9
ENDBRANCH   2   3
ENDBRANCH   1   2
BRANCH   1  15
HETATM   15  C   UNL     1     -10.349   8.656  69.742  1.00  0.00    -0.212 C  
HETATM   16  C   UNL     1      -9.967   6.411  70.725  1.00  0.00    -0.185 C  
HETATM   17  C   UNL     1      -9.486   8.403  72.119  1.00  0.00    -0.360 C  
HETATM   18  C   UNL     1      -9.475   7.847  70.700  1.00  0.00    -0.162 C  
HETATM   19  O   UNL     1     -10.833   5.983  71.476  1.00  0.00    -0.248 OA 
BRANCH  16  20
HETATM   20  O   UNL     1      -9.266   5.666  69.825  1.00  0.00    -0.134 OA 
BRANCH  20  21
HETATM   21  C   UNL     1     -10.044   4.713  69.088  1.00  0.00    -0.074 C  
HETATM   22  C   UNL     1      -9.989   5.109  67.623  1.00  0.00    -0.203 C  
ENDBRANCH  20  21
ENDBRANCH  16  20
ENDBRANCH   1  15
BRANCH   1  23
HETATM   23  N   UNL     1     -10.561  11.009  70.407  1.00  0.00    -0.071 N  
HETATM   24  C   UNL     1     -11.924  11.095  70.503  1.00  0.00    -0.380 C  
HETATM   25  H   UNL     1      -9.990  11.598  71.014  1.00  0.00     0.000 HD 
HETATM   26  O   UNL     1     -12.723  10.481  69.798  1.00  0.00    -0.158 OA 
BRANCH  24  27
HETATM   27  C   UNL     1     -12.432  12.139  71.461  1.00  0.00    -0.144 C  
BRANCH  27  28
HETATM   28  C   UNL     1     -12.140  13.514  70.892  1.00  0.00    -0.301 C  
HETATM   29  O   UNL     1     -12.831  15.796  70.883  1.00  0.00    -0.468 OA 
HETATM   30  C   UNL     1     -13.088  14.647  71.226  1.00  0.00    -0.359 C  
HETATM   31  O   UNL     1     -14.213  14.368  71.902  1.00  0.00    -0.455 OA 
ENDBRANCH  27  28
ENDBRANCH  24  27
ENDBRANCH   1  23
TORSDOF 9
ENDMDL
MODEL      185
REMARK 921   NORMALIZED FREE ENERGY PREDICTED BY IDOCK:   -4.28 KCAL/MOL
REMARK 922        TOTAL FREE ENERGY PREDICTED BY IDOCK:   -8.35 KCAL/MOL
REMARK 923 INTER-LIGAND FREE ENERGY PREDICTED BY IDOCK:   -6.27 KCAL/MOL
REMARK 924 INTRA-LIGAND FREE ENERGY PREDICTED BY IDOCK:   -2.08 KCAL/MOL
REMARK 927      BINDING AFFINITY PREDICTED BY RF-SCORE:    0.00 PKD
ROOT
HETATM    1  C   UNL     1     -10.176  10.458  68.532  1.00  0.00    -0.173 C  
ENDROOT
BRANCH   1   2
HETATM    2  C   UNL     1     -10.784   9.645  67.356  1.00  0.00    -0.308 C  
BRANCH   2   3
HETATM    3  C   UNL     1     -10.292   8.238  67.091  1.00  0.00    -0.387 A  
HETATM    4  C   UNL     1      -9.670   5.541  66.387  1.00  0.00    -0.182 A  
HETATM    5  C   UNL     1      -9.202   7.938  66.277  1.00  0.00    -0.231 A  
HETATM    6  C   UNL     1      -8.925   6.625  65.903  1.00  0.00    -0.096 A  
HETATM    7  C   UNL     1     -10.986   7.166  67.665  1.00  0.00    -0.226 A  
HETATM    8  C   UNL     1     -10.669   5.842  67.333  1.00  0.00    -0.370 A  
BRANCH   4   9
HETATM    9  C   UNL     1      -9.447   4.176  65.870  1.00  0.00    -0.178 A  
HETATM   10  C   UNL     1      -8.928   3.152  66.687  1.00  0.00    -0.168 A  
HETATM   11  C   UNL     1      -8.611   1.892  66.173  1.00  0.00    -0.112 A  
HETATM   12  C   UNL     1      -8.832   1.614  64.830  1.00  0.00    -0.108 A  
HETATM   13  C   UNL     1      -9.367   2.595  64.000  1.00  0.00    -0.121 A  
HETATM   14  C   UNL     1      -9.664   3.862  64.515  1.00  0.00    -0.183 A  
ENDBRANCH   4   9
ENDBRANCH   2   3
ENDBRANCH   1   2
BRANCH   1  15
HETATM   15  C   UNL     1      -8.662  10.767  68.419  1.00  0.00    -0.142 C  
HETATM   16  C   UNL     1      -6.693  11.499  67.101  1.00  0.00    -0.129 C  
HETATM   17  C   UNL     1      -8.781  12.824  66.932  1.00  0.00    -0.169 C  
HETATM   18  C   UNL     1      -8.210  11.423  67.115  1.00  0.00    -0.157 C  
HETATM   19  O   UNL     1      -6.037  12.424  67.558  1.00  0.00    -0.117 OA 
BRANCH  16  20
HETATM   20  O   UNL     1      -6.182  10.411  66.461  1.00  0.00    -0.066 OA 
BRANCH  20  21
HETATM   21  C   UNL     1      -6.512  10.313  65.068  1.00  0.00    -0.120 C  
HETATM   22  C   UNL     1      -5.625   9.241  64.460  1.00  0.00    -0.063 C  
ENDBRANCH  20  21
ENDBRANCH  16  20
ENDBRANCH   1  15
BRANCH   1  23
HETATM   23  N   UNL     1     -10.441   9.838  69.834  1.00  0.00    -0.241 N  
HETATM   24  C   UNL     1     -11.645   9.951  70.476  1.00  0.00    -0.309 C  
HETATM   25  H   UNL     1      -9.697   9.301  70.280  1.00  0.00     0.000 HD 
HETATM   26  O   UNL     1     -12.603  10.608  70.073  1.00  0.00    -0.306 OA 
BRANCH  24  27
HETATM   27  C   UNL     1     -11.701   9.321  71.842  1.00  0.00    -0.420 C  
BRANCH  27  28
HETATM   28  C   UNL     1     -10.946   8.007  71.810  1.00  0.00    -0.305 C  
HETATM   29  O   UNL     1     -11.051   5.725  71.124  1.00  0.00    -0.256 OA 
HETATM   30  C   UNL     1     -11.656   6.781  71.274  1.00  0.00    -0.320 C  
HETATM   31  O   UNL     1     -12.960   6.874  70.970  1.00  0.00    -0.305 OA 
ENDBRANCH  27  28
ENDBRANCH  24  27
ENDBRANCH   1  23
TORSDOF 9
ENDMDL
MODEL      186
REMARK 921   NORMALIZED FREE ENERGY PREDICTED BY IDOCK:   -4.28 KCAL/MOL
REMARK 922        TOTAL FREE ENERGY PREDICTED BY IDOCK:   -8.35 KCAL/MOL
REMARK 923 INTER-LIGAND FREE ENERGY PREDICTED BY IDOCK:   -7.95 KCAL/MOL
REMARK 924 INTRA-LIGAND FREE ENERGY PREDICTED BY IDOCK:   -0.39 KCAL/MOL
REMARK 927      BINDING AFFINITY PREDICTED BY RF-SCORE:    0.00 PKD
ROOT
HETATM    1  C   UNL     1     -12.258  11.051  70.087  1.00  0.00    -0.344 C  
ENDROOT
BRANCH   1   2
HETATM    2  C   UNL     1     -11.788  11.678  68.745  1.00  0.00    -0.387 C  
BRANCH   2   3
HETATM    3  C   UNL     1     -10.667  11.022  67.970  1.00  0.00    -0.260 A  
HETATM    4  C   UNL     1      -8.762   9.831  66.205  1.00  0.00    -0.152 A  
HETATM    5  C   UNL     1      -9.439  11.630  67.715  1.00  0.00    -0.178 A  
HETATM    6  C   UNL     1      -8.529  11.067  66.824  1.00  0.00    -0.148 A  
HETATM    7  C   UNL     1     -10.876   9.742  67.442  1.00  0.00    -0.265 A  
HETATM    8  C   UNL     1      -9.933   9.150  66.591  1.00  0.00    -0.343 A  
BRANCH   4   9
HETATM    9  C   UNL     1      -7.851   9.321  65.161  1.00  0.00    -0.110 A  
HETATM   10  C   UNL     1      -6.731  10.061  64.731  1.00  0.00    -0.127 A  
HETATM   11  C   UNL     1      -5.933   9.634  63.667  1.00  0.00    -0.103 A  
HETATM   12  C   UNL     1      -6.218   8.437  63.021  1.00  0.00    -0.086 A  
HETATM   13  C   UNL     1      -7.302   7.669  63.437  1.00  0.00    -0.090 A  
HETATM   14  C   UNL     1      -8.110   8.111  64.491  1.00  0.00    -0.142 A  
ENDBRANCH   4   9
ENDBRANCH   2   3
ENDBRANCH   1   2
BRANCH   1  15
HETATM   15  C   UNL     1     -13.072  11.987  71.014  1.00  0.00    -0.022 C  
HETATM   16  C   UNL     1     -13.324  14.116  72.261  1.00  0.00    -0.461 C  
HETATM   17  C   UNL     1     -12.528  14.213  69.916  1.00  0.00    -0.313 C  
HETATM   18  C   UNL     1     -12.509  13.396  71.202  1.00  0.00    -0.414 C  
HETATM   19  O   UNL     1     -14.335  14.768  72.039  1.00  0.00    -0.477 OA 
BRANCH  16  20
HETATM   20  O   UNL     1     -12.734  13.968  73.480  1.00  0.00    -0.268 OA 
BRANCH  20  21
HETATM   21  C   UNL     1     -12.334  15.190  74.115  1.00  0.00    -0.569 C  
HETATM   22  C   UNL     1     -11.921  16.162  73.024  1.00  0.00    -0.593 C  
ENDBRANCH  20  21
ENDBRANCH  16  20
ENDBRANCH   1  15
BRANCH   1  23
HETATM   23  N   UNL     1     -11.149  10.471  70.850  1.00  0.00    -0.291 N  
HETATM   24  C   UNL     1     -11.106   9.150  71.206  1.00  0.00    -0.335 C  
HETATM   25  H   UNL     1     -10.376  11.077  71.127  1.00  0.00     0.000 HD 
HETATM   26  O   UNL     1     -11.991   8.326  70.979  1.00  0.00    -0.296 OA 
BRANCH  24  27
HETATM   27  C   UNL     1      -9.931   8.757  72.062  1.00  0.00    -0.391 C  
BRANCH  27  28
HETATM   28  C   UNL     1      -9.754   7.252  71.994  1.00  0.00    -0.177 C  
HETATM   29  O   UNL     1     -10.195   5.194  73.116  1.00  0.00    -0.168 OA 
HETATM   30  C   UNL     1     -10.214   6.419  73.172  1.00  0.00    -0.205 C  
HETATM   31  O   UNL     1     -10.640   7.048  74.278  1.00  0.00    -0.235 OA 
ENDBRANCH  27  28
ENDBRANCH  24  27
ENDBRANCH   1  23
TORSDOF 9
ENDMDL
MODEL      187
REMARK 921   NORMALIZED FREE ENERGY PREDICTED BY IDOCK:   -4.27 KCAL/MOL
REMARK 922        TOTAL FREE ENERGY PREDICTED BY IDOCK:   -8.34 KCAL/MOL
REMARK 923 INTER-LIGAND FREE ENERGY PREDICTED BY IDOCK:   -7.05 KCAL/MOL
REMARK 924 INTRA-LIGAND FREE ENERGY PREDICTED BY IDOCK:   -1.30 KCAL/MOL
REMARK 927      BINDING AFFINITY PREDICTED BY RF-SCORE:    0.00 PKD
ROOT
HETATM    1  C   UNL     1     -10.199   8.890  68.510  1.00  0.00    -0.197 C  
ENDROOT
BRANCH   1   2
HETATM    2  C   UNL     1     -11.099   9.872  67.709  1.00  0.00    -0.196 C  
BRANCH   2   3
HETATM    3  C   UNL     1     -10.868  11.362  67.833  1.00  0.00    -0.274 A  
HETATM    4  C   UNL     1     -10.540  14.197  67.715  1.00  0.00    -0.243 A  
HETATM    5  C   UNL     1     -11.688  12.216  68.570  1.00  0.00    -0.382 A  
HETATM    6  C   UNL     1     -11.551  13.599  68.479  1.00  0.00    -0.371 A  
HETATM    7  C   UNL     1      -9.791  11.934  67.145  1.00  0.00    -0.206 A  
HETATM    8  C   UNL     1      -9.620  13.325  67.102  1.00  0.00    -0.240 A  
BRANCH   4   9
HETATM    9  C   UNL     1     -10.500  15.661  67.522  1.00  0.00    -0.285 A  
HETATM   10  C   UNL     1      -9.783  16.247  66.460  1.00  0.00    -0.281 A  
HETATM   11  C   UNL     1      -9.650  17.632  66.340  1.00  0.00    -0.285 A  
HETATM   12  C   UNL     1     -10.257  18.472  67.267  1.00  0.00    -0.400 A  
HETATM   13  C   UNL     1     -10.993  17.927  68.314  1.00  0.00     0.041 A  
HETATM   14  C   UNL     1     -11.106  16.537  68.441  1.00  0.00    -0.333 A  
ENDBRANCH   4   9
ENDBRANCH   2   3
ENDBRANCH   1   2
BRANCH   1  15
HETATM   15  C   UNL     1     -10.694   8.540  69.935  1.00  0.00    -0.224 C  
HETATM   16  C   UNL     1     -12.145   7.231  71.463  1.00  0.00    -0.331 C  
HETATM   17  C   UNL     1     -10.930   6.023  69.672  1.00  0.00    -0.470 C  
HETATM   18  C   UNL     1     -11.622   7.330  70.041  1.00  0.00    -0.088 C  
HETATM   19  O   UNL     1     -11.587   6.629  72.370  1.00  0.00    -0.272 OA 
BRANCH  16  20
HETATM   20  O   UNL     1     -13.344   7.869  71.560  1.00  0.00    -0.334 OA 
BRANCH  20  21
HETATM   21  C   UNL     1     -13.375   8.971  72.478  1.00  0.00    -0.423 C  
HETATM   22  C   UNL     1     -12.978  10.220  71.709  1.00  0.00    -0.574 C  
ENDBRANCH  20  21
ENDBRANCH  16  20
ENDBRANCH   1  15
BRANCH   1  23
HETATM   23  N   UNL     1      -8.808   9.346  68.587  1.00  0.00    -0.131 N  
HETATM   24  C   UNL     1      -7.743   8.521  68.343  1.00  0.00    -0.101 C  
HETATM   25  H   UNL     1      -8.625  10.319  68.833  1.00  0.00     0.000 HD 
HETATM   26  O   UNL     1      -7.822   7.320  68.087  1.00  0.00    -0.114 OA 
BRANCH  24  27
HETATM   27  C   UNL     1      -6.390   9.144  68.557  1.00  0.00    -0.053 C  
BRANCH  27  28
HETATM   28  C   UNL     1      -5.582   9.018  67.279  1.00  0.00    -0.042 C  
HETATM   29  O   UNL     1      -5.154  10.004  65.150  1.00  0.00    -0.044 OA 
HETATM   30  C   UNL     1      -5.857   9.996  66.155  1.00  0.00    -0.063 C  
HETATM   31  O   UNL     1      -6.887  10.847  66.279  1.00  0.00    -0.130 OA 
ENDBRANCH  27  28
ENDBRANCH  24  27
ENDBRANCH   1  23
TORSDOF 9
ENDMDL
MODEL      188
REMARK 921   NORMALIZED FREE ENERGY PREDICTED BY IDOCK:   -4.27 KCAL/MOL
REMARK 922        TOTAL FREE ENERGY PREDICTED BY IDOCK:   -8.34 KCAL/MOL
REMARK 923 INTER-LIGAND FREE ENERGY PREDICTED BY IDOCK:   -6.70 KCAL/MOL
REMARK 924 INTRA-LIGAND FREE ENERGY PREDICTED BY IDOCK:   -1.63 KCAL/MOL
REMARK 927      BINDING AFFINITY PREDICTED BY RF-SCORE:    0.00 PKD
ROOT
HETATM    1  C   UNL     1      -7.693   6.812  67.857  1.00  0.00    -0.112 C  
ENDROOT
BRANCH   1   2
HETATM    2  C   UNL     1      -7.167   7.677  66.677  1.00  0.00    -0.087 C  
BRANCH   2   3
HETATM    3  C   UNL     1      -7.938   8.908  66.255  1.00  0.00    -0.103 A  
HETATM    4  C   UNL     1      -9.689  11.073  65.616  1.00  0.00    -0.276 A  
HETATM    5  C   UNL     1      -7.778  10.163  66.840  1.00  0.00    -0.103 A  
HETATM    6  C   UNL     1      -8.658  11.205  66.556  1.00  0.00    -0.169 A  
HETATM    7  C   UNL     1      -8.896   8.784  65.241  1.00  0.00    -0.205 A  
HETATM    8  C   UNL     1      -9.743   9.852  64.916  1.00  0.00    -0.332 A  
BRANCH   4   9
HETATM    9  C   UNL     1     -10.692  12.142  65.435  1.00  0.00    -0.323 A  
HETATM   10  C   UNL     1     -11.248  12.426  64.172  1.00  0.00    -0.434 A  
HETATM   11  C   UNL     1     -12.110  13.508  63.975  1.00  0.00    -0.494 A  
HETATM   12  C   UNL     1     -12.463  14.318  65.048  1.00  0.00    -0.409 A  
HETATM   13  C   UNL     1     -11.952  14.050  66.314  1.00  0.00    -0.454 A  
HETATM   14  C   UNL     1     -11.072  12.977  66.501  1.00  0.00    -0.315 A  
ENDBRANCH   4   9
ENDBRANCH   2   3
ENDBRANCH   1   2
BRANCH   1  15
HETATM   15  C   UNL     1      -7.757   5.288  67.593  1.00  0.00    -0.092 C  
HETATM   16  C   UNL     1      -9.037   3.169  67.429  1.00  0.00    -0.176 C  
HETATM   17  C   UNL     1      -9.961   5.190  66.331  1.00  0.00    -0.236 C  
HETATM   18  C   UNL     1      -9.158   4.680  67.522  1.00  0.00    -0.134 C  
HETATM   19  O   UNL     1      -8.931   2.541  66.385  1.00  0.00    -0.128 OA 
BRANCH  16  20
HETATM   20  O   UNL     1      -9.114   2.622  68.674  1.00  0.00    -0.121 OA 
BRANCH  20  21
HETATM   21  C   UNL     1      -9.762   3.440  69.659  1.00  0.00     0.019 C  
HETATM   22  C   UNL     1      -9.090   3.170  70.994  1.00  0.00    -0.184 C  
ENDBRANCH  20  21
ENDBRANCH  16  20
ENDBRANCH   1  15
BRANCH   1  23
HETATM   23  N   UNL     1      -9.000   7.268  68.341  1.00  0.00    -0.127 N  
HETATM   24  C   UNL     1      -9.153   7.973  69.504  1.00  0.00    -0.152 C  
HETATM   25  H   UNL     1      -9.829   7.050  67.789  1.00  0.00     0.000 HD 
HETATM   26  O   UNL     1      -8.246   8.257  70.285  1.00  0.00    -0.114 OA 
BRANCH  24  27
HETATM   27  C   UNL     1     -10.578   8.278  69.883  1.00  0.00    -0.232 C  
BRANCH  27  28
HETATM   28  C   UNL     1     -11.209   7.031  70.471  1.00  0.00    -0.335 C  
HETATM   29  O   UNL     1     -12.097   6.059  72.460  1.00  0.00    -0.230 OA 
HETATM   30  C   UNL     1     -11.486   6.998  71.960  1.00  0.00    -0.271 C  
HETATM   31  O   UNL     1     -11.049   8.014  72.719  1.00  0.00    -0.373 OA 
ENDBRANCH  27  28
ENDBRANCH  24  27
ENDBRANCH   1  23
TORSDOF 9
ENDMDL
MODEL      189
REMARK 921   NORMALIZED FREE ENERGY PREDICTED BY IDOCK:   -4.26 KCAL/MOL
REMARK 922        TOTAL FREE ENERGY PREDICTED BY IDOCK:   -8.32 KCAL/MOL
REMARK 923 INTER-LIGAND FREE ENERGY PREDICTED BY IDOCK:   -6.82 KCAL/MOL
REMARK 924 INTRA-LIGAND FREE ENERGY PREDICTED BY IDOCK:   -1.50 KCAL/MOL
REMARK 927      BINDING AFFINITY PREDICTED BY RF-SCORE:    0.00 PKD
ROOT
HETATM    1  C   UNL     1     -11.468  10.531  68.721  1.00  0.00    -0.224 C  
ENDROOT
BRANCH   1   2
HETATM    2  C   UNL     1     -10.737  10.052  67.435  1.00  0.00    -0.336 C  
BRANCH   2   3
HETATM    3  C   UNL     1     -10.131   8.666  67.397  1.00  0.00    -0.292 A  
HETATM    4  C   UNL     1      -9.056   6.056  66.960  1.00  0.00    -0.117 A  
HETATM    5  C   UNL     1      -8.770   8.410  67.555  1.00  0.00    -0.136 A  
HETATM    6  C   UNL     1      -8.243   7.146  67.302  1.00  0.00    -0.119 A  
HETATM    7  C   UNL     1     -10.971   7.573  67.154  1.00  0.00    -0.164 A  
HETATM    8  C   UNL     1     -10.445   6.289  66.958  1.00  0.00    -0.341 A  
BRANCH   4   9
HETATM    9  C   UNL     1      -8.464   4.763  66.562  1.00  0.00    -0.110 A  
HETATM   10  C   UNL     1      -9.236   3.586  66.496  1.00  0.00    -0.186 A  
HETATM   11  C   UNL     1      -8.658   2.343  66.231  1.00  0.00    -0.111 A  
HETATM   12  C   UNL     1      -7.292   2.247  65.995  1.00  0.00    -0.066 A  
HETATM   13  C   UNL     1      -6.503   3.394  66.028  1.00  0.00    -0.033 A  
HETATM   14  C   UNL     1      -7.085   4.635  66.314  1.00  0.00    -0.075 A  
ENDBRANCH   4   9
ENDBRANCH   2   3
ENDBRANCH   1   2
BRANCH   1  15
HETATM   15  C   UNL     1     -11.106  11.956  69.205  1.00  0.00    -0.285 C  
HETATM   16  C   UNL     1     -10.448  14.301  68.736  1.00  0.00    -0.249 C  
HETATM   17  C   UNL     1     -12.285  13.305  67.402  1.00  0.00    -0.236 C  
HETATM   18  C   UNL     1     -10.968  13.018  68.113  1.00  0.00    -0.269 C  
HETATM   19  O   UNL     1     -11.152  15.178  69.217  1.00  0.00    -0.245 OA 
BRANCH  16  20
HETATM   20  O   UNL     1      -9.090  14.349  68.631  1.00  0.00    -0.194 OA 
BRANCH  20  21
HETATM   21  C   UNL     1      -8.574  14.134  67.310  1.00  0.00    -0.218 C  
HETATM   22  C   UNL     1      -8.784  15.414  66.521  1.00  0.00    -0.335 C  
ENDBRANCH  20  21
ENDBRANCH  16  20
ENDBRANCH   1  15
BRANCH   1  23
HETATM   23  N   UNL     1     -11.306   9.593  69.836  1.00  0.00    -0.379 N  
HETATM   24  C   UNL     1     -12.270   9.403  70.789  1.00  0.00    -0.162 C  
HETATM   25  H   UNL     1     -10.439   9.059  69.904  1.00  0.00     0.000 HD 
HETATM   26  O   UNL     1     -13.335  10.015  70.852  1.00  0.00    -0.382 OA 
BRANCH  24  27
HETATM   27  C   UNL     1     -11.888   8.465  71.904  1.00  0.00    -0.398 C  
BRANCH  27  28
HETATM   28  C   UNL     1     -10.393   8.558  72.136  1.00  0.00    -0.409 C  
HETATM   29  O   UNL     1      -8.574   7.718  73.431  1.00  0.00    -0.166 OA 
HETATM   30  C   UNL     1      -9.790   7.763  73.276  1.00  0.00    -0.299 C  
HETATM   31  O   UNL     1     -10.613   7.112  74.112  1.00  0.00    -0.283 OA 
ENDBRANCH  27  28
ENDBRANCH  24  27
ENDBRANCH   1  23
TORSDOF 9
ENDMDL
MODEL      190
REMARK 921   NORMALIZED FREE ENERGY PREDICTED BY IDOCK:   -4.24 KCAL/MOL
REMARK 922        TOTAL FREE ENERGY PREDICTED BY IDOCK:   -8.29 KCAL/MOL
REMARK 923 INTER-LIGAND FREE ENERGY PREDICTED BY IDOCK:   -6.86 KCAL/MOL
REMARK 924 INTRA-LIGAND FREE ENERGY PREDICTED BY IDOCK:   -1.43 KCAL/MOL
REMARK 927      BINDING AFFINITY PREDICTED BY RF-SCORE:    0.00 PKD
ROOT
HETATM    1  C   UNL     1      -8.236   9.464  67.946  1.00  0.00    -0.115 C  
ENDROOT
BRANCH   1   2
HETATM    2  C   UNL     1      -7.103   8.668  67.240  1.00  0.00    -0.079 C  
BRANCH   2   3
HETATM    3  C   UNL     1      -7.438   7.389  66.505  1.00  0.00    -0.084 A  
HETATM    4  C   UNL     1      -8.402   4.993  65.284  1.00  0.00    -0.135 A  
HETATM    5  C   UNL     1      -7.670   7.321  65.132  1.00  0.00    -0.113 A  
HETATM    6  C   UNL     1      -8.178   6.164  64.547  1.00  0.00    -0.079 A  
HETATM    7  C   UNL     1      -7.559   6.205  67.241  1.00  0.00    -0.093 A  
HETATM    8  C   UNL     1      -8.015   5.024  66.638  1.00  0.00    -0.107 A  
BRANCH   4   9
HETATM    9  C   UNL     1      -9.070   3.826  64.673  1.00  0.00    -0.138 A  
HETATM   10  C   UNL     1      -8.471   2.551  64.669  1.00  0.00    -0.089 A  
HETATM   11  C   UNL     1      -9.046   1.472  63.993  1.00  0.00    -0.101 A  
HETATM   12  C   UNL     1     -10.255   1.633  63.327  1.00  0.00    -0.125 A  
HETATM   13  C   UNL     1     -10.886   2.874  63.332  1.00  0.00    -0.218 A  
HETATM   14  C   UNL     1     -10.295   3.957  63.993  1.00  0.00    -0.229 A  
ENDBRANCH   4   9
ENDBRANCH   2   3
ENDBRANCH   1   2
BRANCH   1  15
HETATM   15  C   UNL     1      -8.766   8.847  69.264  1.00  0.00    -0.138 C  
HETATM   16  C   UNL     1     -10.641   8.143  70.727  1.00  0.00    -0.214 C  
HETATM   17  C   UNL     1     -10.719   7.517  68.330  1.00  0.00    -0.128 C  
HETATM   18  C   UNL     1     -10.270   8.583  69.322  1.00  0.00    -0.211 C  
HETATM   19  O   UNL     1     -10.628   6.985  71.121  1.00  0.00    -0.215 OA 
BRANCH  16  20
HETATM   20  O   UNL     1     -11.036   9.221  71.460  1.00  0.00    -0.336 OA 
BRANCH  20  21
HETATM   21  C   UNL     1     -12.333   9.737  71.132  1.00  0.00    -0.359 C  
HETATM   22  C   UNL     1     -13.336   9.092  72.073  1.00  0.00    -0.507 C  
ENDBRANCH  20  21
ENDBRANCH  16  20
ENDBRANCH   1  15
BRANCH   1  23
HETATM   23  N   UNL     1      -9.369   9.729  67.055  1.00  0.00    -0.145 N  
HETATM   24  C   UNL     1      -9.460  10.860  66.289  1.00  0.00    -0.194 C  
HETATM   25  H   UNL     1     -10.122   9.042  67.003  1.00  0.00     0.000 HD 
HETATM   26  O   UNL     1      -8.650  11.786  66.295  1.00  0.00    -0.158 OA 
BRANCH  24  27
HETATM   27  C   UNL     1     -10.737  10.999  65.504  1.00  0.00    -0.218 C  
BRANCH  27  28
HETATM   28  C   UNL     1     -11.443  12.270  65.933  1.00  0.00    -0.428 C  
HETATM   29  O   UNL     1     -13.176  13.811  65.373  1.00  0.00    -0.722 OA 
HETATM   30  C   UNL     1     -12.501  12.851  65.017  1.00  0.00    -0.492 C  
HETATM   31  O   UNL     1     -12.681  12.296  63.808  1.00  0.00    -0.693 OA 
ENDBRANCH  27  28
ENDBRANCH  24  27
ENDBRANCH   1  23
TORSDOF 9
ENDMDL
MODEL      191
REMARK 921   NORMALIZED FREE ENERGY PREDICTED BY IDOCK:   -4.24 KCAL/MOL
REMARK 922        TOTAL FREE ENERGY PREDICTED BY IDOCK:   -8.29 KCAL/MOL
REMARK 923 INTER-LIGAND FREE ENERGY PREDICTED BY IDOCK:   -6.63 KCAL/MOL
REMARK 924 INTRA-LIGAND FREE ENERGY PREDICTED BY IDOCK:   -1.66 KCAL/MOL
REMARK 927      BINDING AFFINITY PREDICTED BY RF-SCORE:    0.00 PKD
ROOT
HETATM    1  C   UNL     1      -9.947   9.484  68.680  1.00  0.00    -0.167 C  
ENDROOT
BRANCH   1   2
HETATM    2  C   UNL     1     -11.278  10.253  68.448  1.00  0.00    -0.284 C  
BRANCH   2   3
HETATM    3  C   UNL     1     -11.242  11.746  68.207  1.00  0.00    -0.313 A  
HETATM    4  C   UNL     1     -10.847  14.561  67.926  1.00  0.00    -0.260 A  
HETATM    5  C   UNL     1     -11.042  12.326  66.956  1.00  0.00    -0.339 A  
HETATM    6  C   UNL     1     -10.810  13.693  66.826  1.00  0.00    -0.291 A  
HETATM    7  C   UNL     1     -11.383  12.606  69.303  1.00  0.00    -0.306 A  
HETATM    8  C   UNL     1     -11.206  13.989  69.162  1.00  0.00    -0.308 A  
BRANCH   4   9
HETATM    9  C   UNL     1     -10.461  15.980  67.787  1.00  0.00    -0.298 A  
HETATM   10  C   UNL     1     -10.067  16.520  66.547  1.00  0.00    -0.307 A  
HETATM   11  C   UNL     1      -9.594  17.830  66.433  1.00  0.00    -0.293 A  
HETATM   12  C   UNL     1      -9.532  18.646  67.557  1.00  0.00    -0.311 A  
HETATM   13  C   UNL     1      -9.938  18.152  68.793  1.00  0.00    -0.389 A  
HETATM   14  C   UNL     1     -10.391  16.832  68.905  1.00  0.00    -0.317 A  
ENDBRANCH   4   9
ENDBRANCH   2   3
ENDBRANCH   1   2
BRANCH   1  15
HETATM   15  C   UNL     1      -9.877   8.646  69.980  1.00  0.00    -0.185 C  
HETATM   16  C   UNL     1     -10.001   8.466  72.451  1.00  0.00    -0.310 C  
HETATM   17  C   UNL     1     -11.763   9.753  71.274  1.00  0.00    -0.472 C  
HETATM   18  C   UNL     1     -10.289   9.368  71.263  1.00  0.00    -0.363 C  
HETATM   19  O   UNL     1     -10.781   7.641  72.905  1.00  0.00    -0.305 OA 
BRANCH  16  20
HETATM   20  O   UNL     1      -8.770   8.751  72.960  1.00  0.00    -0.368 OA 
BRANCH  20  21
HETATM   21  C   UNL     1      -7.859   7.644  73.006  1.00  0.00    -0.109 C  
HETATM   22  C   UNL     1      -6.694   7.969  72.088  1.00  0.00    -0.069 C  
ENDBRANCH  20  21
ENDBRANCH  16  20
ENDBRANCH   1  15
BRANCH   1  23
HETATM   23  N   UNL     1      -8.777  10.364  68.616  1.00  0.00    -0.130 N  
HETATM   24  C   UNL     1      -8.079  10.586  67.458  1.00  0.00    -0.107 C  
HETATM   25  H   UNL     1      -8.469  10.832  69.469  1.00  0.00     0.000 HD 
HETATM   26  O   UNL     1      -8.314  10.048  66.377  1.00  0.00    -0.123 OA 
BRANCH  24  27
HETATM   27  C   UNL     1      -6.855  11.450  67.606  1.00  0.00    -0.080 C  
BRANCH  27  28
HETATM   28  C   UNL     1      -7.267  12.793  68.175  1.00  0.00    -0.115 C  
HETATM   29  O   UNL     1      -7.153  14.203  70.096  1.00  0.00     0.108 OA 
HETATM   30  C   UNL     1      -6.942  13.091  69.625  1.00  0.00     0.272 C  
HETATM   31  O   UNL     1      -6.422  12.112  70.382  1.00  0.00    -0.088 OA 
ENDBRANCH  27  28
ENDBRANCH  24  27
ENDBRANCH   1  23
TORSDOF 9
ENDMDL
MODEL      192
REMARK 921   NORMALIZED FREE ENERGY PREDICTED BY IDOCK:   -4.22 KCAL/MOL
REMARK 922        TOTAL FREE ENERGY PREDICTED BY IDOCK:   -8.26 KCAL/MOL
REMARK 923 INTER-LIGAND FREE ENERGY PREDICTED BY IDOCK:   -6.27 KCAL/MOL
REMARK 924 INTRA-LIGAND FREE ENERGY PREDICTED BY IDOCK:   -1.98 KCAL/MOL
REMARK 927      BINDING AFFINITY PREDICTED BY RF-SCORE:    0.00 PKD
ROOT
HETATM    1  C   UNL     1      -6.929   8.047  70.110  1.00  0.00    -0.048 C  
ENDROOT
BRANCH   1   2
HETATM    2  C   UNL     1      -6.807   8.726  68.716  1.00  0.00    -0.062 C  
BRANCH   2   3
HETATM    3  C   UNL     1      -7.992   9.474  68.147  1.00  0.00    -0.094 A  
HETATM    4  C   UNL     1      -9.984  11.071  66.866  1.00  0.00    -0.231 A  
HETATM    5  C   UNL     1      -8.920   8.908  67.275  1.00  0.00    -0.140 A  
HETATM    6  C   UNL     1      -9.865   9.696  66.621  1.00  0.00    -0.285 A  
HETATM    7  C   UNL     1      -8.157  10.823  68.482  1.00  0.00    -0.133 A  
HETATM    8  C   UNL     1      -9.147  11.602  67.866  1.00  0.00    -0.171 A  
BRANCH   4   9
HETATM    9  C   UNL     1     -10.896  11.909  66.062  1.00  0.00    -0.342 A  
HETATM   10  C   UNL     1     -10.969  11.788  64.661  1.00  0.00    -0.368 A  
HETATM   11  C   UNL     1     -11.745  12.655  63.888  1.00  0.00    -0.532 A  
HETATM   12  C   UNL     1     -12.496  13.650  64.502  1.00  0.00    -0.335 A  
HETATM   13  C   UNL     1     -12.466  13.782  65.887  1.00  0.00    -0.512 A  
HETATM   14  C   UNL     1     -11.671  12.924  66.655  1.00  0.00    -0.452 A  
ENDBRANCH   4   9
ENDBRANCH   2   3
ENDBRANCH   1   2
BRANCH   1  15
HETATM   15  C   UNL     1      -6.597   6.535  70.149  1.00  0.00    -0.045 C  
HETATM   16  C   UNL     1      -7.308   4.165  70.318  1.00  0.00    -0.045 C  
HETATM   17  C   UNL     1      -8.549   5.660  68.778  1.00  0.00    -0.104 C  
HETATM   18  C   UNL     1      -7.795   5.587  70.100  1.00  0.00    -0.089 C  
HETATM   19  O   UNL     1      -6.933   3.413  69.429  1.00  0.00    -0.041 OA 
BRANCH  16  20
HETATM   20  O   UNL     1      -7.400   3.842  71.638  1.00  0.00    -0.051 OA 
BRANCH  20  21
HETATM   21  C   UNL     1      -8.570   4.336  72.305  1.00  0.00    -0.108 C  
HETATM   22  C   UNL     1      -8.153   4.777  73.697  1.00  0.00    -0.106 C  
ENDBRANCH  20  21
ENDBRANCH  16  20
ENDBRANCH   1  15
BRANCH   1  23
HETATM   23  N   UNL     1      -8.243   8.264  70.721  1.00  0.00    -0.108 N  
HETATM   24  C   UNL     1      -8.412   8.456  72.066  1.00  0.00    -0.183 C  
HETATM   25  H   UNL     1      -9.067   8.271  70.120  1.00  0.00     0.000 HD 
HETATM   26  O   UNL     1      -7.513   8.421  72.905  1.00  0.00    -0.213 OA 
BRANCH  24  27
HETATM   27  C   UNL     1      -9.842   8.574  72.520  1.00  0.00    -0.324 C  
BRANCH  27  28
HETATM   28  C   UNL     1     -10.618   7.370  72.021  1.00  0.00    -0.241 C  
HETATM   29  O   UNL     1     -11.708   6.414  70.127  1.00  0.00    -0.422 OA 
HETATM   30  C   UNL     1     -11.174   7.406  70.612  1.00  0.00    -0.270 C  
HETATM   31  O   UNL     1     -11.071   8.544  69.908  1.00  0.00    -0.218 OA 
ENDBRANCH  27  28
ENDBRANCH  24  27
ENDBRANCH   1  23
TORSDOF 9
ENDMDL
MODEL      193
REMARK 921   NORMALIZED FREE ENERGY PREDICTED BY IDOCK:   -4.17 KCAL/MOL
REMARK 922        TOTAL FREE ENERGY PREDICTED BY IDOCK:   -8.18 KCAL/MOL
REMARK 923 INTER-LIGAND FREE ENERGY PREDICTED BY IDOCK:   -7.78 KCAL/MOL
REMARK 924 INTRA-LIGAND FREE ENERGY PREDICTED BY IDOCK:   -0.39 KCAL/MOL
REMARK 927      BINDING AFFINITY PREDICTED BY RF-SCORE:    0.00 PKD
ROOT
HETATM    1  C   UNL     1      -9.326  11.799  68.008  1.00  0.00    -0.184 C  
ENDROOT
BRANCH   1   2
HETATM    2  C   UNL     1      -8.001  12.413  68.543  1.00  0.00    -0.110 C  
BRANCH   2   3
HETATM    3  C   UNL     1      -7.664  13.852  68.220  1.00  0.00    -0.136 A  
HETATM    4  C   UNL     1      -7.385  16.642  67.678  1.00  0.00    -0.163 A  
HETATM    5  C   UNL     1      -6.905  14.676  69.049  1.00  0.00    -0.111 A  
HETATM    6  C   UNL     1      -6.803  16.043  68.804  1.00  0.00    -0.132 A  
HETATM    7  C   UNL     1      -8.168  14.410  67.039  1.00  0.00    -0.138 A  
HETATM    8  C   UNL     1      -8.016  15.776  66.765  1.00  0.00    -0.273 A  
BRANCH   4   9
HETATM    9  C   UNL     1      -7.383  18.110  67.513  1.00  0.00    -0.213 A  
HETATM   10  C   UNL     1      -7.907  18.725  66.359  1.00  0.00    -0.297 A  
HETATM   11  C   UNL     1      -7.804  20.102  66.148  1.00  0.00    -0.270 A  
HETATM   12  C   UNL     1      -7.200  20.908  67.106  1.00  0.00    -0.395 A  
HETATM   13  C   UNL     1      -6.694  20.336  68.270  1.00  0.00    -0.331 A  
HETATM   14  C   UNL     1      -6.781  18.953  68.466  1.00  0.00    -0.278 A  
ENDBRANCH   4   9
ENDBRANCH   2   3
ENDBRANCH   1   2
BRANCH   1  15
HETATM   15  C   UNL     1      -9.169  10.540  67.121  1.00  0.00    -0.158 C  
HETATM   16  C   UNL     1      -8.359   9.434  65.054  1.00  0.00    -0.150 C  
HETATM   17  C   UNL     1      -6.809  10.940  66.268  1.00  0.00    -0.123 C  
HETATM   18  C   UNL     1      -8.266  10.694  65.897  1.00  0.00    -0.159 C  
HETATM   19  O   UNL     1      -7.654   8.445  65.198  1.00  0.00    -0.081 OA 
BRANCH  16  20
HETATM   20  O   UNL     1      -9.306   9.593  64.087  1.00  0.00    -0.236 OA 
BRANCH  20  21
HETATM   21  C   UNL     1      -8.819   9.512  62.740  1.00  0.00    -0.238 C  
HETATM   22  C   UNL     1      -8.352  10.899  62.337  1.00  0.00    -0.293 C  
ENDBRANCH  20  21
ENDBRANCH  16  20
ENDBRANCH   1  15
BRANCH   1  23
HETATM   23  N   UNL     1     -10.149  12.784  67.300  1.00  0.00    -0.224 N  
HETATM   24  C   UNL     1     -11.503  12.882  67.478  1.00  0.00    -0.335 C  
HETATM   25  H   UNL     1      -9.694  13.422  66.647  1.00  0.00     0.000 HD 
HETATM   26  O   UNL     1     -12.178  12.145  68.194  1.00  0.00    -0.388 OA 
BRANCH  24  27
HETATM   27  C   UNL     1     -12.191  13.893  66.599  1.00  0.00    -0.465 C  
BRANCH  27  28
HETATM   28  C   UNL     1     -12.524  13.244  65.270  1.00  0.00    -0.543 C  
HETATM   29  O   UNL     1     -12.663  13.604  62.917  1.00  0.00    -0.577 OA 
HETATM   30  C   UNL     1     -12.511  14.107  64.025  1.00  0.00    -0.163 C  
HETATM   31  O   UNL     1     -12.334  15.429  64.160  1.00  0.00    -0.619 OA 
ENDBRANCH  27  28
ENDBRANCH  24  27
ENDBRANCH   1  23
TORSDOF 9
ENDMDL
MODEL      194
REMARK 921   NORMALIZED FREE ENERGY PREDICTED BY IDOCK:   -4.14 KCAL/MOL
REMARK 922        TOTAL FREE ENERGY PREDICTED BY IDOCK:   -8.14 KCAL/MOL
REMARK 923 INTER-LIGAND FREE ENERGY PREDICTED BY IDOCK:   -7.12 KCAL/MOL
REMARK 924 INTRA-LIGAND FREE ENERGY PREDICTED BY IDOCK:   -1.01 KCAL/MOL
REMARK 927      BINDING AFFINITY PREDICTED BY RF-SCORE:    0.00 PKD
ROOT
HETATM    1  C   UNL     1      -9.271   8.649  68.209  1.00  0.00    -0.137 C  
ENDROOT
BRANCH   1   2
HETATM    2  C   UNL     1     -10.593   9.288  67.696  1.00  0.00    -0.324 C  
BRANCH   2   3
HETATM    3  C   UNL     1     -11.235  10.406  68.488  1.00  0.00    -0.308 A  
HETATM    4  C   UNL     1     -12.137  12.517  70.187  1.00  0.00    -0.368 A  
HETATM    5  C   UNL     1     -11.408  11.701  68.001  1.00  0.00    -0.366 A  
HETATM    6  C   UNL     1     -11.810  12.736  68.842  1.00  0.00    -0.351 A  
HETATM    7  C   UNL     1     -11.652  10.146  69.799  1.00  0.00    -0.245 A  
HETATM    8  C   UNL     1     -12.112  11.180  70.627  1.00  0.00    -0.477 A  
BRANCH   4   9
HETATM    9  C   UNL     1     -12.426  13.649  71.092  1.00  0.00    -0.442 A  
HETATM   10  C   UNL     1     -12.998  13.450  72.363  1.00  0.00    -0.372 A  
HETATM   11  C   UNL     1     -13.376  14.523  73.174  1.00  0.00    -0.378 A  
HETATM   12  C   UNL     1     -13.163  15.827  72.745  1.00  0.00    -0.609 A  
HETATM   13  C   UNL     1     -12.577  16.059  71.504  1.00  0.00    -0.322 A  
HETATM   14  C   UNL     1     -12.219  14.980  70.687  1.00  0.00    -0.381 A  
ENDBRANCH   4   9
ENDBRANCH   2   3
ENDBRANCH   1   2
BRANCH   1  15
HETATM   15  C   UNL     1      -9.115   8.582  69.748  1.00  0.00    -0.153 C  
HETATM   16  C   UNL     1      -8.536   7.338  71.815  1.00  0.00    -0.111 C  
HETATM   17  C   UNL     1      -6.999   7.180  69.876  1.00  0.00    -0.057 C  
HETATM   18  C   UNL     1      -8.457   7.316  70.298  1.00  0.00    -0.137 C  
HETATM   19  O   UNL     1      -7.701   7.848  72.549  1.00  0.00    -0.095 OA 
BRANCH  16  20
HETATM   20  O   UNL     1      -9.644   6.664  72.230  1.00  0.00    -0.148 OA 
BRANCH  20  21
HETATM   21  C   UNL     1     -10.808   7.476  72.437  1.00  0.00    -0.276 C  
HETATM   22  C   UNL     1     -11.939   6.874  71.622  1.00  0.00    -0.379 C  
ENDBRANCH  20  21
ENDBRANCH  16  20
ENDBRANCH   1  15
BRANCH   1  23
HETATM   23  N   UNL     1      -8.084   9.290  67.636  1.00  0.00    -0.104 N  
HETATM   24  C   UNL     1      -7.391   8.757  66.583  1.00  0.00    -0.082 C  
HETATM   25  H   UNL     1      -7.761  10.169  68.039  1.00  0.00     0.000 HD 
HETATM   26  O   UNL     1      -7.644   7.682  66.040  1.00  0.00    -0.083 OA 
BRANCH  24  27
HETATM   27  C   UNL     1      -6.149   9.510  66.189  1.00  0.00    -0.063 C  
BRANCH  27  28
HETATM   28  C   UNL     1      -6.349  10.101  64.806  1.00  0.00    -0.131 C  
HETATM   29  O   UNL     1      -6.131   9.684  62.468  1.00  0.00    -0.096 OA 
HETATM   30  C   UNL     1      -5.888   9.298  63.607  1.00  0.00    -0.087 C  
HETATM   31  O   UNL     1      -5.208   8.161  63.816  1.00  0.00    -0.041 OA 
ENDBRANCH  27  28
ENDBRANCH  24  27
ENDBRANCH   1  23
TORSDOF 9
ENDMDL
MODEL      195
REMARK 921   NORMALIZED FREE ENERGY PREDICTED BY IDOCK:   -4.12 KCAL/MOL
REMARK 922        TOTAL FREE ENERGY PREDICTED BY IDOCK:   -8.11 KCAL/MOL
REMARK 923 INTER-LIGAND FREE ENERGY PREDICTED BY IDOCK:   -6.43 KCAL/MOL
REMARK 924 INTRA-LIGAND FREE ENERGY PREDICTED BY IDOCK:   -1.68 KCAL/MOL
REMARK 927      BINDING AFFINITY PREDICTED BY RF-SCORE:    0.00 PKD
ROOT
HETATM    1  C   UNL     1      -7.932  10.785  66.548  1.00  0.00    -0.144 C  
ENDROOT
BRANCH   1   2
HETATM    2  C   UNL     1      -7.036  10.375  67.750  1.00  0.00    -0.083 C  
BRANCH   2   3
HETATM    3  C   UNL     1      -7.552   9.365  68.752  1.00  0.00    -0.079 A  
HETATM    4  C   UNL     1      -8.864   7.585  70.560  1.00  0.00    -0.147 A  
HETATM    5  C   UNL     1      -7.555   7.989  68.534  1.00  0.00    -0.104 A  
HETATM    6  C   UNL     1      -8.230   7.127  69.397  1.00  0.00    -0.132 A  
HETATM    7  C   UNL     1      -8.091   9.832  69.957  1.00  0.00    -0.203 A  
HETATM    8  C   UNL     1      -8.719   8.955  70.852  1.00  0.00    -0.256 A  
BRANCH   4   9
HETATM    9  C   UNL     1      -9.688   6.677  71.383  1.00  0.00    -0.181 A  
HETATM   10  C   UNL     1     -11.094   6.661  71.283  1.00  0.00    -0.312 A  
HETATM   11  C   UNL     1     -11.882   5.888  72.138  1.00  0.00    -0.247 A  
HETATM   12  C   UNL     1     -11.281   5.083  73.099  1.00  0.00    -0.408 A  
HETATM   13  C   UNL     1      -9.894   5.056  73.208  1.00  0.00    -0.172 A  
HETATM   14  C   UNL     1      -9.109   5.849  72.362  1.00  0.00    -0.140 A  
ENDBRANCH   4   9
ENDBRANCH   2   3
ENDBRANCH   1   2
BRANCH   1  15
HETATM   15  C   UNL     1      -9.223  11.561  66.909  1.00  0.00    -0.181 C  
HETATM   16  C   UNL     1     -11.695  11.768  66.920  1.00  0.00    -0.139 C  
HETATM   17  C   UNL     1     -10.693   9.601  67.587  1.00  0.00    -0.324 C  
HETATM   18  C   UNL     1     -10.537  10.815  66.678  1.00  0.00    -0.291 C  
HETATM   19  O   UNL     1     -12.227  11.958  68.004  1.00  0.00    -0.491 OA 
BRANCH  16  20
HETATM   20  O   UNL     1     -12.078  12.337  65.743  1.00  0.00    -0.587 OA 
BRANCH  20  21
HETATM   21  C   UNL     1     -12.230  13.763  65.777  1.00  0.00    -0.462 C  
HETATM   22  C   UNL     1     -12.142  14.269  64.348  1.00  0.00    -0.490 C  
ENDBRANCH  20  21
ENDBRANCH  16  20
ENDBRANCH   1  15
BRANCH   1  23
HETATM   23  N   UNL     1      -8.284   9.642  65.700  1.00  0.00    -0.117 N  
HETATM   24  C   UNL     1      -7.457   9.167  64.717  1.00  0.00    -0.106 C  
HETATM   25  H   UNL     1      -9.182   9.181  65.848  1.00  0.00     0.000 HD 
HETATM   26  O   UNL     1      -6.375   9.660  64.403  1.00  0.00    -0.089 OA 
BRANCH  24  27
HETATM   27  C   UNL     1      -8.026   8.043  63.892  1.00  0.00    -0.128 C  
BRANCH  27  28
HETATM   28  C   UNL     1      -8.146   6.807  64.761  1.00  0.00    -0.098 C  
HETATM   29  O   UNL     1      -8.357   4.431  64.737  1.00  0.00    -0.102 OA 
HETATM   30  C   UNL     1      -8.367   5.469  64.085  1.00  0.00    -0.102 C  
HETATM   31  O   UNL     1      -8.575   5.446  62.760  1.00  0.00    -0.114 OA 
ENDBRANCH  27  28
ENDBRANCH  24  27
ENDBRANCH   1  23
TORSDOF 9
ENDMDL
MODEL      196
REMARK 921   NORMALIZED FREE ENERGY PREDICTED BY IDOCK:   -4.11 KCAL/MOL
REMARK 922        TOTAL FREE ENERGY PREDICTED BY IDOCK:   -8.10 KCAL/MOL
REMARK 923 INTER-LIGAND FREE ENERGY PREDICTED BY IDOCK:   -7.34 KCAL/MOL
REMARK 924 INTRA-LIGAND FREE ENERGY PREDICTED BY IDOCK:   -0.76 KCAL/MOL
REMARK 927      BINDING AFFINITY PREDICTED BY RF-SCORE:    0.00 PKD
ROOT
HETATM    1  C   UNL     1      -9.379   8.925  68.273  1.00  0.00    -0.143 C  
ENDROOT
BRANCH   1   2
HETATM    2  C   UNL     1     -10.423   9.817  67.544  1.00  0.00    -0.309 C  
BRANCH   2   3
HETATM    3  C   UNL     1     -10.294  11.323  67.614  1.00  0.00    -0.212 A  
HETATM    4  C   UNL     1      -9.938  14.148  67.394  1.00  0.00    -0.240 A  
HETATM    5  C   UNL     1     -11.380  12.194  67.668  1.00  0.00    -0.379 A  
HETATM    6  C   UNL     1     -11.208  13.568  67.520  1.00  0.00    -0.307 A  
HETATM    7  C   UNL     1      -9.013  11.888  67.590  1.00  0.00    -0.169 A  
HETATM    8  C   UNL     1      -8.838  13.275  67.500  1.00  0.00    -0.206 A  
BRANCH   4   9
HETATM    9  C   UNL     1      -9.788  15.588  67.099  1.00  0.00    -0.236 A  
HETATM   10  C   UNL     1      -8.665  16.088  66.411  1.00  0.00    -0.362 A  
HETATM   11  C   UNL     1      -8.464  17.459  66.231  1.00  0.00    -0.260 A  
HETATM   12  C   UNL     1      -9.400  18.367  66.710  1.00  0.00    -0.296 A  
HETATM   13  C   UNL     1     -10.534  17.906  67.373  1.00  0.00    -0.390 A  
HETATM   14  C   UNL     1     -10.720  16.532  67.569  1.00  0.00    -0.283 A  
ENDBRANCH   4   9
ENDBRANCH   2   3
ENDBRANCH   1   2
BRANCH   1  15
HETATM   15  C   UNL     1      -8.861   7.708  67.467  1.00  0.00    -0.124 C  
HETATM   16  C   UNL     1      -8.842   5.274  66.993  1.00  0.00    -0.109 C  
HETATM   17  C   UNL     1     -11.032   6.402  67.271  1.00  0.00    -0.474 C  
HETATM   18  C   UNL     1      -9.577   6.383  67.725  1.00  0.00    -0.123 C  
HETATM   19  O   UNL     1      -9.062   4.936  65.838  1.00  0.00    -0.136 OA 
BRANCH  16  20
HETATM   20  O   UNL     1      -7.943   4.685  67.829  1.00  0.00    -0.091 OA 
BRANCH  20  21
HETATM   21  C   UNL     1      -8.467   4.287  69.103  1.00  0.00    -0.081 C  
HETATM   22  C   UNL     1      -9.300   3.035  68.887  1.00  0.00    -0.228 C  
ENDBRANCH  20  21
ENDBRANCH  16  20
ENDBRANCH   1  15
BRANCH   1  23
HETATM   23  N   UNL     1      -9.855   8.465  69.580  1.00  0.00    -0.181 N  
HETATM   24  C   UNL     1     -10.283   9.324  70.557  1.00  0.00    -0.251 C  
HETATM   25  H   UNL     1      -9.869   7.463  69.770  1.00  0.00     0.000 HD 
HETATM   26  O   UNL     1     -10.271  10.551  70.475  1.00  0.00     0.161 OA 
BRANCH  24  27
HETATM   27  C   UNL     1     -10.652   8.673  71.863  1.00  0.00    -0.411 C  
BRANCH  27  28
HETATM   28  C   UNL     1     -12.062   8.127  71.760  1.00  0.00    -0.357 C  
HETATM   29  O   UNL     1     -14.375   8.707  71.799  1.00  0.00    -0.418 OA 
HETATM   30  C   UNL     1     -13.221   9.077  71.983  1.00  0.00    -0.429 C  
HETATM   31  O   UNL     1     -12.957  10.329  72.389  1.00  0.00    -0.295 OA 
ENDBRANCH  27  28
ENDBRANCH  24  27
ENDBRANCH   1  23
TORSDOF 9
ENDMDL
MODEL      197
REMARK 921   NORMALIZED FREE ENERGY PREDICTED BY IDOCK:   -4.08 KCAL/MOL
REMARK 922        TOTAL FREE ENERGY PREDICTED BY IDOCK:   -8.04 KCAL/MOL
REMARK 923 INTER-LIGAND FREE ENERGY PREDICTED BY IDOCK:   -7.33 KCAL/MOL
REMARK 924 INTRA-LIGAND FREE ENERGY PREDICTED BY IDOCK:   -0.71 KCAL/MOL
REMARK 927      BINDING AFFINITY PREDICTED BY RF-SCORE:    0.00 PKD
ROOT
HETATM    1  C   UNL     1      -9.341  12.301  67.659  1.00  0.00    -0.186 C  
ENDROOT
BRANCH   1   2
HETATM    2  C   UNL     1      -8.061  12.974  68.230  1.00  0.00    -0.151 C  
BRANCH   2   3
HETATM    3  C   UNL     1      -7.616  14.312  67.682  1.00  0.00    -0.191 A  
HETATM    4  C   UNL     1      -6.973  16.989  66.923  1.00  0.00    -0.251 A  
HETATM    5  C   UNL     1      -6.314  14.797  67.780  1.00  0.00    -0.172 A  
HETATM    6  C   UNL     1      -6.011  16.115  67.446  1.00  0.00    -0.179 A  
HETATM    7  C   UNL     1      -8.569  15.135  67.068  1.00  0.00    -0.265 A  
HETATM    8  C   UNL     1      -8.248  16.442  66.679  1.00  0.00    -0.314 A  
BRANCH   4   9
HETATM    9  C   UNL     1      -6.664  18.418  66.708  1.00  0.00    -0.214 A  
HETATM   10  C   UNL     1      -7.104  19.412  67.604  1.00  0.00    -0.259 A  
HETATM   11  C   UNL     1      -6.912  20.771  67.346  1.00  0.00    -0.418 A  
HETATM   12  C   UNL     1      -6.245  21.172  66.194  1.00  0.00    -0.289 A  
HETATM   13  C   UNL     1      -5.775  20.215  65.299  1.00  0.00    -0.214 A  
HETATM   14  C   UNL     1      -5.989  18.854  65.553  1.00  0.00    -0.249 A  
ENDBRANCH   4   9
ENDBRANCH   2   3
ENDBRANCH   1   2
BRANCH   1  15
HETATM   15  C   UNL     1      -9.100  11.192  66.605  1.00  0.00    -0.180 C  
HETATM   16  C   UNL     1      -8.335   8.913  65.995  1.00  0.00    -0.124 C  
HETATM   17  C   UNL     1      -9.795   9.172  67.981  1.00  0.00    -0.197 C  
HETATM   18  C   UNL     1      -8.694   9.825  67.155  1.00  0.00    -0.137 C  
HETATM   19  O   UNL     1      -9.131   8.208  65.390  1.00  0.00    -0.052 OA 
BRANCH  16  20
HETATM   20  O   UNL     1      -6.993   8.962  65.766  1.00  0.00    -0.078 OA 
BRANCH  20  21
HETATM   21  C   UNL     1      -6.196   9.328  66.900  1.00  0.00    -0.065 C  
HETATM   22  C   UNL     1      -5.228  10.409  66.453  1.00  0.00    -0.047 C  
ENDBRANCH  20  21
ENDBRANCH  16  20
ENDBRANCH   1  15
BRANCH   1  23
HETATM   23  N   UNL     1     -10.288  13.278  67.116  1.00  0.00    -0.247 N  
HETATM   24  C   UNL     1     -11.644  13.155  67.263  1.00  0.00    -0.355 C  
HETATM   25  H   UNL     1      -9.923  14.083  66.607  1.00  0.00     0.000 HD 
HETATM   26  O   UNL     1     -12.215  12.212  67.808  1.00  0.00    -0.451 OA 
BRANCH  24  27
HETATM   27  C   UNL     1     -12.460  14.209  66.562  1.00  0.00    -0.306 C  
BRANCH  27  28
HETATM   28  C   UNL     1     -12.007  14.303  65.118  1.00  0.00    -0.395 C  
HETATM   29  O   UNL     1     -12.397  13.504  62.905  1.00  0.00    -0.542 OA 
HETATM   30  C   UNL     1     -12.650  13.385  64.099  1.00  0.00    -0.135 C  
HETATM   31  O   UNL     1     -13.498  12.439  64.530  1.00  0.00    -0.668 OA 
ENDBRANCH  27  28
ENDBRANCH  24  27
ENDBRANCH   1  23
TORSDOF 9
ENDMDL
MODEL      198
REMARK 921   NORMALIZED FREE ENERGY PREDICTED BY IDOCK:   -4.05 KCAL/MOL
REMARK 922        TOTAL FREE ENERGY PREDICTED BY IDOCK:   -8.01 KCAL/MOL
REMARK 923 INTER-LIGAND FREE ENERGY PREDICTED BY IDOCK:   -6.83 KCAL/MOL
REMARK 924 INTRA-LIGAND FREE ENERGY PREDICTED BY IDOCK:   -1.17 KCAL/MOL
REMARK 927      BINDING AFFINITY PREDICTED BY RF-SCORE:    0.00 PKD
ROOT
HETATM    1  C   UNL     1      -9.361  10.389  67.175  1.00  0.00    -0.157 C  
ENDROOT
BRANCH   1   2
HETATM    2  C   UNL     1     -10.435  11.444  66.785  1.00  0.00    -0.284 C  
BRANCH   2   3
HETATM    3  C   UNL     1     -10.197  12.902  67.111  1.00  0.00    -0.239 A  
HETATM    4  C   UNL     1      -9.932  15.730  67.413  1.00  0.00    -0.237 A  
HETATM    5  C   UNL     1     -10.840  13.581  68.144  1.00  0.00    -0.271 A  
HETATM    6  C   UNL     1     -10.741  14.965  68.264  1.00  0.00    -0.249 A  
HETATM    7  C   UNL     1      -9.306  13.630  66.314  1.00  0.00    -0.153 A  
HETATM    8  C   UNL     1      -9.163  15.016  66.474  1.00  0.00    -0.320 A  
BRANCH   4   9
HETATM    9  C   UNL     1      -9.950  17.206  67.471  1.00  0.00    -0.279 A  
HETATM   10  C   UNL     1     -10.487  17.980  66.423  1.00  0.00    -0.345 A  
HETATM   11  C   UNL     1     -10.404  19.374  66.423  1.00  0.00    -0.575 A  
HETATM   12  C   UNL     1      -9.806  20.035  67.489  1.00  0.00    -0.551 A  
HETATM   13  C   UNL     1      -9.288  19.302  68.552  1.00  0.00    -0.443 A  
HETATM   14  C   UNL     1      -9.355  17.904  68.538  1.00  0.00    -0.299 A  
ENDBRANCH   4   9
ENDBRANCH   2   3
ENDBRANCH   1   2
BRANCH   1  15
HETATM   15  C   UNL     1      -7.962  10.594  66.543  1.00  0.00    -0.138 C  
HETATM   16  C   UNL     1      -6.156   9.879  65.001  1.00  0.00    -0.100 C  
HETATM   17  C   UNL     1      -8.488   9.879  64.161  1.00  0.00    -0.179 C  
HETATM   18  C   UNL     1      -7.608   9.659  65.386  1.00  0.00    -0.111 C  
HETATM   19  O   UNL     1      -5.767  10.704  64.187  1.00  0.00    -0.128 OA 
BRANCH  16  20
HETATM   20  O   UNL     1      -5.363   8.987  65.659  1.00  0.00    -0.037 OA 
BRANCH  20  21
HETATM   21  C   UNL     1      -6.040   7.826  66.160  1.00  0.00    -0.038 C  
HETATM   22  C   UNL     1      -5.549   7.583  67.577  1.00  0.00    -0.034 C  
ENDBRANCH  20  21
ENDBRANCH  16  20
ENDBRANCH   1  15
BRANCH   1  23
HETATM   23  N   UNL     1      -9.807   9.017  66.912  1.00  0.00    -0.203 N  
HETATM   24  C   UNL     1     -10.488   8.271  67.836  1.00  0.00    -0.198 C  
HETATM   25  H   UNL     1      -9.602   8.602  66.003  1.00  0.00     0.000 HD 
HETATM   26  O   UNL     1     -10.754   8.632  68.981  1.00  0.00    -0.198 OA 
BRANCH  24  27
HETATM   27  C   UNL     1     -10.785   6.855  67.419  1.00  0.00    -0.396 C  
BRANCH  27  28
HETATM   28  C   UNL     1      -9.603   5.976  67.780  1.00  0.00    -0.113 C  
HETATM   29  O   UNL     1      -8.786   4.369  69.341  1.00  0.00    -0.082 OA 
HETATM   30  C   UNL     1      -9.666   5.177  69.066  1.00  0.00    -0.161 C  
HETATM   31  O   UNL     1     -10.701   5.374  69.896  1.00  0.00    -0.316 OA 
ENDBRANCH  27  28
ENDBRANCH  24  27
ENDBRANCH   1  23
TORSDOF 9
ENDMDL
MODEL      199
REMARK 921   NORMALIZED FREE ENERGY PREDICTED BY IDOCK:   -4.05 KCAL/MOL
REMARK 922        TOTAL FREE ENERGY PREDICTED BY IDOCK:   -8.01 KCAL/MOL
REMARK 923 INTER-LIGAND FREE ENERGY PREDICTED BY IDOCK:   -6.35 KCAL/MOL
REMARK 924 INTRA-LIGAND FREE ENERGY PREDICTED BY IDOCK:   -1.66 KCAL/MOL
REMARK 927      BINDING AFFINITY PREDICTED BY RF-SCORE:    0.00 PKD
ROOT
HETATM    1  C   UNL     1     -10.038  11.496  68.175  1.00  0.00    -0.193 C  
ENDROOT
BRANCH   1   2
HETATM    2  C   UNL     1      -9.960  10.824  66.775  1.00  0.00    -0.249 C  
BRANCH   2   3
HETATM    3  C   UNL     1      -9.846   9.319  66.678  1.00  0.00    -0.311 A  
HETATM    4  C   UNL     1      -9.341   6.508  66.725  1.00  0.00    -0.179 A  
HETATM    5  C   UNL     1     -10.749   8.433  67.262  1.00  0.00    -0.230 A  
HETATM    6  C   UNL     1     -10.481   7.067  67.319  1.00  0.00    -0.363 A  
HETATM    7  C   UNL     1      -8.754   8.772  65.993  1.00  0.00    -0.193 A  
HETATM    8  C   UNL     1      -8.516   7.391  66.001  1.00  0.00    -0.152 A  
BRANCH   4   9
HETATM    9  C   UNL     1      -9.007   5.082  66.917  1.00  0.00    -0.112 A  
HETATM   10  C   UNL     1      -9.562   4.328  67.969  1.00  0.00    -0.204 A  
HETATM   11  C   UNL     1      -9.163   3.013  68.221  1.00  0.00    -0.244 A  
HETATM   12  C   UNL     1      -8.217   2.406  67.405  1.00  0.00    -0.077 A  
HETATM   13  C   UNL     1      -7.666   3.114  66.340  1.00  0.00    -0.077 A  
HETATM   14  C   UNL     1      -8.055   4.438  66.105  1.00  0.00    -0.102 A  
ENDBRANCH   4   9
ENDBRANCH   2   3
ENDBRANCH   1   2
BRANCH   1  15
HETATM   15  C   UNL     1      -9.529  12.957  68.245  1.00  0.00    -0.206 C  
HETATM   16  C   UNL     1      -9.816  15.376  67.777  1.00  0.00    -0.220 C  
HETATM   17  C   UNL     1     -11.731  14.128  68.734  1.00  0.00    -0.380 C  
HETATM   18  C   UNL     1     -10.524  14.033  67.809  1.00  0.00    -0.236 C  
HETATM   19  O   UNL     1      -9.720  16.137  68.729  1.00  0.00    -0.213 OA 
BRANCH  16  20
HETATM   20  O   UNL     1      -9.351  15.623  66.520  1.00  0.00    -0.232 OA 
BRANCH  20  21
HETATM   21  C   UNL     1     -10.129  15.050  65.460  1.00  0.00    -0.369 C  
HETATM   22  C   UNL     1     -11.026  16.143  64.906  1.00  0.00    -0.364 C  
ENDBRANCH  20  21
ENDBRANCH  16  20
ENDBRANCH   1  15
BRANCH   1  23
HETATM   23  N   UNL     1      -9.366  10.706  69.210  1.00  0.00    -0.356 N  
HETATM   24  C   UNL     1      -8.006  10.557  69.261  1.00  0.00    -0.154 C  
HETATM   25  H   UNL     1      -9.935  10.248  69.922  1.00  0.00     0.000 HD 
HETATM   26  O   UNL     1      -7.212  11.013  68.439  1.00  0.00    -0.076 OA 
BRANCH  24  27
HETATM   27  C   UNL     1      -7.504   9.638  70.343  1.00  0.00    -0.168 C  
BRANCH  27  28
HETATM   28  C   UNL     1      -8.093   8.257  70.128  1.00  0.00    -0.112 C  
HETATM   29  O   UNL     1      -9.733   6.706  70.896  1.00  0.00    -0.178 OA 
HETATM   30  C   UNL     1      -9.150   7.766  71.096  1.00  0.00    -0.142 C  
HETATM   31  O   UNL     1      -9.431   8.513  72.174  1.00  0.00    -0.257 OA 
ENDBRANCH  27  28
ENDBRANCH  24  27
ENDBRANCH   1  23
TORSDOF 9
ENDMDL
MODEL      200
REMARK 921   NORMALIZED FREE ENERGY PREDICTED BY IDOCK:   -4.05 KCAL/MOL
REMARK 922        TOTAL FREE ENERGY PREDICTED BY IDOCK:   -8.00 KCAL/MOL
REMARK 923 INTER-LIGAND FREE ENERGY PREDICTED BY IDOCK:   -6.45 KCAL/MOL
REMARK 924 INTRA-LIGAND FREE ENERGY PREDICTED BY IDOCK:   -1.55 KCAL/MOL
REMARK 927      BINDING AFFINITY PREDICTED BY RF-SCORE:    0.00 PKD
ROOT
HETATM    1  C   UNL     1      -9.996  16.360  68.865  1.00  0.00    -0.257 C  
ENDROOT
BRANCH   1   2
HETATM    2  C   UNL     1     -11.308  15.539  68.715  1.00  0.00    -0.339 C  
BRANCH   2   3
HETATM    3  C   UNL     1     -11.228  14.060  68.404  1.00  0.00    -0.292 A  
HETATM    4  C   UNL     1     -10.729  11.334  67.711  1.00  0.00    -0.265 A  
HETATM    5  C   UNL     1     -11.194  13.063  69.376  1.00  0.00    -0.209 A  
HETATM    6  C   UNL     1     -10.911  11.741  69.040  1.00  0.00    -0.239 A  
HETATM    7  C   UNL     1     -11.150  13.661  67.064  1.00  0.00    -0.313 A  
HETATM    8  C   UNL     1     -10.922  12.320  66.724  1.00  0.00    -0.321 A  
BRANCH   4   9
HETATM    9  C   UNL     1     -10.293   9.960  67.391  1.00  0.00    -0.301 A  
HETATM   10  C   UNL     1     -10.180   9.512  66.060  1.00  0.00    -0.242 A  
HETATM   11  C   UNL     1      -9.878   8.183  65.755  1.00  0.00     0.365 A  
HETATM   12  C   UNL     1      -9.652   7.270  66.778  1.00  0.00    -0.240 A  
HETATM   13  C   UNL     1      -9.731   7.684  68.104  1.00  0.00    -0.168 A  
HETATM   14  C   UNL     1     -10.054   9.013  68.404  1.00  0.00    -0.216 A  
ENDBRANCH   4   9
ENDBRANCH   2   3
ENDBRANCH   1   2
BRANCH   1  15
HETATM   15  C   UNL     1     -10.062  17.822  68.360  1.00  0.00    -0.376 C  
HETATM   16  C   UNL     1      -9.463  19.572  66.707  1.00  0.00    -0.354 C  
HETATM   17  C   UNL     1     -10.252  17.378  65.865  1.00  0.00    -0.266 C  
HETATM   18  C   UNL     1      -9.472  18.077  66.973  1.00  0.00    -0.273 C  
HETATM   19  O   UNL     1     -10.388  20.198  66.208  1.00  0.00    -0.444 OA 
BRANCH  16  20
HETATM   20  O   UNL     1      -8.257  20.097  67.062  1.00  0.00    -0.307 OA 
BRANCH  20  21
HETATM   21  C   UNL     1      -7.302  20.202  65.997  1.00  0.00    -0.281 C  
HETATM   22  C   UNL     1      -6.045  19.471  66.434  1.00  0.00    -0.171 C  
ENDBRANCH  20  21
ENDBRANCH  16  20
ENDBRANCH   1  15
BRANCH   1  23
HETATM   23  N   UNL     1      -8.848  15.692  68.245  1.00  0.00    -0.177 N  
HETATM   24  C   UNL     1      -7.590  15.728  68.786  1.00  0.00    -0.173 C  
HETATM   25  H   UNL     1      -8.991  15.179  67.375  1.00  0.00     0.000 HD 
HETATM   26  O   UNL     1      -7.273  16.349  69.799  1.00  0.00    -0.071 OA 
BRANCH  24  27
HETATM   27  C   UNL     1      -6.522  15.059  67.962  1.00  0.00    -0.159 C  
BRANCH  27  28
HETATM   28  C   UNL     1      -5.835  14.005  68.809  1.00  0.00    -0.085 C  
HETATM   29  O   UNL     1      -5.885  11.716  69.474  1.00  0.00    -0.063 OA 
HETATM   30  C   UNL     1      -6.463  12.629  68.895  1.00  0.00    -0.091 C  
HETATM   31  O   UNL     1      -7.663  12.433  68.329  1.00  0.00    -0.125 OA 
ENDBRANCH  27  28
ENDBRANCH  24  27
ENDBRANCH   1  23
TORSDOF 9
ENDMDL
MODEL      201
REMARK 921   NORMALIZED FREE ENERGY PREDICTED BY IDOCK:   -4.04 KCAL/MOL
REMARK 922        TOTAL FREE ENERGY PREDICTED BY IDOCK:   -7.98 KCAL/MOL
REMARK 923 INTER-LIGAND FREE ENERGY PREDICTED BY IDOCK:   -7.17 KCAL/MOL
REMARK 924 INTRA-LIGAND FREE ENERGY PREDICTED BY IDOCK:   -0.81 KCAL/MOL
REMARK 927      BINDING AFFINITY PREDICTED BY RF-SCORE:    0.00 PKD
ROOT
HETATM    1  C   UNL     1     -10.166  13.349  67.164  1.00  0.00    -0.247 C  
ENDROOT
BRANCH   1   2
HETATM    2  C   UNL     1     -10.272  12.270  68.279  1.00  0.00    -0.221 C  
BRANCH   2   3
HETATM    3  C   UNL     1      -9.914  10.834  67.960  1.00  0.00    -0.183 A  
HETATM    4  C   UNL     1      -9.589   8.089  67.243  1.00  0.00    -0.210 A  
HETATM    5  C   UNL     1      -9.083  10.457  66.907  1.00  0.00    -0.159 A  
HETATM    6  C   UNL     1      -8.958   9.120  66.535  1.00  0.00    -0.178 A  
HETATM    7  C   UNL     1     -10.473   9.815  68.741  1.00  0.00    -0.240 A  
HETATM    8  C   UNL     1     -10.298   8.467  68.399  1.00  0.00    -0.241 A  
BRANCH   4   9
HETATM    9  C   UNL     1      -9.555   6.697  66.748  1.00  0.00    -0.207 A  
HETATM   10  C   UNL     1     -10.038   5.625  67.524  1.00  0.00    -0.208 A  
HETATM   11  C   UNL     1      -9.905   4.299  67.108  1.00  0.00    -0.205 A  
HETATM   12  C   UNL     1      -9.309   4.010  65.886  1.00  0.00    -0.166 A  
HETATM   13  C   UNL     1      -8.843   5.047  65.083  1.00  0.00    -0.153 A  
HETATM   14  C   UNL     1      -8.961   6.374  65.514  1.00  0.00     0.038 A  
ENDBRANCH   4   9
ENDBRANCH   2   3
ENDBRANCH   1   2
BRANCH   1  15
HETATM   15  C   UNL     1     -10.676  14.759  67.549  1.00  0.00    -0.269 C  
HETATM   16  C   UNL     1     -10.714  16.704  69.088  1.00  0.00    -0.342 C  
HETATM   17  C   UNL     1      -8.519  15.727  68.481  1.00  0.00    -0.181 C  
HETATM   18  C   UNL     1      -9.987  15.416  68.745  1.00  0.00    -0.208 C  
HETATM   19  O   UNL     1     -10.464  17.797  68.601  1.00  0.00    -0.354 OA 
BRANCH  16  20
HETATM   20  O   UNL     1     -11.648  16.465  70.051  1.00  0.00    -0.204 OA 
BRANCH  20  21
HETATM   21  C   UNL     1     -11.550  15.185  70.690  1.00  0.00    -0.309 C  
HETATM   22  C   UNL     1     -12.960  14.649  70.865  1.00  0.00    -0.425 C  
ENDBRANCH  20  21
ENDBRANCH  16  20
ENDBRANCH   1  15
BRANCH   1  23
HETATM   23  N   UNL     1     -10.815  12.929  65.919  1.00  0.00    -0.269 N  
HETATM   24  C   UNL     1     -10.778  13.680  64.775  1.00  0.00    -0.410 C  
HETATM   25  H   UNL     1     -11.317  12.041  65.905  1.00  0.00     0.000 HD 
HETATM   26  O   UNL     1     -10.253  14.787  64.672  1.00  0.00    -0.270 OA 
BRANCH  24  27
HETATM   27  C   UNL     1     -11.576  13.129  63.623  1.00  0.00    -0.445 C  
BRANCH  27  28
HETATM   28  C   UNL     1     -11.300  11.644  63.498  1.00  0.00    -0.447 C  
HETATM   29  O   UNL     1      -9.604  10.011  63.117  1.00  0.00    -0.268 OA 
HETATM   30  C   UNL     1      -9.902  11.200  63.119  1.00  0.00    -0.372 C  
HETATM   31  O   UNL     1      -9.000  12.134  62.784  1.00  0.00     0.179 OA 
ENDBRANCH  27  28
ENDBRANCH  24  27
ENDBRANCH   1  23
TORSDOF 9
ENDMDL
MODEL      202
REMARK 921   NORMALIZED FREE ENERGY PREDICTED BY IDOCK:   -4.02 KCAL/MOL
REMARK 922        TOTAL FREE ENERGY PREDICTED BY IDOCK:   -7.96 KCAL/MOL
REMARK 923 INTER-LIGAND FREE ENERGY PREDICTED BY IDOCK:   -7.04 KCAL/MOL
REMARK 924 INTRA-LIGAND FREE ENERGY PREDICTED BY IDOCK:   -0.92 KCAL/MOL
REMARK 927      BINDING AFFINITY PREDICTED BY RF-SCORE:    0.00 PKD
ROOT
HETATM    1  C   UNL     1     -11.404   7.212  71.081  1.00  0.00    -0.275 C  
ENDROOT
BRANCH   1   2
HETATM    2  C   UNL     1     -11.535   8.737  71.352  1.00  0.00    -0.366 C  
BRANCH   2   3
HETATM    3  C   UNL     1     -11.161   9.720  70.264  1.00  0.00    -0.349 A  
HETATM    4  C   UNL     1     -10.529  11.841  68.459  1.00  0.00    -0.233 A  
HETATM    5  C   UNL     1      -9.856   9.924  69.817  1.00  0.00    -0.268 A  
HETATM    6  C   UNL     1      -9.546  10.983  68.968  1.00  0.00    -0.136 A  
HETATM    7  C   UNL     1     -12.171  10.501  69.690  1.00  0.00    -0.208 A  
HETATM    8  C   UNL     1     -11.862  11.531  68.790  1.00  0.00    -0.394 A  
BRANCH   4   9
HETATM    9  C   UNL     1     -10.161  13.038  67.675  1.00  0.00    -0.216 A  
HETATM   10  C   UNL     1     -10.559  13.193  66.332  1.00  0.00    -0.293 A  
HETATM   11  C   UNL     1     -10.119  14.267  65.555  1.00  0.00    -0.370 A  
HETATM   12  C   UNL     1      -9.290  15.234  66.111  1.00  0.00    -0.360 A  
HETATM   13  C   UNL     1      -8.898  15.125  67.442  1.00  0.00    -0.199 A  
HETATM   14  C   UNL     1      -9.326  14.035  68.211  1.00  0.00    -0.208 A  
ENDBRANCH   4   9
ENDBRANCH   2   3
ENDBRANCH   1   2
BRANCH   1  15
HETATM   15  C   UNL     1     -10.079   6.561  71.549  1.00  0.00    -0.211 C  
HETATM   16  C   UNL     1      -8.113   6.495  73.059  1.00  0.00    -0.107 C  
HETATM   17  C   UNL     1     -10.353   6.851  74.059  1.00  0.00    -0.355 C  
HETATM   18  C   UNL     1      -9.479   7.119  72.839  1.00  0.00    -0.183 C  
HETATM   19  O   UNL     1      -7.913   5.448  73.658  1.00  0.00    -0.108 OA 
BRANCH  16  20
HETATM   20  O   UNL     1      -7.147   7.300  72.535  1.00  0.00    -0.067 OA 
BRANCH  20  21
HETATM   21  C   UNL     1      -6.141   6.623  71.768  1.00  0.00    -0.038 C  
HETATM   22  C   UNL     1      -6.112   7.256  70.388  1.00  0.00    -0.027 C  
ENDBRANCH  20  21
ENDBRANCH  16  20
ENDBRANCH   1  15
BRANCH   1  23
HETATM   23  N   UNL     1     -11.630   6.875  69.672  1.00  0.00    -0.592 N  
HETATM   24  C   UNL     1     -10.614   6.533  68.821  1.00  0.00    -0.243 C  
HETATM   25  H   UNL     1     -12.584   6.897  69.311  1.00  0.00     0.000 HD 
HETATM   26  O   UNL     1      -9.419   6.516  69.114  1.00  0.00    -0.136 OA 
BRANCH  24  27
HETATM   27  C   UNL     1     -11.028   6.306  67.391  1.00  0.00    -0.447 C  
BRANCH  27  28
HETATM   28  C   UNL     1      -9.803   6.405  66.502  1.00  0.00    -0.170 C  
HETATM   29  O   UNL     1      -8.325   5.175  65.093  1.00  0.00    -0.128 OA 
HETATM   30  C   UNL     1      -9.242   5.131  65.905  1.00  0.00    -0.158 C  
HETATM   31  O   UNL     1      -9.766   3.957  66.287  1.00  0.00    -0.199 OA 
ENDBRANCH  27  28
ENDBRANCH  24  27
ENDBRANCH   1  23
TORSDOF 9
ENDMDL
MODEL      203
REMARK 921   NORMALIZED FREE ENERGY PREDICTED BY IDOCK:   -4.01 KCAL/MOL
REMARK 922        TOTAL FREE ENERGY PREDICTED BY IDOCK:   -7.94 KCAL/MOL
REMARK 923 INTER-LIGAND FREE ENERGY PREDICTED BY IDOCK:   -6.74 KCAL/MOL
REMARK 924 INTRA-LIGAND FREE ENERGY PREDICTED BY IDOCK:   -1.21 KCAL/MOL
REMARK 927      BINDING AFFINITY PREDICTED BY RF-SCORE:    0.00 PKD
ROOT
HETATM    1  C   UNL     1      -9.902   8.157  70.273  1.00  0.00    -0.184 C  
ENDROOT
BRANCH   1   2
HETATM    2  C   UNL     1     -11.154   8.963  69.823  1.00  0.00    -0.099 C  
BRANCH   2   3
HETATM    3  C   UNL     1     -10.978  10.173  68.932  1.00  0.00    -0.261 A  
HETATM    4  C   UNL     1     -11.005  12.417  67.165  1.00  0.00    -0.304 A  
HETATM    5  C   UNL     1     -10.813  11.471  69.411  1.00  0.00    -0.180 A  
HETATM    6  C   UNL     1     -10.866  12.566  68.551  1.00  0.00    -0.271 A  
HETATM    7  C   UNL     1     -11.017   9.995  67.544  1.00  0.00    -0.276 A  
HETATM    8  C   UNL     1     -11.012  11.096  66.676  1.00  0.00    -0.289 A  
BRANCH   4   9
HETATM    9  C   UNL     1     -11.199  13.591  66.290  1.00  0.00    -0.310 A  
HETATM   10  C   UNL     1     -12.159  13.594  65.259  1.00  0.00    -0.429 A  
HETATM   11  C   UNL     1     -12.267  14.657  64.360  1.00  0.00    -0.473 A  
HETATM   12  C   UNL     1     -11.434  15.763  64.487  1.00  0.00    -0.292 A  
HETATM   13  C   UNL     1     -10.492  15.804  65.510  1.00  0.00    -0.425 A  
HETATM   14  C   UNL     1     -10.374  14.726  66.397  1.00  0.00    -0.297 A  
ENDBRANCH   4   9
ENDBRANCH   2   3
ENDBRANCH   1   2
BRANCH   1  15
HETATM   15  C   UNL     1      -9.302   8.564  71.641  1.00  0.00    -0.311 C  
HETATM   16  C   UNL     1      -7.836   8.101  73.588  1.00  0.00    -0.185 C  
HETATM   17  C   UNL     1      -6.934   7.702  71.314  1.00  0.00    -0.050 C  
HETATM   18  C   UNL     1      -8.189   7.664  72.178  1.00  0.00    -0.127 C  
HETATM   19  O   UNL     1      -7.005   8.953  73.866  1.00  0.00    -0.360 OA 
BRANCH  16  20
HETATM   20  O   UNL     1      -8.547   7.369  74.491  1.00  0.00    -0.200 OA 
BRANCH  20  21
HETATM   21  C   UNL     1      -8.843   6.025  74.085  1.00  0.00    -0.124 C  
HETATM   22  C   UNL     1     -10.354   5.882  74.036  1.00  0.00    -0.295 C  
ENDBRANCH  20  21
ENDBRANCH  16  20
ENDBRANCH   1  15
BRANCH   1  23
HETATM   23  N   UNL     1      -8.840   8.169  69.263  1.00  0.00    -0.143 N  
HETATM   24  C   UNL     1      -8.741   7.219  68.283  1.00  0.00    -0.125 C  
HETATM   25  H   UNL     1      -8.145   8.915  69.293  1.00  0.00     0.000 HD 
HETATM   26  O   UNL     1      -9.480   6.243  68.165  1.00  0.00    -0.116 OA 
BRANCH  24  27
HETATM   27  C   UNL     1      -7.534   7.345  67.391  1.00  0.00    -0.104 C  
BRANCH  27  28
HETATM   28  C   UNL     1      -7.303   8.811  67.080  1.00  0.00    -0.080 C  
HETATM   29  O   UNL     1      -7.831  10.582  65.572  1.00  0.00    -0.155 OA 
HETATM   30  C   UNL     1      -7.896   9.380  65.807  1.00  0.00    -0.099 C  
HETATM   31  O   UNL     1      -8.489   8.542  64.944  1.00  0.00    -0.173 OA 
ENDBRANCH  27  28
ENDBRANCH  24  27
ENDBRANCH   1  23
TORSDOF 9
ENDMDL
MODEL      204
REMARK 921   NORMALIZED FREE ENERGY PREDICTED BY IDOCK:   -4.01 KCAL/MOL
REMARK 922        TOTAL FREE ENERGY PREDICTED BY IDOCK:   -7.94 KCAL/MOL
REMARK 923 INTER-LIGAND FREE ENERGY PREDICTED BY IDOCK:   -6.41 KCAL/MOL
REMARK 924 INTRA-LIGAND FREE ENERGY PREDICTED BY IDOCK:   -1.53 KCAL/MOL
REMARK 927      BINDING AFFINITY PREDICTED BY RF-SCORE:    0.00 PKD
ROOT
HETATM    1  C   UNL     1      -9.322   9.138  70.131  1.00  0.00    -0.209 C  
ENDROOT
BRANCH   1   2
HETATM    2  C   UNL     1      -8.019   8.458  69.624  1.00  0.00    -0.106 C  
BRANCH   2   3
HETATM    3  C   UNL     1      -8.077   7.540  68.423  1.00  0.00    -0.125 A  
HETATM    4  C   UNL     1      -8.555   5.838  66.179  1.00  0.00    -0.135 A  
HETATM    5  C   UNL     1      -7.713   7.925  67.134  1.00  0.00    -0.101 A  
HETATM    6  C   UNL     1      -7.983   7.110  66.037  1.00  0.00    -0.112 A  
HETATM    7  C   UNL     1      -8.556   6.236  68.598  1.00  0.00    -0.121 A  
HETATM    8  C   UNL     1      -8.773   5.395  67.498  1.00  0.00    -0.107 A  
BRANCH   4   9
HETATM    9  C   UNL     1      -8.960   5.052  64.997  1.00  0.00    -0.131 A  
HETATM   10  C   UNL     1      -8.331   5.219  63.747  1.00  0.00    -0.123 A  
HETATM   11  C   UNL     1      -8.785   4.560  62.602  1.00  0.00    -0.115 A  
HETATM   12  C   UNL     1      -9.866   3.691  62.684  1.00  0.00    -0.123 A  
HETATM   13  C   UNL     1     -10.495   3.483  63.908  1.00  0.00    -0.266 A  
HETATM   14  C   UNL     1     -10.049   4.162  65.048  1.00  0.00    -0.220 A  
ENDBRANCH   4   9
ENDBRANCH   2   3
ENDBRANCH   1   2
BRANCH   1  15
HETATM   15  C   UNL     1     -10.101   8.361  71.221  1.00  0.00    -0.260 C  
HETATM   16  C   UNL     1     -10.167   6.731  73.089  1.00  0.00    -0.230 C  
HETATM   17  C   UNL     1      -8.372   8.440  73.082  1.00  0.00    -0.191 C  
HETATM   18  C   UNL     1      -9.250   7.557  72.204  1.00  0.00    -0.171 C  
HETATM   19  O   UNL     1     -10.655   7.118  74.141  1.00  0.00    -0.283 OA 
BRANCH  16  20
HETATM   20  O   UNL     1     -10.321   5.485  72.560  1.00  0.00    -0.190 OA 
BRANCH  20  21
HETATM   21  C   UNL     1     -11.330   4.679  73.184  1.00  0.00    -0.265 C  
HETATM   22  C   UNL     1     -10.626   3.587  73.970  1.00  0.00    -0.276 C  
ENDBRANCH  20  21
ENDBRANCH  16  20
ENDBRANCH   1  15
BRANCH   1  23
HETATM   23  N   UNL     1     -10.238   9.470  69.036  1.00  0.00    -0.192 N  
HETATM   24  C   UNL     1     -10.178  10.656  68.355  1.00  0.00    -0.173 C  
HETATM   25  H   UNL     1     -10.951   8.790  68.770  1.00  0.00     0.000 HD 
HETATM   26  O   UNL     1      -9.404  11.578  68.606  1.00  0.00    -0.189 OA 
BRANCH  24  27
HETATM   27  C   UNL     1     -11.256  10.856  67.323  1.00  0.00    -0.307 C  
BRANCH  27  28
HETATM   28  C   UNL     1     -11.717  12.299  67.364  1.00  0.00    -0.405 C  
HETATM   29  O   UNL     1     -12.595  14.094  66.061  1.00  0.00    -0.478 OA 
HETATM   30  C   UNL     1     -12.111  12.967  66.062  1.00  0.00    -0.432 C  
HETATM   31  O   UNL     1     -11.915  12.302  64.913  1.00  0.00    -0.381 OA 
ENDBRANCH  27  28
ENDBRANCH  24  27
ENDBRANCH   1  23
TORSDOF 9
ENDMDL
MODEL      205
REMARK 921   NORMALIZED FREE ENERGY PREDICTED BY IDOCK:   -4.01 KCAL/MOL
REMARK 922        TOTAL FREE ENERGY PREDICTED BY IDOCK:   -7.94 KCAL/MOL
REMARK 923 INTER-LIGAND FREE ENERGY PREDICTED BY IDOCK:   -6.60 KCAL/MOL
REMARK 924 INTRA-LIGAND FREE ENERGY PREDICTED BY IDOCK:   -1.34 KCAL/MOL
REMARK 927      BINDING AFFINITY PREDICTED BY RF-SCORE:    0.00 PKD
ROOT
HETATM    1  C   UNL     1      -8.924  14.436  66.744  1.00  0.00    -0.233 C  
ENDROOT
BRANCH   1   2
HETATM    2  C   UNL     1     -10.058  13.414  66.446  1.00  0.00    -0.292 C  
BRANCH   2   3
HETATM    3  C   UNL     1      -9.871  11.963  66.832  1.00  0.00    -0.217 A  
HETATM    4  C   UNL     1      -9.863   9.242  67.700  1.00  0.00    -0.221 A  
HETATM    5  C   UNL     1      -9.850  10.913  65.916  1.00  0.00    -0.285 A  
HETATM    6  C   UNL     1      -9.886   9.587  66.342  1.00  0.00    -0.320 A  
HETATM    7  C   UNL     1      -9.747  11.641  68.189  1.00  0.00    -0.189 A  
HETATM    8  C   UNL     1      -9.725  10.305  68.613  1.00  0.00    -0.171 A  
BRANCH   4   9
HETATM    9  C   UNL     1     -10.042   7.840  68.130  1.00  0.00    -0.220 A  
HETATM   10  C   UNL     1      -9.648   7.404  69.410  1.00  0.00    -0.155 A  
HETATM   11  C   UNL     1      -9.711   6.058  69.779  1.00  0.00    -0.194 A  
HETATM   12  C   UNL     1     -10.200   5.114  68.884  1.00  0.00    -0.221 A  
HETATM   13  C   UNL     1     -10.622   5.515  67.620  1.00  0.00    -0.239 A  
HETATM   14  C   UNL     1     -10.537   6.862  67.248  1.00  0.00    -0.393 A  
ENDBRANCH   4   9
ENDBRANCH   2   3
ENDBRANCH   1   2
BRANCH   1  15
HETATM   15  C   UNL     1      -8.204  14.258  68.103  1.00  0.00    -0.146 C  
HETATM   16  C   UNL     1      -6.141  13.885  69.429  1.00  0.00    -0.104 C  
HETATM   17  C   UNL     1      -6.081  15.564  67.607  1.00  0.00    -0.158 C  
HETATM   18  C   UNL     1      -6.676  14.233  68.051  1.00  0.00    -0.154 C  
HETATM   19  O   UNL     1      -5.897  14.698  70.309  1.00  0.00    -0.124 OA 
BRANCH  16  20
HETATM   20  O   UNL     1      -5.929  12.542  69.516  1.00  0.00    -0.094 OA 
BRANCH  20  21
HETATM   21  C   UNL     1      -5.267  11.956  68.387  1.00  0.00    -0.046 C  
HETATM   22  C   UNL     1      -6.092  10.763  67.938  1.00  0.00    -0.046 C  
ENDBRANCH  20  21
ENDBRANCH  16  20
ENDBRANCH   1  15
BRANCH   1  23
HETATM   23  N   UNL     1      -9.379  15.824  66.622  1.00  0.00    -0.239 N  
HETATM   24  C   UNL     1     -10.264  16.392  67.500  1.00  0.00    -0.273 C  
HETATM   25  H   UNL     1      -9.023  16.390  65.852  1.00  0.00     0.000 HD 
HETATM   26  O   UNL     1     -10.804  15.808  68.438  1.00  0.00    -0.270 OA 
BRANCH  24  27
HETATM   27  C   UNL     1     -10.682  17.798  67.164  1.00  0.00    -0.222 C  
BRANCH  27  28
HETATM   28  C   UNL     1      -9.680  18.767  67.762  1.00  0.00    -0.356 C  
HETATM   29  O   UNL     1      -7.741  20.079  67.308  1.00  0.00    -0.269 OA 
HETATM   30  C   UNL     1      -8.511  19.213  66.907  1.00  0.00    -0.294 C  
HETATM   31  O   UNL     1      -8.335  18.639  65.707  1.00  0.00    -0.462 OA 
ENDBRANCH  27  28
ENDBRANCH  24  27
ENDBRANCH   1  23
TORSDOF 9
ENDMDL
MODEL      206
REMARK 921   NORMALIZED FREE ENERGY PREDICTED BY IDOCK:   -4.01 KCAL/MOL
REMARK 922        TOTAL FREE ENERGY PREDICTED BY IDOCK:   -7.93 KCAL/MOL
REMARK 923 INTER-LIGAND FREE ENERGY PREDICTED BY IDOCK:   -6.43 KCAL/MOL
REMARK 924 INTRA-LIGAND FREE ENERGY PREDICTED BY IDOCK:   -1.51 KCAL/MOL
REMARK 927      BINDING AFFINITY PREDICTED BY RF-SCORE:    0.00 PKD
ROOT
HETATM    1  C   UNL     1      -9.479  13.778  67.730  1.00  0.00    -0.216 C  
ENDROOT
BRANCH   1   2
HETATM    2  C   UNL     1      -9.419  12.787  68.927  1.00  0.00     0.253 C  
BRANCH   2   3
HETATM    3  C   UNL     1      -9.498  11.299  68.665  1.00  0.00    -0.179 A  
HETATM    4  C   UNL     1      -9.449   8.449  68.480  1.00  0.00    -0.149 A  
HETATM    5  C   UNL     1     -10.662  10.546  68.810  1.00  0.00    -0.249 A  
HETATM    6  C   UNL     1     -10.628   9.154  68.759  1.00  0.00    -0.208 A  
HETATM    7  C   UNL     1      -8.332  10.622  68.286  1.00  0.00    -0.122 A  
HETATM    8  C   UNL     1      -8.313   9.224  68.178  1.00  0.00    -0.120 A  
BRANCH   4   9
HETATM    9  C   UNL     1      -9.408   6.975  68.569  1.00  0.00    -0.135 A  
HETATM   10  C   UNL     1      -8.374   6.228  67.971  1.00  0.00    -0.114 A  
HETATM   11  C   UNL     1      -8.391   4.831  67.955  1.00  0.00    -0.102 A  
HETATM   12  C   UNL     1      -9.432   4.142  68.566  1.00  0.00    -0.216 A  
HETATM   13  C   UNL     1     -10.457   4.849  69.188  1.00  0.00     0.021 A  
HETATM   14  C   UNL     1     -10.445   6.249  69.182  1.00  0.00    -0.291 A  
ENDBRANCH   4   9
ENDBRANCH   2   3
ENDBRANCH   1   2
BRANCH   1  15
HETATM   15  C   UNL     1      -9.759  15.255  68.099  1.00  0.00    -0.212 C  
HETATM   16  C   UNL     1      -9.196  17.667  67.963  1.00  0.00    -0.271 C  
HETATM   17  C   UNL     1      -9.203  16.339  65.869  1.00  0.00    -0.268 C  
HETATM   18  C   UNL     1      -8.917  16.299  67.366  1.00  0.00    -0.197 C  
HETATM   19  O   UNL     1     -10.086  18.420  67.594  1.00  0.00    -0.326 OA 
BRANCH  16  20
HETATM   20  O   UNL     1      -8.279  17.944  68.931  1.00  0.00    -0.250 OA 
BRANCH  20  21
HETATM   21  C   UNL     1      -6.910  17.773  68.538  1.00  0.00    -0.233 C  
HETATM   22  C   UNL     1      -6.180  17.112  69.694  1.00  0.00    -0.235 C  
ENDBRANCH  20  21
ENDBRANCH  16  20
ENDBRANCH   1  15
BRANCH   1  23
HETATM   23  N   UNL     1     -10.434  13.353  66.703  1.00  0.00    -0.277 N  
HETATM   24  C   UNL     1     -10.079  12.555  65.648  1.00  0.00    -0.269 C  
HETATM   25  H   UNL     1     -11.402  13.664  66.776  1.00  0.00     0.000 HD 
HETATM   26  O   UNL     1      -8.941  12.153  65.415  1.00  0.00     0.166 OA 
BRANCH  24  27
HETATM   27  C   UNL     1     -11.174  12.296  64.647  1.00  0.00    -0.363 C  
BRANCH  27  28
HETATM   28  C   UNL     1     -11.415  13.559  63.843  1.00  0.00    -0.289 C  
HETATM   29  O   UNL     1     -12.677  15.580  63.736  1.00  0.00    -0.596 OA 
HETATM   30  C   UNL     1     -12.520  14.495  64.287  1.00  0.00    -0.264 C  
HETATM   31  O   UNL     1     -13.324  14.113  65.290  1.00  0.00    -0.715 OA 
ENDBRANCH  27  28
ENDBRANCH  24  27
ENDBRANCH   1  23
TORSDOF 9
ENDMDL
MODEL      207
REMARK 921   NORMALIZED FREE ENERGY PREDICTED BY IDOCK:   -3.99 KCAL/MOL
REMARK 922        TOTAL FREE ENERGY PREDICTED BY IDOCK:   -7.91 KCAL/MOL
REMARK 923 INTER-LIGAND FREE ENERGY PREDICTED BY IDOCK:   -5.89 KCAL/MOL
REMARK 924 INTRA-LIGAND FREE ENERGY PREDICTED BY IDOCK:   -2.02 KCAL/MOL
REMARK 927      BINDING AFFINITY PREDICTED BY RF-SCORE:    0.00 PKD
ROOT
HETATM    1  C   UNL     1      -8.661   7.677  71.624  1.00  0.00    -0.116 C  
ENDROOT
BRANCH   1   2
HETATM    2  C   UNL     1      -7.793   6.426  71.309  1.00  0.00    -0.104 C  
BRANCH   2   3
HETATM    3  C   UNL     1      -8.011   5.677  70.013  1.00  0.00    -0.091 A  
HETATM    4  C   UNL     1      -8.783   4.331  67.615  1.00  0.00    -0.116 A  
HETATM    5  C   UNL     1      -7.663   6.178  68.759  1.00  0.00    -0.096 A  
HETATM    6  C   UNL     1      -8.075   5.540  67.592  1.00  0.00    -0.101 A  
HETATM    7  C   UNL     1      -8.628   4.422  70.059  1.00  0.00    -0.099 A  
HETATM    8  C   UNL     1      -8.991   3.753  68.882  1.00  0.00    -0.178 A  
BRANCH   4   9
HETATM    9  C   UNL     1      -9.329   3.746  66.373  1.00  0.00    -0.197 A  
HETATM   10  C   UNL     1      -8.969   2.454  65.944  1.00  0.00    -0.117 A  
HETATM   11  C   UNL     1      -9.394   1.943  64.715  1.00  0.00    -0.100 A  
HETATM   12  C   UNL     1     -10.217   2.703  63.894  1.00  0.00    -0.124 A  
HETATM   13  C   UNL     1     -10.612   3.975  64.298  1.00  0.00    -0.204 A  
HETATM   14  C   UNL     1     -10.166   4.490  65.521  1.00  0.00    -0.251 A  
ENDBRANCH   4   9
ENDBRANCH   2   3
ENDBRANCH   1   2
BRANCH   1  15
HETATM   15  C   UNL     1     -10.076   7.385  72.181  1.00  0.00    -0.223 C  
HETATM   16  C   UNL     1     -12.546   7.548  72.016  1.00  0.00    -0.237 C  
HETATM   17  C   UNL     1     -11.272   6.879  69.997  1.00  0.00    -0.347 C  
HETATM   18  C   UNL     1     -11.243   7.735  71.258  1.00  0.00    -0.280 C  
HETATM   19  O   UNL     1     -13.172   6.500  72.078  1.00  0.00    -0.179 OA 
BRANCH  16  20
HETATM   20  O   UNL     1     -12.932   8.731  72.570  1.00  0.00    -0.397 OA 
BRANCH  20  21
HETATM   21  C   UNL     1     -13.696   9.586  71.708  1.00  0.00    -0.309 C  
HETATM   22  C   UNL     1     -12.950  10.904  71.589  1.00  0.00    -0.569 C  
ENDBRANCH  20  21
ENDBRANCH  16  20
ENDBRANCH   1  15
BRANCH   1  23
HETATM   23  N   UNL     1      -8.777   8.578  70.474  1.00  0.00    -0.143 N  
HETATM   24  C   UNL     1      -7.889   9.593  70.236  1.00  0.00    -0.178 C  
HETATM   25  H   UNL     1      -9.552   8.444  69.824  1.00  0.00     0.000 HD 
HETATM   26  O   UNL     1      -6.945   9.893  70.965  1.00  0.00    -0.333 OA 
BRANCH  24  27
HETATM   27  C   UNL     1      -8.221  10.468  69.057  1.00  0.00    -0.145 C  
BRANCH  27  28
HETATM   28  C   UNL     1      -9.413   9.880  68.327  1.00  0.00    -0.147 C  
HETATM   29  O   UNL     1     -10.081   8.411  66.571  1.00  0.00    -0.276 OA 
HETATM   30  C   UNL     1      -9.156   8.998  67.123  1.00  0.00    -0.137 C  
HETATM   31  O   UNL     1      -7.899   8.875  66.671  1.00  0.00    -0.098 OA 
ENDBRANCH  27  28
ENDBRANCH  24  27
ENDBRANCH   1  23
TORSDOF 9
ENDMDL
MODEL      208
REMARK 921   NORMALIZED FREE ENERGY PREDICTED BY IDOCK:   -3.99 KCAL/MOL
REMARK 922        TOTAL FREE ENERGY PREDICTED BY IDOCK:   -7.91 KCAL/MOL
REMARK 923 INTER-LIGAND FREE ENERGY PREDICTED BY IDOCK:   -7.30 KCAL/MOL
REMARK 924 INTRA-LIGAND FREE ENERGY PREDICTED BY IDOCK:   -0.61 KCAL/MOL
REMARK 927      BINDING AFFINITY PREDICTED BY RF-SCORE:    0.00 PKD
ROOT
HETATM    1  C   UNL     1      -8.990  13.212  67.449  1.00  0.00    -0.201 C  
ENDROOT
BRANCH   1   2
HETATM    2  C   UNL     1      -7.977  12.032  67.453  1.00  0.00    -0.165 C  
BRANCH   2   3
HETATM    3  C   UNL     1      -7.776  11.230  68.720  1.00  0.00    -0.138 A  
HETATM    4  C   UNL     1      -7.378   9.417  70.891  1.00  0.00    -0.095 A  
HETATM    5  C   UNL     1      -6.605  11.255  69.476  1.00  0.00    -0.129 A  
HETATM    6  C   UNL     1      -6.398  10.343  70.509  1.00  0.00    -0.101 A  
HETATM    7  C   UNL     1      -8.805  10.383  69.148  1.00  0.00    -0.180 A  
HETATM    8  C   UNL     1      -8.616   9.506  70.225  1.00  0.00    -0.258 A  
BRANCH   4   9
HETATM    9  C   UNL     1      -7.085   8.372  71.893  1.00  0.00    -0.103 A  
HETATM   10  C   UNL     1      -5.871   7.658  71.882  1.00  0.00    -0.036 A  
HETATM   11  C   UNL     1      -5.637   6.593  72.755  1.00  0.00    -0.038 A  
HETATM   12  C   UNL     1      -6.604   6.232  73.686  1.00  0.00    -0.074 A  
HETATM   13  C   UNL     1      -7.806   6.933  73.740  1.00  0.00    -0.109 A  
HETATM   14  C   UNL     1      -8.043   7.986  72.849  1.00  0.00    -0.214 A  
ENDBRANCH   4   9
ENDBRANCH   2   3
ENDBRANCH   1   2
BRANCH   1  15
HETATM   15  C   UNL     1      -8.369  14.626  67.341  1.00  0.00    -0.223 C  
HETATM   16  C   UNL     1      -8.416  17.057  67.834  1.00  0.00    -0.209 C  
HETATM   17  C   UNL     1      -8.884  15.472  69.681  1.00  0.00    -0.140 C  
HETATM   18  C   UNL     1      -9.034  15.714  68.184  1.00  0.00    -0.179 C  
HETATM   19  O   UNL     1      -7.424  17.530  68.370  1.00  0.00    -0.226 OA 
BRANCH  16  20
HETATM   20  O   UNL     1      -9.161  17.671  66.872  1.00  0.00    -0.240 OA 
BRANCH  20  21
HETATM   21  C   UNL     1     -10.430  18.173  67.314  1.00  0.00    -0.393 C  
HETATM   22  C   UNL     1     -10.767  19.383  66.460  1.00  0.00    -0.516 C  
ENDBRANCH  20  21
ENDBRANCH  16  20
ENDBRANCH   1  15
BRANCH   1  23
HETATM   23  N   UNL     1      -9.893  13.174  68.603  1.00  0.00    -0.400 N  
HETATM   24  C   UNL     1     -11.155  12.647  68.538  1.00  0.00    -0.266 C  
HETATM   25  H   UNL     1      -9.568  13.557  69.491  1.00  0.00     0.000 HD 
HETATM   26  O   UNL     1     -11.685  12.201  67.522  1.00  0.00    -0.415 OA 
BRANCH  24  27
HETATM   27  C   UNL     1     -11.967  12.777  69.799  1.00  0.00    -0.362 C  
BRANCH  27  28
HETATM   28  C   UNL     1     -12.138  11.403  70.418  1.00  0.00    -0.473 C  
HETATM   29  O   UNL     1     -13.277  10.165  72.108  1.00  0.00    -0.444 OA 
HETATM   30  C   UNL     1     -13.019  11.270  71.643  1.00  0.00    -0.432 C  
HETATM   31  O   UNL     1     -13.509  12.384  72.208  1.00  0.00    -0.541 OA 
ENDBRANCH  27  28
ENDBRANCH  24  27
ENDBRANCH   1  23
TORSDOF 9
ENDMDL
MODEL      209
REMARK 921   NORMALIZED FREE ENERGY PREDICTED BY IDOCK:   -3.95 KCAL/MOL
REMARK 922        TOTAL FREE ENERGY PREDICTED BY IDOCK:   -7.85 KCAL/MOL
REMARK 923 INTER-LIGAND FREE ENERGY PREDICTED BY IDOCK:   -5.65 KCAL/MOL
REMARK 924 INTRA-LIGAND FREE ENERGY PREDICTED BY IDOCK:   -2.20 KCAL/MOL
REMARK 927      BINDING AFFINITY PREDICTED BY RF-SCORE:    0.00 PKD
ROOT
HETATM    1  C   UNL     1      -9.701  10.979  66.862  1.00  0.00    -0.188 C  
ENDROOT
BRANCH   1   2
HETATM    2  C   UNL     1      -9.689  10.453  68.325  1.00  0.00    -0.162 C  
BRANCH   2   3
HETATM    3  C   UNL     1      -9.426   8.986  68.586  1.00  0.00    -0.149 A  
HETATM    4  C   UNL     1      -9.003   6.165  68.719  1.00  0.00    -0.123 A  
HETATM    5  C   UNL     1      -8.161   8.456  68.834  1.00  0.00    -0.115 A  
HETATM    6  C   UNL     1      -7.951   7.080  68.859  1.00  0.00    -0.120 A  
HETATM    7  C   UNL     1     -10.504   8.094  68.543  1.00  0.00    -0.199 A  
HETATM    8  C   UNL     1     -10.298   6.710  68.627  1.00  0.00    -0.208 A  
BRANCH   4   9
HETATM    9  C   UNL     1      -8.739   4.715  68.609  1.00  0.00    -0.115 A  
HETATM   10  C   UNL     1      -7.648   4.111  69.263  1.00  0.00    -0.054 A  
HETATM   11  C   UNL     1      -7.329   2.765  69.071  1.00  0.00    -0.048 A  
HETATM   12  C   UNL     1      -8.115   1.977  68.239  1.00  0.00    -0.067 A  
HETATM   13  C   UNL     1      -9.216   2.536  67.596  1.00  0.00    -0.225 A  
HETATM   14  C   UNL     1      -9.519   3.891  67.777  1.00  0.00    -0.230 A  
ENDBRANCH   4   9
ENDBRANCH   2   3
ENDBRANCH   1   2
BRANCH   1  15
HETATM   15  C   UNL     1     -10.961  11.780  66.450  1.00  0.00    -0.341 C  
HETATM   16  C   UNL     1     -12.026  13.836  65.561  1.00  0.00    -0.384 C  
HETATM   17  C   UNL     1     -10.045  12.931  64.377  1.00  0.00    -0.265 C  
HETATM   18  C   UNL     1     -10.704  13.109  65.740  1.00  0.00    -0.292 C  
HETATM   19  O   UNL     1     -12.773  13.700  64.603  1.00  0.00    -0.635 OA 
BRANCH  16  20
HETATM   20  O   UNL     1     -12.225  14.695  66.600  1.00  0.00    -0.317 OA 
BRANCH  20  21
HETATM   21  C   UNL     1     -11.104  15.531  66.922  1.00  0.00    -0.221 C  
HETATM   22  C   UNL     1     -11.363  16.141  68.288  1.00  0.00    -0.316 C  
ENDBRANCH  20  21
ENDBRANCH  16  20
ENDBRANCH   1  15
BRANCH   1  23
HETATM   23  N   UNL     1      -9.474   9.910  65.884  1.00  0.00    -0.197 N  
HETATM   24  C   UNL     1      -8.247   9.664  65.329  1.00  0.00    -0.131 C  
HETATM   25  H   UNL     1     -10.262   9.327  65.606  1.00  0.00     0.000 HD 
HETATM   26  O   UNL     1      -7.229  10.322  65.540  1.00  0.00    -0.139 OA 
BRANCH  24  27
HETATM   27  C   UNL     1      -8.226   8.584  64.280  1.00  0.00    -0.147 C  
BRANCH  27  28
HETATM   28  C   UNL     1      -8.156   7.233  64.965  1.00  0.00    -0.120 C  
HETATM   29  O   UNL     1      -6.700   5.665  66.019  1.00  0.00    -0.053 OA 
HETATM   30  C   UNL     1      -6.796   6.698  65.364  1.00  0.00    -0.055 C  
HETATM   31  O   UNL     1      -5.701   7.373  64.984  1.00  0.00    -0.036 OA 
ENDBRANCH  27  28
ENDBRANCH  24  27
ENDBRANCH   1  23
TORSDOF 9
ENDMDL
MODEL      210
REMARK 921   NORMALIZED FREE ENERGY PREDICTED BY IDOCK:   -3.94 KCAL/MOL
REMARK 922        TOTAL FREE ENERGY PREDICTED BY IDOCK:   -7.84 KCAL/MOL
REMARK 923 INTER-LIGAND FREE ENERGY PREDICTED BY IDOCK:   -5.69 KCAL/MOL
REMARK 924 INTRA-LIGAND FREE ENERGY PREDICTED BY IDOCK:   -2.15 KCAL/MOL
REMARK 927      BINDING AFFINITY PREDICTED BY RF-SCORE:    0.00 PKD
ROOT
HETATM    1  C   UNL     1     -10.553  10.649  68.886  1.00  0.00    -0.212 C  
ENDROOT
BRANCH   1   2
HETATM    2  C   UNL     1     -10.811   9.870  67.565  1.00  0.00    -0.307 C  
BRANCH   2   3
HETATM    3  C   UNL     1     -10.317   8.446  67.434  1.00  0.00    -0.355 A  
HETATM    4  C   UNL     1      -9.227   5.807  67.517  1.00  0.00    -0.108 A  
HETATM    5  C   UNL     1     -11.142   7.327  67.529  1.00  0.00    -0.110 A  
HETATM    6  C   UNL     1     -10.605   6.044  67.610  1.00  0.00    -0.336 A  
HETATM    7  C   UNL     1      -8.948   8.226  67.239  1.00  0.00    -0.149 A  
HETATM    8  C   UNL     1      -8.416   6.930  67.262  1.00  0.00    -0.121 A  
BRANCH   4   9
HETATM    9  C   UNL     1      -8.671   4.457  67.744  1.00  0.00    -0.115 A  
HETATM   10  C   UNL     1      -9.077   3.352  66.970  1.00  0.00    -0.192 A  
HETATM   11  C   UNL     1      -8.640   2.056  67.255  1.00  0.00    -0.111 A  
HETATM   12  C   UNL     1      -7.758   1.836  68.307  1.00  0.00    -0.053 A  
HETATM   13  C   UNL     1      -7.318   2.909  69.076  1.00  0.00    -0.048 A  
HETATM   14  C   UNL     1      -7.776   4.203  68.799  1.00  0.00    -0.058 A  
ENDBRANCH   4   9
ENDBRANCH   2   3
ENDBRANCH   1   2
BRANCH   1  15
HETATM   15  C   UNL     1      -9.425  11.708  68.828  1.00  0.00    -0.068 C  
HETATM   16  C   UNL     1      -7.888  13.168  67.540  1.00  0.00    -0.172 C  
HETATM   17  C   UNL     1     -10.275  13.096  66.876  1.00  0.00    -0.245 C  
HETATM   18  C   UNL     1      -9.118  12.283  67.445  1.00  0.00    -0.184 C  
HETATM   19  O   UNL     1      -7.906  14.361  67.809  1.00  0.00    -0.130 OA 
BRANCH  16  20
HETATM   20  O   UNL     1      -6.774  12.446  67.232  1.00  0.00    -0.150 OA 
BRANCH  20  21
HETATM   21  C   UNL     1      -7.018  11.225  66.521  1.00  0.00    -0.100 C  
HETATM   22  C   UNL     1      -6.002  10.204  67.000  1.00  0.00    -0.051 C  
ENDBRANCH  20  21
ENDBRANCH  16  20
ENDBRANCH   1  15
BRANCH   1  23
HETATM   23  N   UNL     1     -10.311   9.755  70.021  1.00  0.00    -0.245 N  
HETATM   24  C   UNL     1     -11.265   9.480  70.964  1.00  0.00    -0.362 C  
HETATM   25  H   UNL     1      -9.393   9.320  70.114  1.00  0.00     0.000 HD 
HETATM   26  O   UNL     1     -12.390   9.976  70.998  1.00  0.00    -0.311 OA 
BRANCH  24  27
HETATM   27  C   UNL     1     -10.805   8.611  72.104  1.00  0.00    -0.424 C  
BRANCH  27  28
HETATM   28  C   UNL     1     -10.145   7.368  71.539  1.00  0.00    -0.197 C  
HETATM   29  O   UNL     1     -10.463   5.056  71.045  1.00  0.00    -0.213 OA 
HETATM   30  C   UNL     1     -10.909   6.060  71.590  1.00  0.00    -0.260 C  
HETATM   31  O   UNL     1     -12.080   6.024  72.244  1.00  0.00    -0.301 OA 
ENDBRANCH  27  28
ENDBRANCH  24  27
ENDBRANCH   1  23
TORSDOF 9
ENDMDL
MODEL      211
REMARK 921   NORMALIZED FREE ENERGY PREDICTED BY IDOCK:   -3.83 KCAL/MOL
REMARK 922        TOTAL FREE ENERGY PREDICTED BY IDOCK:   -7.67 KCAL/MOL
REMARK 923 INTER-LIGAND FREE ENERGY PREDICTED BY IDOCK:   -6.06 KCAL/MOL
REMARK 924 INTRA-LIGAND FREE ENERGY PREDICTED BY IDOCK:   -1.61 KCAL/MOL
REMARK 927      BINDING AFFINITY PREDICTED BY RF-SCORE:    0.00 PKD
ROOT
HETATM    1  C   UNL     1      -8.567   9.400  70.445  1.00  0.00    -0.230 C  
ENDROOT
BRANCH   1   2
HETATM    2  C   UNL     1      -7.396   8.416  70.172  1.00  0.00    -0.058 C  
BRANCH   2   3
HETATM    3  C   UNL     1      -7.556   7.345  69.115  1.00  0.00    -0.105 A  
HETATM    4  C   UNL     1      -8.218   5.325  67.207  1.00  0.00    -0.104 A  
HETATM    5  C   UNL     1      -7.452   7.583  67.746  1.00  0.00    -0.101 A  
HETATM    6  C   UNL     1      -7.814   6.609  66.818  1.00  0.00    -0.107 A  
HETATM    7  C   UNL     1      -7.860   6.040  69.524  1.00  0.00    -0.099 A  
HETATM    8  C   UNL     1      -8.168   5.045  68.586  1.00  0.00    -0.085 A  
BRANCH   4   9
HETATM    9  C   UNL     1      -8.729   4.357  66.215  1.00  0.00    -0.113 A  
HETATM   10  C   UNL     1      -8.028   3.174  65.908  1.00  0.00    -0.085 A  
HETATM   11  C   UNL     1      -8.449   2.314  64.892  1.00  0.00    -0.093 A  
HETATM   12  C   UNL     1      -9.603   2.600  64.172  1.00  0.00    -0.144 A  
HETATM   13  C   UNL     1     -10.333   3.748  64.466  1.00  0.00    -0.208 A  
HETATM   14  C   UNL     1      -9.895   4.618  65.472  1.00  0.00    -0.198 A  
ENDBRANCH   4   9
ENDBRANCH   2   3
ENDBRANCH   1   2
BRANCH   1  15
HETATM   15  C   UNL     1      -9.674   8.875  71.392  1.00  0.00    -0.370 C  
HETATM   16  C   UNL     1     -12.045   8.304  71.846  1.00  0.00    -0.332 C  
HETATM   17  C   UNL     1     -11.037   7.538  69.715  1.00  0.00    -0.143 C  
HETATM   18  C   UNL     1     -11.046   8.651  70.756  1.00  0.00    -0.295 C  
HETATM   19  O   UNL     1     -12.271   7.172  72.250  1.00  0.00    -0.245 OA 
BRANCH  16  20
HETATM   20  O   UNL     1     -12.681   9.433  72.267  1.00  0.00    -0.376 OA 
BRANCH  20  21
HETATM   21  C   UNL     1     -12.990  10.378  71.233  1.00  0.00    -0.419 C  
HETATM   22  C   UNL     1     -13.262  11.715  71.899  1.00  0.00    -0.475 C  
ENDBRANCH  20  21
ENDBRANCH  16  20
ENDBRANCH   1  15
BRANCH   1  23
HETATM   23  N   UNL     1      -9.187   9.885  69.209  1.00  0.00    -0.187 N  
HETATM   24  C   UNL     1      -8.728  10.983  68.532  1.00  0.00    -0.159 C  
HETATM   25  H   UNL     1      -9.995   9.384  68.837  1.00  0.00     0.000 HD 
HETATM   26  O   UNL     1      -7.799  11.703  68.896  1.00  0.00    -0.118 OA 
BRANCH  24  27
HETATM   27  C   UNL     1      -9.546  11.382  67.332  1.00  0.00    -0.185 C  
BRANCH  27  28
HETATM   28  C   UNL     1      -9.565  12.894  67.229  1.00  0.00    -0.220 C  
HETATM   29  O   UNL     1     -10.692  14.872  67.940  1.00  0.00    -0.256 OA 
HETATM   30  C   UNL     1     -10.696  13.647  67.900  1.00  0.00    -0.247 C  
HETATM   31  O   UNL     1     -11.701  12.946  68.446  1.00  0.00    -0.306 OA 
ENDBRANCH  27  28
ENDBRANCH  24  27
ENDBRANCH   1  23
TORSDOF 9
ENDMDL
MODEL      212
REMARK 921   NORMALIZED FREE ENERGY PREDICTED BY IDOCK:   -3.82 KCAL/MOL
REMARK 922        TOTAL FREE ENERGY PREDICTED BY IDOCK:   -7.65 KCAL/MOL
REMARK 923 INTER-LIGAND FREE ENERGY PREDICTED BY IDOCK:   -6.21 KCAL/MOL
REMARK 924 INTRA-LIGAND FREE ENERGY PREDICTED BY IDOCK:   -1.45 KCAL/MOL
REMARK 927      BINDING AFFINITY PREDICTED BY RF-SCORE:    0.00 PKD
ROOT
HETATM    1  C   UNL     1      -8.142  15.569  67.839  1.00  0.00    -0.139 C  
ENDROOT
BRANCH   1   2
HETATM    2  C   UNL     1      -7.975  14.200  67.121  1.00  0.00    -0.100 C  
BRANCH   2   3
HETATM    3  C   UNL     1      -8.330  12.927  67.857  1.00  0.00    -0.170 A  
HETATM    4  C   UNL     1      -9.271  10.483  68.998  1.00  0.00    -0.193 A  
HETATM    5  C   UNL     1      -7.559  11.766  67.815  1.00  0.00    -0.127 A  
HETATM    6  C   UNL     1      -8.039  10.567  68.337  1.00  0.00    -0.119 A  
HETATM    7  C   UNL     1      -9.516  12.889  68.599  1.00  0.00    -0.002 A  
HETATM    8  C   UNL     1      -9.969  11.694  69.174  1.00  0.00     0.098 A  
BRANCH   4   9
HETATM    9  C   UNL     1      -9.821   9.178  69.419  1.00  0.00    -0.173 A  
HETATM   10  C   UNL     1      -9.901   8.088  68.529  1.00  0.00    -0.185 A  
HETATM   11  C   UNL     1     -10.522   6.890  68.889  1.00  0.00    -0.225 A  
HETATM   12  C   UNL     1     -11.054   6.740  70.164  1.00  0.00    -0.365 A  
HETATM   13  C   UNL     1     -10.970   7.788  71.076  1.00  0.00    -0.260 A  
HETATM   14  C   UNL     1     -10.365   8.994  70.703  1.00  0.00    -0.284 A  
ENDBRANCH   4   9
ENDBRANCH   2   3
ENDBRANCH   1   2
BRANCH   1  15
HETATM   15  C   UNL     1      -8.788  16.694  66.993  1.00  0.00    -0.220 C  
HETATM   16  C   UNL     1     -10.759  17.705  65.878  1.00  0.00    -0.113 C  
HETATM   17  C   UNL     1     -11.019  16.872  68.198  1.00  0.00    -0.290 C  
HETATM   18  C   UNL     1     -10.311  16.644  66.868  1.00  0.00    -0.299 C  
HETATM   19  O   UNL     1     -11.023  18.863  66.168  1.00  0.00    -0.190 OA 
BRANCH  16  20
HETATM   20  O   UNL     1     -10.870  17.159  64.635  1.00  0.00    -0.852 OA 
BRANCH  20  21
HETATM   21  C   UNL     1     -10.756  15.730  64.585  1.00  0.00    -0.109 C  
HETATM   22  C   UNL     1     -12.098  15.177  64.137  1.00  0.00    -0.195 C  
ENDBRANCH  20  21
ENDBRANCH  16  20
ENDBRANCH   1  15
BRANCH   1  23
HETATM   23  N   UNL     1      -6.880  16.060  68.402  1.00  0.00    -0.121 N  
HETATM   24  C   UNL     1      -6.476  15.770  69.677  1.00  0.00    -0.181 C  
HETATM   25  H   UNL     1      -6.278  16.642  67.819  1.00  0.00     0.000 HD 
HETATM   26  O   UNL     1      -7.127  15.124  70.497  1.00  0.00     0.149 OA 
BRANCH  24  27
HETATM   27  C   UNL     1      -5.196  16.435  70.108  1.00  0.00    -0.176 C  
BRANCH  27  28
HETATM   28  C   UNL     1      -5.282  17.917  69.800  1.00  0.00    -0.202 C  
HETATM   29  O   UNL     1      -5.145  20.105  70.740  1.00  0.00    -0.206 OA 
HETATM   30  C   UNL     1      -5.193  18.898  70.951  1.00  0.00    -0.263 C  
HETATM   31  O   UNL     1      -5.171  18.419  72.204  1.00  0.00    -0.694 OA 
ENDBRANCH  27  28
ENDBRANCH  24  27
ENDBRANCH   1  23
TORSDOF 9
ENDMDL
MODEL      213
REMARK 921   NORMALIZED FREE ENERGY PREDICTED BY IDOCK:   -3.81 KCAL/MOL
REMARK 922        TOTAL FREE ENERGY PREDICTED BY IDOCK:   -7.63 KCAL/MOL
REMARK 923 INTER-LIGAND FREE ENERGY PREDICTED BY IDOCK:   -6.33 KCAL/MOL
REMARK 924 INTRA-LIGAND FREE ENERGY PREDICTED BY IDOCK:   -1.30 KCAL/MOL
REMARK 927      BINDING AFFINITY PREDICTED BY RF-SCORE:    0.00 PKD
ROOT
HETATM    1  C   UNL     1      -9.003   7.143  68.959  1.00  0.00    -0.134 C  
ENDROOT
BRANCH   1   2
HETATM    2  C   UNL     1     -10.175   7.500  68.002  1.00  0.00    -0.239 C  
BRANCH   2   3
HETATM    3  C   UNL     1     -10.249   8.888  67.403  1.00  0.00    -0.313 A  
HETATM    4  C   UNL     1     -10.638  11.367  66.038  1.00  0.00    -0.319 A  
HETATM    5  C   UNL     1     -10.845   9.976  68.038  1.00  0.00    -0.311 A  
HETATM    6  C   UNL     1     -11.069  11.170  67.357  1.00  0.00    -0.370 A  
HETATM    7  C   UNL     1      -9.721   9.095  66.123  1.00  0.00    -0.357 A  
HETATM    8  C   UNL     1      -9.897  10.318  65.460  1.00  0.00    -0.347 A  
BRANCH   4   9
HETATM    9  C   UNL     1     -11.008  12.586  65.291  1.00  0.00    -0.329 A  
HETATM   10  C   UNL     1     -10.493  13.850  65.639  1.00  0.00    -0.320 A  
HETATM   11  C   UNL     1     -10.927  15.019  65.010  1.00  0.00    -0.436 A  
HETATM   12  C   UNL     1     -11.869  14.950  63.990  1.00  0.00    -0.056 A  
HETATM   13  C   UNL     1     -12.381  13.715  63.604  1.00  0.00    -0.328 A  
HETATM   14  C   UNL     1     -11.957  12.548  64.253  1.00  0.00    -0.484 A  
ENDBRANCH   4   9
ENDBRANCH   2   3
ENDBRANCH   1   2
BRANCH   1  15
HETATM   15  C   UNL     1      -8.112   5.958  68.512  1.00  0.00    -0.106 C  
HETATM   16  C   UNL     1      -6.884   4.714  66.751  1.00  0.00    -0.055 C  
HETATM   17  C   UNL     1      -6.624   7.177  66.852  1.00  0.00    -0.055 C  
HETATM   18  C   UNL     1      -7.589   6.020  67.077  1.00  0.00    -0.096 C  
HETATM   19  O   UNL     1      -5.700   4.491  66.959  1.00  0.00    -0.020 OA 
BRANCH  16  20
HETATM   20  O   UNL     1      -7.755   3.856  66.151  1.00  0.00    -0.087 OA 
BRANCH  20  21
HETATM   21  C   UNL     1      -7.145   2.776  65.430  1.00  0.00    -0.057 C  
HETATM   22  C   UNL     1      -8.077   1.580  65.520  1.00  0.00    -0.075 C  
ENDBRANCH  20  21
ENDBRANCH  16  20
ENDBRANCH   1  15
BRANCH   1  23
HETATM   23  N   UNL     1      -9.458   6.906  70.332  1.00  0.00    -0.169 N  
HETATM   24  C   UNL     1     -10.474   6.040  70.636  1.00  0.00    -0.246 C  
HETATM   25  H   UNL     1      -9.000   7.408  71.093  1.00  0.00     0.000 HD 
HETATM   26  O   UNL     1     -11.140   5.413  69.813  1.00  0.00    -0.152 OA 
BRANCH  24  27
HETATM   27  C   UNL     1     -10.861   5.994  72.090  1.00  0.00    -0.297 C  
BRANCH  27  28
HETATM   28  C   UNL     1     -10.330   4.713  72.701  1.00  0.00    -0.253 C  
HETATM   29  O   UNL     1      -8.481   3.727  73.841  1.00  0.00    -0.089 OA 
HETATM   30  C   UNL     1      -8.913   4.704  73.238  1.00  0.00    -0.112 C  
HETATM   31  O   UNL     1      -8.142   5.783  73.036  1.00  0.00    -0.116 OA 
ENDBRANCH  27  28
ENDBRANCH  24  27
ENDBRANCH   1  23
TORSDOF 9
ENDMDL
MODEL      214
REMARK 921   NORMALIZED FREE ENERGY PREDICTED BY IDOCK:   -3.77 KCAL/MOL
REMARK 922        TOTAL FREE ENERGY PREDICTED BY IDOCK:   -7.57 KCAL/MOL
REMARK 923 INTER-LIGAND FREE ENERGY PREDICTED BY IDOCK:   -6.41 KCAL/MOL
REMARK 924 INTRA-LIGAND FREE ENERGY PREDICTED BY IDOCK:   -1.16 KCAL/MOL
REMARK 927      BINDING AFFINITY PREDICTED BY RF-SCORE:    0.00 PKD
ROOT
HETATM    1  C   UNL     1      -9.629  12.996  67.388  1.00  0.00    -0.211 C  
ENDROOT
BRANCH   1   2
HETATM    2  C   UNL     1      -8.296  12.328  67.828  1.00  0.00    -0.162 C  
BRANCH   2   3
HETATM    3  C   UNL     1      -8.278  10.851  68.158  1.00  0.00    -0.121 A  
HETATM    4  C   UNL     1      -8.607   8.098  68.844  1.00  0.00    -0.130 A  
HETATM    5  C   UNL     1      -8.117   9.845  67.206  1.00  0.00    -0.113 A  
HETATM    6  C   UNL     1      -8.317   8.507  67.535  1.00  0.00    -0.128 A  
HETATM    7  C   UNL     1      -8.468  10.459  69.488  1.00  0.00    -0.115 A  
HETATM    8  C   UNL     1      -8.611   9.107  69.827  1.00  0.00    -0.144 A  
BRANCH   4   9
HETATM    9  C   UNL     1      -8.952   6.693  69.142  1.00  0.00    -0.131 A  
HETATM   10  C   UNL     1      -8.440   5.628  68.375  1.00  0.00    -0.105 A  
HETATM   11  C   UNL     1      -8.852   4.310  68.582  1.00  0.00    -0.136 A  
HETATM   12  C   UNL     1      -9.768   4.017  69.586  1.00  0.00    -0.245 A  
HETATM   13  C   UNL     1     -10.275   5.042  70.378  1.00  0.00    -0.324 A  
HETATM   14  C   UNL     1      -9.874   6.365  70.153  1.00  0.00    -0.191 A  
ENDBRANCH   4   9
ENDBRANCH   2   3
ENDBRANCH   1   2
BRANCH   1  15
HETATM   15  C   UNL     1      -9.485  14.317  66.593  1.00  0.00    -0.302 C  
HETATM   16  C   UNL     1      -9.962  16.734  66.302  1.00  0.00    -0.320 C  
HETATM   17  C   UNL     1      -9.255  15.935  68.539  1.00  0.00    -0.200 C  
HETATM   18  C   UNL     1     -10.028  15.572  67.277  1.00  0.00    -0.238 C  
HETATM   19  O   UNL     1      -8.998  17.473  66.162  1.00  0.00    -0.447 OA 
BRANCH  16  20
HETATM   20  O   UNL     1     -11.151  16.856  65.648  1.00  0.00    -0.042 OA 
BRANCH  20  21
HETATM   21  C   UNL     1     -11.217  16.194  64.377  1.00  0.00    -0.171 C  
HETATM   22  C   UNL     1     -12.185  15.032  64.513  1.00  0.00    -0.344 C  
ENDBRANCH  20  21
ENDBRANCH  16  20
ENDBRANCH   1  15
BRANCH   1  23
HETATM   23  N   UNL     1     -10.540  13.215  68.516  1.00  0.00    -0.256 N  
HETATM   24  C   UNL     1     -11.693  12.496  68.686  1.00  0.00    -0.325 C  
HETATM   25  H   UNL     1     -10.306  13.933  69.202  1.00  0.00     0.000 HD 
HETATM   26  O   UNL     1     -12.116  11.641  67.910  1.00  0.00    -0.613 OA 
BRANCH  24  27
HETATM   27  C   UNL     1     -12.545  12.922  69.852  1.00  0.00     0.129 C  
BRANCH  27  28
HETATM   28  C   UNL     1     -11.668  13.618  70.874  1.00  0.00     0.103 C  
HETATM   29  O   UNL     1     -11.646  15.210  72.650  1.00  0.00    -0.412 OA 
HETATM   30  C   UNL     1     -12.285  14.701  71.736  1.00  0.00    -0.338 C  
HETATM   31  O   UNL     1     -13.542  15.091  71.476  1.00  0.00    -0.382 OA 
ENDBRANCH  27  28
ENDBRANCH  24  27
ENDBRANCH   1  23
TORSDOF 9
ENDMDL
MODEL      215
REMARK 921   NORMALIZED FREE ENERGY PREDICTED BY IDOCK:   -3.75 KCAL/MOL
REMARK 922        TOTAL FREE ENERGY PREDICTED BY IDOCK:   -7.54 KCAL/MOL
REMARK 923 INTER-LIGAND FREE ENERGY PREDICTED BY IDOCK:   -5.45 KCAL/MOL
REMARK 924 INTRA-LIGAND FREE ENERGY PREDICTED BY IDOCK:   -2.09 KCAL/MOL
REMARK 927      BINDING AFFINITY PREDICTED BY RF-SCORE:    0.00 PKD
ROOT
HETATM    1  C   UNL     1      -7.440   7.906  68.396  1.00  0.00    -0.100 C  
ENDROOT
BRANCH   1   2
HETATM    2  C   UNL     1      -6.515   9.024  67.836  1.00  0.00    -0.057 C  
BRANCH   2   3
HETATM    3  C   UNL     1      -7.036  10.441  67.741  1.00  0.00    -0.083 A  
HETATM    4  C   UNL     1      -8.351  12.974  67.641  1.00  0.00    -0.181 A  
HETATM    5  C   UNL     1      -6.767  11.432  68.683  1.00  0.00    -0.070 A  
HETATM    6  C   UNL     1      -7.439  12.651  68.654  1.00  0.00    -0.094 A  
HETATM    7  C   UNL     1      -7.865  10.779  66.665  1.00  0.00    -0.140 A  
HETATM    8  C   UNL     1      -8.497  12.029  66.607  1.00  0.00    -0.117 A  
BRANCH   4   9
HETATM    9  C   UNL     1      -9.154  14.213  67.707  1.00  0.00    -0.190 A  
HETATM   10  C   UNL     1      -9.118  15.057  68.835  1.00  0.00    -0.202 A  
HETATM   11  C   UNL     1      -9.959  16.166  68.949  1.00  0.00    -0.233 A  
HETATM   12  C   UNL     1     -10.840  16.479  67.920  1.00  0.00    -0.326 A  
HETATM   13  C   UNL     1     -10.883  15.681  66.781  1.00  0.00    -0.277 A  
HETATM   14  C   UNL     1     -10.052  14.558  66.681  1.00  0.00    -0.275 A  
ENDBRANCH   4   9
ENDBRANCH   2   3
ENDBRANCH   1   2
BRANCH   1  15
HETATM   15  C   UNL     1      -7.417   6.567  67.618  1.00  0.00    -0.097 C  
HETATM   16  C   UNL     1      -8.311   5.073  65.851  1.00  0.00    -0.116 C  
HETATM   17  C   UNL     1      -7.900   7.450  65.284  1.00  0.00    -0.121 C  
HETATM   18  C   UNL     1      -8.325   6.492  66.390  1.00  0.00    -0.120 C  
HETATM   19  O   UNL     1      -7.509   4.645  65.033  1.00  0.00    -0.074 OA 
BRANCH  16  20
HETATM   20  O   UNL     1      -9.351   4.368  66.378  1.00  0.00    -0.135 OA 
BRANCH  20  21
HETATM   21  C   UNL     1     -10.635   4.663  65.810  1.00  0.00    -0.223 C  
HETATM   22  C   UNL     1     -10.717   3.958  64.468  1.00  0.00    -0.172 C  
ENDBRANCH  20  21
ENDBRANCH  16  20
ENDBRANCH   1  15
BRANCH   1  23
HETATM   23  N   UNL     1      -8.829   8.352  68.538  1.00  0.00    -0.136 N  
HETATM   24  C   UNL     1      -9.309   8.924  69.685  1.00  0.00    -0.163 C  
HETATM   25  H   UNL     1      -9.464   8.231  67.749  1.00  0.00     0.000 HD 
HETATM   26  O   UNL     1      -8.665   9.081  70.721  1.00  0.00    -0.186 OA 
BRANCH  24  27
HETATM   27  C   UNL     1     -10.782   9.236  69.675  1.00  0.00    -0.244 C  
BRANCH  27  28
HETATM   28  C   UNL     1     -11.000  10.558  68.964  1.00  0.00    -0.289 C  
HETATM   29  O   UNL     1     -11.891  12.759  69.190  1.00  0.00    -0.298 OA 
HETATM   30  C   UNL     1     -11.787  11.638  69.677  1.00  0.00    -0.352 C  
HETATM   31  O   UNL     1     -12.368  11.343  70.850  1.00  0.00    -0.379 OA 
ENDBRANCH  27  28
ENDBRANCH  24  27
ENDBRANCH   1  23
TORSDOF 9
ENDMDL
MODEL      216
REMARK 921   NORMALIZED FREE ENERGY PREDICTED BY IDOCK:   -3.74 KCAL/MOL
REMARK 922        TOTAL FREE ENERGY PREDICTED BY IDOCK:   -7.53 KCAL/MOL
REMARK 923 INTER-LIGAND FREE ENERGY PREDICTED BY IDOCK:   -5.85 KCAL/MOL
REMARK 924 INTRA-LIGAND FREE ENERGY PREDICTED BY IDOCK:   -1.68 KCAL/MOL
REMARK 927      BINDING AFFINITY PREDICTED BY RF-SCORE:    0.00 PKD
ROOT
HETATM    1  C   UNL     1      -9.740  11.819  65.641  1.00  0.00    -0.233 C  
ENDROOT
BRANCH   1   2
HETATM    2  C   UNL     1     -10.425  10.461  65.319  1.00  0.00    -0.178 C  
BRANCH   2   3
HETATM    3  C   UNL     1      -9.829   9.180  65.860  1.00  0.00    -0.305 A  
HETATM    4  C   UNL     1      -8.986   6.589  66.716  1.00  0.00    -0.136 A  
HETATM    5  C   UNL     1      -8.652   8.607  65.379  1.00  0.00    -0.206 A  
HETATM    6  C   UNL     1      -8.265   7.327  65.769  1.00  0.00    -0.135 A  
HETATM    7  C   UNL     1     -10.508   8.503  66.880  1.00  0.00    -0.345 A  
HETATM    8  C   UNL     1     -10.084   7.239  67.313  1.00  0.00    -0.291 A  
BRANCH   4   9
HETATM    9  C   UNL     1      -8.637   5.183  67.010  1.00  0.00    -0.105 A  
HETATM   10  C   UNL     1      -9.303   4.450  68.011  1.00  0.00    -0.191 A  
HETATM   11  C   UNL     1      -8.900   3.161  68.368  1.00  0.00    -0.165 A  
HETATM   12  C   UNL     1      -7.836   2.558  67.709  1.00  0.00    -0.060 A  
HETATM   13  C   UNL     1      -7.172   3.245  66.697  1.00  0.00    -0.066 A  
HETATM   14  C   UNL     1      -7.566   4.545  66.357  1.00  0.00    -0.090 A  
ENDBRANCH   4   9
ENDBRANCH   2   3
ENDBRANCH   1   2
BRANCH   1  15
HETATM   15  C   UNL     1      -8.504  11.740  66.571  1.00  0.00    -0.125 C  
HETATM   16  C   UNL     1      -7.334  12.337  68.675  1.00  0.00    -0.106 C  
HETATM   17  C   UNL     1      -9.694  11.592  68.811  1.00  0.00    -0.137 C  
HETATM   18  C   UNL     1      -8.676  12.345  67.964  1.00  0.00    -0.186 C  
HETATM   19  O   UNL     1      -6.908  11.411  69.351  1.00  0.00    -0.109 OA 
BRANCH  16  20
HETATM   20  O   UNL     1      -6.704  13.530  68.487  1.00  0.00    -0.080 OA 
BRANCH  20  21
HETATM   21  C   UNL     1      -7.017  14.542  69.454  1.00  0.00    -0.151 C  
HETATM   22  C   UNL     1      -7.490  15.770  68.697  1.00  0.00    -0.151 C  
ENDBRANCH  20  21
ENDBRANCH  16  20
ENDBRANCH   1  15
BRANCH   1  23
HETATM   23  N   UNL     1     -10.682  12.803  66.182  1.00  0.00    -0.271 N  
HETATM   24  C   UNL     1     -10.869  14.036  65.619  1.00  0.00    -0.295 C  
HETATM   25  H   UNL     1     -11.220  12.559  67.014  1.00  0.00     0.000 HD 
HETATM   26  O   UNL     1     -10.251  14.473  64.649  1.00  0.00    -0.327 OA 
BRANCH  24  27
HETATM   27  C   UNL     1     -11.811  14.943  66.365  1.00  0.00    -0.137 C  
BRANCH  27  28
HETATM   28  C   UNL     1     -12.083  14.352  67.734  1.00  0.00    -0.304 C  
HETATM   29  O   UNL     1     -12.181  14.830  70.069  1.00  0.00    -0.310 OA 
HETATM   30  C   UNL     1     -11.867  15.227  68.952  1.00  0.00    -0.320 C  
HETATM   31  O   UNL     1     -11.324  16.442  68.783  1.00  0.00    -0.336 OA 
ENDBRANCH  27  28
ENDBRANCH  24  27
ENDBRANCH   1  23
TORSDOF 9
ENDMDL
MODEL      217
REMARK 921   NORMALIZED FREE ENERGY PREDICTED BY IDOCK:   -3.73 KCAL/MOL
REMARK 922        TOTAL FREE ENERGY PREDICTED BY IDOCK:   -7.51 KCAL/MOL
REMARK 923 INTER-LIGAND FREE ENERGY PREDICTED BY IDOCK:   -6.27 KCAL/MOL
REMARK 924 INTRA-LIGAND FREE ENERGY PREDICTED BY IDOCK:   -1.23 KCAL/MOL
REMARK 927      BINDING AFFINITY PREDICTED BY RF-SCORE:    0.00 PKD
ROOT
HETATM    1  C   UNL     1      -9.640  11.417  68.026  1.00  0.00    -0.183 C  
ENDROOT
BRANCH   1   2
HETATM    2  C   UNL     1     -10.813  10.451  68.353  1.00  0.00    -0.289 C  
BRANCH   2   3
HETATM    3  C   UNL     1     -10.557   9.235  69.217  1.00  0.00    -0.234 A  
HETATM    4  C   UNL     1     -10.437   6.880  70.828  1.00  0.00    -0.238 A  
HETATM    5  C   UNL     1      -9.913   8.084  68.767  1.00  0.00    -0.196 A  
HETATM    6  C   UNL     1      -9.891   6.925  69.538  1.00  0.00    -0.163 A  
HETATM    7  C   UNL     1     -11.019   9.243  70.539  1.00  0.00    -0.318 A  
HETATM    8  C   UNL     1     -10.944   8.092  71.335  1.00  0.00    -0.282 A  
BRANCH   4   9
HETATM    9  C   UNL     1     -10.527   5.606  71.571  1.00  0.00    -0.298 A  
HETATM   10  C   UNL     1     -11.051   5.547  72.877  1.00  0.00    -0.349 A  
HETATM   11  C   UNL     1     -11.033   4.367  73.624  1.00  0.00    -0.374 A  
HETATM   12  C   UNL     1     -10.515   3.202  73.070  1.00  0.00    -0.252 A  
HETATM   13  C   UNL     1     -10.012   3.219  71.772  1.00  0.00    -0.192 A  
HETATM   14  C   UNL     1     -10.014   4.410  71.036  1.00  0.00    -0.242 A  
ENDBRANCH   4   9
ENDBRANCH   2   3
ENDBRANCH   1   2
BRANCH   1  15
HETATM   15  C   UNL     1      -9.074  11.320  66.588  1.00  0.00    -0.187 C  
HETATM   16  C   UNL     1      -9.214  10.483  64.257  1.00  0.00    -0.245 C  
HETATM   17  C   UNL     1     -11.256  11.435  65.290  1.00  0.00    -0.144 C  
HETATM   18  C   UNL     1      -9.981  10.646  65.558  1.00  0.00    -0.333 C  
HETATM   19  O   UNL     1      -9.165  11.320  63.367  1.00  0.00    -0.222 OA 
BRANCH  16  20
HETATM   20  O   UNL     1      -8.635   9.250  64.213  1.00  0.00    -0.185 OA 
BRANCH  20  21
HETATM   21  C   UNL     1      -7.775   9.022  63.088  1.00  0.00    -0.115 C  
HETATM   22  C   UNL     1      -6.343   9.037  63.594  1.00  0.00    -0.089 C  
ENDBRANCH  20  21
ENDBRANCH  16  20
ENDBRANCH   1  15
BRANCH   1  23
HETATM   23  N   UNL     1      -8.535  11.295  68.982  1.00  0.00    -0.362 N  
HETATM   24  C   UNL     1      -7.401  10.576  68.716  1.00  0.00    -0.092 C  
HETATM   25  H   UNL     1      -8.615  11.766  69.884  1.00  0.00     0.000 HD 
HETATM   26  O   UNL     1      -7.201   9.924  67.692  1.00  0.00    -0.087 OA 
BRANCH  24  27
HETATM   27  C   UNL     1      -6.416  10.493  69.851  1.00  0.00    -0.116 C  
BRANCH  27  28
HETATM   28  C   UNL     1      -6.087   9.036  70.112  1.00  0.00    -0.037 C  
HETATM   29  O   UNL     1      -6.707   7.100  71.360  1.00  0.00    -0.050 OA 
HETATM   30  C   UNL     1      -6.859   8.305  71.191  1.00  0.00    -0.052 C  
HETATM   31  O   UNL     1      -7.709   9.003  71.960  1.00  0.00    -0.348 OA 
ENDBRANCH  27  28
ENDBRANCH  24  27
ENDBRANCH   1  23
TORSDOF 9
ENDMDL
MODEL      218
REMARK 921   NORMALIZED FREE ENERGY PREDICTED BY IDOCK:   -3.66 KCAL/MOL
REMARK 922        TOTAL FREE ENERGY PREDICTED BY IDOCK:   -7.40 KCAL/MOL
REMARK 923 INTER-LIGAND FREE ENERGY PREDICTED BY IDOCK:   -5.68 KCAL/MOL
REMARK 924 INTRA-LIGAND FREE ENERGY PREDICTED BY IDOCK:   -1.72 KCAL/MOL
REMARK 927      BINDING AFFINITY PREDICTED BY RF-SCORE:    0.00 PKD
ROOT
HETATM    1  C   UNL     1      -7.754  10.800  68.672  1.00  0.00    -0.114 C  
ENDROOT
BRANCH   1   2
HETATM    2  C   UNL     1      -7.333   9.952  69.906  1.00  0.00    -0.147 C  
BRANCH   2   3
HETATM    3  C   UNL     1      -8.199   8.791  70.341  1.00  0.00    -0.127 A  
HETATM    4  C   UNL     1      -9.524   6.448  71.297  1.00  0.00    -0.175 A  
HETATM    5  C   UNL     1      -9.116   8.857  71.388  1.00  0.00    -0.318 A  
HETATM    6  C   UNL     1      -9.731   7.707  71.878  1.00  0.00    -0.203 A  
HETATM    7  C   UNL     1      -8.056   7.564  69.683  1.00  0.00    -0.127 A  
HETATM    8  C   UNL     1      -8.720   6.418  70.142  1.00  0.00    -0.139 A  
BRANCH   4   9
HETATM    9  C   UNL     1     -10.075   5.226  71.918  1.00  0.00    -0.252 A  
HETATM   10  C   UNL     1     -10.918   5.285  73.045  1.00  0.00    -0.354 A  
HETATM   11  C   UNL     1     -11.349   4.130  73.702  1.00  0.00    -0.270 A  
HETATM   12  C   UNL     1     -10.969   2.879  73.228  1.00  0.00    -0.264 A  
HETATM   13  C   UNL     1     -10.157   2.784  72.102  1.00  0.00    -0.210 A  
HETATM   14  C   UNL     1      -9.712   3.946  71.460  1.00  0.00    -0.247 A  
ENDBRANCH   4   9
ENDBRANCH   2   3
ENDBRANCH   1   2
BRANCH   1  15
HETATM   15  C   UNL     1      -8.862  11.851  68.931  1.00  0.00     0.165 C  
HETATM   16  C   UNL     1     -11.082  12.830  68.418  1.00  0.00    -0.262 C  
HETATM   17  C   UNL     1     -10.903  10.367  68.634  1.00  0.00    -0.270 C  
HETATM   18  C   UNL     1     -10.179  11.631  68.187  1.00  0.00    -0.206 C  
HETATM   19  O   UNL     1     -11.863  12.945  69.352  1.00  0.00    -0.303 OA 
BRANCH  16  20
HETATM   20  O   UNL     1     -10.927  13.727  67.404  1.00  0.00    -0.276 OA 
BRANCH  20  21
HETATM   21  C   UNL     1     -10.090  14.851  67.710  1.00  0.00    -0.234 C  
HETATM   22  C   UNL     1     -10.980  15.950  68.264  1.00  0.00    -0.329 C  
ENDBRANCH  20  21
ENDBRANCH  16  20
ENDBRANCH   1  15
BRANCH   1  23
HETATM   23  N   UNL     1      -8.144   9.967  67.531  1.00  0.00    -0.110 N  
HETATM   24  C   UNL     1      -7.246   9.523  66.598  1.00  0.00    -0.086 C  
HETATM   25  H   UNL     1      -9.125   9.708  67.427  1.00  0.00     0.000 HD 
HETATM   26  O   UNL     1      -6.048   9.803  66.579  1.00  0.00    -0.058 OA 
BRANCH  24  27
HETATM   27  C   UNL     1      -7.845   8.754  65.451  1.00  0.00    -0.100 C  
BRANCH  27  28
HETATM   28  C   UNL     1      -9.224   8.268  65.850  1.00  0.00    -0.185 C  
HETATM   29  O   UNL     1     -10.445   6.437  66.771  1.00  0.00    -0.229 OA 
HETATM   30  C   UNL     1      -9.373   6.839  66.332  1.00  0.00    -0.136 C  
HETATM   31  O   UNL     1      -8.310   6.023  66.264  1.00  0.00    -0.114 OA 
ENDBRANCH  27  28
ENDBRANCH  24  27
ENDBRANCH   1  23
TORSDOF 9
ENDMDL
MODEL      219
REMARK 921   NORMALIZED FREE ENERGY PREDICTED BY IDOCK:   -3.64 KCAL/MOL
REMARK 922        TOTAL FREE ENERGY PREDICTED BY IDOCK:   -7.38 KCAL/MOL
REMARK 923 INTER-LIGAND FREE ENERGY PREDICTED BY IDOCK:   -6.45 KCAL/MOL
REMARK 924 INTRA-LIGAND FREE ENERGY PREDICTED BY IDOCK:   -0.94 KCAL/MOL
REMARK 927      BINDING AFFINITY PREDICTED BY RF-SCORE:    0.00 PKD
ROOT
HETATM    1  C   UNL     1     -10.637   8.979  69.866  1.00  0.00    -0.228 C  
ENDROOT
BRANCH   1   2
HETATM    2  C   UNL     1     -11.186   7.567  70.214  1.00  0.00    -0.253 C  
BRANCH   2   3
HETATM    3  C   UNL     1     -10.762   6.377  69.380  1.00  0.00    -0.347 A  
HETATM    4  C   UNL     1      -9.734   4.367  67.630  1.00  0.00    -0.198 A  
HETATM    5  C   UNL     1      -9.982   5.329  69.864  1.00  0.00    -0.309 A  
HETATM    6  C   UNL     1      -9.449   4.373  69.003  1.00  0.00    -0.237 A  
HETATM    7  C   UNL     1     -11.141   6.334  68.033  1.00  0.00    -0.365 A  
HETATM    8  C   UNL     1     -10.651   5.337  67.178  1.00  0.00    -0.227 A  
BRANCH   4   9
HETATM    9  C   UNL     1      -9.050   3.430  66.716  1.00  0.00    -0.183 A  
HETATM   10  C   UNL     1      -9.718   2.842  65.624  1.00  0.00     0.192 A  
HETATM   11  C   UNL     1      -9.108   1.871  64.827  1.00  0.00    -0.129 A  
HETATM   12  C   UNL     1      -7.799   1.483  65.083  1.00  0.00    -0.071 A  
HETATM   13  C   UNL     1      -7.101   2.062  66.139  1.00  0.00    -0.051 A  
HETATM   14  C   UNL     1      -7.724   3.020  66.948  1.00  0.00    -0.075 A  
ENDBRANCH   4   9
ENDBRANCH   2   3
ENDBRANCH   1   2
BRANCH   1  15
HETATM   15  C   UNL     1     -11.149  10.135  70.760  1.00  0.00    -0.372 C  
HETATM   16  C   UNL     1     -12.813  11.900  71.275  1.00  0.00    -0.290 C  
HETATM   17  C   UNL     1     -13.641   9.647  70.658  1.00  0.00     0.162 C  
HETATM   18  C   UNL     1     -12.540  10.673  70.423  1.00  0.00    -0.395 C  
HETATM   19  O   UNL     1     -13.314  11.877  72.391  1.00  0.00    -0.370 OA 
BRANCH  16  20
HETATM   20  O   UNL     1     -12.465  13.025  70.591  1.00  0.00    -0.331 OA 
BRANCH  20  21
HETATM   21  C   UNL     1     -13.056  14.239  71.075  1.00  0.00    -0.328 C  
HETATM   22  C   UNL     1     -11.973  15.304  71.089  1.00  0.00    -0.400 C  
ENDBRANCH  20  21
ENDBRANCH  16  20
ENDBRANCH   1  15
BRANCH   1  23
HETATM   23  N   UNL     1     -10.855   9.330  68.460  1.00  0.00    -0.426 N  
HETATM   24  C   UNL     1      -9.838   9.713  67.626  1.00  0.00    -0.164 C  
HETATM   25  H   UNL     1     -11.803   9.288  68.087  1.00  0.00     0.000 HD 
HETATM   26  O   UNL     1      -8.663   9.852  67.960  1.00  0.00    -0.124 OA 
BRANCH  24  27
HETATM   27  C   UNL     1     -10.267  10.120  66.242  1.00  0.00    -0.288 C  
BRANCH  27  28
HETATM   28  C   UNL     1      -9.062  10.649  65.488  1.00  0.00    -0.214 C  
HETATM   29  O   UNL     1      -7.378  10.101  63.891  1.00  0.00    -0.136 OA 
HETATM   30  C   UNL     1      -8.288   9.693  64.604  1.00  0.00    -0.158 C  
HETATM   31  O   UNL     1      -8.617   8.392  64.621  1.00  0.00    -0.131 OA 
ENDBRANCH  27  28
ENDBRANCH  24  27
ENDBRANCH   1  23
TORSDOF 9
ENDMDL
MODEL      220
REMARK 921   NORMALIZED FREE ENERGY PREDICTED BY IDOCK:   -3.64 KCAL/MOL
REMARK 922        TOTAL FREE ENERGY PREDICTED BY IDOCK:   -7.38 KCAL/MOL
REMARK 923 INTER-LIGAND FREE ENERGY PREDICTED BY IDOCK:   -5.93 KCAL/MOL
REMARK 924 INTRA-LIGAND FREE ENERGY PREDICTED BY IDOCK:   -1.45 KCAL/MOL
REMARK 927      BINDING AFFINITY PREDICTED BY RF-SCORE:    0.00 PKD
ROOT
HETATM    1  C   UNL     1     -10.114   9.161  66.881  1.00  0.00    -0.258 C  
ENDROOT
BRANCH   1   2
HETATM    2  C   UNL     1      -9.218   9.495  68.107  1.00  0.00    -0.134 C  
BRANCH   2   3
HETATM    3  C   UNL     1      -9.338   8.663  69.365  1.00  0.00    -0.150 A  
HETATM    4  C   UNL     1      -9.679   6.818  71.518  1.00  0.00    -0.168 A  
HETATM    5  C   UNL     1      -8.246   8.188  70.088  1.00  0.00    -0.119 A  
HETATM    6  C   UNL     1      -8.412   7.258  71.112  1.00  0.00    -0.116 A  
HETATM    7  C   UNL     1     -10.616   8.315  69.819  1.00  0.00    -0.228 A  
HETATM    8  C   UNL     1     -10.783   7.423  70.887  1.00  0.00    -0.248 A  
BRANCH   4   9
HETATM    9  C   UNL     1      -9.824   5.731  72.508  1.00  0.00    -0.182 A  
HETATM   10  C   UNL     1      -8.710   5.192  73.182  1.00  0.00    -0.116 A  
HETATM   11  C   UNL     1      -8.829   4.090  74.032  1.00  0.00    -0.092 A  
HETATM   12  C   UNL     1     -10.074   3.515  74.254  1.00  0.00    -0.202 A  
HETATM   13  C   UNL     1     -11.199   4.037  73.623  1.00  0.00    -0.305 A  
HETATM   14  C   UNL     1     -11.071   5.129  72.756  1.00  0.00    -0.330 A  
ENDBRANCH   4   9
ENDBRANCH   2   3
ENDBRANCH   1   2
BRANCH   1  15
HETATM   15  C   UNL     1      -9.622   7.993  65.991  1.00  0.00    -0.072 C  
HETATM   16  C   UNL     1      -8.787   5.672  65.728  1.00  0.00    -0.153 C  
HETATM   17  C   UNL     1     -10.738   6.062  67.207  1.00  0.00    -0.400 C  
HETATM   18  C   UNL     1      -9.429   6.651  66.696  1.00  0.00    -0.201 C  
HETATM   19  O   UNL     1      -9.402   4.950  64.957  1.00  0.00    -0.146 OA 
BRANCH  16  20
HETATM   20  O   UNL     1      -7.434   5.687  65.885  1.00  0.00    -0.076 OA 
BRANCH  20  21
HETATM   21  C   UNL     1      -6.946   4.962  67.023  1.00  0.00    -0.061 C  
HETATM   22  C   UNL     1      -5.661   5.632  67.478  1.00  0.00    -0.013 C  
ENDBRANCH  20  21
ENDBRANCH  16  20
ENDBRANCH   1  15
BRANCH   1  23
HETATM   23  N   UNL     1     -10.362  10.333  66.037  1.00  0.00    -0.214 N  
HETATM   24  C   UNL     1      -9.362  10.995  65.377  1.00  0.00    -0.216 C  
HETATM   25  H   UNL     1     -11.320  10.670  65.937  1.00  0.00     0.000 HD 
HETATM   26  O   UNL     1      -8.164  10.724  65.451  1.00  0.00    -0.151 OA 
BRANCH  24  27
HETATM   27  C   UNL     1      -9.796  12.228  64.630  1.00  0.00    -0.126 C  
BRANCH  27  28
HETATM   28  C   UNL     1     -11.145  11.965  63.988  1.00  0.00    -0.459 C  
HETATM   29  O   UNL     1     -13.130  12.992  63.156  1.00  0.00    -0.118 OA 
HETATM   30  C   UNL     1     -12.080  13.137  63.773  1.00  0.00    -0.495 C  
HETATM   31  O   UNL     1     -11.738  14.334  64.272  1.00  0.00    -0.385 OA 
ENDBRANCH  27  28
ENDBRANCH  24  27
ENDBRANCH   1  23
TORSDOF 9
ENDMDL
MODEL      221
REMARK 921   NORMALIZED FREE ENERGY PREDICTED BY IDOCK:   -3.63 KCAL/MOL
REMARK 922        TOTAL FREE ENERGY PREDICTED BY IDOCK:   -7.35 KCAL/MOL
REMARK 923 INTER-LIGAND FREE ENERGY PREDICTED BY IDOCK:   -5.48 KCAL/MOL
REMARK 924 INTRA-LIGAND FREE ENERGY PREDICTED BY IDOCK:   -1.87 KCAL/MOL
REMARK 927      BINDING AFFINITY PREDICTED BY RF-SCORE:    0.00 PKD
ROOT
HETATM    1  C   UNL     1      -7.928  11.213  66.582  1.00  0.00    -0.159 C  
ENDROOT
BRANCH   1   2
HETATM    2  C   UNL     1      -7.180  10.945  67.918  1.00  0.00    -0.086 C  
BRANCH   2   3
HETATM    3  C   UNL     1      -7.702   9.886  68.864  1.00  0.00    -0.085 A  
HETATM    4  C   UNL     1      -9.018   7.942  70.491  1.00  0.00    -0.145 A  
HETATM    5  C   UNL     1      -7.411   8.528  68.744  1.00  0.00    -0.092 A  
HETATM    6  C   UNL     1      -8.084   7.579  69.511  1.00  0.00    -0.128 A  
HETATM    7  C   UNL     1      -8.556  10.276  69.903  1.00  0.00     0.004 A  
HETATM    8  C   UNL     1      -9.188   9.322  70.713  1.00  0.00    -0.316 A  
BRANCH   4   9
HETATM    9  C   UNL     1      -9.818   6.917  71.193  1.00  0.00    -0.184 A  
HETATM   10  C   UNL     1     -11.213   7.044  71.343  1.00  0.00    -0.283 A  
HETATM   11  C   UNL     1     -11.956   6.137  72.102  1.00  0.00    -0.314 A  
HETATM   12  C   UNL     1     -11.324   5.058  72.709  1.00  0.00    -0.271 A  
HETATM   13  C   UNL     1      -9.951   4.889  72.560  1.00  0.00    -0.221 A  
HETATM   14  C   UNL     1      -9.208   5.812  71.815  1.00  0.00    -0.157 A  
ENDBRANCH   4   9
ENDBRANCH   2   3
ENDBRANCH   1   2
BRANCH   1  15
HETATM   15  C   UNL     1      -9.255  12.001  66.704  1.00  0.00    -0.211 C  
HETATM   16  C   UNL     1     -10.612  13.815  67.715  1.00  0.00    -0.246 C  
HETATM   17  C   UNL     1      -8.307  14.344  66.972  1.00  0.00    -0.172 C  
HETATM   18  C   UNL     1      -9.205  13.264  67.564  1.00  0.00    -0.213 C  
HETATM   19  O   UNL     1     -11.138  14.604  66.944  1.00  0.00    -0.316 OA 
BRANCH  16  20
HETATM   20  O   UNL     1     -11.175  13.336  68.860  1.00  0.00    -0.253 OA 
BRANCH  20  21
HETATM   21  C   UNL     1     -11.902  12.108  68.713  1.00  0.00    -0.303 C  
HETATM   22  C   UNL     1     -12.171  11.564  70.105  1.00  0.00    -0.387 C  
ENDBRANCH  20  21
ENDBRANCH  16  20
ENDBRANCH   1  15
BRANCH   1  23
HETATM   23  N   UNL     1      -8.172   9.981  65.825  1.00  0.00    -0.125 N  
HETATM   24  C   UNL     1      -7.290   9.495  64.898  1.00  0.00    -0.111 C  
HETATM   25  H   UNL     1      -9.036   9.466  65.996  1.00  0.00     0.000 HD 
HETATM   26  O   UNL     1      -6.242  10.043  64.563  1.00  0.00    -0.110 OA 
BRANCH  24  27
HETATM   27  C   UNL     1      -7.753   8.267  64.159  1.00  0.00    -0.138 C  
BRANCH  27  28
HETATM   28  C   UNL     1      -8.113   7.192  65.166  1.00  0.00    -0.127 C  
HETATM   29  O   UNL     1      -8.346   4.842  65.495  1.00  0.00    -0.114 OA 
HETATM   30  C   UNL     1      -8.171   5.754  64.694  1.00  0.00    -0.126 C  
HETATM   31  O   UNL     1      -8.031   5.500  63.384  1.00  0.00    -0.090 OA 
ENDBRANCH  27  28
ENDBRANCH  24  27
ENDBRANCH   1  23
TORSDOF 9
ENDMDL
MODEL      222
REMARK 921   NORMALIZED FREE ENERGY PREDICTED BY IDOCK:   -3.57 KCAL/MOL
REMARK 922        TOTAL FREE ENERGY PREDICTED BY IDOCK:   -7.28 KCAL/MOL
REMARK 923 INTER-LIGAND FREE ENERGY PREDICTED BY IDOCK:   -7.01 KCAL/MOL
REMARK 924 INTRA-LIGAND FREE ENERGY PREDICTED BY IDOCK:   -0.26 KCAL/MOL
REMARK 927      BINDING AFFINITY PREDICTED BY RF-SCORE:    0.00 PKD
ROOT
HETATM    1  C   UNL     1      -9.347   8.886  66.366  1.00  0.00    -0.204 C  
ENDROOT
BRANCH   1   2
HETATM    2  C   UNL     1      -8.952   9.815  67.548  1.00  0.00    -0.138 C  
BRANCH   2   3
HETATM    3  C   UNL     1     -10.000  10.708  68.175  1.00  0.00    -0.176 A  
HETATM    4  C   UNL     1     -11.822  12.311  69.682  1.00  0.00    -0.393 A  
HETATM    5  C   UNL     1     -10.005  12.097  68.060  1.00  0.00    -0.203 A  
HETATM    6  C   UNL     1     -10.868  12.878  68.826  1.00  0.00    -0.277 A  
HETATM    7  C   UNL     1     -11.010  10.119  68.945  1.00  0.00    -0.261 A  
HETATM    8  C   UNL     1     -11.915  10.906  69.671  1.00  0.00    -0.414 A  
BRANCH   4   9
HETATM    9  C   UNL     1     -12.629  13.156  70.586  1.00  0.00    -0.286 A  
HETATM   10  C   UNL     1     -12.621  14.561  70.486  1.00  0.00    -0.413 A  
HETATM   11  C   UNL     1     -13.292  15.366  71.409  1.00  0.00    -0.601 A  
HETATM   12  C   UNL     1     -14.016  14.784  72.443  1.00  0.00    -0.575 A  
HETATM   13  C   UNL     1     -14.065  13.397  72.556  1.00  0.00    -0.418 A  
HETATM   14  C   UNL     1     -13.373  12.596  71.640  1.00  0.00    -0.315 A  
ENDBRANCH   4   9
ENDBRANCH   2   3
ENDBRANCH   1   2
BRANCH   1  15
HETATM   15  C   UNL     1      -8.491   7.605  66.207  1.00  0.00    -0.140 C  
HETATM   16  C   UNL     1      -7.579   5.769  64.812  1.00  0.00    -0.086 C  
HETATM   17  C   UNL     1      -7.473   8.082  63.928  1.00  0.00    -0.117 C  
HETATM   18  C   UNL     1      -8.287   7.111  64.775  1.00  0.00     0.014 C  
HETATM   19  O   UNL     1      -6.365   5.621  64.821  1.00  0.00    -0.034 OA 
BRANCH  16  20
HETATM   20  O   UNL     1      -8.496   4.761  64.782  1.00  0.00    -0.128 OA 
BRANCH  20  21
HETATM   21  C   UNL     1      -9.738   5.088  64.145  1.00  0.00     0.530 C  
HETATM   22  C   UNL     1     -10.860   4.618  65.054  1.00  0.00     0.024 C  
ENDBRANCH  20  21
ENDBRANCH  16  20
ENDBRANCH   1  15
BRANCH   1  23
HETATM   23  N   UNL     1      -9.382   9.599  65.086  1.00  0.00    -0.250 N  
HETATM   24  C   UNL     1     -10.410  10.430  64.729  1.00  0.00    -0.151 C  
HETATM   25  H   UNL     1      -8.609   9.470  64.433  1.00  0.00     0.000 HD 
HETATM   26  O   UNL     1     -11.421  10.633  65.399  1.00  0.00     0.532 OA 
BRANCH  24  27
HETATM   27  C   UNL     1     -10.314  11.004  63.341  1.00  0.00    -0.373 C  
BRANCH  27  28
HETATM   28  C   UNL     1     -10.717  12.465  63.383  1.00  0.00    -0.398 C  
HETATM   29  O   UNL     1     -12.569  13.968  63.391  1.00  0.00    -0.845 OA 
HETATM   30  C   UNL     1     -12.186  12.812  63.250  1.00  0.00    -0.410 C  
HETATM   31  O   UNL     1     -13.056  11.830  62.971  1.00  0.00    -0.508 OA 
ENDBRANCH  27  28
ENDBRANCH  24  27
ENDBRANCH   1  23
TORSDOF 9
ENDMDL
MODEL      223
REMARK 921   NORMALIZED FREE ENERGY PREDICTED BY IDOCK:   -3.55 KCAL/MOL
REMARK 922        TOTAL FREE ENERGY PREDICTED BY IDOCK:   -7.24 KCAL/MOL
REMARK 923 INTER-LIGAND FREE ENERGY PREDICTED BY IDOCK:   -7.08 KCAL/MOL
REMARK 924 INTRA-LIGAND FREE ENERGY PREDICTED BY IDOCK:   -0.17 KCAL/MOL
REMARK 927      BINDING AFFINITY PREDICTED BY RF-SCORE:    0.00 PKD
ROOT
HETATM    1  C   UNL     1     -10.765  15.751  69.227  1.00  0.00    -0.246 C  
ENDROOT
BRANCH   1   2
HETATM    2  C   UNL     1     -12.009  14.842  69.022  1.00  0.00    -0.308 C  
BRANCH   2   3
HETATM    3  C   UNL     1     -11.972  13.410  69.511  1.00  0.00    -0.377 A  
HETATM    4  C   UNL     1     -11.543  10.767  70.503  1.00  0.00    -0.425 A  
HETATM    5  C   UNL     1     -12.562  12.980  70.698  1.00  0.00    -0.270 A  
HETATM    6  C   UNL     1     -12.319  11.703  71.199  1.00  0.00    -0.351 A  
HETATM    7  C   UNL     1     -11.277  12.460  68.752  1.00  0.00    -0.318 A  
HETATM    8  C   UNL     1     -11.083  11.158  69.231  1.00  0.00    -0.318 A  
BRANCH   4   9
HETATM    9  C   UNL     1     -11.184   9.472  71.118  1.00  0.00    -0.446 A  
HETATM   10  C   UNL     1     -11.699   9.080  72.369  1.00  0.00    -0.171 A  
HETATM   11  C   UNL     1     -11.275   7.910  73.004  1.00  0.00    -0.346 A  
HETATM   12  C   UNL     1     -10.344   7.083  72.387  1.00  0.00    -0.227 A  
HETATM   13  C   UNL     1      -9.833   7.428  71.139  1.00  0.00    -0.177 A  
HETATM   14  C   UNL     1     -10.246   8.612  70.517  1.00  0.00    -0.229 A  
ENDBRANCH   4   9
ENDBRANCH   2   3
ENDBRANCH   1   2
BRANCH   1  15
HETATM   15  C   UNL     1     -10.959  17.243  68.858  1.00  0.00     0.027 C  
HETATM   16  C   UNL     1     -10.227  19.295  67.672  1.00  0.00    -0.407 C  
HETATM   17  C   UNL     1     -10.236  17.154  66.424  1.00  0.00    -0.331 C  
HETATM   18  C   UNL     1     -10.017  17.795  67.789  1.00  0.00    -0.322 C  
HETATM   19  O   UNL     1     -11.047  19.829  66.939  1.00  0.00    -0.365 OA 
BRANCH  16  20
HETATM   20  O   UNL     1      -9.335  19.949  68.467  1.00  0.00    -0.305 OA 
BRANCH  20  21
HETATM   21  C   UNL     1      -8.248  20.577  67.773  1.00  0.00    -0.120 C  
HETATM   22  C   UNL     1      -8.365  20.206  66.305  1.00  0.00    -0.259 C  
ENDBRANCH  20  21
ENDBRANCH  16  20
ENDBRANCH   1  15
BRANCH   1  23
HETATM   23  N   UNL     1      -9.580  15.239  68.532  1.00  0.00    -0.205 N  
HETATM   24  C   UNL     1      -8.374  15.063  69.157  1.00  0.00    -0.187 C  
HETATM   25  H   UNL     1      -9.656  15.004  67.543  1.00  0.00     0.000 HD 
HETATM   26  O   UNL     1      -8.134  15.353  70.328  1.00  0.00     0.288 OA 
BRANCH  24  27
HETATM   27  C   UNL     1      -7.251  14.611  68.262  1.00  0.00    -0.117 C  
BRANCH  27  28
HETATM   28  C   UNL     1      -6.066  15.538  68.452  1.00  0.00    -0.105 C  
HETATM   29  O   UNL     1      -5.139  17.651  67.851  1.00  0.00    -0.128 OA 
HETATM   30  C   UNL     1      -6.017  16.820  67.647  1.00  0.00    -0.145 C  
HETATM   31  O   UNL     1      -6.952  17.026  66.707  1.00  0.00    -0.185 OA 
ENDBRANCH  27  28
ENDBRANCH  24  27
ENDBRANCH   1  23
TORSDOF 9
ENDMDL
MODEL      224
REMARK 921   NORMALIZED FREE ENERGY PREDICTED BY IDOCK:   -3.55 KCAL/MOL
REMARK 922        TOTAL FREE ENERGY PREDICTED BY IDOCK:   -7.24 KCAL/MOL
REMARK 923 INTER-LIGAND FREE ENERGY PREDICTED BY IDOCK:   -5.39 KCAL/MOL
REMARK 924 INTRA-LIGAND FREE ENERGY PREDICTED BY IDOCK:   -1.85 KCAL/MOL
REMARK 927      BINDING AFFINITY PREDICTED BY RF-SCORE:    0.00 PKD
ROOT
HETATM    1  C   UNL     1     -10.359  10.196  66.164  1.00  0.00    -0.167 C  
ENDROOT
BRANCH   1   2
HETATM    2  C   UNL     1     -11.499  11.246  66.034  1.00  0.00     0.127 C  
BRANCH   2   3
HETATM    3  C   UNL     1     -11.160  12.720  66.065  1.00  0.00    -0.315 A  
HETATM    4  C   UNL     1     -10.248  15.411  66.358  1.00  0.00    -0.296 A  
HETATM    5  C   UNL     1     -10.576  13.405  65.001  1.00  0.00    -0.370 A  
HETATM    6  C   UNL     1     -10.097  14.703  65.158  1.00  0.00    -0.359 A  
HETATM    7  C   UNL     1     -11.411  13.441  67.239  1.00  0.00    -0.348 A  
HETATM    8  C   UNL     1     -10.979  14.768  67.376  1.00  0.00    -0.313 A  
BRANCH   4   9
HETATM    9  C   UNL     1      -9.611  16.730  66.547  1.00  0.00    -0.285 A  
HETATM   10  C   UNL     1     -10.352  17.857  66.952  1.00  0.00    -0.358 A  
HETATM   11  C   UNL     1      -9.776  19.128  67.022  1.00  0.00    -0.389 A  
HETATM   12  C   UNL     1      -8.432  19.300  66.715  1.00  0.00    -0.321 A  
HETATM   13  C   UNL     1      -7.664  18.203  66.335  1.00  0.00    -0.295 A  
HETATM   14  C   UNL     1      -8.251  16.935  66.247  1.00  0.00    -0.344 A  
ENDBRANCH   4   9
ENDBRANCH   2   3
ENDBRANCH   1   2
BRANCH   1  15
HETATM   15  C   UNL     1     -10.764   8.845  66.804  1.00  0.00    -0.098 C  
HETATM   16  C   UNL     1     -10.795   7.284  68.731  1.00  0.00    -0.086 C  
HETATM   17  C   UNL     1     -11.354   9.665  69.135  1.00  0.00     0.029 C  
HETATM   18  C   UNL     1     -10.504   8.712  68.304  1.00  0.00    -0.234 C  
HETATM   19  O   UNL     1     -11.890   6.873  69.089  1.00  0.00     0.155 OA 
BRANCH  16  20
HETATM   20  O   UNL     1      -9.648   6.550  68.702  1.00  0.00    -0.126 OA 
BRANCH  20  21
HETATM   21  C   UNL     1      -9.391   5.777  69.882  1.00  0.00    -0.148 C  
HETATM   22  C   UNL     1      -8.801   6.712  70.924  1.00  0.00    -0.146 C  
ENDBRANCH  20  21
ENDBRANCH  16  20
ENDBRANCH   1  15
BRANCH   1  23
HETATM   23  N   UNL     1      -9.191  10.728  66.871  1.00  0.00    -0.155 N  
HETATM   24  C   UNL     1      -7.950  10.805  66.297  1.00  0.00    -0.160 C  
HETATM   25  H   UNL     1      -9.306  11.055  67.830  1.00  0.00     0.000 HD 
HETATM   26  O   UNL     1      -7.665  10.401  65.171  1.00  0.00    -0.145 OA 
BRANCH  24  27
HETATM   27  C   UNL     1      -6.855  11.297  67.206  1.00  0.00    -0.108 C  
BRANCH  27  28
HETATM   28  C   UNL     1      -6.720  12.798  67.046  1.00  0.00     0.205 C  
HETATM   29  O   UNL     1      -5.575  14.738  67.831  1.00  0.00    -0.148 OA 
HETATM   30  C   UNL     1      -5.803  13.544  67.994  1.00  0.00    -0.130 C  
HETATM   31  O   UNL     1      -5.249  12.872  69.015  1.00  0.00    -0.067 OA 
ENDBRANCH  27  28
ENDBRANCH  24  27
ENDBRANCH   1  23
TORSDOF 9
ENDMDL
MODEL      225
REMARK 921   NORMALIZED FREE ENERGY PREDICTED BY IDOCK:   -3.40 KCAL/MOL
REMARK 922        TOTAL FREE ENERGY PREDICTED BY IDOCK:   -7.02 KCAL/MOL
REMARK 923 INTER-LIGAND FREE ENERGY PREDICTED BY IDOCK:   -5.52 KCAL/MOL
REMARK 924 INTRA-LIGAND FREE ENERGY PREDICTED BY IDOCK:   -1.49 KCAL/MOL
REMARK 927      BINDING AFFINITY PREDICTED BY RF-SCORE:    0.00 PKD
ROOT
HETATM    1  C   UNL     1      -7.347   5.971  68.415  1.00  0.00    -0.085 C  
ENDROOT
BRANCH   1   2
HETATM    2  C   UNL     1      -6.711   6.779  67.249  1.00  0.00    -0.067 C  
BRANCH   2   3
HETATM    3  C   UNL     1      -7.459   7.959  66.668  1.00  0.00    -0.089 A  
HETATM    4  C   UNL     1      -9.180   9.991  65.634  1.00  0.00    -0.234 A  
HETATM    5  C   UNL     1      -7.600   9.185  67.316  1.00  0.00    -0.088 A  
HETATM    6  C   UNL     1      -8.470  10.158  66.830  1.00  0.00    -0.126 A  
HETATM    7  C   UNL     1      -8.080   7.811  65.421  1.00  0.00    -0.131 A  
HETATM    8  C   UNL     1      -8.910   8.816  64.906  1.00  0.00    -0.119 A  
BRANCH   4   9
HETATM    9  C   UNL     1     -10.199  10.973  65.212  1.00  0.00    -0.344 A  
HETATM   10  C   UNL     1     -10.923  11.736  66.149  1.00  0.00    -0.355 A  
HETATM   11  C   UNL     1     -11.965  12.582  65.761  1.00  0.00    -0.482 A  
HETATM   12  C   UNL     1     -12.291  12.710  64.416  1.00  0.00    -0.523 A  
HETATM   13  C   UNL     1     -11.579  11.990  63.461  1.00  0.00    -0.553 A  
HETATM   14  C   UNL     1     -10.549  11.128  63.858  1.00  0.00    -0.431 A  
ENDBRANCH   4   9
ENDBRANCH   2   3
ENDBRANCH   1   2
BRANCH   1  15
HETATM   15  C   UNL     1      -8.359   4.877  67.997  1.00  0.00    -0.099 C  
HETATM   16  C   UNL     1      -9.001   2.950  66.573  1.00  0.00    -0.152 C  
HETATM   17  C   UNL     1      -6.737   2.965  67.581  1.00  0.00    -0.041 C  
HETATM   18  C   UNL     1      -7.845   3.836  67.002  1.00  0.00    -0.084 C  
HETATM   19  O   UNL     1      -9.350   1.930  67.151  1.00  0.00    -0.089 OA 
BRANCH  16  20
HETATM   20  O   UNL     1      -9.555   3.435  65.427  1.00  0.00    -0.158 OA 
BRANCH  20  21
HETATM   21  C   UNL     1      -8.771   3.238  64.242  1.00  0.00    -0.093 C  
HETATM   22  C   UNL     1      -8.745   4.553  63.484  1.00  0.00    -0.132 C  
ENDBRANCH  20  21
ENDBRANCH  16  20
ENDBRANCH   1  15
BRANCH   1  23
HETATM   23  N   UNL     1      -7.969   6.839  69.420  1.00  0.00    -0.113 N  
HETATM   24  C   UNL     1      -7.889   6.591  70.764  1.00  0.00    -0.106 C  
HETATM   25  H   UNL     1      -8.483   7.661  69.104  1.00  0.00     0.000 HD 
HETATM   26  O   UNL     1      -7.345   5.613  71.272  1.00  0.00    -0.080 OA 
BRANCH  24  27
HETATM   27  C   UNL     1      -8.665   7.543  71.635  1.00  0.00    -0.126 C  
BRANCH  27  28
HETATM   28  C   UNL     1      -8.551   8.941  71.061  1.00  0.00    -0.255 C  
HETATM   29  O   UNL     1      -7.023  10.638  70.373  1.00  0.00    -0.276 OA 
HETATM   30  C   UNL     1      -7.174   9.558  70.934  1.00  0.00    -0.044 C  
HETATM   31  O   UNL     1      -6.124   8.901  71.452  1.00  0.00    -0.049 OA 
ENDBRANCH  27  28
ENDBRANCH  24  27
ENDBRANCH   1  23
TORSDOF 9
ENDMDL
MODEL      226
REMARK 921   NORMALIZED FREE ENERGY PREDICTED BY IDOCK:   -3.40 KCAL/MOL
REMARK 922        TOTAL FREE ENERGY PREDICTED BY IDOCK:   -7.01 KCAL/MOL
REMARK 923 INTER-LIGAND FREE ENERGY PREDICTED BY IDOCK:   -6.92 KCAL/MOL
REMARK 924 INTRA-LIGAND FREE ENERGY PREDICTED BY IDOCK:   -0.09 KCAL/MOL
REMARK 927      BINDING AFFINITY PREDICTED BY RF-SCORE:    0.00 PKD
ROOT
HETATM    1  C   UNL     1      -8.810  14.159  66.544  1.00  0.00    -0.041 C  
ENDROOT
BRANCH   1   2
HETATM    2  C   UNL     1      -8.258  13.080  67.519  1.00  0.00    -0.181 C  
BRANCH   2   3
HETATM    3  C   UNL     1      -8.606  11.625  67.293  1.00  0.00    -0.154 A  
HETATM    4  C   UNL     1      -8.917   8.804  66.973  1.00  0.00    -0.151 A  
HETATM    5  C   UNL     1      -9.463  10.896  68.115  1.00  0.00    -0.167 A  
HETATM    6  C   UNL     1      -9.582   9.514  67.982  1.00  0.00    -0.155 A  
HETATM    7  C   UNL     1      -8.012  10.953  66.218  1.00  0.00    -0.161 A  
HETATM    8  C   UNL     1      -8.180   9.571  66.051  1.00  0.00    -0.115 A  
BRANCH   4   9
HETATM    9  C   UNL     1      -8.948   7.328  66.938  1.00  0.00    -0.148 A  
HETATM   10  C   UNL     1      -7.764   6.564  66.937  1.00  0.00    -0.100 A  
HETATM   11  C   UNL     1      -7.786   5.175  66.790  1.00  0.00    -0.092 A  
HETATM   12  C   UNL     1      -8.999   4.508  66.668  1.00  0.00    -0.114 A  
HETATM   13  C   UNL     1     -10.189   5.230  66.690  1.00  0.00    -0.291 A  
HETATM   14  C   UNL     1     -10.160   6.624  66.817  1.00  0.00    -0.240 A  
ENDBRANCH   4   9
ENDBRANCH   2   3
ENDBRANCH   1   2
BRANCH   1  15
HETATM   15  C   UNL     1      -8.382  15.616  66.848  1.00  0.00    -0.287 C  
HETATM   16  C   UNL     1      -8.248  18.010  66.215  1.00  0.00    -0.208 C  
HETATM   17  C   UNL     1     -10.408  16.832  65.912  1.00  0.00    -0.341 C  
HETATM   18  C   UNL     1      -8.892  16.678  65.874  1.00  0.00    -0.121 C  
HETATM   19  O   UNL     1      -8.698  18.818  67.016  1.00  0.00    -0.271 OA 
BRANCH  16  20
HETATM   20  O   UNL     1      -7.128  18.189  65.461  1.00  0.00    -0.522 OA 
BRANCH  20  21
HETATM   21  C   UNL     1      -6.828  19.552  65.130  1.00  0.00    -0.122 C  
HETATM   22  C   UNL     1      -5.866  19.539  63.956  1.00  0.00    -0.298 C  
ENDBRANCH  20  21
ENDBRANCH  16  20
ENDBRANCH   1  15
BRANCH   1  23
HETATM   23  N   UNL     1     -10.269  14.105  66.423  1.00  0.00    -0.282 N  
HETATM   24  C   UNL     1     -11.102  14.088  67.509  1.00  0.00    -0.298 C  
HETATM   25  H   UNL     1     -10.682  14.078  65.490  1.00  0.00     0.000 HD 
HETATM   26  O   UNL     1     -10.735  14.067  68.683  1.00  0.00    -0.246 OA 
BRANCH  24  27
HETATM   27  C   UNL     1     -12.566  13.942  67.190  1.00  0.00     0.126 C  
BRANCH  27  28
HETATM   28  C   UNL     1     -12.745  13.953  65.684  1.00  0.00    -0.534 C  
HETATM   29  O   UNL     1     -12.764  12.596  63.723  1.00  0.00    -0.690 OA 
HETATM   30  C   UNL     1     -12.521  12.662  64.923  1.00  0.00    -0.494 C  
HETATM   31  O   UNL     1     -12.050  11.597  65.588  1.00  0.00    -0.214 OA 
ENDBRANCH  27  28
ENDBRANCH  24  27
ENDBRANCH   1  23
TORSDOF 9
ENDMDL
MODEL      227
REMARK 921   NORMALIZED FREE ENERGY PREDICTED BY IDOCK:   -3.40 KCAL/MOL
REMARK 922        TOTAL FREE ENERGY PREDICTED BY IDOCK:   -7.01 KCAL/MOL
REMARK 923 INTER-LIGAND FREE ENERGY PREDICTED BY IDOCK:   -5.33 KCAL/MOL
REMARK 924 INTRA-LIGAND FREE ENERGY PREDICTED BY IDOCK:   -1.68 KCAL/MOL
REMARK 927      BINDING AFFINITY PREDICTED BY RF-SCORE:    0.00 PKD
ROOT
HETATM    1  C   UNL     1      -8.667   4.289  67.756  1.00  0.00    -0.106 C  
ENDROOT
BRANCH   1   2
HETATM    2  C   UNL     1      -9.785   5.081  67.022  1.00  0.00    -0.180 C  
BRANCH   2   3
HETATM    3  C   UNL     1      -9.811   6.591  67.114  1.00  0.00    -0.187 A  
HETATM    4  C   UNL     1     -10.075   9.432  66.989  1.00  0.00    -0.304 A  
HETATM    5  C   UNL     1     -10.499   7.296  68.100  1.00  0.00    -0.244 A  
HETATM    6  C   UNL     1     -10.660   8.677  68.014  1.00  0.00    -0.205 A  
HETATM    7  C   UNL     1      -9.135   7.334  66.139  1.00  0.00    -0.160 A  
HETATM    8  C   UNL     1      -9.251   8.730  66.088  1.00  0.00    -0.273 A  
BRANCH   4   9
HETATM    9  C   UNL     1     -10.373  10.871  66.840  1.00  0.00    -0.285 A  
HETATM   10  C   UNL     1     -11.373  11.501  67.607  1.00  0.00    -0.358 A  
HETATM   11  C   UNL     1     -11.735  12.833  67.390  1.00  0.00    -0.425 A  
HETATM   12  C   UNL     1     -11.083  13.580  66.416  1.00  0.00    -0.311 A  
HETATM   13  C   UNL     1     -10.074  12.996  65.657  1.00  0.00    -0.276 A  
HETATM   14  C   UNL     1      -9.729  11.655  65.865  1.00  0.00    -0.260 A  
ENDBRANCH   4   9
ENDBRANCH   2   3
ENDBRANCH   1   2
BRANCH   1  15
HETATM   15  C   UNL     1      -8.632   4.451  69.295  1.00  0.00    -0.107 C  
HETATM   16  C   UNL     1      -9.594   4.022  71.541  1.00  0.00    -0.167 C  
HETATM   17  C   UNL     1      -9.395   2.121  69.963  1.00  0.00    -0.172 C  
HETATM   18  C   UNL     1      -9.648   3.619  70.078  1.00  0.00    -0.244 C  
HETATM   19  O   UNL     1      -8.849   3.526  72.374  1.00  0.00    -0.087 OA 
BRANCH  16  20
HETATM   20  O   UNL     1     -10.531   4.979  71.792  1.00  0.00    -0.211 OA 
BRANCH  20  21
HETATM   21  C   UNL     1     -10.070   6.093  72.568  1.00  0.00    -0.178 C  
HETATM   22  C   UNL     1     -10.454   5.836  74.015  1.00  0.00    -0.286 C  
ENDBRANCH  20  21
ENDBRANCH  16  20
ENDBRANCH   1  15
BRANCH   1  23
HETATM   23  N   UNL     1      -7.335   4.576  67.216  1.00  0.00    -0.073 N  
HETATM   24  C   UNL     1      -6.798   3.885  66.163  1.00  0.00    -0.057 C  
HETATM   25  H   UNL     1      -6.784   5.322  67.642  1.00  0.00     0.000 HD 
HETATM   26  O   UNL     1      -7.332   2.935  65.593  1.00  0.00    -0.068 OA 
BRANCH  24  27
HETATM   27  C   UNL     1      -5.385   4.263  65.805  1.00  0.00    -0.009 C  
BRANCH  27  28
HETATM   28  C   UNL     1      -5.253   5.772  65.845  1.00  0.00    -0.009 C  
HETATM   29  O   UNL     1      -5.689   7.791  64.651  1.00  0.00    -0.037 OA 
HETATM   30  C   UNL     1      -5.671   6.565  64.624  1.00  0.00    -0.030 C  
HETATM   31  O   UNL     1      -6.018   5.898  63.512  1.00  0.00    -0.021 OA 
ENDBRANCH  27  28
ENDBRANCH  24  27
ENDBRANCH   1  23
TORSDOF 9
ENDMDL
MODEL      228
REMARK 921   NORMALIZED FREE ENERGY PREDICTED BY IDOCK:   -3.37 KCAL/MOL
REMARK 922        TOTAL FREE ENERGY PREDICTED BY IDOCK:   -6.96 KCAL/MOL
REMARK 923 INTER-LIGAND FREE ENERGY PREDICTED BY IDOCK:   -5.66 KCAL/MOL
REMARK 924 INTRA-LIGAND FREE ENERGY PREDICTED BY IDOCK:   -1.30 KCAL/MOL
REMARK 927      BINDING AFFINITY PREDICTED BY RF-SCORE:    0.00 PKD
ROOT
HETATM    1  C   UNL     1     -10.154  12.001  67.236  1.00  0.00    -0.194 C  
ENDROOT
BRANCH   1   2
HETATM    2  C   UNL     1     -11.123  10.835  67.580  1.00  0.00    -0.374 C  
BRANCH   2   3
HETATM    3  C   UNL     1     -10.759   9.867  68.685  1.00  0.00    -0.256 A  
HETATM    4  C   UNL     1     -10.438   8.006  70.828  1.00  0.00    -0.221 A  
HETATM    5  C   UNL     1     -10.250   8.589  68.461  1.00  0.00    -0.225 A  
HETATM    6  C   UNL     1     -10.131   7.671  69.502  1.00  0.00    -0.192 A  
HETATM    7  C   UNL     1     -10.976  10.254  70.013  1.00  0.00    -0.371 A  
HETATM    8  C   UNL     1     -10.801   9.346  71.066  1.00  0.00    -0.406 A  
BRANCH   4   9
HETATM    9  C   UNL     1     -10.438   6.979  71.890  1.00  0.00    -0.223 A  
HETATM   10  C   UNL     1     -10.410   7.328  73.254  1.00  0.00    -0.389 A  
HETATM   11  C   UNL     1     -10.296   6.362  74.257  1.00  0.00    -0.311 A  
HETATM   12  C   UNL     1     -10.237   5.015  73.920  1.00  0.00    -0.259 A  
HETATM   13  C   UNL     1     -10.288   4.634  72.582  1.00  0.00    -0.253 A  
HETATM   14  C   UNL     1     -10.381   5.608  71.581  1.00  0.00    -0.270 A  
ENDBRANCH   4   9
ENDBRANCH   2   3
ENDBRANCH   1   2
BRANCH   1  15
HETATM   15  C   UNL     1      -9.412  11.876  65.882  1.00  0.00    -0.227 C  
HETATM   16  C   UNL     1      -9.049  10.741  63.707  1.00  0.00    -0.200 C  
HETATM   17  C   UNL     1     -11.376  11.234  64.404  1.00  0.00    -0.109 C  
HETATM   18  C   UNL     1      -9.985  10.857  64.897  1.00  0.00    -0.361 C  
HETATM   19  O   UNL     1      -9.106  11.440  62.705  1.00  0.00    -0.344 OA 
BRANCH  16  20
HETATM   20  O   UNL     1      -8.175   9.715  63.904  1.00  0.00    -0.137 OA 
BRANCH  20  21
HETATM   21  C   UNL     1      -8.757   8.404  63.859  1.00  0.00     0.259 C  
HETATM   22  C   UNL     1      -8.020   7.611  62.794  1.00  0.00    -0.121 C  
ENDBRANCH  20  21
ENDBRANCH  16  20
ENDBRANCH   1  15
BRANCH   1  23
HETATM   23  N   UNL     1      -9.173  12.241  68.298  1.00  0.00    -0.212 N  
HETATM   24  C   UNL     1      -8.528  13.439  68.453  1.00  0.00    -0.135 C  
HETATM   25  H   UNL     1      -8.961  11.484  68.949  1.00  0.00     0.000 HD 
HETATM   26  O   UNL     1      -8.653  14.411  67.711  1.00  0.00    -0.154 OA 
BRANCH  24  27
HETATM   27  C   UNL     1      -7.491  13.469  69.544  1.00  0.00     0.454 C  
BRANCH  27  28
HETATM   28  C   UNL     1      -6.280  12.674  69.095  1.00  0.00    -0.098 C  
HETATM   29  O   UNL     1      -5.315  10.495  69.004  1.00  0.00    -0.042 OA 
HETATM   30  C   UNL     1      -6.217  11.201  69.442  1.00  0.00    -0.079 C  
HETATM   31  O   UNL     1      -7.166  10.686  70.239  1.00  0.00    -0.208 OA 
ENDBRANCH  27  28
ENDBRANCH  24  27
ENDBRANCH   1  23
TORSDOF 9
ENDMDL
MODEL      229
REMARK 921   NORMALIZED FREE ENERGY PREDICTED BY IDOCK:   -3.34 KCAL/MOL
REMARK 922        TOTAL FREE ENERGY PREDICTED BY IDOCK:   -6.92 KCAL/MOL
REMARK 923 INTER-LIGAND FREE ENERGY PREDICTED BY IDOCK:   -5.45 KCAL/MOL
REMARK 924 INTRA-LIGAND FREE ENERGY PREDICTED BY IDOCK:   -1.46 KCAL/MOL
REMARK 927      BINDING AFFINITY PREDICTED BY RF-SCORE:    0.00 PKD
ROOT
HETATM    1  C   UNL     1      -7.387   7.991  67.781  1.00  0.00    -0.093 C  
ENDROOT
BRANCH   1   2
HETATM    2  C   UNL     1      -6.927   9.149  66.851  1.00  0.00    -0.081 C  
BRANCH   2   3
HETATM    3  C   UNL     1      -7.624  10.489  66.930  1.00  0.00    -0.110 A  
HETATM    4  C   UNL     1      -8.668  13.147  66.866  1.00  0.00    -0.156 A  
HETATM    5  C   UNL     1      -8.826  10.778  66.285  1.00  0.00    -0.182 A  
HETATM    6  C   UNL     1      -9.311  12.082  66.222  1.00  0.00    -0.228 A  
HETATM    7  C   UNL     1      -7.020  11.517  67.664  1.00  0.00    -0.091 A  
HETATM    8  C   UNL     1      -7.542  12.818  67.646  1.00  0.00    -0.152 A  
BRANCH   4   9
HETATM    9  C   UNL     1      -9.122  14.539  66.670  1.00  0.00    -0.277 A  
HETATM   10  C   UNL     1     -10.475  14.848  66.429  1.00  0.00    -0.301 A  
HETATM   11  C   UNL     1     -10.890  16.148  66.131  1.00  0.00    -0.138 A  
HETATM   12  C   UNL     1      -9.963  17.182  66.097  1.00  0.00    -0.296 A  
HETATM   13  C   UNL     1      -8.621  16.917  66.355  1.00  0.00    -0.328 A  
HETATM   14  C   UNL     1      -8.208  15.608  66.633  1.00  0.00    -0.284 A  
ENDBRANCH   4   9
ENDBRANCH   2   3
ENDBRANCH   1   2
BRANCH   1  15
HETATM   15  C   UNL     1      -7.027   6.564  67.301  1.00  0.00    -0.075 C  
HETATM   16  C   UNL     1      -7.634   4.444  66.164  1.00  0.00    -0.086 C  
HETATM   17  C   UNL     1      -8.220   6.583  65.057  1.00  0.00    -0.115 C  
HETATM   18  C   UNL     1      -8.058   5.883  66.400  1.00  0.00    -0.103 C  
HETATM   19  O   UNL     1      -6.898   4.074  65.259  1.00  0.00    -0.050 OA 
BRANCH  16  20
HETATM   20  O   UNL     1      -8.233   3.629  67.076  1.00  0.00    -0.093 OA 
BRANCH  20  21
HETATM   21  C   UNL     1      -9.555   4.025  67.469  1.00  0.00    -0.168 C  
HETATM   22  C   UNL     1      -9.558   4.176  68.980  1.00  0.00    -0.232 C  
ENDBRANCH  20  21
ENDBRANCH  16  20
ENDBRANCH   1  15
BRANCH   1  23
HETATM   23  N   UNL     1      -8.822   8.050  68.074  1.00  0.00    -0.128 N  
HETATM   24  C   UNL     1      -9.331   7.832  69.327  1.00  0.00    -0.148 C  
HETATM   25  H   UNL     1      -9.468   8.261  67.314  1.00  0.00     0.000 HD 
HETATM   26  O   UNL     1      -8.670   7.521  70.316  1.00  0.00    -0.142 OA 
BRANCH  24  27
HETATM   27  C   UNL     1     -10.834   7.846  69.416  1.00  0.00    -0.114 C  
BRANCH  27  28
HETATM   28  C   UNL     1     -11.247   7.482  70.829  1.00  0.00    -0.287 C  
HETATM   29  O   UNL     1     -12.140   8.334  72.869  1.00  0.00    -0.290 OA 
HETATM   30  C   UNL     1     -11.691   8.593  71.758  1.00  0.00    -0.331 C  
HETATM   31  O   UNL     1     -11.580   9.864  71.342  1.00  0.00    -0.374 OA 
ENDBRANCH  27  28
ENDBRANCH  24  27
ENDBRANCH   1  23
TORSDOF 9
ENDMDL
MODEL      230
REMARK 921   NORMALIZED FREE ENERGY PREDICTED BY IDOCK:   -3.33 KCAL/MOL
REMARK 922        TOTAL FREE ENERGY PREDICTED BY IDOCK:   -6.91 KCAL/MOL
REMARK 923 INTER-LIGAND FREE ENERGY PREDICTED BY IDOCK:   -5.76 KCAL/MOL
REMARK 924 INTRA-LIGAND FREE ENERGY PREDICTED BY IDOCK:   -1.14 KCAL/MOL
REMARK 927      BINDING AFFINITY PREDICTED BY RF-SCORE:    0.00 PKD
ROOT
HETATM    1  C   UNL     1      -8.469   7.994  67.105  1.00  0.00    -0.124 C  
ENDROOT
BRANCH   1   2
HETATM    2  C   UNL     1      -8.239   8.923  68.330  1.00  0.00    -0.117 C  
BRANCH   2   3
HETATM    3  C   UNL     1      -9.341   9.861  68.771  1.00  0.00    -0.157 A  
HETATM    4  C   UNL     1     -11.272  11.610  69.941  1.00  0.00    -0.140 A  
HETATM    5  C   UNL     1      -9.399  11.209  68.422  1.00  0.00    -0.185 A  
HETATM    6  C   UNL     1     -10.316  12.067  69.024  1.00  0.00    -0.042 A  
HETATM    7  C   UNL     1     -10.349   9.364  69.607  1.00  0.00    -0.229 A  
HETATM    8  C   UNL     1     -11.307  10.220  70.167  1.00  0.00    -0.388 A  
BRANCH   4   9
HETATM    9  C   UNL     1     -12.140  12.558  70.670  1.00  0.00    -0.312 A  
HETATM   10  C   UNL     1     -13.067  12.119  71.635  1.00  0.00    -0.413 A  
HETATM   11  C   UNL     1     -13.967  12.998  72.243  1.00  0.00    -0.421 A  
HETATM   12  C   UNL     1     -13.942  14.350  71.921  1.00  0.00    -0.574 A  
HETATM   13  C   UNL     1     -13.022  14.821  70.989  1.00  0.00    -0.423 A  
HETATM   14  C   UNL     1     -12.137  13.933  70.368  1.00  0.00    -0.421 A  
ENDBRANCH   4   9
ENDBRANCH   2   3
ENDBRANCH   1   2
BRANCH   1  15
HETATM   15  C   UNL     1      -7.500   6.793  66.985  1.00  0.00    -0.087 C  
HETATM   16  C   UNL     1      -6.906   4.432  67.464  1.00  0.00    -0.052 C  
HETATM   17  C   UNL     1      -9.204   4.932  66.678  1.00  0.00    -0.126 C  
HETATM   18  C   UNL     1      -8.030   5.453  67.498  1.00  0.00    -0.101 C  
HETATM   19  O   UNL     1      -6.634   3.727  66.503  1.00  0.00    -0.040 OA 
BRANCH  16  20
HETATM   20  O   UNL     1      -6.285   4.388  68.676  1.00  0.00    -0.030 OA 
BRANCH  20  21
HETATM   21  C   UNL     1      -6.921   3.555  69.655  1.00  0.00    -0.041 C  
HETATM   22  C   UNL     1      -7.410   4.454  70.776  1.00  0.00    -0.048 C  
ENDBRANCH  20  21
ENDBRANCH  16  20
ENDBRANCH   1  15
BRANCH   1  23
HETATM   23  N   UNL     1      -8.473   8.733  65.839  1.00  0.00    -0.135 N  
HETATM   24  C   UNL     1      -9.596   9.331  65.334  1.00  0.00    -0.167 C  
HETATM   25  H   UNL     1      -7.602   8.805  65.313  1.00  0.00     0.000 HD 
HETATM   26  O   UNL     1     -10.715   9.278  65.841  1.00  0.00     0.345 OA 
BRANCH  24  27
HETATM   27  C   UNL     1      -9.427   9.968  63.980  1.00  0.00    -0.299 C  
BRANCH  27  28
HETATM   28  C   UNL     1     -10.453  11.073  63.824  1.00  0.00    -0.408 C  
HETATM   29  O   UNL     1     -10.991  13.319  64.416  1.00  0.00    -0.358 OA 
HETATM   30  C   UNL     1     -10.251  12.359  64.598  1.00  0.00    -0.287 C  
HETATM   31  O   UNL     1      -9.248  12.424  65.487  1.00  0.00     0.017 OA 
ENDBRANCH  27  28
ENDBRANCH  24  27
ENDBRANCH   1  23
TORSDOF 9
ENDMDL
MODEL      231
REMARK 921   NORMALIZED FREE ENERGY PREDICTED BY IDOCK:   -3.33 KCAL/MOL
REMARK 922        TOTAL FREE ENERGY PREDICTED BY IDOCK:   -6.90 KCAL/MOL
REMARK 923 INTER-LIGAND FREE ENERGY PREDICTED BY IDOCK:   -5.27 KCAL/MOL
REMARK 924 INTRA-LIGAND FREE ENERGY PREDICTED BY IDOCK:   -1.63 KCAL/MOL
REMARK 927      BINDING AFFINITY PREDICTED BY RF-SCORE:    0.00 PKD
ROOT
HETATM    1  C   UNL     1      -7.437  11.081  67.985  1.00  0.00    -0.090 C  
ENDROOT
BRANCH   1   2
HETATM    2  C   UNL     1      -7.932  11.003  69.457  1.00  0.00     0.133 C  
BRANCH   2   3
HETATM    3  C   UNL     1      -8.492   9.700  69.984  1.00  0.00    -0.223 A  
HETATM    4  C   UNL     1      -9.373   7.320  71.296  1.00  0.00    -0.155 A  
HETATM    5  C   UNL     1      -9.836   9.503  70.298  1.00  0.00    -0.313 A  
HETATM    6  C   UNL     1     -10.256   8.359  70.973  1.00  0.00    -0.245 A  
HETATM    7  C   UNL     1      -7.613   8.633  70.207  1.00  0.00    -0.074 A  
HETATM    8  C   UNL     1      -8.049   7.458  70.835  1.00  0.00    -0.105 A  
BRANCH   4   9
HETATM    9  C   UNL     1      -9.811   6.184  72.133  1.00  0.00    -0.174 A  
HETATM   10  C   UNL     1      -8.903   5.207  72.586  1.00  0.00    -0.123 A  
HETATM   11  C   UNL     1      -9.330   4.073  73.280  1.00  0.00    -0.127 A  
HETATM   12  C   UNL     1     -10.679   3.900  73.566  1.00  0.00    -0.305 A  
HETATM   13  C   UNL     1     -11.600   4.859  73.155  1.00  0.00    -0.300 A  
HETATM   14  C   UNL     1     -11.169   5.984  72.441  1.00  0.00    -0.338 A  
ENDBRANCH   4   9
ENDBRANCH   2   3
ENDBRANCH   1   2
BRANCH   1  15
HETATM   15  C   UNL     1      -7.821  12.371  67.219  1.00  0.00    -0.166 C  
HETATM   16  C   UNL     1      -8.538  14.745  67.196  1.00  0.00    -0.226 C  
HETATM   17  C   UNL     1      -6.708  14.083  68.731  1.00  0.00    -0.100 C  
HETATM   18  C   UNL     1      -8.004  13.626  68.072  1.00  0.00    -0.154 C  
HETATM   19  O   UNL     1      -7.844  15.524  66.559  1.00  0.00    -0.135 OA 
BRANCH  16  20
HETATM   20  O   UNL     1      -9.898  14.778  67.267  1.00  0.00    -0.227 OA 
BRANCH  20  21
HETATM   21  C   UNL     1     -10.453  16.016  67.736  1.00  0.00    -0.298 C  
HETATM   22  C   UNL     1     -10.639  15.896  69.238  1.00  0.00    -0.252 C  
ENDBRANCH  20  21
ENDBRANCH  16  20
ENDBRANCH   1  15
BRANCH   1  23
HETATM   23  N   UNL     1      -7.849   9.916  67.196  1.00  0.00    -0.099 N  
HETATM   24  C   UNL     1      -9.119   9.765  66.708  1.00  0.00    -0.146 C  
HETATM   25  H   UNL     1      -7.161   9.188  67.004  1.00  0.00     0.000 HD 
HETATM   26  O   UNL     1     -10.052  10.541  66.908  1.00  0.00    -0.200 OA 
BRANCH  24  27
HETATM   27  C   UNL     1      -9.379   8.464  65.997  1.00  0.00    -0.244 C  
BRANCH  27  28
HETATM   28  C   UNL     1      -8.839   7.325  66.840  1.00  0.00    -0.138 C  
HETATM   29  O   UNL     1      -9.444   5.519  68.275  1.00  0.00    -0.109 OA 
HETATM   30  C   UNL     1      -9.817   6.516  67.668  1.00  0.00    -0.125 C  
HETATM   31  O   UNL     1     -11.097   6.916  67.725  1.00  0.00    -0.217 OA 
ENDBRANCH  27  28
ENDBRANCH  24  27
ENDBRANCH   1  23
TORSDOF 9
ENDMDL
MODEL      232
REMARK 921   NORMALIZED FREE ENERGY PREDICTED BY IDOCK:   -3.27 KCAL/MOL
REMARK 922        TOTAL FREE ENERGY PREDICTED BY IDOCK:   -6.81 KCAL/MOL
REMARK 923 INTER-LIGAND FREE ENERGY PREDICTED BY IDOCK:   -4.86 KCAL/MOL
REMARK 924 INTRA-LIGAND FREE ENERGY PREDICTED BY IDOCK:   -1.96 KCAL/MOL
REMARK 927      BINDING AFFINITY PREDICTED BY RF-SCORE:    0.00 PKD
ROOT
HETATM    1  C   UNL     1      -7.542   7.151  68.136  1.00  0.00    -0.115 C  
ENDROOT
BRANCH   1   2
HETATM    2  C   UNL     1      -6.218   7.959  68.034  1.00  0.00    -0.046 C  
BRANCH   2   3
HETATM    3  C   UNL     1      -6.270   9.471  67.993  1.00  0.00    -0.056 A  
HETATM    4  C   UNL     1      -6.678  12.284  67.719  1.00  0.00    -0.107 A  
HETATM    5  C   UNL     1      -6.577  10.266  69.095  1.00  0.00    -0.055 A  
HETATM    6  C   UNL     1      -6.815  11.631  68.952  1.00  0.00    -0.101 A  
HETATM    7  C   UNL     1      -6.030  10.117  66.775  1.00  0.00    -0.055 A  
HETATM    8  C   UNL     1      -6.214  11.501  66.645  1.00  0.00    -0.113 A  
BRANCH   4   9
HETATM    9  C   UNL     1      -7.070  13.700  67.562  1.00  0.00    -0.166 A  
HETATM   10  C   UNL     1      -8.396  14.072  67.268  1.00  0.00    -0.209 A  
HETATM   11  C   UNL     1      -8.747  15.399  67.008  1.00  0.00    -0.256 A  
HETATM   12  C   UNL     1      -7.781  16.396  67.065  1.00  0.00    -0.250 A  
HETATM   13  C   UNL     1      -6.465  16.067  67.377  1.00  0.00    -0.214 A  
HETATM   14  C   UNL     1      -6.116  14.733  67.617  1.00  0.00    -0.087 A  
ENDBRANCH   4   9
ENDBRANCH   2   3
ENDBRANCH   1   2
BRANCH   1  15
HETATM   15  C   UNL     1      -7.513   5.737  67.506  1.00  0.00    -0.078 C  
HETATM   16  C   UNL     1      -8.094   4.168  65.675  1.00  0.00    -0.101 C  
HETATM   17  C   UNL     1      -7.164   6.386  65.074  1.00  0.00    -0.067 C  
HETATM   18  C   UNL     1      -8.034   5.632  66.073  1.00  0.00    -0.106 C  
HETATM   19  O   UNL     1      -7.171   3.544  65.170  1.00  0.00    -0.064 OA 
BRANCH  16  20
HETATM   20  O   UNL     1      -9.340   3.674  65.918  1.00  0.00    -0.155 OA 
BRANCH  20  21
HETATM   21  C   UNL     1     -10.401   4.320  65.202  1.00  0.00    -0.195 C  
HETATM   22  C   UNL     1     -10.585   3.582  63.887  1.00  0.00    -0.269 C  
ENDBRANCH  20  21
ENDBRANCH  16  20
ENDBRANCH   1  15
BRANCH   1  23
HETATM   23  N   UNL     1      -8.688   7.890  67.597  1.00  0.00    -0.126 N  
HETATM   24  C   UNL     1      -9.704   8.359  68.385  1.00  0.00    -0.156 C  
HETATM   25  H   UNL     1      -8.730   8.062  66.592  1.00  0.00     0.000 HD 
HETATM   26  O   UNL     1      -9.800   8.177  69.598  1.00  0.00    -0.179 OA 
BRANCH  24  27
HETATM   27  C   UNL     1     -10.837   9.016  67.643  1.00  0.00    -0.133 C  
BRANCH  27  28
HETATM   28  C   UNL     1     -10.264   9.921  66.570  1.00  0.00    -0.292 C  
HETATM   29  O   UNL     1     -10.372  12.101  65.609  1.00  0.00    -0.243 OA 
HETATM   30  C   UNL     1     -10.874  11.295  66.384  1.00  0.00    -0.251 C  
HETATM   31  O   UNL     1     -11.976  11.609  67.083  1.00  0.00    -0.614 OA 
ENDBRANCH  27  28
ENDBRANCH  24  27
ENDBRANCH   1  23
TORSDOF 9
ENDMDL
MODEL      233
REMARK 921   NORMALIZED FREE ENERGY PREDICTED BY IDOCK:   -3.27 KCAL/MOL
REMARK 922        TOTAL FREE ENERGY PREDICTED BY IDOCK:   -6.81 KCAL/MOL
REMARK 923 INTER-LIGAND FREE ENERGY PREDICTED BY IDOCK:   -5.60 KCAL/MOL
REMARK 924 INTRA-LIGAND FREE ENERGY PREDICTED BY IDOCK:   -1.21 KCAL/MOL
REMARK 927      BINDING AFFINITY PREDICTED BY RF-SCORE:    0.00 PKD
ROOT
HETATM    1  C   UNL     1      -8.732  10.415  68.659  1.00  0.00    -0.138 C  
ENDROOT
BRANCH   1   2
HETATM    2  C   UNL     1      -9.668   9.195  68.434  1.00  0.00    -0.166 C  
BRANCH   2   3
HETATM    3  C   UNL     1      -9.821   8.163  69.530  1.00  0.00    -0.181 A  
HETATM    4  C   UNL     1     -10.156   5.968  71.327  1.00  0.00    -0.237 A  
HETATM    5  C   UNL     1      -8.768   7.714  70.326  1.00  0.00    -0.144 A  
HETATM    6  C   UNL     1      -8.924   6.618  71.172  1.00  0.00    -0.145 A  
HETATM    7  C   UNL     1     -11.082   7.593  69.744  1.00  0.00    -0.115 A  
HETATM    8  C   UNL     1     -11.249   6.528  70.639  1.00  0.00    -0.386 A  
BRANCH   4   9
HETATM    9  C   UNL     1     -10.264   4.726  72.120  1.00  0.00    -0.258 A  
HETATM   10  C   UNL     1      -9.332   3.678  71.983  1.00  0.00    -0.183 A  
HETATM   11  C   UNL     1      -9.495   2.460  72.646  1.00  0.00    -0.145 A  
HETATM   12  C   UNL     1     -10.582   2.268  73.490  1.00  0.00    -0.239 A  
HETATM   13  C   UNL     1     -11.508   3.291  73.668  1.00  0.00    -0.124 A  
HETATM   14  C   UNL     1     -11.351   4.503  72.985  1.00  0.00    -0.246 A  
ENDBRANCH   4   9
ENDBRANCH   2   3
ENDBRANCH   1   2
BRANCH   1  15
HETATM   15  C   UNL     1      -9.396  11.805  68.500  1.00  0.00    -0.158 C  
HETATM   16  C   UNL     1     -11.353  13.219  67.931  1.00  0.00    -0.284 C  
HETATM   17  C   UNL     1     -11.709  11.251  69.395  1.00  0.00    -0.409 C  
HETATM   18  C   UNL     1     -10.899  11.800  68.226  1.00  0.00    -0.259 C  
HETATM   19  O   UNL     1     -11.714  14.026  68.776  1.00  0.00    -0.308 OA 
BRANCH  16  20
HETATM   20  O   UNL     1     -11.342  13.437  66.586  1.00  0.00    -0.305 OA 
BRANCH  20  21
HETATM   21  C   UNL     1     -12.318  14.376  66.115  1.00  0.00    -0.314 C  
HETATM   22  C   UNL     1     -12.505  14.138  64.627  1.00  0.00    -0.375 C  
ENDBRANCH  20  21
ENDBRANCH  16  20
ENDBRANCH   1  15
BRANCH   1  23
HETATM   23  N   UNL     1      -7.533  10.360  67.818  1.00  0.00    -0.088 N  
HETATM   24  C   UNL     1      -6.281  10.137  68.326  1.00  0.00    -0.049 C  
HETATM   25  H   UNL     1      -7.635  10.494  66.812  1.00  0.00     0.000 HD 
HETATM   26  O   UNL     1      -6.014  10.010  69.520  1.00  0.00    -0.040 OA 
BRANCH  24  27
HETATM   27  C   UNL     1      -5.163  10.202  67.321  1.00  0.00    -0.041 C  
BRANCH  27  28
HETATM   28  C   UNL     1      -5.198   8.953  66.462  1.00  0.00    -0.034 C  
HETATM   29  O   UNL     1      -5.685   8.107  64.286  1.00  0.00    -0.051 OA 
HETATM   30  C   UNL     1      -5.741   9.063  65.053  1.00  0.00    -0.058 C  
HETATM   31  O   UNL     1      -6.288  10.224  64.662  1.00  0.00    -0.129 OA 
ENDBRANCH  27  28
ENDBRANCH  24  27
ENDBRANCH   1  23
TORSDOF 9
ENDMDL
MODEL      234
REMARK 921   NORMALIZED FREE ENERGY PREDICTED BY IDOCK:   -3.22 KCAL/MOL
REMARK 922        TOTAL FREE ENERGY PREDICTED BY IDOCK:   -6.73 KCAL/MOL
REMARK 923 INTER-LIGAND FREE ENERGY PREDICTED BY IDOCK:   -6.69 KCAL/MOL
REMARK 924 INTRA-LIGAND FREE ENERGY PREDICTED BY IDOCK:   -0.05 KCAL/MOL
REMARK 927      BINDING AFFINITY PREDICTED BY RF-SCORE:    0.00 PKD
ROOT
HETATM    1  C   UNL     1      -9.083  10.307  68.670  1.00  0.00    -0.152 C  
ENDROOT
BRANCH   1   2
HETATM    2  C   UNL     1      -9.250  10.004  70.186  1.00  0.00    -0.078 C  
BRANCH   2   3
HETATM    3  C   UNL     1      -9.231   8.569  70.664  1.00  0.00    -0.189 A  
HETATM    4  C   UNL     1      -9.528   5.928  71.712  1.00  0.00    -0.168 A  
HETATM    5  C   UNL     1      -9.361   7.468  69.820  1.00  0.00    -0.150 A  
HETATM    6  C   UNL     1      -9.545   6.186  70.334  1.00  0.00    -0.188 A  
HETATM    7  C   UNL     1      -9.109   8.321  72.037  1.00  0.00    -0.267 A  
HETATM    8  C   UNL     1      -9.237   7.023  72.549  1.00  0.00    -0.156 A  
BRANCH   4   9
HETATM    9  C   UNL     1      -9.863   4.589  72.238  1.00  0.00    -0.227 A  
HETATM   10  C   UNL     1      -9.168   3.437  71.823  1.00  0.00    -0.185 A  
HETATM   11  C   UNL     1      -9.555   2.158  72.230  1.00  0.00    -0.179 A  
HETATM   12  C   UNL     1     -10.635   2.001  73.092  1.00  0.00    -0.235 A  
HETATM   13  C   UNL     1     -11.329   3.121  73.541  1.00  0.00    -0.237 A  
HETATM   14  C   UNL     1     -10.948   4.399  73.113  1.00  0.00    -0.332 A  
ENDBRANCH   4   9
ENDBRANCH   2   3
ENDBRANCH   1   2
BRANCH   1  15
HETATM   15  C   UNL     1      -7.977  11.329  68.310  1.00  0.00    -0.134 C  
HETATM   16  C   UNL     1      -5.584  11.934  68.061  1.00  0.00    -0.049 C  
HETATM   17  C   UNL     1      -6.353   9.768  67.134  1.00  0.00    -0.068 C  
HETATM   18  C   UNL     1      -6.551  10.780  68.256  1.00  0.00    -0.058 C  
HETATM   19  O   UNL     1      -5.238  12.379  66.976  1.00  0.00    -0.299 OA 
BRANCH  16  20
HETATM   20  O   UNL     1      -5.126  12.362  69.271  1.00  0.00    -0.067 OA 
BRANCH  20  21
HETATM   21  C   UNL     1      -5.825  13.487  69.823  1.00  0.00    -0.117 C  
HETATM   22  C   UNL     1      -5.401  13.623  71.275  1.00  0.00    -0.194 C  
ENDBRANCH  20  21
ENDBRANCH  16  20
ENDBRANCH   1  15
BRANCH   1  23
HETATM   23  N   UNL     1     -10.340  10.724  68.043  1.00  0.00    -0.175 N  
HETATM   24  C   UNL     1     -10.434  11.823  67.231  1.00  0.00    -0.214 C  
HETATM   25  H   UNL     1     -11.181  10.174  68.219  1.00  0.00     0.000 HD 
HETATM   26  O   UNL     1      -9.513  12.597  66.979  1.00  0.00    -0.206 OA 
BRANCH  24  27
HETATM   27  C   UNL     1     -11.824  12.145  66.751  1.00  0.00    -0.304 C  
BRANCH  27  28
HETATM   28  C   UNL     1     -11.829  12.168  65.235  1.00  0.00    -0.356 C  
HETATM   29  O   UNL     1     -12.501  13.413  63.315  1.00  0.00    -0.739 OA 
HETATM   30  C   UNL     1     -12.566  13.290  64.534  1.00  0.00    -0.251 C  
HETATM   31  O   UNL     1     -13.291  14.143  65.272  1.00  0.00    -0.715 OA 
ENDBRANCH  27  28
ENDBRANCH  24  27
ENDBRANCH   1  23
TORSDOF 9
ENDMDL
MODEL      235
REMARK 921   NORMALIZED FREE ENERGY PREDICTED BY IDOCK:   -3.19 KCAL/MOL
REMARK 922        TOTAL FREE ENERGY PREDICTED BY IDOCK:   -6.68 KCAL/MOL
REMARK 923 INTER-LIGAND FREE ENERGY PREDICTED BY IDOCK:   -6.18 KCAL/MOL
REMARK 924 INTRA-LIGAND FREE ENERGY PREDICTED BY IDOCK:   -0.50 KCAL/MOL
REMARK 927      BINDING AFFINITY PREDICTED BY RF-SCORE:    0.00 PKD
ROOT
HETATM    1  C   UNL     1      -9.346  11.789  68.388  1.00  0.00    -0.185 C  
ENDROOT
BRANCH   1   2
HETATM    2  C   UNL     1      -9.631  10.290  68.092  1.00  0.00    -0.151 C  
BRANCH   2   3
HETATM    3  C   UNL     1     -10.060   9.378  69.221  1.00  0.00    -0.200 A  
HETATM    4  C   UNL     1     -10.609   7.422  71.229  1.00  0.00    -0.231 A  
HETATM    5  C   UNL     1      -9.795   9.630  70.566  1.00  0.00    -0.294 A  
HETATM    6  C   UNL     1     -10.027   8.659  71.537  1.00  0.00    -0.344 A  
HETATM    7  C   UNL     1     -10.733   8.191  68.905  1.00  0.00    -0.090 A  
HETATM    8  C   UNL     1     -11.018   7.240  69.894  1.00  0.00    -0.262 A  
BRANCH   4   9
HETATM    9  C   UNL     1     -10.717   6.359  72.248  1.00  0.00    -0.253 A  
HETATM   10  C   UNL     1     -10.095   6.475  73.507  1.00  0.00    -0.258 A  
HETATM   11  C   UNL     1     -10.099   5.426  74.429  1.00  0.00    -0.278 A  
HETATM   12  C   UNL     1     -10.755   4.239  74.127  1.00  0.00    -0.303 A  
HETATM   13  C   UNL     1     -11.402   4.099  72.902  1.00  0.00    -0.012 A  
HETATM   14  C   UNL     1     -11.376   5.146  71.974  1.00  0.00     0.072 A  
ENDBRANCH   4   9
ENDBRANCH   2   3
ENDBRANCH   1   2
BRANCH   1  15
HETATM   15  C   UNL     1      -9.402  12.735  67.163  1.00  0.00    -0.216 C  
HETATM   16  C   UNL     1     -10.615  13.706  65.229  1.00  0.00    -0.346 C  
HETATM   17  C   UNL     1     -11.790  13.569  67.408  1.00  0.00    -0.423 C  
HETATM   18  C   UNL     1     -10.771  12.890  66.501  1.00  0.00    -0.285 C  
HETATM   19  O   UNL     1     -10.674  14.926  65.172  1.00  0.00    -0.353 OA 
BRANCH  16  20
HETATM   20  O   UNL     1     -10.451  12.873  64.163  1.00  0.00    -0.403 OA 
BRANCH  20  21
HETATM   21  C   UNL     1     -10.936  11.537  64.355  1.00  0.00    -0.324 C  
HETATM   22  C   UNL     1      -9.751  10.596  64.227  1.00  0.00    -0.372 C  
ENDBRANCH  20  21
ENDBRANCH  16  20
ENDBRANCH   1  15
BRANCH   1  23
HETATM   23  N   UNL     1      -8.072  11.986  69.085  1.00  0.00    -0.333 N  
HETATM   24  C   UNL     1      -7.011  11.132  68.944  1.00  0.00    -0.095 C  
HETATM   25  H   UNL     1      -7.971  12.793  69.701  1.00  0.00     0.000 HD 
HETATM   26  O   UNL     1      -7.017  10.100  68.275  1.00  0.00    -0.069 OA 
BRANCH  24  27
HETATM   27  C   UNL     1      -5.818  11.448  69.807  1.00  0.00    -0.099 C  
BRANCH  27  28
HETATM   28  C   UNL     1      -5.130  10.152  70.189  1.00  0.00    -0.038 C  
HETATM   29  O   UNL     1      -5.215   8.267  71.648  1.00  0.00    -0.033 OA 
HETATM   30  C   UNL     1      -5.667   9.373  71.373  1.00  0.00    -0.073 C  
HETATM   31  O   UNL     1      -6.643   9.920  72.113  1.00  0.00     0.073 OA 
ENDBRANCH  27  28
ENDBRANCH  24  27
ENDBRANCH   1  23
TORSDOF 9
ENDMDL
MODEL      236
REMARK 921   NORMALIZED FREE ENERGY PREDICTED BY IDOCK:   -3.13 KCAL/MOL
REMARK 922        TOTAL FREE ENERGY PREDICTED BY IDOCK:   -6.60 KCAL/MOL
REMARK 923 INTER-LIGAND FREE ENERGY PREDICTED BY IDOCK:   -5.14 KCAL/MOL
REMARK 924 INTRA-LIGAND FREE ENERGY PREDICTED BY IDOCK:   -1.46 KCAL/MOL
REMARK 927      BINDING AFFINITY PREDICTED BY RF-SCORE:    0.00 PKD
ROOT
HETATM    1  C   UNL     1      -8.759   7.985  70.281  1.00  0.00    -0.134 C  
ENDROOT
BRANCH   1   2
HETATM    2  C   UNL     1      -7.609   6.992  69.950  1.00  0.00    -0.102 C  
BRANCH   2   3
HETATM    3  C   UNL     1      -7.640   6.227  68.646  1.00  0.00    -0.093 A  
HETATM    4  C   UNL     1      -8.067   4.811  66.202  1.00  0.00    -0.107 A  
HETATM    5  C   UNL     1      -7.242   6.762  67.422  1.00  0.00    -0.090 A  
HETATM    6  C   UNL     1      -7.488   6.087  66.229  1.00  0.00    -0.086 A  
HETATM    7  C   UNL     1      -8.126   4.914  68.650  1.00  0.00    -0.084 A  
HETATM    8  C   UNL     1      -8.319   4.213  67.452  1.00  0.00    -0.099 A  
BRANCH   4   9
HETATM    9  C   UNL     1      -8.444   4.175  64.923  1.00  0.00    -0.115 A  
HETATM   10  C   UNL     1      -9.253   3.022  64.882  1.00  0.00    -0.148 A  
HETATM   11  C   UNL     1      -9.518   2.354  63.685  1.00  0.00    -0.108 A  
HETATM   12  C   UNL     1      -9.004   2.840  62.489  1.00  0.00    -0.081 A  
HETATM   13  C   UNL     1      -8.221   3.991  62.491  1.00  0.00    -0.076 A  
HETATM   14  C   UNL     1      -7.942   4.645  63.696  1.00  0.00    -0.091 A  
ENDBRANCH   4   9
ENDBRANCH   2   3
ENDBRANCH   1   2
BRANCH   1  15
HETATM   15  C   UNL     1     -10.176   7.365  70.359  1.00  0.00    -0.201 C  
HETATM   16  C   UNL     1     -12.261   6.876  71.609  1.00  0.00    -0.361 C  
HETATM   17  C   UNL     1     -11.331   9.171  71.723  1.00  0.00    -0.451 C  
HETATM   18  C   UNL     1     -10.980   7.692  71.617  1.00  0.00    -0.267 C  
HETATM   19  O   UNL     1     -13.311   7.230  71.091  1.00  0.00    -0.331 OA 
BRANCH  16  20
HETATM   20  O   UNL     1     -12.077   5.720  72.307  1.00  0.00    -0.230 OA 
BRANCH  20  21
HETATM   21  C   UNL     1     -10.898   5.683  73.122  1.00  0.00    -0.281 C  
HETATM   22  C   UNL     1     -10.421   4.243  73.175  1.00  0.00    -0.251 C  
ENDBRANCH  20  21
ENDBRANCH  16  20
ENDBRANCH   1  15
BRANCH   1  23
HETATM   23  N   UNL     1      -8.788   9.129  69.365  1.00  0.00    -0.141 N  
HETATM   24  C   UNL     1      -7.955  10.208  69.502  1.00  0.00    -0.165 C  
HETATM   25  H   UNL     1      -9.456   9.122  68.595  1.00  0.00     0.000 HD 
HETATM   26  O   UNL     1      -7.142  10.364  70.411  1.00  0.00    -0.268 OA 
BRANCH  24  27
HETATM   27  C   UNL     1      -8.191  11.324  68.520  1.00  0.00    -0.150 C  
BRANCH  27  28
HETATM   28  C   UNL     1      -7.433  11.024  67.241  1.00  0.00    -0.107 C  
HETATM   29  O   UNL     1      -5.451  11.500  66.003  1.00  0.00    -0.265 OA 
HETATM   30  C   UNL     1      -6.155  11.788  66.965  1.00  0.00    -0.152 C  
HETATM   31  O   UNL     1      -5.811  12.787  67.792  1.00  0.00    -0.105 OA 
ENDBRANCH  27  28
ENDBRANCH  24  27
ENDBRANCH   1  23
TORSDOF 9
ENDMDL
MODEL      237
REMARK 921   NORMALIZED FREE ENERGY PREDICTED BY IDOCK:   -3.13 KCAL/MOL
REMARK 922        TOTAL FREE ENERGY PREDICTED BY IDOCK:   -6.60 KCAL/MOL
REMARK 923 INTER-LIGAND FREE ENERGY PREDICTED BY IDOCK:   -5.94 KCAL/MOL
REMARK 924 INTRA-LIGAND FREE ENERGY PREDICTED BY IDOCK:   -0.66 KCAL/MOL
REMARK 927      BINDING AFFINITY PREDICTED BY RF-SCORE:    0.00 PKD
ROOT
HETATM    1  C   UNL     1      -8.902   8.469  67.746  1.00  0.00    -0.137 C  
ENDROOT
BRANCH   1   2
HETATM    2  C   UNL     1      -9.927   9.634  67.650  1.00  0.00    -0.218 C  
BRANCH   2   3
HETATM    3  C   UNL     1      -9.428  11.047  67.440  1.00  0.00    -0.173 A  
HETATM    4  C   UNL     1      -8.794  13.824  67.222  1.00  0.00    -0.225 A  
HETATM    5  C   UNL     1      -8.341  11.595  68.118  1.00  0.00    -0.154 A  
HETATM    6  C   UNL     1      -8.058  12.957  68.041  1.00  0.00    -0.159 A  
HETATM    7  C   UNL     1     -10.113  11.873  66.540  1.00  0.00    -0.229 A  
HETATM    8  C   UNL     1      -9.789  13.232  66.420  1.00  0.00    -0.281 A  
BRANCH   4   9
HETATM    9  C   UNL     1      -8.566  15.283  67.262  1.00  0.00    -0.210 A  
HETATM   10  C   UNL     1      -8.847  16.105  66.153  1.00  0.00    -0.367 A  
HETATM   11  C   UNL     1      -8.527  17.465  66.147  1.00  0.00    -0.198 A  
HETATM   12  C   UNL     1      -7.944  18.046  67.267  1.00  0.00    -0.221 A  
HETATM   13  C   UNL     1      -7.676  17.267  68.389  1.00  0.00    -0.247 A  
HETATM   14  C   UNL     1      -7.979  15.901  68.381  1.00  0.00    -0.147 A  
ENDBRANCH   4   9
ENDBRANCH   2   3
ENDBRANCH   1   2
BRANCH   1  15
HETATM   15  C   UNL     1      -9.168   7.266  66.807  1.00  0.00    -0.187 C  
HETATM   16  C   UNL     1      -9.854   4.910  66.446  1.00  0.00    -0.209 C  
HETATM   17  C   UNL     1     -11.240   6.324  67.937  1.00  0.00    -0.216 C  
HETATM   18  C   UNL     1      -9.822   6.045  67.454  1.00  0.00    -0.147 C  
HETATM   19  O   UNL     1     -10.755   4.716  65.643  1.00  0.00    -0.295 OA 
BRANCH  16  20
HETATM   20  O   UNL     1      -8.756   4.119  66.606  1.00  0.00    -0.111 OA 
BRANCH  20  21
HETATM   21  C   UNL     1      -8.448   3.774  67.964  1.00  0.00    -0.094 C  
HETATM   22  C   UNL     1      -9.195   2.495  68.295  1.00  0.00    -0.255 C  
ENDBRANCH  20  21
ENDBRANCH  16  20
ENDBRANCH   1  15
BRANCH   1  23
HETATM   23  N   UNL     1      -8.745   7.978  69.118  1.00  0.00    -0.137 N  
HETATM   24  C   UNL     1      -9.540   8.397  70.150  1.00  0.00    -0.165 C  
HETATM   25  H   UNL     1      -8.012   7.295  69.312  1.00  0.00     0.000 HD 
HETATM   26  O   UNL     1     -10.423   9.249  70.063  1.00  0.00    -0.202 OA 
BRANCH  24  27
HETATM   27  C   UNL     1      -9.172   7.849  71.503  1.00  0.00    -0.171 C  
BRANCH  27  28
HETATM   28  C   UNL     1      -8.898   6.364  71.376  1.00  0.00    -0.138 C  
HETATM   29  O   UNL     1      -9.910   4.208  71.251  1.00  0.00    -0.178 OA 
HETATM   30  C   UNL     1     -10.068   5.405  71.461  1.00  0.00    -0.195 C  
HETATM   31  O   UNL     1     -11.278   5.893  71.774  1.00  0.00    -0.271 OA 
ENDBRANCH  27  28
ENDBRANCH  24  27
ENDBRANCH   1  23
TORSDOF 9
ENDMDL
MODEL      238
REMARK 921   NORMALIZED FREE ENERGY PREDICTED BY IDOCK:   -3.10 KCAL/MOL
REMARK 922        TOTAL FREE ENERGY PREDICTED BY IDOCK:   -6.55 KCAL/MOL
REMARK 923 INTER-LIGAND FREE ENERGY PREDICTED BY IDOCK:   -7.30 KCAL/MOL
REMARK 924 INTRA-LIGAND FREE ENERGY PREDICTED BY IDOCK:    0.75 KCAL/MOL
REMARK 927      BINDING AFFINITY PREDICTED BY RF-SCORE:    0.00 PKD
ROOT
HETATM    1  C   UNL     1     -10.255  11.635  65.757  1.00  0.00    -0.240 C  
ENDROOT
BRANCH   1   2
HETATM    2  C   UNL     1     -11.255  12.486  66.590  1.00  0.00    -0.357 C  
BRANCH   2   3
HETATM    3  C   UNL     1     -11.074  13.987  66.660  1.00  0.00    -0.312 A  
HETATM    4  C   UNL     1     -10.432  16.749  66.997  1.00  0.00    -0.285 A  
HETATM    5  C   UNL     1     -10.673  14.772  65.581  1.00  0.00    -0.345 A  
HETATM    6  C   UNL     1     -10.323  16.108  65.756  1.00  0.00    -0.398 A  
HETATM    7  C   UNL     1     -11.286  14.631  67.885  1.00  0.00    -0.332 A  
HETATM    8  C   UNL     1     -10.988  15.991  68.045  1.00  0.00    -0.341 A  
BRANCH   4   9
HETATM    9  C   UNL     1      -9.925  18.123  67.190  1.00  0.00    -0.341 A  
HETATM   10  C   UNL     1     -10.766  19.246  67.063  1.00  0.00    -0.565 A  
HETATM   11  C   UNL     1     -10.268  20.549  67.132  1.00  0.00    -0.334 A  
HETATM   12  C   UNL     1      -8.914  20.764  67.361  1.00  0.00    -0.278 A  
HETATM   13  C   UNL     1      -8.058  19.677  67.516  1.00  0.00    -0.333 A  
HETATM   14  C   UNL     1      -8.560  18.373  67.425  1.00  0.00    -0.261 A  
ENDBRANCH   4   9
ENDBRANCH   2   3
ENDBRANCH   1   2
BRANCH   1  15
HETATM   15  C   UNL     1     -10.533  10.111  65.733  1.00  0.00    -0.128 C  
HETATM   16  C   UNL     1     -10.078   7.813  66.548  1.00  0.00    -0.154 C  
HETATM   17  C   UNL     1     -10.330   9.627  68.219  1.00  0.00    -0.240 C  
HETATM   18  C   UNL     1      -9.837   9.288  66.817  1.00  0.00    -0.289 C  
HETATM   19  O   UNL     1     -11.036   7.176  66.962  1.00  0.00    -0.369 OA 
BRANCH  16  20
HETATM   20  O   UNL     1      -9.045   7.302  65.822  1.00  0.00    -0.086 OA 
BRANCH  20  21
HETATM   21  C   UNL     1      -8.388   6.171  66.411  1.00  0.00    -0.120 C  
HETATM   22  C   UNL     1      -7.966   6.565  67.816  1.00  0.00    -0.115 C  
ENDBRANCH  20  21
ENDBRANCH  16  20
ENDBRANCH   1  15
BRANCH   1  23
HETATM   23  N   UNL     1      -8.863  11.860  66.157  1.00  0.00    -0.373 N  
HETATM   24  C   UNL     1      -8.503  12.162  67.443  1.00  0.00    -0.173 C  
HETATM   25  H   UNL     1      -8.133  11.789  65.448  1.00  0.00     0.000 HD 
HETATM   26  O   UNL     1      -9.285  12.326  68.378  1.00  0.00    -0.192 OA 
BRANCH  24  27
HETATM   27  C   UNL     1      -7.038  12.446  67.645  1.00  0.00    -0.133 C  
BRANCH  27  28
HETATM   28  C   UNL     1      -6.377  11.221  68.244  1.00  0.00    -0.049 C  
HETATM   29  O   UNL     1      -5.292   9.158  67.738  1.00  0.00    -0.034 OA 
HETATM   30  C   UNL     1      -5.930  10.114  67.311  1.00  0.00    -0.054 C  
HETATM   31  O   UNL     1      -6.251  10.200  66.011  1.00  0.00    -0.072 OA 
ENDBRANCH  27  28
ENDBRANCH  24  27
ENDBRANCH   1  23
TORSDOF 9
ENDMDL
MODEL      239
REMARK 921   NORMALIZED FREE ENERGY PREDICTED BY IDOCK:   -3.09 KCAL/MOL
REMARK 922        TOTAL FREE ENERGY PREDICTED BY IDOCK:   -6.53 KCAL/MOL
REMARK 923 INTER-LIGAND FREE ENERGY PREDICTED BY IDOCK:   -5.66 KCAL/MOL
REMARK 924 INTRA-LIGAND FREE ENERGY PREDICTED BY IDOCK:   -0.87 KCAL/MOL
REMARK 927      BINDING AFFINITY PREDICTED BY RF-SCORE:    0.00 PKD
ROOT
HETATM    1  C   UNL     1      -9.915  13.462  67.936  1.00  0.00    -0.236 C  
ENDROOT
BRANCH   1   2
HETATM    2  C   UNL     1      -8.703  12.625  68.435  1.00  0.00    -0.118 C  
BRANCH   2   3
HETATM    3  C   UNL     1      -8.175  11.496  67.576  1.00  0.00    -0.140 A  
HETATM    4  C   UNL     1      -7.473   9.426  65.738  1.00  0.00    -0.099 A  
HETATM    5  C   UNL     1      -7.041  11.598  66.772  1.00  0.00    -0.083 A  
HETATM    6  C   UNL     1      -6.724  10.605  65.849  1.00  0.00    -0.116 A  
HETATM    7  C   UNL     1      -8.879  10.286  67.552  1.00  0.00    -0.128 A  
HETATM    8  C   UNL     1      -8.523   9.263  66.663  1.00  0.00    -0.130 A  
BRANCH   4   9
HETATM    9  C   UNL     1      -7.202   8.452  64.660  1.00  0.00    -0.082 A  
HETATM   10  C   UNL     1      -5.978   8.443  63.964  1.00  0.00    -0.067 A  
HETATM   11  C   UNL     1      -5.761   7.601  62.871  1.00  0.00    -0.051 A  
HETATM   12  C   UNL     1      -6.757   6.721  62.464  1.00  0.00    -0.043 A  
HETATM   13  C   UNL     1      -7.969   6.686  63.146  1.00  0.00    -0.082 A  
HETATM   14  C   UNL     1      -8.189   7.547  64.228  1.00  0.00     0.002 A  
ENDBRANCH   4   9
ENDBRANCH   2   3
ENDBRANCH   1   2
BRANCH   1  15
HETATM   15  C   UNL     1      -9.571  14.633  66.982  1.00  0.00    -0.246 C  
HETATM   16  C   UNL     1      -9.633  17.043  66.401  1.00  0.00    -0.282 C  
HETATM   17  C   UNL     1      -8.998  16.405  68.711  1.00  0.00    -0.245 C  
HETATM   18  C   UNL     1      -9.865  16.036  67.513  1.00  0.00    -0.235 C  
HETATM   19  O   UNL     1      -8.560  17.579  66.159  1.00  0.00    -0.439 OA 
BRANCH  16  20
HETATM   20  O   UNL     1     -10.804  17.294  65.753  1.00  0.00    -0.216 OA 
BRANCH  20  21
HETATM   21  C   UNL     1     -11.018  16.521  64.564  1.00  0.00     0.078 C  
HETATM   22  C   UNL     1     -12.054  15.459  64.887  1.00  0.00     0.063 C  
ENDBRANCH  20  21
ENDBRANCH  16  20
ENDBRANCH   1  15
BRANCH   1  23
HETATM   23  N   UNL     1     -10.732  13.971  69.041  1.00  0.00    -0.305 N  
HETATM   24  C   UNL     1     -11.594  13.179  69.751  1.00  0.00    -0.221 C  
HETATM   25  H   UNL     1     -10.656  14.957  69.292  1.00  0.00     0.000 HD 
HETATM   26  O   UNL     1     -11.816  11.991  69.520  1.00  0.00    -0.304 OA 
BRANCH  24  27
HETATM   27  C   UNL     1     -12.413  13.896  70.790  1.00  0.00    -0.445 C  
BRANCH  27  28
HETATM   28  C   UNL     1     -11.562  14.978  71.427  1.00  0.00    -0.397 C  
HETATM   29  O   UNL     1     -11.595  16.867  72.882  1.00  0.00    -0.215 OA 
HETATM   30  C   UNL     1     -12.252  16.041  72.258  1.00  0.00    -0.519 C  
HETATM   31  O   UNL     1     -13.593  16.061  72.293  1.00  0.00    -0.358 OA 
ENDBRANCH  27  28
ENDBRANCH  24  27
ENDBRANCH   1  23
TORSDOF 9
ENDMDL
MODEL      240
REMARK 921   NORMALIZED FREE ENERGY PREDICTED BY IDOCK:   -3.07 KCAL/MOL
REMARK 922        TOTAL FREE ENERGY PREDICTED BY IDOCK:   -6.51 KCAL/MOL
REMARK 923 INTER-LIGAND FREE ENERGY PREDICTED BY IDOCK:   -5.56 KCAL/MOL
REMARK 924 INTRA-LIGAND FREE ENERGY PREDICTED BY IDOCK:   -0.96 KCAL/MOL
REMARK 927      BINDING AFFINITY PREDICTED BY RF-SCORE:    0.00 PKD
ROOT
HETATM    1  C   UNL     1      -7.977  10.973  67.452  1.00  0.00    -0.119 C  
ENDROOT
BRANCH   1   2
HETATM    2  C   UNL     1      -8.248  10.971  68.983  1.00  0.00    -0.101 C  
BRANCH   2   3
HETATM    3  C   UNL     1      -8.513   9.660  69.689  1.00  0.00    -0.181 A  
HETATM    4  C   UNL     1      -9.092   7.047  70.688  1.00  0.00    -0.158 A  
HETATM    5  C   UNL     1      -7.514   8.860  70.242  1.00  0.00    -0.074 A  
HETATM    6  C   UNL     1      -7.792   7.572  70.691  1.00  0.00    -0.095 A  
HETATM    7  C   UNL     1      -9.832   9.195  69.769  1.00  0.00    -0.192 A  
HETATM    8  C   UNL     1     -10.117   7.920  70.276  1.00  0.00    -0.196 A  
BRANCH   4   9
HETATM    9  C   UNL     1      -9.341   5.634  71.038  1.00  0.00    -0.181 A  
HETATM   10  C   UNL     1      -9.381   5.200  72.377  1.00  0.00    -0.155 A  
HETATM   11  C   UNL     1      -9.503   3.849  72.709  1.00  0.00    -0.162 A  
HETATM   12  C   UNL     1      -9.620   2.895  71.705  1.00  0.00    -0.222 A  
HETATM   13  C   UNL     1      -9.609   3.291  70.371  1.00  0.00    -0.211 A  
HETATM   14  C   UNL     1      -9.466   4.645  70.044  1.00  0.00    -0.242 A  
ENDBRANCH   4   9
ENDBRANCH   2   3
ENDBRANCH   1   2
BRANCH   1  15
HETATM   15  C   UNL     1      -8.982  11.781  66.595  1.00  0.00    -0.195 C  
HETATM   16  C   UNL     1     -10.501  13.718  66.290  1.00  0.00    -0.291 C  
HETATM   17  C   UNL     1      -8.238  14.132  67.212  1.00  0.00    -0.200 C  
HETATM   18  C   UNL     1      -9.396  13.142  67.156  1.00  0.00    -0.235 C  
HETATM   19  O   UNL     1     -10.321  14.408  65.296  1.00  0.00    -0.353 OA 
BRANCH  16  20
HETATM   20  O   UNL     1     -11.716  13.392  66.813  1.00  0.00    -0.346 OA 
BRANCH  20  21
HETATM   21  C   UNL     1     -11.799  13.457  68.243  1.00  0.00    -0.358 C  
HETATM   22  C   UNL     1     -11.857  12.032  68.766  1.00  0.00    -0.358 C  
ENDBRANCH  20  21
ENDBRANCH  16  20
ENDBRANCH   1  15
BRANCH   1  23
HETATM   23  N   UNL     1      -7.864   9.618  66.905  1.00  0.00    -0.102 N  
HETATM   24  C   UNL     1      -8.944   8.914  66.445  1.00  0.00    -0.158 C  
HETATM   25  H   UNL     1      -6.943   9.182  66.865  1.00  0.00     0.000 HD 
HETATM   26  O   UNL     1     -10.110   9.302  66.481  1.00  0.00    -0.258 OA 
BRANCH  24  27
HETATM   27  C   UNL     1      -8.646   7.506  66.002  1.00  0.00    -0.164 C  
BRANCH  27  28
HETATM   28  C   UNL     1      -7.944   7.550  64.659  1.00  0.00    -0.133 C  
HETATM   29  O   UNL     1      -5.832   7.366  63.567  1.00  0.00    -0.043 OA 
HETATM   30  C   UNL     1      -6.433   7.449  64.633  1.00  0.00    -0.040 C  
HETATM   31  O   UNL     1      -5.767   7.455  65.798  1.00  0.00    -0.035 OA 
ENDBRANCH  27  28
ENDBRANCH  24  27
ENDBRANCH   1  23
TORSDOF 9
ENDMDL
MODEL      241
REMARK 921   NORMALIZED FREE ENERGY PREDICTED BY IDOCK:   -3.02 KCAL/MOL
REMARK 922        TOTAL FREE ENERGY PREDICTED BY IDOCK:   -6.43 KCAL/MOL
REMARK 923 INTER-LIGAND FREE ENERGY PREDICTED BY IDOCK:   -4.54 KCAL/MOL
REMARK 924 INTRA-LIGAND FREE ENERGY PREDICTED BY IDOCK:   -1.89 KCAL/MOL
REMARK 927      BINDING AFFINITY PREDICTED BY RF-SCORE:    0.00 PKD
ROOT
HETATM    1  C   UNL     1      -7.454  11.261  67.110  1.00  0.00    -0.130 C  
ENDROOT
BRANCH   1   2
HETATM    2  C   UNL     1      -6.450  11.214  68.296  1.00  0.00    -0.057 C  
BRANCH   2   3
HETATM    3  C   UNL     1      -6.517  10.069  69.283  1.00  0.00    -0.049 A  
HETATM    4  C   UNL     1      -6.990   7.853  71.022  1.00  0.00    -0.049 A  
HETATM    5  C   UNL     1      -5.822   8.871  69.131  1.00  0.00    -0.039 A  
HETATM    6  C   UNL     1      -6.084   7.779  69.956  1.00  0.00    -0.026 A  
HETATM    7  C   UNL     1      -7.350  10.197  70.401  1.00  0.00    -0.016 A  
HETATM    8  C   UNL     1      -7.568   9.114  71.265  1.00  0.00    -0.064 A  
BRANCH   4   9
HETATM    9  C   UNL     1      -7.354   6.648  71.795  1.00  0.00    -0.086 A  
HETATM   10  C   UNL     1      -6.603   5.459  71.706  1.00  0.00    -0.048 A  
HETATM   11  C   UNL     1      -7.008   4.285  72.345  1.00  0.00    -0.056 A  
HETATM   12  C   UNL     1      -8.164   4.278  73.118  1.00  0.00    -0.091 A  
HETATM   13  C   UNL     1      -8.915   5.442  73.247  1.00  0.00    -0.120 A  
HETATM   14  C   UNL     1      -8.515   6.611  72.587  1.00  0.00    -0.124 A  
ENDBRANCH   4   9
ENDBRANCH   2   3
ENDBRANCH   1   2
BRANCH   1  15
HETATM   15  C   UNL     1      -8.906  11.652  67.479  1.00  0.00    -0.158 C  
HETATM   16  C   UNL     1     -11.353  11.263  67.356  1.00  0.00    -0.276 C  
HETATM   17  C   UNL     1      -9.875   9.328  67.819  1.00  0.00    -0.210 C  
HETATM   18  C   UNL     1      -9.991  10.653  67.076  1.00  0.00    -0.243 C  
HETATM   19  O   UNL     1     -11.951  11.176  68.418  1.00  0.00    -0.561 OA 
BRANCH  16  20
HETATM   20  O   UNL     1     -11.824  11.875  66.233  1.00  0.00    -0.546 OA 
BRANCH  20  21
HETATM   21  C   UNL     1     -12.000  13.295  66.343  1.00  0.00    -0.410 C  
HETATM   22  C   UNL     1     -11.156  13.947  65.262  1.00  0.00    -0.318 C  
ENDBRANCH  20  21
ENDBRANCH  16  20
ENDBRANCH   1  15
BRANCH   1  23
HETATM   23  N   UNL     1      -7.476  10.008  66.349  1.00  0.00    -0.101 N  
HETATM   24  C   UNL     1      -6.539   9.702  65.399  1.00  0.00    -0.082 C  
HETATM   25  H   UNL     1      -8.221   9.336  66.535  1.00  0.00     0.000 HD 
HETATM   26  O   UNL     1      -5.622  10.442  65.045  1.00  0.00    -0.112 OA 
BRANCH  24  27
HETATM   27  C   UNL     1      -6.776   8.412  64.661  1.00  0.00    -0.068 C  
BRANCH  27  28
HETATM   28  C   UNL     1      -8.159   7.894  65.004  1.00  0.00    -0.144 C  
HETATM   29  O   UNL     1      -9.364   6.275  66.274  1.00  0.00    -0.161 OA 
HETATM   30  C   UNL     1      -8.270   6.662  65.878  1.00  0.00    -0.132 C  
HETATM   31  O   UNL     1      -7.148   6.003  66.207  1.00  0.00    -0.065 OA 
ENDBRANCH  27  28
ENDBRANCH  24  27
ENDBRANCH   1  23
TORSDOF 9
ENDMDL
MODEL      242
REMARK 921   NORMALIZED FREE ENERGY PREDICTED BY IDOCK:   -2.99 KCAL/MOL
REMARK 922        TOTAL FREE ENERGY PREDICTED BY IDOCK:   -6.38 KCAL/MOL
REMARK 923 INTER-LIGAND FREE ENERGY PREDICTED BY IDOCK:   -6.84 KCAL/MOL
REMARK 924 INTRA-LIGAND FREE ENERGY PREDICTED BY IDOCK:    0.45 KCAL/MOL
REMARK 927      BINDING AFFINITY PREDICTED BY RF-SCORE:    0.00 PKD
ROOT
HETATM    1  C   UNL     1      -8.840  10.544  67.919  1.00  0.00    -0.133 C  
ENDROOT
BRANCH   1   2
HETATM    2  C   UNL     1      -8.915  10.365  69.461  1.00  0.00    -0.127 C  
BRANCH   2   3
HETATM    3  C   UNL     1      -9.237   9.003  70.036  1.00  0.00    -0.193 A  
HETATM    4  C   UNL     1      -9.704   6.293  70.808  1.00  0.00    -0.202 A  
HETATM    5  C   UNL     1      -8.542   8.424  71.096  1.00  0.00    -0.187 A  
HETATM    6  C   UNL     1      -8.743   7.090  71.444  1.00  0.00    -0.125 A  
HETATM    7  C   UNL     1     -10.270   8.257  69.455  1.00  0.00    -0.210 A  
HETATM    8  C   UNL     1     -10.510   6.932  69.847  1.00  0.00    -0.239 A  
BRANCH   4   9
HETATM    9  C   UNL     1      -9.804   4.848  71.098  1.00  0.00    -0.261 A  
HETATM   10  C   UNL     1     -10.064   4.371  72.398  1.00  0.00    -0.243 A  
HETATM   11  C   UNL     1     -10.047   3.007  72.697  1.00  0.00    -0.231 A  
HETATM   12  C   UNL     1      -9.797   2.078  71.693  1.00  0.00    -0.218 A  
HETATM   13  C   UNL     1      -9.561   2.514  70.393  1.00  0.00    -0.119 A  
HETATM   14  C   UNL     1      -9.559   3.884  70.103  1.00  0.00    -0.267 A  
ENDBRANCH   4   9
ENDBRANCH   2   3
ENDBRANCH   1   2
BRANCH   1  15
HETATM   15  C   UNL     1      -7.889  11.661  67.421  1.00  0.00    -0.147 C  
HETATM   16  C   UNL     1      -6.424  13.614  67.860  1.00  0.00    -0.156 C  
HETATM   17  C   UNL     1      -6.196  11.620  69.315  1.00  0.00    -0.086 C  
HETATM   18  C   UNL     1      -7.175  12.464  68.508  1.00  0.00    -0.103 C  
HETATM   19  O   UNL     1      -5.278  13.548  67.438  1.00  0.00    -0.333 OA 
BRANCH  16  20
HETATM   20  O   UNL     1      -7.200  14.734  67.865  1.00  0.00    -0.123 OA 
BRANCH  20  21
HETATM   21  C   UNL     1      -6.480  15.972  67.789  1.00  0.00    -0.157 C  
HETATM   22  C   UNL     1      -6.962  16.855  68.927  1.00  0.00    -0.213 C  
ENDBRANCH  20  21
ENDBRANCH  16  20
ENDBRANCH   1  15
BRANCH   1  23
HETATM   23  N   UNL     1     -10.162  10.740  67.316  1.00  0.00    -0.196 N  
HETATM   24  C   UNL     1     -10.434  11.757  66.441  1.00  0.00    -0.235 C  
HETATM   25  H   UNL     1     -10.911  10.091  67.559  1.00  0.00     0.000 HD 
HETATM   26  O   UNL     1      -9.638  12.632  66.104  1.00  0.00    -0.253 OA 
BRANCH  24  27
HETATM   27  C   UNL     1     -11.869  11.850  65.995  1.00  0.00    -0.101 C  
BRANCH  27  28
HETATM   28  C   UNL     1     -11.909  12.355  64.566  1.00  0.00    -0.452 C  
HETATM   29  O   UNL     1     -12.548  14.181  63.172  1.00  0.00    -0.686 OA 
HETATM   30  C   UNL     1     -12.590  13.680  64.290  1.00  0.00    -0.136 C  
HETATM   31  O   UNL     1     -13.241  14.290  65.292  1.00  0.00    -0.704 OA 
ENDBRANCH  27  28
ENDBRANCH  24  27
ENDBRANCH   1  23
TORSDOF 9
ENDMDL
MODEL      243
REMARK 921   NORMALIZED FREE ENERGY PREDICTED BY IDOCK:   -2.78 KCAL/MOL
REMARK 922        TOTAL FREE ENERGY PREDICTED BY IDOCK:   -6.07 KCAL/MOL
REMARK 923 INTER-LIGAND FREE ENERGY PREDICTED BY IDOCK:   -4.77 KCAL/MOL
REMARK 924 INTRA-LIGAND FREE ENERGY PREDICTED BY IDOCK:   -1.30 KCAL/MOL
REMARK 927      BINDING AFFINITY PREDICTED BY RF-SCORE:    0.00 PKD
ROOT
HETATM    1  C   UNL     1      -9.177   7.078  67.505  1.00  0.00    -0.124 C  
ENDROOT
BRANCH   1   2
HETATM    2  C   UNL     1      -8.806   7.787  68.839  1.00  0.00    -0.135 C  
BRANCH   2   3
HETATM    3  C   UNL     1      -9.279   9.203  69.085  1.00  0.00    -0.144 A  
HETATM    4  C   UNL     1     -10.178  11.912  69.181  1.00  0.00     0.089 A  
HETATM    5  C   UNL     1     -10.550   9.525  69.557  1.00  0.00    -0.238 A  
HETATM    6  C   UNL     1     -11.000  10.844  69.565  1.00  0.00    -0.306 A  
HETATM    7  C   UNL     1      -8.409  10.260  68.793  1.00  0.00    -0.125 A  
HETATM    8  C   UNL     1      -8.846  11.591  68.858  1.00  0.00     0.030 A  
BRANCH   4   9
HETATM    9  C   UNL     1     -10.718  13.282  69.066  1.00  0.00    -0.156 A  
HETATM   10  C   UNL     1     -11.839  13.700  69.810  1.00  0.00    -0.392 A  
HETATM   11  C   UNL     1     -12.421  14.955  69.620  1.00  0.00    -0.174 A  
HETATM   12  C   UNL     1     -11.876  15.841  68.698  1.00  0.00    -0.287 A  
HETATM   13  C   UNL     1     -10.754  15.470  67.963  1.00  0.00    -0.283 A  
HETATM   14  C   UNL     1     -10.187  14.202  68.143  1.00  0.00    -0.241 A  
ENDBRANCH   4   9
ENDBRANCH   2   3
ENDBRANCH   1   2
BRANCH   1  15
HETATM   15  C   UNL     1      -8.569   5.668  67.306  1.00  0.00    -0.109 C  
HETATM   16  C   UNL     1      -7.270   4.040  65.959  1.00  0.00    -0.068 C  
HETATM   17  C   UNL     1      -6.362   6.330  66.233  1.00  0.00    -0.042 C  
HETATM   18  C   UNL     1      -7.638   5.506  66.104  1.00  0.00    -0.091 C  
HETATM   19  O   UNL     1      -6.322   3.500  66.511  1.00  0.00    -0.034 OA 
BRANCH  16  20
HETATM   20  O   UNL     1      -8.123   3.434  65.086  1.00  0.00    -0.092 OA 
BRANCH  20  21
HETATM   21  C   UNL     1      -8.597   4.269  64.020  1.00  0.00    -0.116 C  
HETATM   22  C   UNL     1     -10.039   3.882  63.740  1.00  0.00    -0.186 C  
ENDBRANCH  20  21
ENDBRANCH  16  20
ENDBRANCH   1  15
BRANCH   1  23
HETATM   23  N   UNL     1      -8.868   7.902  66.333  1.00  0.00    -0.150 N  
HETATM   24  C   UNL     1      -9.734   8.839  65.837  1.00  0.00    -0.141 C  
HETATM   25  H   UNL     1      -7.970   7.771  65.866  1.00  0.00     0.000 HD 
HETATM   26  O   UNL     1     -10.863   9.060  66.272  1.00  0.00     0.223 OA 
BRANCH  24  27
HETATM   27  C   UNL     1      -9.280   9.524  64.575  1.00  0.00    -0.223 C  
BRANCH  27  28
HETATM   28  C   UNL     1      -9.169  11.013  64.836  1.00  0.00    -0.210 C  
HETATM   29  O   UNL     1     -10.287  13.109  64.623  1.00  0.00    -0.361 OA 
HETATM   30  C   UNL     1     -10.278  11.917  64.337  1.00  0.00    -0.297 C  
HETATM   31  O   UNL     1     -11.247  11.386  63.575  1.00  0.00    -0.391 OA 
ENDBRANCH  27  28
ENDBRANCH  24  27
ENDBRANCH   1  23
TORSDOF 9
ENDMDL
MODEL      244
REMARK 921   NORMALIZED FREE ENERGY PREDICTED BY IDOCK:   -2.74 KCAL/MOL
REMARK 922        TOTAL FREE ENERGY PREDICTED BY IDOCK:   -6.00 KCAL/MOL
REMARK 923 INTER-LIGAND FREE ENERGY PREDICTED BY IDOCK:   -4.44 KCAL/MOL
REMARK 924 INTRA-LIGAND FREE ENERGY PREDICTED BY IDOCK:   -1.57 KCAL/MOL
REMARK 927      BINDING AFFINITY PREDICTED BY RF-SCORE:    0.00 PKD
ROOT
HETATM    1  C   UNL     1      -9.125  10.913  67.680  1.00  0.00    -0.148 C  
ENDROOT
BRANCH   1   2
HETATM    2  C   UNL     1     -10.160   9.809  68.036  1.00  0.00    -0.204 C  
BRANCH   2   3
HETATM    3  C   UNL     1      -9.707   8.582  68.796  1.00  0.00    -0.168 A  
HETATM    4  C   UNL     1      -8.621   6.205  69.948  1.00  0.00    -0.132 A  
HETATM    5  C   UNL     1      -8.938   8.629  69.958  1.00  0.00    -0.148 A  
HETATM    6  C   UNL     1      -8.377   7.473  70.494  1.00  0.00    -0.131 A  
HETATM    7  C   UNL     1     -10.045   7.320  68.294  1.00  0.00    -0.193 A  
HETATM    8  C   UNL     1      -9.526   6.152  68.871  1.00  0.00    -0.131 A  
BRANCH   4   9
HETATM    9  C   UNL     1      -7.905   5.013  70.447  1.00  0.00    -0.073 A  
HETATM   10  C   UNL     1      -6.509   5.012  70.631  1.00  0.00    -0.034 A  
HETATM   11  C   UNL     1      -5.816   3.855  70.994  1.00  0.00    -0.013 A  
HETATM   12  C   UNL     1      -6.510   2.670  71.213  1.00  0.00    -0.019 A  
HETATM   13  C   UNL     1      -7.893   2.642  71.064  1.00  0.00    -0.049 A  
HETATM   14  C   UNL     1      -8.580   3.800  70.680  1.00  0.00    -0.110 A  
ENDBRANCH   4   9
ENDBRANCH   2   3
ENDBRANCH   1   2
BRANCH   1  15
HETATM   15  C   UNL     1      -9.575  11.929  66.601  1.00  0.00    -0.220 C  
HETATM   16  C   UNL     1     -10.785  13.990  65.937  1.00  0.00    -0.293 C  
HETATM   17  C   UNL     1      -9.331  14.074  67.942  1.00  0.00    -0.206 C  
HETATM   18  C   UNL     1     -10.262  13.193  67.119  1.00  0.00    -0.244 C  
HETATM   19  O   UNL     1     -10.144  14.832  65.325  1.00  0.00    -0.364 OA 
BRANCH  16  20
HETATM   20  O   UNL     1     -12.085  13.660  65.696  1.00  0.00    -0.374 OA 
BRANCH  20  21
HETATM   21  C   UNL     1     -12.414  13.450  64.315  1.00  0.00    -0.257 C  
HETATM   22  C   UNL     1     -12.759  11.981  64.144  1.00  0.00    -0.361 C  
ENDBRANCH  20  21
ENDBRANCH  16  20
ENDBRANCH   1  15
BRANCH   1  23
HETATM   23  N   UNL     1      -7.825  10.355  67.297  1.00  0.00    -0.106 N  
HETATM   24  C   UNL     1      -7.667   9.513  66.229  1.00  0.00    -0.101 C  
HETATM   25  H   UNL     1      -7.004  10.604  67.850  1.00  0.00     0.000 HD 
HETATM   26  O   UNL     1      -8.577   9.096  65.515  1.00  0.00    -0.150 OA 
BRANCH  24  27
HETATM   27  C   UNL     1      -6.274   8.971  66.045  1.00  0.00    -0.059 C  
BRANCH  27  28
HETATM   28  C   UNL     1      -5.982   7.976  67.150  1.00  0.00    -0.049 C  
HETATM   29  O   UNL     1      -5.841   5.656  67.685  1.00  0.00    -0.012 OA 
HETATM   30  C   UNL     1      -6.172   6.501  66.860  1.00  0.00    -0.040 C  
HETATM   31  O   UNL     1      -6.713   6.141  65.687  1.00  0.00    -0.046 OA 
ENDBRANCH  27  28
ENDBRANCH  24  27
ENDBRANCH   1  23
TORSDOF 9
ENDMDL
MODEL      245
REMARK 921   NORMALIZED FREE ENERGY PREDICTED BY IDOCK:   -2.65 KCAL/MOL
REMARK 922        TOTAL FREE ENERGY PREDICTED BY IDOCK:   -5.87 KCAL/MOL
REMARK 923 INTER-LIGAND FREE ENERGY PREDICTED BY IDOCK:   -6.52 KCAL/MOL
REMARK 924 INTRA-LIGAND FREE ENERGY PREDICTED BY IDOCK:    0.65 KCAL/MOL
REMARK 927      BINDING AFFINITY PREDICTED BY RF-SCORE:    0.00 PKD
ROOT
HETATM    1  C   UNL     1      -8.752  11.979  68.534  1.00  0.00    -0.095 C  
ENDROOT
BRANCH   1   2
HETATM    2  C   UNL     1      -8.894  12.763  67.198  1.00  0.00    -0.202 C  
BRANCH   2   3
HETATM    3  C   UNL     1      -8.164  14.077  67.026  1.00  0.00    -0.078 A  
HETATM    4  C   UNL     1      -7.033  16.698  66.938  1.00  0.00    -0.262 A  
HETATM    5  C   UNL     1      -6.895  14.333  67.541  1.00  0.00    -0.158 A  
HETATM    6  C   UNL     1      -6.363  15.621  67.533  1.00  0.00    -0.181 A  
HETATM    7  C   UNL     1      -8.806  15.115  66.339  1.00  0.00    -0.277 A  
HETATM    8  C   UNL     1      -8.242  16.397  66.281  1.00  0.00    -0.343 A  
BRANCH   4   9
HETATM    9  C   UNL     1      -6.516  18.076  67.064  1.00  0.00    -0.198 A  
HETATM   10  C   UNL     1      -6.450  18.731  68.309  1.00  0.00    -0.235 A  
HETATM   11  C   UNL     1      -6.069  20.070  68.416  1.00  0.00    -0.293 A  
HETATM   12  C   UNL     1      -5.714  20.785  67.279  1.00  0.00    -0.260 A  
HETATM   13  C   UNL     1      -5.744  20.161  66.034  1.00  0.00    -0.190 A  
HETATM   14  C   UNL     1      -6.147  18.824  65.931  1.00  0.00    -0.230 A  
ENDBRANCH   4   9
ENDBRANCH   2   3
ENDBRANCH   1   2
BRANCH   1  15
HETATM   15  C   UNL     1      -8.432  10.471  68.393  1.00  0.00    -0.128 C  
HETATM   16  C   UNL     1      -8.342   8.178  69.336  1.00  0.00    -0.123 C  
HETATM   17  C   UNL     1     -10.394   9.520  69.700  1.00  0.00    -0.236 C  
HETATM   18  C   UNL     1      -8.878   9.582  69.554  1.00  0.00    -0.185 C  
HETATM   19  O   UNL     1      -8.918   7.301  68.709  1.00  0.00    -0.130 OA 
BRANCH  16  20
HETATM   20  O   UNL     1      -7.152   8.032  69.984  1.00  0.00    -0.048 OA 
BRANCH  20  21
HETATM   21  C   UNL     1      -6.588   6.714  69.930  1.00  0.00    -0.048 C  
HETATM   22  C   UNL     1      -6.928   6.016  71.235  1.00  0.00    -0.068 C  
ENDBRANCH  20  21
ENDBRANCH  16  20
ENDBRANCH   1  15
BRANCH   1  23
HETATM   23  N   UNL     1      -9.923  12.140  69.401  1.00  0.00    -0.088 N  
HETATM   24  C   UNL     1     -11.136  12.569  68.934  1.00  0.00    -0.260 C  
HETATM   25  H   UNL     1      -9.830  11.925  70.393  1.00  0.00     0.000 HD 
HETATM   26  O   UNL     1     -11.370  12.908  67.775  1.00  0.00    -0.264 OA 
BRANCH  24  27
HETATM   27  C   UNL     1     -12.195  12.758  69.987  1.00  0.00    -0.279 C  
BRANCH  27  28
HETATM   28  C   UNL     1     -12.488  14.238  70.132  1.00  0.00    -0.393 C  
HETATM   29  O   UNL     1     -13.361  15.910  71.591  1.00  0.00    -0.431 OA 
HETATM   30  C   UNL     1     -13.205  14.712  71.379  1.00  0.00    -0.357 C  
HETATM   31  O   UNL     1     -13.667  13.796  72.243  1.00  0.00    -0.480 OA 
ENDBRANCH  27  28
ENDBRANCH  24  27
ENDBRANCH   1  23
TORSDOF 9
ENDMDL
MODEL      246
REMARK 921   NORMALIZED FREE ENERGY PREDICTED BY IDOCK:   -2.61 KCAL/MOL
REMARK 922        TOTAL FREE ENERGY PREDICTED BY IDOCK:   -5.81 KCAL/MOL
REMARK 923 INTER-LIGAND FREE ENERGY PREDICTED BY IDOCK:   -4.25 KCAL/MOL
REMARK 924 INTRA-LIGAND FREE ENERGY PREDICTED BY IDOCK:   -1.56 KCAL/MOL
REMARK 927      BINDING AFFINITY PREDICTED BY RF-SCORE:    0.00 PKD
ROOT
HETATM    1  C   UNL     1      -7.977  11.209  68.814  1.00  0.00    -0.144 C  
ENDROOT
BRANCH   1   2
HETATM    2  C   UNL     1      -9.343  10.531  69.115  1.00  0.00    -0.200 C  
BRANCH   2   3
HETATM    3  C   UNL     1      -9.614   9.138  68.592  1.00  0.00    -0.157 A  
HETATM    4  C   UNL     1      -9.839   6.564  67.374  1.00  0.00    -0.163 A  
HETATM    5  C   UNL     1      -9.338   7.974  69.307  1.00  0.00    -0.151 A  
HETATM    6  C   UNL     1      -9.411   6.723  68.699  1.00  0.00    -0.131 A  
HETATM    7  C   UNL     1     -10.139   8.996  67.302  1.00  0.00    -0.297 A  
HETATM    8  C   UNL     1     -10.266   7.731  66.711  1.00  0.00    -0.346 A  
BRANCH   4   9
HETATM    9  C   UNL     1      -9.776   5.247  66.708  1.00  0.00    -0.174 A  
HETATM   10  C   UNL     1      -8.926   4.224  67.173  1.00  0.00    -0.133 A  
HETATM   11  C   UNL     1      -8.779   3.020  66.481  1.00  0.00    -0.136 A  
HETATM   12  C   UNL     1      -9.504   2.795  65.316  1.00  0.00    -0.036 A  
HETATM   13  C   UNL     1     -10.372   3.775  64.843  1.00  0.00    -0.089 A  
HETATM   14  C   UNL     1     -10.500   4.988  65.530  1.00  0.00     0.002 A  
ENDBRANCH   4   9
ENDBRANCH   2   3
ENDBRANCH   1   2
BRANCH   1  15
HETATM   15  C   UNL     1      -8.033  12.437  67.872  1.00  0.00    -0.155 C  
HETATM   16  C   UNL     1      -8.082  14.891  67.511  1.00  0.00    -0.182 C  
HETATM   17  C   UNL     1      -6.428  13.969  69.111  1.00  0.00    -0.113 C  
HETATM   18  C   UNL     1      -7.829  13.799  68.536  1.00  0.00    -0.132 C  
HETATM   19  O   UNL     1      -7.234  15.354  66.762  1.00  0.00    -0.137 OA 
BRANCH  16  20
HETATM   20  O   UNL     1      -9.377  15.306  67.588  1.00  0.00    -0.197 OA 
BRANCH  20  21
HETATM   21  C   UNL     1      -9.891  15.920  66.398  1.00  0.00    -0.282 C  
HETATM   22  C   UNL     1     -10.757  14.893  65.689  1.00  0.00    -0.352 C  
ENDBRANCH  20  21
ENDBRANCH  16  20
ENDBRANCH   1  15
BRANCH   1  23
HETATM   23  N   UNL     1      -6.985  10.259  68.302  1.00  0.00    -0.073 N  
HETATM   24  C   UNL     1      -6.599  10.229  66.989  1.00  0.00    -0.074 C  
HETATM   25  H   UNL     1      -6.566   9.593  68.950  1.00  0.00     0.000 HD 
HETATM   26  O   UNL     1      -7.060  10.941  66.098  1.00  0.00    -0.135 OA 
BRANCH  24  27
HETATM   27  C   UNL     1      -5.636   9.128  66.632  1.00  0.00    -0.043 C  
BRANCH  27  28
HETATM   28  C   UNL     1      -6.418   7.853  66.380  1.00  0.00    -0.047 C  
HETATM   29  O   UNL     1      -7.230   6.376  64.692  1.00  0.00    -0.058 OA 
HETATM   30  C   UNL     1      -6.702   7.453  64.946  1.00  0.00    -0.047 C  
HETATM   31  O   UNL     1      -6.366   8.302  63.963  1.00  0.00    -0.066 OA 
ENDBRANCH  27  28
ENDBRANCH  24  27
ENDBRANCH   1  23
TORSDOF 9
ENDMDL
MODEL      247
REMARK 921   NORMALIZED FREE ENERGY PREDICTED BY IDOCK:   -2.61 KCAL/MOL
REMARK 922        TOTAL FREE ENERGY PREDICTED BY IDOCK:   -5.80 KCAL/MOL
REMARK 923 INTER-LIGAND FREE ENERGY PREDICTED BY IDOCK:   -4.84 KCAL/MOL
REMARK 924 INTRA-LIGAND FREE ENERGY PREDICTED BY IDOCK:   -0.96 KCAL/MOL
REMARK 927      BINDING AFFINITY PREDICTED BY RF-SCORE:    0.00 PKD
ROOT
HETATM    1  C   UNL     1      -6.935   8.504  69.984  1.00  0.00    -0.043 C  
ENDROOT
BRANCH   1   2
HETATM    2  C   UNL     1      -6.740  10.003  70.347  1.00  0.00    -0.138 C  
BRANCH   2   3
HETATM    3  C   UNL     1      -7.193  11.070  69.374  1.00  0.00    -0.114 A  
HETATM    4  C   UNL     1      -8.229  13.233  67.823  1.00  0.00    -0.168 A  
HETATM    5  C   UNL     1      -6.353  12.051  68.851  1.00  0.00    -0.081 A  
HETATM    6  C   UNL     1      -6.866  13.126  68.129  1.00  0.00    -0.111 A  
HETATM    7  C   UNL     1      -8.541  11.103  68.996  1.00  0.00    -0.033 A  
HETATM    8  C   UNL     1      -9.045  12.156  68.220  1.00  0.00    -0.191 A  
BRANCH   4   9
HETATM    9  C   UNL     1      -8.770  14.448  67.179  1.00  0.00    -0.243 A  
HETATM   10  C   UNL     1     -10.113  14.527  66.761  1.00  0.00    -0.264 A  
HETATM   11  C   UNL     1     -10.597  15.628  66.052  1.00  0.00    -0.336 A  
HETATM   12  C   UNL     1      -9.755  16.696  65.766  1.00  0.00    -0.194 A  
HETATM   13  C   UNL     1      -8.429  16.661  66.186  1.00  0.00    -0.308 A  
HETATM   14  C   UNL     1      -7.943  15.546  66.879  1.00  0.00    -0.264 A  
ENDBRANCH   4   9
ENDBRANCH   2   3
ENDBRANCH   1   2
BRANCH   1  15
HETATM   15  C   UNL     1      -8.313   8.136  69.381  1.00  0.00    -0.123 C  
HETATM   16  C   UNL     1      -9.714   7.380  67.479  1.00  0.00    -0.148 C  
HETATM   17  C   UNL     1      -7.612   6.155  67.953  1.00  0.00    -0.101 C  
HETATM   18  C   UNL     1      -8.288   7.520  67.983  1.00  0.00    -0.124 C  
HETATM   19  O   UNL     1     -10.430   6.408  67.674  1.00  0.00    -0.169 OA 
BRANCH  16  20
HETATM   20  O   UNL     1     -10.053   8.473  66.740  1.00  0.00    -0.251 OA 
BRANCH  20  21
HETATM   21  C   UNL     1      -9.141   8.797  65.681  1.00  0.00    -0.191 C  
HETATM   22  C   UNL     1      -9.212  10.297  65.457  1.00  0.00    -0.232 C  
ENDBRANCH  20  21
ENDBRANCH  16  20
ENDBRANCH   1  15
BRANCH   1  23
HETATM   23  N   UNL     1      -6.657   7.616  71.116  1.00  0.00    -0.038 N  
HETATM   24  C   UNL     1      -7.234   7.782  72.347  1.00  0.00    -0.082 C  
HETATM   25  H   UNL     1      -6.005   6.843  70.982  1.00  0.00     0.000 HD 
HETATM   26  O   UNL     1      -7.994   8.699  72.654  1.00  0.00    -0.354 OA 
BRANCH  24  27
HETATM   27  C   UNL     1      -6.759   6.827  73.409  1.00  0.00    -0.071 C  
BRANCH  27  28
HETATM   28  C   UNL     1      -7.941   6.412  74.262  1.00  0.00    -0.109 C  
HETATM   29  O   UNL     1      -9.706   4.823  74.492  1.00  0.00    -0.129 OA 
HETATM   30  C   UNL     1      -8.809   5.266  73.782  1.00  0.00    -0.118 C  
HETATM   31  O   UNL     1      -8.579   4.751  72.565  1.00  0.00    -0.114 OA 
ENDBRANCH  27  28
ENDBRANCH  24  27
ENDBRANCH   1  23
TORSDOF 9
ENDMDL
MODEL      248
REMARK 921   NORMALIZED FREE ENERGY PREDICTED BY IDOCK:   -2.58 KCAL/MOL
REMARK 922        TOTAL FREE ENERGY PREDICTED BY IDOCK:   -5.76 KCAL/MOL
REMARK 923 INTER-LIGAND FREE ENERGY PREDICTED BY IDOCK:   -3.72 KCAL/MOL
REMARK 924 INTRA-LIGAND FREE ENERGY PREDICTED BY IDOCK:   -2.04 KCAL/MOL
REMARK 927      BINDING AFFINITY PREDICTED BY RF-SCORE:    0.00 PKD
ROOT
HETATM    1  C   UNL     1      -7.758   5.092  68.594  1.00  0.00    -0.079 C  
ENDROOT
BRANCH   1   2
HETATM    2  C   UNL     1      -6.462   5.939  68.729  1.00  0.00    -0.049 C  
BRANCH   2   3
HETATM    3  C   UNL     1      -6.551   7.449  68.677  1.00  0.00    -0.045 A  
HETATM    4  C   UNL     1      -7.021  10.249  68.370  1.00  0.00    -0.069 A  
HETATM    5  C   UNL     1      -6.925   8.241  69.761  1.00  0.00    -0.048 A  
HETATM    6  C   UNL     1      -7.192   9.599  69.600  1.00  0.00    -0.084 A  
HETATM    7  C   UNL     1      -6.277   8.096  67.466  1.00  0.00    -0.052 A  
HETATM    8  C   UNL     1      -6.491   9.474  67.321  1.00  0.00    -0.070 A  
BRANCH   4   9
HETATM    9  C   UNL     1      -7.441  11.654  68.189  1.00  0.00    -0.103 A  
HETATM   10  C   UNL     1      -8.402  12.019  67.226  1.00  0.00    -0.176 A  
HETATM   11  C   UNL     1      -8.719  13.356  66.974  1.00  0.00    -0.195 A  
HETATM   12  C   UNL     1      -8.102  14.365  67.704  1.00  0.00    -0.188 A  
HETATM   13  C   UNL     1      -7.166  14.038  68.681  1.00  0.00    -0.114 A  
HETATM   14  C   UNL     1      -6.837  12.698  68.914  1.00  0.00    -0.097 A  
ENDBRANCH   4   9
ENDBRANCH   2   3
ENDBRANCH   1   2
BRANCH   1  15
HETATM   15  C   UNL     1      -7.638   3.820  67.718  1.00  0.00    -0.067 C  
HETATM   16  C   UNL     1      -7.758   2.688  65.515  1.00  0.00    -0.077 C  
HETATM   17  C   UNL     1      -6.550   4.847  65.664  1.00  0.00    -0.041 C  
HETATM   18  C   UNL     1      -7.722   4.039  66.208  1.00  0.00    -0.090 C  
HETATM   19  O   UNL     1      -6.770   2.057  65.165  1.00  0.00    -0.029 OA 
BRANCH  16  20
HETATM   20  O   UNL     1      -9.050   2.313  65.299  1.00  0.00    -0.132 OA 
BRANCH  20  21
HETATM   21  C   UNL     1      -9.916   3.358  64.834  1.00  0.00    -0.051 C  
HETATM   22  C   UNL     1     -10.271   3.051  63.390  1.00  0.00    -0.178 C  
ENDBRANCH  20  21
ENDBRANCH  16  20
ENDBRANCH   1  15
BRANCH   1  23
HETATM   23  N   UNL     1      -8.897   5.888  68.126  1.00  0.00    -0.111 N  
HETATM   24  C   UNL     1      -9.856   6.376  68.972  1.00  0.00    -0.138 C  
HETATM   25  H   UNL     1      -8.979   6.085  67.129  1.00  0.00     0.000 HD 
HETATM   26  O   UNL     1      -9.903   6.170  70.184  1.00  0.00    -0.166 OA 
BRANCH  24  27
HETATM   27  C   UNL     1     -10.995   7.095  68.299  1.00  0.00    -0.092 C  
BRANCH  27  28
HETATM   28  C   UNL     1     -10.524   7.614  66.955  1.00  0.00    -0.388 C  
HETATM   29  O   UNL     1     -10.027   9.580  65.699  1.00  0.00    -0.305 OA 
HETATM   30  C   UNL     1     -10.506   9.112  66.727  1.00  0.00    -0.196 C  
HETATM   31  O   UNL     1     -11.025   9.912  67.670  1.00  0.00    -0.289 OA 
ENDBRANCH  27  28
ENDBRANCH  24  27
ENDBRANCH   1  23
TORSDOF 9
ENDMDL
MODEL      249
REMARK 921   NORMALIZED FREE ENERGY PREDICTED BY IDOCK:   -2.45 KCAL/MOL
REMARK 922        TOTAL FREE ENERGY PREDICTED BY IDOCK:   -5.57 KCAL/MOL
REMARK 923 INTER-LIGAND FREE ENERGY PREDICTED BY IDOCK:   -5.19 KCAL/MOL
REMARK 924 INTRA-LIGAND FREE ENERGY PREDICTED BY IDOCK:   -0.38 KCAL/MOL
REMARK 927      BINDING AFFINITY PREDICTED BY RF-SCORE:    0.00 PKD
ROOT
HETATM    1  C   UNL     1      -6.630  11.030  67.617  1.00  0.00    -0.065 C  
ENDROOT
BRANCH   1   2
HETATM    2  C   UNL     1      -6.761  10.846  69.155  1.00  0.00    -0.079 C  
BRANCH   2   3
HETATM    3  C   UNL     1      -7.651   9.751  69.700  1.00  0.00    -0.120 A  
HETATM    4  C   UNL     1      -9.123   7.700  71.036  1.00  0.00    -0.150 A  
HETATM    5  C   UNL     1      -8.977   9.946  70.083  1.00  0.00    -0.159 A  
HETATM    6  C   UNL     1      -9.679   8.959  70.770  1.00  0.00    -0.281 A  
HETATM    7  C   UNL     1      -7.112   8.470  69.867  1.00  0.00    -0.051 A  
HETATM    8  C   UNL     1      -7.841   7.458  70.506  1.00  0.00    -0.097 A  
BRANCH   4   9
HETATM    9  C   UNL     1      -9.833   6.721  71.885  1.00  0.00    -0.173 A  
HETATM   10  C   UNL     1     -11.079   6.183  71.507  1.00  0.00    -0.342 A  
HETATM   11  C   UNL     1     -11.805   5.345  72.357  1.00  0.00    -0.042 A  
HETATM   12  C   UNL     1     -11.288   4.999  73.600  1.00  0.00    -0.128 A  
HETATM   13  C   UNL     1     -10.048   5.494  73.994  1.00  0.00    -0.241 A  
HETATM   14  C   UNL     1      -9.334   6.349  73.147  1.00  0.00    -0.142 A  
ENDBRANCH   4   9
ENDBRANCH   2   3
ENDBRANCH   1   2
BRANCH   1  15
HETATM   15  C   UNL     1      -6.598  12.496  67.119  1.00  0.00    -0.061 C  
HETATM   16  C   UNL     1      -6.925  14.924  67.507  1.00  0.00    -0.176 C  
HETATM   17  C   UNL     1      -5.698  13.613  69.217  1.00  0.00    -0.084 C  
HETATM   18  C   UNL     1      -6.819  13.569  68.185  1.00  0.00    -0.119 C  
HETATM   19  O   UNL     1      -5.977  15.654  67.257  1.00  0.00    -0.316 OA 
BRANCH  16  20
HETATM   20  O   UNL     1      -8.234  15.219  67.268  1.00  0.00    -0.172 OA 
BRANCH  20  21
HETATM   21  C   UNL     1      -8.809  16.191  68.152  1.00  0.00    -0.184 C  
HETATM   22  C   UNL     1     -10.296  15.898  68.252  1.00  0.00    -0.242 C  
ENDBRANCH  20  21
ENDBRANCH  16  20
ENDBRANCH   1  15
BRANCH   1  23
HETATM   23  N   UNL     1      -7.664  10.298  66.879  1.00  0.00    -0.103 N  
HETATM   24  C   UNL     1      -8.905  10.820  66.629  1.00  0.00    -0.145 C  
HETATM   25  H   UNL     1      -7.450   9.360  66.538  1.00  0.00     0.000 HD 
HETATM   26  O   UNL     1      -9.306  11.913  67.024  1.00  0.00    -0.179 OA 
BRANCH  24  27
HETATM   27  C   UNL     1      -9.862   9.888  65.935  1.00  0.00    -0.342 C  
BRANCH  27  28
HETATM   28  C   UNL     1     -10.129  10.408  64.536  1.00  0.00    -0.365 C  
HETATM   29  O   UNL     1      -9.207  10.664  62.351  1.00  0.00    -0.259 OA 
HETATM   30  C   UNL     1      -9.005  10.360  63.522  1.00  0.00    -0.233 C  
HETATM   31  O   UNL     1      -7.785   9.982  63.932  1.00  0.00    -0.140 OA 
ENDBRANCH  27  28
ENDBRANCH  24  27
ENDBRANCH   1  23
TORSDOF 9
ENDMDL
MODEL      250
REMARK 921   NORMALIZED FREE ENERGY PREDICTED BY IDOCK:   -2.41 KCAL/MOL
REMARK 922        TOTAL FREE ENERGY PREDICTED BY IDOCK:   -5.49 KCAL/MOL
REMARK 923 INTER-LIGAND FREE ENERGY PREDICTED BY IDOCK:   -4.54 KCAL/MOL
REMARK 924 INTRA-LIGAND FREE ENERGY PREDICTED BY IDOCK:   -0.95 KCAL/MOL
REMARK 927      BINDING AFFINITY PREDICTED BY RF-SCORE:    0.00 PKD
ROOT
HETATM    1  C   UNL     1      -9.225   6.259  65.861  1.00  0.00    -0.024 C  
ENDROOT
BRANCH   1   2
HETATM    2  C   UNL     1     -10.478   5.717  66.604  1.00  0.00    -0.340 C  
BRANCH   2   3
HETATM    3  C   UNL     1     -10.338   5.202  68.020  1.00  0.00    -0.142 A  
HETATM    4  C   UNL     1      -9.712   4.300  70.657  1.00  0.00    -0.274 A  
HETATM    5  C   UNL     1     -10.789   5.891  69.145  1.00  0.00    -0.406 A  
HETATM    6  C   UNL     1     -10.449   5.471  70.428  1.00  0.00    -0.356 A  
HETATM    7  C   UNL     1      -9.689   3.979  68.228  1.00  0.00    -0.133 A  
HETATM    8  C   UNL     1      -9.398   3.528  69.522  1.00  0.00    -0.243 A  
BRANCH   4   9
HETATM    9  C   UNL     1      -9.245   3.950  72.014  1.00  0.00    -0.173 A  
HETATM   10  C   UNL     1      -8.287   4.731  72.690  1.00  0.00    -0.112 A  
HETATM   11  C   UNL     1      -7.760   4.342  73.923  1.00  0.00    -0.081 A  
HETATM   12  C   UNL     1      -8.202   3.172  74.530  1.00  0.00    -0.069 A  
HETATM   13  C   UNL     1      -9.167   2.390  73.901  1.00  0.00    -0.089 A  
HETATM   14  C   UNL     1      -9.676   2.774  72.655  1.00  0.00    -0.190 A  
ENDBRANCH   4   9
ENDBRANCH   2   3
ENDBRANCH   1   2
BRANCH   1  15
HETATM   15  C   UNL     1      -8.058   5.254  65.696  1.00  0.00    -0.117 C  
HETATM   16  C   UNL     1      -7.178   3.063  64.937  1.00  0.00    -0.066 C  
HETATM   17  C   UNL     1      -8.633   4.345  63.393  1.00  0.00    -0.114 C  
HETATM   18  C   UNL     1      -8.359   4.013  64.855  1.00  0.00    -0.105 C  
HETATM   19  O   UNL     1      -6.210   3.087  64.189  1.00  0.00    -0.021 OA 
BRANCH  16  20
HETATM   20  O   UNL     1      -7.383   2.154  65.931  1.00  0.00    -0.062 OA 
BRANCH  20  21
HETATM   21  C   UNL     1      -6.677   2.419  67.151  1.00  0.00    -0.040 C  
HETATM   22  C   UNL     1      -5.297   1.797  67.028  1.00  0.00    -0.016 C  
ENDBRANCH  20  21
ENDBRANCH  16  20
ENDBRANCH   1  15
BRANCH   1  23
HETATM   23  N   UNL     1      -8.710   7.492  66.463  1.00  0.00    -0.133 N  
HETATM   24  C   UNL     1      -9.529   8.490  66.921  1.00  0.00    -0.183 C  
HETATM   25  H   UNL     1      -7.701   7.613  66.544  1.00  0.00     0.000 HD 
HETATM   26  O   UNL     1     -10.756   8.493  66.838  1.00  0.00    -0.265 OA 
BRANCH  24  27
HETATM   27  C   UNL     1      -8.819   9.717  67.426  1.00  0.00    -0.137 C  
BRANCH  27  28
HETATM   28  C   UNL     1      -8.404   9.489  68.866  1.00  0.00    -0.121 C  
HETATM   29  O   UNL     1      -7.090  10.340  70.665  1.00  0.00    -0.322 OA 
HETATM   30  C   UNL     1      -7.371  10.416  69.474  1.00  0.00    -0.144 C  
HETATM   31  O   UNL     1      -6.770  11.317  68.682  1.00  0.00    -0.062 OA 
ENDBRANCH  27  28
ENDBRANCH  24  27
ENDBRANCH   1  23
TORSDOF 9
ENDMDL
MODEL      251
REMARK 921   NORMALIZED FREE ENERGY PREDICTED BY IDOCK:   -2.16 KCAL/MOL
REMARK 922        TOTAL FREE ENERGY PREDICTED BY IDOCK:   -5.11 KCAL/MOL
REMARK 923 INTER-LIGAND FREE ENERGY PREDICTED BY IDOCK:   -4.37 KCAL/MOL
REMARK 924 INTRA-LIGAND FREE ENERGY PREDICTED BY IDOCK:   -0.74 KCAL/MOL
REMARK 927      BINDING AFFINITY PREDICTED BY RF-SCORE:    0.00 PKD
ROOT
HETATM    1  C   UNL     1      -9.456  16.739  67.876  1.00  0.00    -0.230 C  
ENDROOT
BRANCH   1   2
HETATM    2  C   UNL     1      -9.302  15.593  68.914  1.00  0.00    -0.223 C  
BRANCH   2   3
HETATM    3  C   UNL     1      -8.430  14.402  68.584  1.00  0.00    -0.156 A  
HETATM    4  C   UNL     1      -7.032  11.950  68.144  1.00  0.00    -0.078 A  
HETATM    5  C   UNL     1      -8.310  13.858  67.306  1.00  0.00    -0.199 A  
HETATM    6  C   UNL     1      -7.662  12.643  67.101  1.00  0.00    -0.094 A  
HETATM    7  C   UNL     1      -7.723  13.780  69.621  1.00  0.00     0.647 A  
HETATM    8  C   UNL     1      -7.022  12.587  69.401  1.00  0.00     0.098 A  
BRANCH   4   9
HETATM    9  C   UNL     1      -6.473  10.600  67.930  1.00  0.00    -0.059 A  
HETATM   10  C   UNL     1      -6.147   9.756  69.010  1.00  0.00    -0.041 A  
HETATM   11  C   UNL     1      -5.515   8.525  68.816  1.00  0.00    -0.036 A  
HETATM   12  C   UNL     1      -5.218   8.092  67.529  1.00  0.00    -0.033 A  
HETATM   13  C   UNL     1      -5.548   8.891  66.438  1.00  0.00    -0.045 A  
HETATM   14  C   UNL     1      -6.164  10.132  66.640  1.00  0.00    -0.070 A  
ENDBRANCH   4   9
ENDBRANCH   2   3
ENDBRANCH   1   2
BRANCH   1  15
HETATM   15  C   UNL     1      -9.838  16.296  66.442  1.00  0.00    -0.310 C  
HETATM   16  C   UNL     1     -10.939  14.708  64.886  1.00  0.00    -0.407 C  
HETATM   17  C   UNL     1     -12.189  15.444  66.896  1.00  0.00     0.768 C  
HETATM   18  C   UNL     1     -10.807  15.118  66.343  1.00  0.00    -0.326 C  
HETATM   19  O   UNL     1     -11.748  15.180  64.100  1.00  0.00    -0.280 OA 
BRANCH  16  20
HETATM   20  O   UNL     1     -10.058  13.708  64.606  1.00  0.00    -0.357 OA 
BRANCH  20  21
HETATM   21  C   UNL     1     -10.652  12.480  64.162  1.00  0.00    -0.398 C  
HETATM   22  C   UNL     1      -9.967  11.344  64.900  1.00  0.00    -0.311 C  
ENDBRANCH  20  21
ENDBRANCH  16  20
ENDBRANCH   1  15
BRANCH   1  23
HETATM   23  N   UNL     1      -8.268  17.595  67.810  1.00  0.00    -0.221 N  
HETATM   24  C   UNL     1      -8.277  18.906  68.204  1.00  0.00    -0.311 C  
HETATM   25  H   UNL     1      -7.398  17.197  67.456  1.00  0.00     0.000 HD 
HETATM   26  O   UNL     1      -9.266  19.519  68.601  1.00  0.00    -0.359 OA 
BRANCH  24  27
HETATM   27  C   UNL     1      -6.986  19.648  67.981  1.00  0.00    -0.299 C  
BRANCH  27  28
HETATM   28  C   UNL     1      -7.004  20.262  66.595  1.00  0.00    -0.287 C  
HETATM   29  O   UNL     1      -6.740  19.807  64.269  1.00  0.00    -0.243 OA 
HETATM   30  C   UNL     1      -6.631  19.387  65.415  1.00  0.00    -0.278 C  
HETATM   31  O   UNL     1      -6.177  18.147  65.652  1.00  0.00    -0.232 OA 
ENDBRANCH  27  28
ENDBRANCH  24  27
ENDBRANCH   1  23
TORSDOF 9
ENDMDL
MODEL      252
REMARK 921   NORMALIZED FREE ENERGY PREDICTED BY IDOCK:   -2.09 KCAL/MOL
REMARK 922        TOTAL FREE ENERGY PREDICTED BY IDOCK:   -5.01 KCAL/MOL
REMARK 923 INTER-LIGAND FREE ENERGY PREDICTED BY IDOCK:   -4.10 KCAL/MOL
REMARK 924 INTRA-LIGAND FREE ENERGY PREDICTED BY IDOCK:   -0.90 KCAL/MOL
REMARK 927      BINDING AFFINITY PREDICTED BY RF-SCORE:    0.00 PKD
ROOT
HETATM    1  C   UNL     1      -9.596   5.771  65.609  1.00  0.00     0.163 C  
ENDROOT
BRANCH   1   2
HETATM    2  C   UNL     1     -10.569   5.044  66.579  1.00  0.00    -0.289 C  
BRANCH   2   3
HETATM    3  C   UNL     1     -10.065   4.575  67.926  1.00  0.00    -0.047 A  
HETATM    4  C   UNL     1      -9.462   3.592  70.539  1.00  0.00    -0.255 A  
HETATM    5  C   UNL     1      -9.272   3.443  68.107  1.00  0.00    -0.234 A  
HETATM    6  C   UNL     1      -9.013   2.944  69.381  1.00  0.00    -0.171 A  
HETATM    7  C   UNL     1     -10.438   5.293  69.068  1.00  0.00    -0.206 A  
HETATM    8  C   UNL     1     -10.126   4.820  70.351  1.00  0.00    -0.301 A  
BRANCH   4   9
HETATM    9  C   UNL     1      -9.295   2.972  71.870  1.00  0.00    -0.189 A  
HETATM   10  C   UNL     1     -10.402   2.665  72.685  1.00  0.00    -0.226 A  
HETATM   11  C   UNL     1     -10.244   2.185  73.987  1.00  0.00    -0.171 A  
HETATM   12  C   UNL     1      -8.970   1.969  74.499  1.00  0.00    -0.075 A  
HETATM   13  C   UNL     1      -7.855   2.239  73.710  1.00  0.00    -0.053 A  
HETATM   14  C   UNL     1      -8.019   2.740  72.413  1.00  0.00    -0.055 A  
ENDBRANCH   4   9
ENDBRANCH   2   3
ENDBRANCH   1   2
BRANCH   1  15
HETATM   15  C   UNL     1      -8.460   4.898  65.023  1.00  0.00    -0.142 C  
HETATM   16  C   UNL     1      -7.377   3.751  63.109  1.00  0.00    -0.050 C  
HETATM   17  C   UNL     1      -8.145   6.087  62.799  1.00  0.00    -0.097 C  
HETATM   18  C   UNL     1      -8.436   4.765  63.500  1.00  0.00    -0.127 C  
HETATM   19  O   UNL     1      -6.201   4.015  62.902  1.00  0.00    -0.017 OA 
BRANCH  16  20
HETATM   20  O   UNL     1      -7.943   2.519  62.976  1.00  0.00    -0.066 OA 
BRANCH  20  21
HETATM   21  C   UNL     1      -8.216   1.839  64.209  1.00  0.00    -0.073 C  
HETATM   22  C   UNL     1      -9.693   1.485  64.221  1.00  0.00    -0.092 C  
ENDBRANCH  20  21
ENDBRANCH  16  20
ENDBRANCH   1  15
BRANCH   1  23
HETATM   23  N   UNL     1      -9.013   6.977  66.205  1.00  0.00    -0.154 N  
HETATM   24  C   UNL     1      -9.773   7.963  66.773  1.00  0.00    -0.234 C  
HETATM   25  H   UNL     1      -7.999   7.085  66.197  1.00  0.00     0.000 HD 
HETATM   26  O   UNL     1     -11.003   7.980  66.805  1.00  0.00    -0.092 OA 
BRANCH  24  27
HETATM   27  C   UNL     1      -9.004   9.165  67.255  1.00  0.00    -0.136 C  
BRANCH  27  28
HETATM   28  C   UNL     1      -8.591   8.940  68.696  1.00  0.00    -0.133 C  
HETATM   29  O   UNL     1      -9.390   8.724  70.933  1.00  0.00    -0.176 OA 
HETATM   30  C   UNL     1      -9.656   9.010  69.770  1.00  0.00    -0.175 C  
HETATM   31  O   UNL     1     -10.894   9.394  69.425  1.00  0.00    -0.228 OA 
ENDBRANCH  27  28
ENDBRANCH  24  27
ENDBRANCH   1  23
TORSDOF 9
ENDMDL
MODEL      253
REMARK 921   NORMALIZED FREE ENERGY PREDICTED BY IDOCK:   -1.75 KCAL/MOL
REMARK 922        TOTAL FREE ENERGY PREDICTED BY IDOCK:   -4.49 KCAL/MOL
REMARK 923 INTER-LIGAND FREE ENERGY PREDICTED BY IDOCK:   -4.60 KCAL/MOL
REMARK 924 INTRA-LIGAND FREE ENERGY PREDICTED BY IDOCK:    0.11 KCAL/MOL
REMARK 927      BINDING AFFINITY PREDICTED BY RF-SCORE:    0.00 PKD
ROOT
HETATM    1  C   UNL     1      -9.311   6.291  65.832  1.00  0.00     0.027 C  
ENDROOT
BRANCH   1   2
HETATM    2  C   UNL     1     -10.589   5.709  66.499  1.00  0.00    -0.320 C  
BRANCH   2   3
HETATM    3  C   UNL     1     -10.525   5.220  67.929  1.00  0.00    -0.154 A  
HETATM    4  C   UNL     1     -10.036   4.323  70.596  1.00  0.00    -0.218 A  
HETATM    5  C   UNL     1     -10.893   5.992  69.030  1.00  0.00    -0.412 A  
HETATM    6  C   UNL     1     -10.617   5.569  70.328  1.00  0.00    -0.357 A  
HETATM    7  C   UNL     1     -10.036   3.932  68.177  1.00  0.00     0.093 A  
HETATM    8  C   UNL     1      -9.812   3.485  69.486  1.00  0.00     0.094 A  
BRANCH   4   9
HETATM    9  C   UNL     1      -9.626   3.956  71.967  1.00  0.00    -0.210 A  
HETATM   10  C   UNL     1      -8.372   3.370  72.232  1.00  0.00    -0.081 A  
HETATM   11  C   UNL     1      -8.027   2.918  73.508  1.00  0.00    -0.064 A  
HETATM   12  C   UNL     1      -8.919   3.069  74.563  1.00  0.00    -0.091 A  
HETATM   13  C   UNL     1     -10.156   3.666  74.342  1.00  0.00    -0.211 A  
HETATM   14  C   UNL     1     -10.505   4.099  73.057  1.00  0.00    -0.247 A  
ENDBRANCH   4   9
ENDBRANCH   2   3
ENDBRANCH   1   2
BRANCH   1  15
HETATM   15  C   UNL     1      -8.069   5.366  65.843  1.00  0.00    -0.108 C  
HETATM   16  C   UNL     1      -6.981   3.196  65.334  1.00  0.00    -0.049 C  
HETATM   17  C   UNL     1      -8.381   4.249  63.581  1.00  0.00    -0.100 C  
HETATM   18  C   UNL     1      -8.213   4.047  65.082  1.00  0.00    -0.101 C  
HETATM   19  O   UNL     1      -5.957   3.236  64.667  1.00  0.00    -0.020 OA 
BRANCH  16  20
HETATM   20  O   UNL     1      -7.209   2.351  66.379  1.00  0.00    -0.058 OA 
BRANCH  20  21
HETATM   21  C   UNL     1      -6.747   2.821  67.653  1.00  0.00    -0.040 C  
HETATM   22  C   UNL     1      -6.907   1.685  68.647  1.00  0.00    -0.032 C  
ENDBRANCH  20  21
ENDBRANCH  16  20
ENDBRANCH   1  15
BRANCH   1  23
HETATM   23  N   UNL     1      -8.938   7.596  66.388  1.00  0.00    -0.160 N  
HETATM   24  C   UNL     1      -9.840   8.424  67.000  1.00  0.00    -0.230 C  
HETATM   25  H   UNL     1      -7.967   7.899  66.316  1.00  0.00     0.000 HD 
HETATM   26  O   UNL     1     -11.045   8.203  67.108  1.00  0.00    -0.020 OA 
BRANCH  24  27
HETATM   27  C   UNL     1      -9.292   9.759  67.429  1.00  0.00    -0.155 C  
BRANCH  27  28
HETATM   28  C   UNL     1      -9.583  10.782  66.348  1.00  0.00    -0.226 C  
HETATM   29  O   UNL     1     -11.091  12.492  65.651  1.00  0.00    -0.285 OA 
HETATM   30  C   UNL     1     -10.869  11.578  66.437  1.00  0.00    -0.285 C  
HETATM   31  O   UNL     1     -11.758  11.260  67.390  1.00  0.00    -0.580 OA 
ENDBRANCH  27  28
ENDBRANCH  24  27
ENDBRANCH   1  23
TORSDOF 9
ENDMDL
MODEL      254
REMARK 921   NORMALIZED FREE ENERGY PREDICTED BY IDOCK:   -1.70 KCAL/MOL
REMARK 922        TOTAL FREE ENERGY PREDICTED BY IDOCK:   -4.42 KCAL/MOL
REMARK 923 INTER-LIGAND FREE ENERGY PREDICTED BY IDOCK:   -4.19 KCAL/MOL
REMARK 924 INTRA-LIGAND FREE ENERGY PREDICTED BY IDOCK:   -0.23 KCAL/MOL
REMARK 927      BINDING AFFINITY PREDICTED BY RF-SCORE:    0.00 PKD
ROOT
HETATM    1  C   UNL     1     -10.192   5.435  71.175  1.00  0.00    -0.221 C  
ENDROOT
BRANCH   1   2
HETATM    2  C   UNL     1     -10.443   6.774  71.925  1.00  0.00    -0.221 C  
BRANCH   2   3
HETATM    3  C   UNL     1     -10.294   8.082  71.181  1.00  0.00    -0.229 A  
HETATM    4  C   UNL     1      -9.799  10.366  69.539  1.00  0.00    -0.211 A  
HETATM    5  C   UNL     1     -11.315   8.674  70.440  1.00  0.00    -0.203 A  
HETATM    6  C   UNL     1     -11.062   9.763  69.610  1.00  0.00    -0.251 A  
HETATM    7  C   UNL     1      -9.053   8.729  71.203  1.00  0.00    -0.285 A  
HETATM    8  C   UNL     1      -8.815   9.860  70.411  1.00  0.00     0.025 A  
BRANCH   4   9
HETATM    9  C   UNL     1      -9.518  11.428  68.551  1.00  0.00    -0.183 A  
HETATM   10  C   UNL     1     -10.179  11.474  67.308  1.00  0.00    -0.229 A  
HETATM   11  C   UNL     1      -9.836  12.408  66.328  1.00  0.00    -0.257 A  
HETATM   12  C   UNL     1      -8.839  13.344  66.578  1.00  0.00     0.005 A  
HETATM   13  C   UNL     1      -8.184  13.343  67.805  1.00  0.00    -0.172 A  
HETATM   14  C   UNL     1      -8.517  12.391  68.777  1.00  0.00     0.133 A  
ENDBRANCH   4   9
ENDBRANCH   2   3
ENDBRANCH   1   2
BRANCH   1  15
HETATM   15  C   UNL     1      -9.434   4.350  71.979  1.00  0.00    -0.196 C  
HETATM   16  C   UNL     1      -8.278   3.591  74.038  1.00  0.00    -0.082 C  
HETATM   17  C   UNL     1     -10.449   4.765  74.271  1.00  0.00    -0.337 C  
HETATM   18  C   UNL     1      -9.169   4.671  73.450  1.00  0.00    -0.118 C  
HETATM   19  O   UNL     1      -8.682   2.554  74.546  1.00  0.00    -0.069 OA 
BRANCH  16  20
HETATM   20  O   UNL     1      -6.973   3.974  73.959  1.00  0.00    -0.056 OA 
BRANCH  20  21
HETATM   21  C   UNL     1      -6.219   3.350  72.911  1.00  0.00    -0.009 C  
HETATM   22  C   UNL     1      -5.786   1.982  73.410  1.00  0.00     0.000 C  
ENDBRANCH  20  21
ENDBRANCH  16  20
ENDBRANCH   1  15
BRANCH   1  23
HETATM   23  N   UNL     1      -9.517   5.636  69.889  1.00  0.00    -0.152 N  
HETATM   24  C   UNL     1      -8.192   5.969  69.793  1.00  0.00    -0.118 C  
HETATM   25  H   UNL     1     -10.057   5.523  69.031  1.00  0.00     0.000 HD 
HETATM   26  O   UNL     1      -7.445   6.182  70.745  1.00  0.00    -0.086 OA 
BRANCH  24  27
HETATM   27  C   UNL     1      -7.698   6.220  68.393  1.00  0.00    -0.104 C  
BRANCH  27  28
HETATM   28  C   UNL     1      -8.882   6.536  67.501  1.00  0.00    -0.112 C  
HETATM   29  O   UNL     1     -10.603   5.585  66.151  1.00  0.00    -0.182 OA 
HETATM   30  C   UNL     1      -9.575   5.391  66.791  1.00  0.00    -0.147 C  
HETATM   31  O   UNL     1      -9.039   4.164  66.873  1.00  0.00    -0.123 OA 
ENDBRANCH  27  28
ENDBRANCH  24  27
ENDBRANCH   1  23
TORSDOF 9
ENDMDL
MODEL      255
REMARK 921   NORMALIZED FREE ENERGY PREDICTED BY IDOCK:   -1.70 KCAL/MOL
REMARK 922        TOTAL FREE ENERGY PREDICTED BY IDOCK:   -4.42 KCAL/MOL
REMARK 923 INTER-LIGAND FREE ENERGY PREDICTED BY IDOCK:   -3.58 KCAL/MOL
REMARK 924 INTRA-LIGAND FREE ENERGY PREDICTED BY IDOCK:   -0.84 KCAL/MOL
REMARK 927      BINDING AFFINITY PREDICTED BY RF-SCORE:    0.00 PKD
ROOT
HETATM    1  C   UNL     1     -10.363   9.153  66.834  1.00  0.00    -0.251 C  
ENDROOT
BRANCH   1   2
HETATM    2  C   UNL     1      -9.802   9.309  68.276  1.00  0.00    -0.179 C  
BRANCH   2   3
HETATM    3  C   UNL     1     -10.326  10.417  69.162  1.00  0.00    -0.241 A  
HETATM    4  C   UNL     1     -11.471  12.648  70.529  1.00  0.00     0.503 A  
HETATM    5  C   UNL     1     -11.340  10.245  70.103  1.00  0.00    -0.388 A  
HETATM    6  C   UNL     1     -11.923  11.338  70.738  1.00  0.00    -0.383 A  
HETATM    7  C   UNL     1      -9.793  11.703  69.014  1.00  0.00     0.032 A  
HETATM    8  C   UNL     1     -10.343  12.795  69.699  1.00  0.00     0.890 A  
BRANCH   4   9
HETATM    9  C   UNL     1     -12.193  13.801  71.105  1.00  0.00    -0.362 A  
HETATM   10  C   UNL     1     -13.595  13.804  71.237  1.00  0.00    -0.170 A  
HETATM   11  C   UNL     1     -14.290  14.934  71.674  1.00  0.00    -0.660 A  
HETATM   12  C   UNL     1     -13.594  16.086  72.021  1.00  0.00    -0.013 A  
HETATM   13  C   UNL     1     -12.206  16.109  71.926  1.00  0.00    -0.497 A  
HETATM   14  C   UNL     1     -11.516  14.980  71.468  1.00  0.00    -0.377 A  
ENDBRANCH   4   9
ENDBRANCH   2   3
ENDBRANCH   1   2
BRANCH   1  15
HETATM   15  C   UNL     1      -9.889   7.896  66.064  1.00  0.00     0.126 C  
HETATM   16  C   UNL     1      -8.778   5.679  66.011  1.00  0.00    -0.144 C  
HETATM   17  C   UNL     1     -10.420   6.130  67.813  1.00  0.00    -0.290 C  
HETATM   18  C   UNL     1      -9.351   6.751  66.922  1.00  0.00    -0.176 C  
HETATM   19  O   UNL     1      -9.420   4.752  65.535  1.00  0.00    -0.158 OA 
BRANCH  16  20
HETATM   20  O   UNL     1      -7.441   5.877  65.847  1.00  0.00    -0.081 OA 
BRANCH  20  21
HETATM   21  C   UNL     1      -6.898   5.379  64.617  1.00  0.00    -0.048 C  
HETATM   22  C   UNL     1      -5.798   4.391  64.966  1.00  0.00    -0.018 C  
ENDBRANCH  20  21
ENDBRANCH  16  20
ENDBRANCH   1  15
BRANCH   1  23
HETATM   23  N   UNL     1     -10.115  10.339  66.009  1.00  0.00    -0.246 N  
HETATM   24  C   UNL     1     -10.967  11.410  65.977  1.00  0.00    -0.226 C  
HETATM   25  H   UNL     1      -9.272  10.368  65.435  1.00  0.00     0.000 HD 
HETATM   26  O   UNL     1     -12.037  11.482  66.580  1.00  0.00    -0.297 OA 
BRANCH  24  27
HETATM   27  C   UNL     1     -10.591  12.497  65.006  1.00  0.00    -0.329 C  
BRANCH  27  28
HETATM   28  C   UNL     1      -9.203  12.216  64.465  1.00  0.00     0.474 C  
HETATM   29  O   UNL     1      -7.978  11.442  62.571  1.00  0.00    -0.001 OA 
HETATM   30  C   UNL     1      -9.078  11.583  63.095  1.00  0.00    -0.085 C  
HETATM   31  O   UNL     1     -10.193  11.178  62.469  1.00  0.00     0.017 OA 
ENDBRANCH  27  28
ENDBRANCH  24  27
ENDBRANCH   1  23
TORSDOF 9
ENDMDL
MODEL      256
REMARK 921   NORMALIZED FREE ENERGY PREDICTED BY IDOCK:   -1.70 KCAL/MOL
REMARK 922        TOTAL FREE ENERGY PREDICTED BY IDOCK:   -4.41 KCAL/MOL
REMARK 923 INTER-LIGAND FREE ENERGY PREDICTED BY IDOCK:   -3.11 KCAL/MOL
REMARK 924 INTRA-LIGAND FREE ENERGY PREDICTED BY IDOCK:   -1.30 KCAL/MOL
REMARK 927      BINDING AFFINITY PREDICTED BY RF-SCORE:    0.00 PKD
ROOT
HETATM    1  C   UNL     1      -7.466   4.142  68.849  1.00  0.00    -0.055 C  
ENDROOT
BRANCH   1   2
HETATM    2  C   UNL     1      -6.080   4.844  68.891  1.00  0.00    -0.030 C  
BRANCH   2   3
HETATM    3  C   UNL     1      -6.011   6.355  68.868  1.00  0.00    -0.021 A  
HETATM    4  C   UNL     1      -6.224   9.198  68.687  1.00  0.00    -0.045 A  
HETATM    5  C   UNL     1      -6.045   7.151  70.011  1.00  0.00    -0.024 A  
HETATM    6  C   UNL     1      -6.189   8.533  69.920  1.00  0.00    -0.031 A  
HETATM    7  C   UNL     1      -5.942   7.005  67.629  1.00  0.00    -0.028 A  
HETATM    8  C   UNL     1      -6.029   8.401  67.542  1.00  0.00    -0.047 A  
BRANCH   4   9
HETATM    9  C   UNL     1      -6.516  10.644  68.611  1.00  0.00    -0.051 A  
HETATM   10  C   UNL     1      -6.707  11.295  67.377  1.00  0.00    -0.085 A  
HETATM   11  C   UNL     1      -6.871  12.680  67.295  1.00  0.00    -0.102 A  
HETATM   12  C   UNL     1      -6.878  13.449  68.453  1.00  0.00    -0.102 A  
HETATM   13  C   UNL     1      -6.718  12.834  69.691  1.00  0.00     0.090 A  
HETATM   14  C   UNL     1      -6.533  11.448  69.766  1.00  0.00    -0.133 A  
ENDBRANCH   4   9
ENDBRANCH   2   3
ENDBRANCH   1   2
BRANCH   1  15
HETATM   15  C   UNL     1      -7.856   3.511  67.490  1.00  0.00    -0.078 C  
HETATM   16  C   UNL     1      -7.630   3.368  65.024  1.00  0.00    -0.077 C  
HETATM   17  C   UNL     1      -5.565   3.477  66.390  1.00  0.00    -0.018 C  
HETATM   18  C   UNL     1      -7.014   3.939  66.288  1.00  0.00    -0.062 C  
HETATM   19  O   UNL     1      -7.370   2.267  64.557  1.00  0.00    -0.056 OA 
BRANCH  16  20
HETATM   20  O   UNL     1      -8.472   4.282  64.466  1.00  0.00    -0.103 OA 
BRANCH  20  21
HETATM   21  C   UNL     1      -7.917   5.592  64.290  1.00  0.00    -0.125 C  
HETATM   22  C   UNL     1      -8.656   6.533  65.226  1.00  0.00    -0.036 C  
ENDBRANCH  20  21
ENDBRANCH  16  20
ENDBRANCH   1  15
BRANCH   1  23
HETATM   23  N   UNL     1      -8.550   5.022  69.295  1.00  0.00    -0.088 N  
HETATM   24  C   UNL     1      -9.570   4.592  70.101  1.00  0.00    -0.194 C  
HETATM   25  H   UNL     1      -8.544   5.996  68.992  1.00  0.00     0.000 HD 
HETATM   26  O   UNL     1      -9.721   3.437  70.495  1.00  0.00    -0.177 OA 
BRANCH  24  27
HETATM   27  C   UNL     1     -10.637   5.615  70.382  1.00  0.00    -0.364 C  
BRANCH  27  28
HETATM   28  C   UNL     1      -9.978   6.904  70.833  1.00  0.00    -0.200 C  
HETATM   29  O   UNL     1     -10.336   8.976  71.958  1.00  0.00    -0.339 OA 
HETATM   30  C   UNL     1     -10.843   7.969  71.476  1.00  0.00    -0.232 C  
HETATM   31  O   UNL     1     -12.172   7.788  71.504  1.00  0.00    -0.299 OA 
ENDBRANCH  27  28
ENDBRANCH  24  27
ENDBRANCH   1  23
TORSDOF 9
ENDMDL
MODEL      257
REMARK 921   NORMALIZED FREE ENERGY PREDICTED BY IDOCK:   -1.53 KCAL/MOL
REMARK 922        TOTAL FREE ENERGY PREDICTED BY IDOCK:   -4.16 KCAL/MOL
REMARK 923 INTER-LIGAND FREE ENERGY PREDICTED BY IDOCK:   -2.56 KCAL/MOL
REMARK 924 INTRA-LIGAND FREE ENERGY PREDICTED BY IDOCK:   -1.61 KCAL/MOL
REMARK 927      BINDING AFFINITY PREDICTED BY RF-SCORE:    0.00 PKD
ROOT
HETATM    1  C   UNL     1     -10.045   6.436  68.053  1.00  0.00    -0.148 C  
ENDROOT
BRANCH   1   2
HETATM    2  C   UNL     1      -9.740   7.048  69.450  1.00  0.00    -0.159 C  
BRANCH   2   3
HETATM    3  C   UNL     1      -8.985   8.356  69.540  1.00  0.00    -0.149 A  
HETATM    4  C   UNL     1      -7.522  10.801  69.342  1.00  0.00    -0.124 A  
HETATM    5  C   UNL     1      -9.587   9.582  69.816  1.00  0.00    -0.235 A  
HETATM    6  C   UNL     1      -8.881  10.775  69.680  1.00  0.00     0.263 A  
HETATM    7  C   UNL     1      -7.606   8.351  69.300  1.00  0.00    -0.089 A  
HETATM    8  C   UNL     1      -6.885   9.551  69.220  1.00  0.00    -0.049 A  
BRANCH   4   9
HETATM    9  C   UNL     1      -6.831  12.077  69.068  1.00  0.00    -0.105 A  
HETATM   10  C   UNL     1      -6.610  13.030  70.081  1.00  0.00     0.290 A  
HETATM   11  C   UNL     1      -6.060  14.284  69.804  1.00  0.00    -0.132 A  
HETATM   12  C   UNL     1      -5.688  14.607  68.504  1.00  0.00    -0.099 A  
HETATM   13  C   UNL     1      -5.869  13.679  67.483  1.00  0.00     0.030 A  
HETATM   14  C   UNL     1      -6.440  12.432  67.763  1.00  0.00    -0.115 A  
ENDBRANCH   4   9
ENDBRANCH   2   3
ENDBRANCH   1   2
BRANCH   1  15
HETATM   15  C   UNL     1      -9.615   4.960  67.862  1.00  0.00    -0.186 C  
HETATM   16  C   UNL     1      -7.866   3.247  67.465  1.00  0.00    -0.077 C  
HETATM   17  C   UNL     1      -7.427   5.008  69.154  1.00  0.00    -0.061 C  
HETATM   18  C   UNL     1      -8.109   4.702  67.826  1.00  0.00    -0.096 C  
HETATM   19  O   UNL     1      -7.799   2.331  68.272  1.00  0.00    -0.054 OA 
BRANCH  16  20
HETATM   20  O   UNL     1      -7.685   3.129  66.120  1.00  0.00    -0.076 OA 
BRANCH  20  21
HETATM   21  C   UNL     1      -7.089   4.268  65.484  1.00  0.00    -0.063 C  
HETATM   22  C   UNL     1      -7.893   4.567  64.231  1.00  0.00    -0.086 C  
ENDBRANCH  20  21
ENDBRANCH  16  20
ENDBRANCH   1  15
BRANCH   1  23
HETATM   23  N   UNL     1      -9.491   7.240  66.960  1.00  0.00    -0.148 N  
HETATM   24  C   UNL     1     -10.092   8.381  66.502  1.00  0.00    -0.247 C  
HETATM   25  H   UNL     1      -8.621   6.936  66.522  1.00  0.00     0.000 HD 
HETATM   26  O   UNL     1     -11.165   8.827  66.907  1.00  0.00     0.354 OA 
BRANCH  24  27
HETATM   27  C   UNL     1      -9.424   9.023  65.316  1.00  0.00    -0.093 C  
BRANCH  27  28
HETATM   28  C   UNL     1      -8.855  10.364  65.737  1.00  0.00    -0.186 C  
HETATM   29  O   UNL     1      -9.333  12.690  65.959  1.00  0.00    -0.186 OA 
HETATM   30  C   UNL     1      -9.704  11.603  65.531  1.00  0.00    -0.232 C  
HETATM   31  O   UNL     1     -10.865  11.485  64.870  1.00  0.00    -0.298 OA 
ENDBRANCH  27  28
ENDBRANCH  24  27
ENDBRANCH   1  23
TORSDOF 9
ENDMDL
MODEL      258
REMARK 921   NORMALIZED FREE ENERGY PREDICTED BY IDOCK:   -1.46 KCAL/MOL
REMARK 922        TOTAL FREE ENERGY PREDICTED BY IDOCK:   -4.04 KCAL/MOL
REMARK 923 INTER-LIGAND FREE ENERGY PREDICTED BY IDOCK:   -3.49 KCAL/MOL
REMARK 924 INTRA-LIGAND FREE ENERGY PREDICTED BY IDOCK:   -0.55 KCAL/MOL
REMARK 927      BINDING AFFINITY PREDICTED BY RF-SCORE:    0.00 PKD
ROOT
HETATM    1  C   UNL     1      -9.391   5.865  65.827  1.00  0.00     0.006 C  
ENDROOT
BRANCH   1   2
HETATM    2  C   UNL     1     -10.398   5.312  66.875  1.00  0.00    -0.303 C  
BRANCH   2   3
HETATM    3  C   UNL     1      -9.975   5.193  68.323  1.00  0.00    -0.208 A  
HETATM    4  C   UNL     1      -8.827   4.996  70.931  1.00  0.00    -0.156 A  
HETATM    5  C   UNL     1     -10.159   6.198  69.270  1.00  0.00    -0.218 A  
HETATM    6  C   UNL     1      -9.565   6.117  70.528  1.00  0.00    -0.192 A  
HETATM    7  C   UNL     1      -9.328   4.023  68.738  1.00  0.00    -0.227 A  
HETATM    8  C   UNL     1      -8.780   3.919  70.024  1.00  0.00    -0.117 A  
BRANCH   4   9
HETATM    9  C   UNL     1      -8.092   4.991  72.212  1.00  0.00    -0.112 A  
HETATM   10  C   UNL     1      -7.727   6.188  72.859  1.00  0.00    -0.105 A  
HETATM   11  C   UNL     1      -6.936   6.190  74.010  1.00  0.00    -0.083 A  
HETATM   12  C   UNL     1      -6.511   4.987  74.563  1.00  0.00    -0.065 A  
HETATM   13  C   UNL     1      -6.874   3.785  73.963  1.00  0.00    -0.046 A  
HETATM   14  C   UNL     1      -7.651   3.790  72.798  1.00  0.00    -0.068 A  
ENDBRANCH   4   9
ENDBRANCH   2   3
ENDBRANCH   1   2
BRANCH   1  15
HETATM   15  C   UNL     1      -8.265   4.890  65.404  1.00  0.00    -0.121 C  
HETATM   16  C   UNL     1      -5.862   4.298  65.238  1.00  0.00    -0.022 C  
HETATM   17  C   UNL     1      -6.709   5.186  67.392  1.00  0.00    -0.055 C  
HETATM   18  C   UNL     1      -6.856   5.251  65.876  1.00  0.00    -0.061 C  
HETATM   19  O   UNL     1      -5.526   3.221  65.711  1.00  0.00    -0.015 OA 
BRANCH  16  20
HETATM   20  O   UNL     1      -5.367   4.844  64.092  1.00  0.00    -0.012 OA 
BRANCH  20  21
HETATM   21  C   UNL     1      -6.128   4.566  62.909  1.00  0.00    -0.018 C  
HETATM   22  C   UNL     1      -6.193   3.057  62.748  1.00  0.00    -0.014 C  
ENDBRANCH  20  21
ENDBRANCH  16  20
ENDBRANCH   1  15
BRANCH   1  23
HETATM   23  N   UNL     1      -8.791   7.134  66.247  1.00  0.00    -0.145 N  
HETATM   24  C   UNL     1      -9.537   8.248  66.529  1.00  0.00    -0.244 C  
HETATM   25  H   UNL     1      -7.776   7.191  66.333  1.00  0.00     0.000 HD 
HETATM   26  O   UNL     1     -10.759   8.328  66.418  1.00  0.00     0.083 OA 
BRANCH  24  27
HETATM   27  C   UNL     1      -8.741   9.482  66.858  1.00  0.00    -0.136 C  
BRANCH  27  28
HETATM   28  C   UNL     1      -9.583  10.393  67.730  1.00  0.00    -0.169 C  
HETATM   29  O   UNL     1     -11.104  12.230  67.716  1.00  0.00    -0.228 OA 
HETATM   30  C   UNL     1     -10.324  11.538  67.071  1.00  0.00    -0.220 C  
HETATM   31  O   UNL     1     -10.106  11.781  65.770  1.00  0.00    -0.221 OA 
ENDBRANCH  27  28
ENDBRANCH  24  27
ENDBRANCH   1  23
TORSDOF 9
ENDMDL
MODEL      259
REMARK 921   NORMALIZED FREE ENERGY PREDICTED BY IDOCK:   -0.86 KCAL/MOL
REMARK 922        TOTAL FREE ENERGY PREDICTED BY IDOCK:   -3.13 KCAL/MOL
REMARK 923 INTER-LIGAND FREE ENERGY PREDICTED BY IDOCK:   -3.50 KCAL/MOL
REMARK 924 INTRA-LIGAND FREE ENERGY PREDICTED BY IDOCK:    0.38 KCAL/MOL
REMARK 927      BINDING AFFINITY PREDICTED BY RF-SCORE:    0.00 PKD
ROOT
HETATM    1  C   UNL     1      -8.595  12.294  66.379  1.00  0.00     0.041 C  
ENDROOT
BRANCH   1   2
HETATM    2  C   UNL     1      -8.049  11.414  67.539  1.00  0.00    -0.127 C  
BRANCH   2   3
HETATM    3  C   UNL     1      -7.725   9.959  67.279  1.00  0.00    -0.095 A  
HETATM    4  C   UNL     1      -7.437   7.137  66.947  1.00  0.00    -0.100 A  
HETATM    5  C   UNL     1      -7.735   9.376  66.013  1.00  0.00    -0.099 A  
HETATM    6  C   UNL     1      -7.635   7.995  65.858  1.00  0.00    -0.086 A  
HETATM    7  C   UNL     1      -7.428   9.133  68.369  1.00  0.00    -0.082 A  
HETATM    8  C   UNL     1      -7.269   7.750  68.204  1.00  0.00    -0.090 A  
BRANCH   4   9
HETATM    9  C   UNL     1      -7.473   5.670  66.775  1.00  0.00    -0.087 A  
HETATM   10  C   UNL     1      -8.689   4.961  66.724  1.00  0.00    -0.107 A  
HETATM   11  C   UNL     1      -8.725   3.566  66.675  1.00  0.00    -0.126 A  
HETATM   12  C   UNL     1      -7.539   2.841  66.645  1.00  0.00    -0.075 A  
HETATM   13  C   UNL     1      -6.319   3.511  66.669  1.00  0.00    -0.032 A  
HETATM   14  C   UNL     1      -6.290   4.909  66.738  1.00  0.00    -0.040 A  
ENDBRANCH   4   9
ENDBRANCH   2   3
ENDBRANCH   1   2
BRANCH   1  15
HETATM   15  C   UNL     1      -8.096  13.760  66.361  1.00  0.00     0.999 C  
HETATM   16  C   UNL     1      -7.068  15.713  67.493  1.00  0.00    -0.186 C  
HETATM   17  C   UNL     1      -6.007  13.492  67.784  1.00  0.00    -0.135 C  
HETATM   18  C   UNL     1      -7.333  14.222  67.602  1.00  0.00    -0.192 C  
HETATM   19  O   UNL     1      -6.089  16.210  66.955  1.00  0.00    -0.321 OA 
BRANCH  16  20
HETATM   20  O   UNL     1      -8.056  16.405  68.126  1.00  0.00    -0.158 OA 
BRANCH  20  21
HETATM   21  C   UNL     1      -8.205  16.113  69.523  1.00  0.00     0.045 C  
HETATM   22  C   UNL     1      -9.500  15.339  69.695  1.00  0.00    -0.171 C  
ENDBRANCH  20  21
ENDBRANCH  16  20
ENDBRANCH   1  15
BRANCH   1  23
HETATM   23  N   UNL     1     -10.059  12.288  66.317  1.00  0.00    -0.229 N  
HETATM   24  C   UNL     1     -10.756  12.761  65.238  1.00  0.00    -0.294 C  
HETATM   25  H   UNL     1     -10.581  11.916  67.111  1.00  0.00     0.000 HD 
HETATM   26  O   UNL     1     -10.254  13.278  64.242  1.00  0.00    -0.396 OA 
BRANCH  24  27
HETATM   27  C   UNL     1     -12.254  12.754  65.392  1.00  0.00    -0.532 C  
BRANCH  27  28
HETATM   28  C   UNL     1     -12.638  13.692  66.519  1.00  0.00    -0.225 C  
HETATM   29  O   UNL     1     -12.455  14.084  68.865  1.00  0.00    -0.197 OA 
HETATM   30  C   UNL     1     -12.266  13.306  67.936  1.00  0.00    -0.087 C  
HETATM   31  O   UNL     1     -11.731  12.095  68.153  1.00  0.00    -0.319 OA 
ENDBRANCH  27  28
ENDBRANCH  24  27
ENDBRANCH   1  23
TORSDOF 9
ENDMDL
MODEL      260
REMARK 921   NORMALIZED FREE ENERGY PREDICTED BY IDOCK:   -0.80 KCAL/MOL
REMARK 922        TOTAL FREE ENERGY PREDICTED BY IDOCK:   -3.04 KCAL/MOL
REMARK 923 INTER-LIGAND FREE ENERGY PREDICTED BY IDOCK:   -3.84 KCAL/MOL
REMARK 924 INTRA-LIGAND FREE ENERGY PREDICTED BY IDOCK:    0.80 KCAL/MOL
REMARK 927      BINDING AFFINITY PREDICTED BY RF-SCORE:    0.00 PKD
ROOT
HETATM    1  C   UNL     1      -8.439  15.657  67.408  1.00  0.00    -0.172 C  
ENDROOT
BRANCH   1   2
HETATM    2  C   UNL     1      -7.672  14.630  68.289  1.00  0.00    -0.123 C  
BRANCH   2   3
HETATM    3  C   UNL     1      -7.868  13.150  68.047  1.00  0.00    -0.147 A  
HETATM    4  C   UNL     1      -8.469  10.362  67.879  1.00  0.00    -0.114 A  
HETATM    5  C   UNL     1      -8.575  12.627  66.965  1.00  0.00    -0.181 A  
HETATM    6  C   UNL     1      -8.901  11.274  66.907  1.00  0.00    -0.165 A  
HETATM    7  C   UNL     1      -7.342  12.243  68.975  1.00  0.00     0.017 A  
HETATM    8  C   UNL     1      -7.622  10.873  68.882  1.00  0.00    -0.128 A  
BRANCH   4   9
HETATM    9  C   UNL     1      -8.942   8.963  67.871  1.00  0.00    -0.142 A  
HETATM   10  C   UNL     1      -8.272   7.953  68.589  1.00  0.00    -0.127 A  
HETATM   11  C   UNL     1      -8.648   6.611  68.493  1.00  0.00    -0.124 A  
HETATM   12  C   UNL     1      -9.727   6.247  67.697  1.00  0.00    -0.126 A  
HETATM   13  C   UNL     1     -10.426   7.223  66.993  1.00  0.00    -0.398 A  
HETATM   14  C   UNL     1     -10.032   8.564  67.077  1.00  0.00    -0.318 A  
ENDBRANCH   4   9
ENDBRANCH   2   3
ENDBRANCH   1   2
BRANCH   1  15
HETATM   15  C   UNL     1      -7.634  16.261  66.231  1.00  0.00     0.020 C  
HETATM   16  C   UNL     1      -6.194  18.043  65.281  1.00  0.00    -0.020 C  
HETATM   17  C   UNL     1      -5.636  17.152  67.526  1.00  0.00    -0.154 C  
HETATM   18  C   UNL     1      -6.774  17.480  66.566  1.00  0.00    -0.276 C  
HETATM   19  O   UNL     1      -5.137  17.688  64.779  1.00  0.00     0.053 OA 
BRANCH  16  20
HETATM   20  O   UNL     1      -7.000  19.032  64.804  1.00  0.00    -0.308 OA 
BRANCH  20  21
HETATM   21  C   UNL     1      -7.523  19.923  65.799  1.00  0.00    -0.315 C  
HETATM   22  C   UNL     1      -6.550  21.080  65.937  1.00  0.00    -0.137 C  
ENDBRANCH  20  21
ENDBRANCH  16  20
ENDBRANCH   1  15
BRANCH   1  23
HETATM   23  N   UNL     1      -9.018  16.746  68.200  1.00  0.00    -0.218 N  
HETATM   24  C   UNL     1     -10.267  16.674  68.755  1.00  0.00    -0.288 C  
HETATM   25  H   UNL     1      -8.468  17.593  68.342  1.00  0.00     0.000 HD 
HETATM   26  O   UNL     1     -11.050  15.735  68.619  1.00  0.00    -0.287 OA 
BRANCH  24  27
HETATM   27  C   UNL     1     -10.726  17.924  69.459  1.00  0.00     0.692 C  
BRANCH  27  28
HETATM   28  C   UNL     1     -10.127  19.130  68.761  1.00  0.00    -0.445 C  
HETATM   29  O   UNL     1      -8.093  20.267  68.257  1.00  0.00    -0.155 OA 
HETATM   30  C   UNL     1      -8.638  19.372  68.894  1.00  0.00    -0.291 C  
HETATM   31  O   UNL     1      -7.930  18.591  69.723  1.00  0.00     0.537 OA 
ENDBRANCH  27  28
ENDBRANCH  24  27
ENDBRANCH   1  23
TORSDOF 9
ENDMDL
MODEL      261
REMARK 921   NORMALIZED FREE ENERGY PREDICTED BY IDOCK:   -0.46 KCAL/MOL
REMARK 922        TOTAL FREE ENERGY PREDICTED BY IDOCK:   -2.53 KCAL/MOL
REMARK 923 INTER-LIGAND FREE ENERGY PREDICTED BY IDOCK:   -1.46 KCAL/MOL
REMARK 924 INTRA-LIGAND FREE ENERGY PREDICTED BY IDOCK:   -1.07 KCAL/MOL
REMARK 927      BINDING AFFINITY PREDICTED BY RF-SCORE:    0.00 PKD
ROOT
HETATM    1  C   UNL     1      -8.094  16.409  68.149  1.00  0.00    -0.165 C  
ENDROOT
BRANCH   1   2
HETATM    2  C   UNL     1      -7.789  15.322  67.079  1.00  0.00    -0.224 C  
BRANCH   2   3
HETATM    3  C   UNL     1      -7.478  13.909  67.522  1.00  0.00    -0.184 A  
HETATM    4  C   UNL     1      -6.801  11.390  68.686  1.00  0.00    -0.078 A  
HETATM    5  C   UNL     1      -8.449  12.937  67.755  1.00  0.00    -0.185 A  
HETATM    6  C   UNL     1      -8.122  11.725  68.359  1.00  0.00    -0.150 A  
HETATM    7  C   UNL     1      -6.142  13.556  67.748  1.00  0.00    -0.148 A  
HETATM    8  C   UNL     1      -5.809  12.313  68.302  1.00  0.00    -0.057 A  
BRANCH   4   9
HETATM    9  C   UNL     1      -6.496  10.163  69.450  1.00  0.00    -0.050 A  
HETATM   10  C   UNL     1      -6.181  10.207  70.823  1.00  0.00    -0.069 A  
HETATM   11  C   UNL     1      -5.783   9.065  71.521  1.00  0.00    -0.058 A  
HETATM   12  C   UNL     1      -5.717   7.839  70.869  1.00  0.00    -0.034 A  
HETATM   13  C   UNL     1      -6.045   7.756  69.520  1.00  0.00    -0.033 A  
HETATM   14  C   UNL     1      -6.425   8.907  68.819  1.00  0.00    -0.053 A  
ENDBRANCH   4   9
ENDBRANCH   2   3
ENDBRANCH   1   2
BRANCH   1  15
HETATM   15  C   UNL     1      -9.074  17.524  67.708  1.00  0.00    -0.249 C  
HETATM   16  C   UNL     1     -11.253  18.247  66.769  1.00  0.00     0.636 C  
HETATM   17  C   UNL     1     -11.250  16.491  68.519  1.00  0.00    -0.296 C  
HETATM   18  C   UNL     1     -10.483  17.066  67.334  1.00  0.00    -0.322 C  
HETATM   19  O   UNL     1     -11.905  19.037  67.436  1.00  0.00     1.024 OA 
BRANCH  16  20
HETATM   20  O   UNL     1     -11.146  18.261  65.411  1.00  0.00    -0.323 OA 
BRANCH  20  21
HETATM   21  C   UNL     1     -10.348  17.208  64.852  1.00  0.00     0.829 C  
HETATM   22  C   UNL     1     -11.284  16.076  64.467  1.00  0.00    -0.309 C  
ENDBRANCH  20  21
ENDBRANCH  16  20
ENDBRANCH   1  15
BRANCH   1  23
HETATM   23  N   UNL     1      -6.875  17.026  68.679  1.00  0.00    -0.177 N  
HETATM   24  C   UNL     1      -6.394  16.757  69.932  1.00  0.00    -0.085 C  
HETATM   25  H   UNL     1      -6.364  17.683  68.089  1.00  0.00     0.000 HD 
HETATM   26  O   UNL     1      -6.938  16.026  70.758  1.00  0.00     1.091 OA 
BRANCH  24  27
HETATM   27  C   UNL     1      -5.180  17.552  70.334  1.00  0.00    -0.252 C  
BRANCH  27  28
HETATM   28  C   UNL     1      -5.391  19.003  69.946  1.00  0.00    -0.223 C  
HETATM   29  O   UNL     1      -5.333  21.251  70.740  1.00  0.00    -0.548 OA 
HETATM   30  C   UNL     1      -5.283  20.060  71.027  1.00  0.00    -0.260 C  
HETATM   31  O   UNL     1      -5.134  19.665  72.300  1.00  0.00    -0.509 OA 
ENDBRANCH  27  28
ENDBRANCH  24  27
ENDBRANCH   1  23
TORSDOF 9
ENDMDL
MODEL      262
REMARK 921   NORMALIZED FREE ENERGY PREDICTED BY IDOCK:   -0.42 KCAL/MOL
REMARK 922        TOTAL FREE ENERGY PREDICTED BY IDOCK:   -2.46 KCAL/MOL
REMARK 923 INTER-LIGAND FREE ENERGY PREDICTED BY IDOCK:   -2.91 KCAL/MOL
REMARK 924 INTRA-LIGAND FREE ENERGY PREDICTED BY IDOCK:    0.45 KCAL/MOL
REMARK 927      BINDING AFFINITY PREDICTED BY RF-SCORE:    0.00 PKD
ROOT
HETATM    1  C   UNL     1     -12.112   6.932  69.589  1.00  0.00     0.392 C  
ENDROOT
BRANCH   1   2
HETATM    2  C   UNL     1     -12.162   8.328  70.273  1.00  0.00     0.534 C  
BRANCH   2   3
HETATM    3  C   UNL     1     -11.043   9.316  70.028  1.00  0.00    -0.228 A  
HETATM    4  C   UNL     1      -8.798  10.935  69.324  1.00  0.00     0.020 A  
HETATM    5  C   UNL     1     -11.207  10.520  69.345  1.00  0.00    -0.327 A  
HETATM    6  C   UNL     1     -10.107  11.288  68.969  1.00  0.00    -0.147 A  
HETATM    7  C   UNL     1      -9.756   8.998  70.479  1.00  0.00    -0.262 A  
HETATM    8  C   UNL     1      -8.657   9.802  70.148  1.00  0.00    -0.214 A  
BRANCH   4   9
HETATM    9  C   UNL     1      -7.640  11.686  68.797  1.00  0.00    -0.119 A  
HETATM   10  C   UNL     1      -7.805  12.792  67.939  1.00  0.00    -0.156 A  
HETATM   11  C   UNL     1      -6.713  13.433  67.349  1.00  0.00    -0.063 A  
HETATM   12  C   UNL     1      -5.421  13.002  67.627  1.00  0.00    -0.093 A  
HETATM   13  C   UNL     1      -5.221  11.928  68.490  1.00  0.00    -0.045 A  
HETATM   14  C   UNL     1      -6.320  11.276  69.062  1.00  0.00    -0.060 A  
ENDBRANCH   4   9
ENDBRANCH   2   3
ENDBRANCH   1   2
BRANCH   1  15
HETATM   15  C   UNL     1     -11.474   5.798  70.429  1.00  0.00     0.081 C  
HETATM   16  C   UNL     1     -10.177   5.028  72.398  1.00  0.00    -0.201 C  
HETATM   17  C   UNL     1     -11.987   6.684  72.755  1.00  0.00     0.161 C  
HETATM   18  C   UNL     1     -10.908   6.211  71.788  1.00  0.00    -0.303 C  
HETATM   19  O   UNL     1     -10.698   4.173  73.100  1.00  0.00    -0.175 OA 
BRANCH  16  20
HETATM   20  O   UNL     1      -8.852   5.093  72.086  1.00  0.00    -0.128 OA 
BRANCH  20  21
HETATM   21  C   UNL     1      -8.254   6.387  72.241  1.00  0.00    -0.107 C  
HETATM   22  C   UNL     1      -8.715   6.951  73.573  1.00  0.00    -0.156 C  
ENDBRANCH  20  21
ENDBRANCH  16  20
ENDBRANCH   1  15
BRANCH   1  23
HETATM   23  N   UNL     1     -11.461   6.978  68.276  1.00  0.00    -0.319 N  
HETATM   24  C   UNL     1     -10.260   6.370  68.024  1.00  0.00    -0.164 C  
HETATM   25  H   UNL     1     -11.921   7.485  67.520  1.00  0.00     0.000 HD 
HETATM   26  O   UNL     1      -9.580   5.773  68.856  1.00  0.00    -0.124 OA 
BRANCH  24  27
HETATM   27  C   UNL     1      -9.706   6.601  66.643  1.00  0.00    -0.210 C  
BRANCH  27  28
HETATM   28  C   UNL     1      -8.462   5.753  66.464  1.00  0.00    -0.116 C  
HETATM   29  O   UNL     1      -7.581   3.796  65.423  1.00  0.00    -0.079 OA 
HETATM   30  C   UNL     1      -8.580   4.456  65.690  1.00  0.00    -0.119 C  
HETATM   31  O   UNL     1      -9.797   4.045  65.305  1.00  0.00    -0.182 OA 
ENDBRANCH  27  28
ENDBRANCH  24  27
ENDBRANCH   1  23
TORSDOF 9
ENDMDL
MODEL      263
REMARK 921   NORMALIZED FREE ENERGY PREDICTED BY IDOCK:   -0.39 KCAL/MOL
REMARK 922        TOTAL FREE ENERGY PREDICTED BY IDOCK:   -2.42 KCAL/MOL
REMARK 923 INTER-LIGAND FREE ENERGY PREDICTED BY IDOCK:   -2.70 KCAL/MOL
REMARK 924 INTRA-LIGAND FREE ENERGY PREDICTED BY IDOCK:    0.29 KCAL/MOL
REMARK 927      BINDING AFFINITY PREDICTED BY RF-SCORE:    0.00 PKD
ROOT
HETATM    1  C   UNL     1     -11.115  14.711  70.483  1.00  0.00    -0.021 C  
ENDROOT
BRANCH   1   2
HETATM    2  C   UNL     1     -12.289  13.758  70.124  1.00  0.00    -0.390 C  
BRANCH   2   3
HETATM    3  C   UNL     1     -12.020  12.280  69.946  1.00  0.00    -0.377 A  
HETATM    4  C   UNL     1     -11.152   9.580  69.609  1.00  0.00    -0.196 A  
HETATM    5  C   UNL     1     -12.208  11.331  70.949  1.00  0.00    -0.460 A  
HETATM    6  C   UNL     1     -11.748  10.025  70.797  1.00  0.00    -0.437 A  
HETATM    7  C   UNL     1     -11.520  11.833  68.717  1.00  0.00    -0.350 A  
HETATM    8  C   UNL     1     -11.111  10.503  68.546  1.00  0.00    -0.329 A  
BRANCH   4   9
HETATM    9  C   UNL     1     -10.548   8.235  69.519  1.00  0.00    -0.216 A  
HETATM   10  C   UNL     1      -9.317   8.019  68.869  1.00  0.00    -0.150 A  
HETATM   11  C   UNL     1      -8.799   6.736  68.684  1.00  0.00    -0.123 A  
HETATM   12  C   UNL     1      -9.487   5.632  69.173  1.00  0.00    -0.161 A  
HETATM   13  C   UNL     1     -10.694   5.811  69.843  1.00  0.00    -0.412 A  
HETATM   14  C   UNL     1     -11.219   7.098  70.008  1.00  0.00    -0.271 A  
ENDBRANCH   4   9
ENDBRANCH   2   3
ENDBRANCH   1   2
BRANCH   1  15
HETATM   15  C   UNL     1     -11.159  16.108  69.816  1.00  0.00    -0.350 C  
HETATM   16  C   UNL     1     -10.746  17.596  67.875  1.00  0.00    -0.337 C  
HETATM   17  C   UNL     1     -11.848  15.413  67.471  1.00  0.00     0.046 C  
HETATM   18  C   UNL     1     -10.822  16.148  68.326  1.00  0.00    -0.326 C  
HETATM   19  O   UNL     1     -11.696  18.252  67.472  1.00  0.00     0.932 OA 
BRANCH  16  20
HETATM   20  O   UNL     1      -9.458  18.034  67.942  1.00  0.00    -0.263 OA 
BRANCH  20  21
HETATM   21  C   UNL     1      -8.782  18.129  66.680  1.00  0.00    -0.264 C  
HETATM   22  C   UNL     1      -7.384  18.659  66.947  1.00  0.00    -0.222 C  
ENDBRANCH  20  21
ENDBRANCH  16  20
ENDBRANCH   1  15
BRANCH   1  23
HETATM   23  N   UNL     1      -9.806  14.102  70.229  1.00  0.00     0.854 N  
HETATM   24  C   UNL     1      -8.654  14.836  70.133  1.00  0.00     0.869 C  
HETATM   25  H   UNL     1      -9.751  13.090  70.118  1.00  0.00     0.000 HD 
HETATM   26  O   UNL     1      -8.588  16.062  70.197  1.00  0.00     0.578 OA 
BRANCH  24  27
HETATM   27  C   UNL     1      -7.421  14.046  69.781  1.00  0.00     0.423 C  
BRANCH  27  28
HETATM   28  C   UNL     1      -6.376  14.990  69.220  1.00  0.00    -0.116 C  
HETATM   29  O   UNL     1      -5.149  15.584  67.263  1.00  0.00    -0.334 OA 
HETATM   30  C   UNL     1      -5.907  14.780  67.795  1.00  0.00    -0.088 C  
HETATM   31  O   UNL     1      -6.335  13.697  67.129  1.00  0.00    -0.216 OA 
ENDBRANCH  27  28
ENDBRANCH  24  27
ENDBRANCH   1  23
TORSDOF 9
ENDMDL
MODEL      264
REMARK 921   NORMALIZED FREE ENERGY PREDICTED BY IDOCK:   -0.07 KCAL/MOL
REMARK 922        TOTAL FREE ENERGY PREDICTED BY IDOCK:   -1.93 KCAL/MOL
REMARK 923 INTER-LIGAND FREE ENERGY PREDICTED BY IDOCK:   -4.74 KCAL/MOL
REMARK 924 INTRA-LIGAND FREE ENERGY PREDICTED BY IDOCK:    2.82 KCAL/MOL
REMARK 927      BINDING AFFINITY PREDICTED BY RF-SCORE:    0.00 PKD
ROOT
HETATM    1  C   UNL     1     -10.121   5.518  70.575  1.00  0.00    -0.226 C  
ENDROOT
BRANCH   1   2
HETATM    2  C   UNL     1     -10.708   6.622  71.500  1.00  0.00    -0.263 C  
BRANCH   2   3
HETATM    3  C   UNL     1     -10.685   8.064  71.044  1.00  0.00    -0.245 A  
HETATM    4  C   UNL     1     -10.505  10.659  69.864  1.00  0.00    -0.136 A  
HETATM    5  C   UNL     1     -11.829   8.799  70.737  1.00  0.00    -0.209 A  
HETATM    6  C   UNL     1     -11.738  10.047  70.125  1.00  0.00    -0.285 A  
HETATM    7  C   UNL     1      -9.447   8.698  70.885  1.00  0.00    -0.242 A  
HETATM    8  C   UNL     1      -9.360   9.978  70.322  1.00  0.00    -0.012 A  
BRANCH   4   9
HETATM    9  C   UNL     1     -10.429  11.915  69.091  1.00  0.00    -0.035 A  
HETATM   10  C   UNL     1     -11.470  12.865  69.121  1.00  0.00    -0.360 A  
HETATM   11  C   UNL     1     -11.453  13.998  68.305  1.00  0.00    -0.337 A  
HETATM   12  C   UNL     1     -10.376  14.229  67.457  1.00  0.00    -0.248 A  
HETATM   13  C   UNL     1      -9.319  13.324  67.422  1.00  0.00    -0.217 A  
HETATM   14  C   UNL     1      -9.351  12.178  68.226  1.00  0.00    -0.198 A  
ENDBRANCH   4   9
ENDBRANCH   2   3
ENDBRANCH   1   2
BRANCH   1  15
HETATM   15  C   UNL     1      -8.883   4.770  71.128  1.00  0.00    -0.147 C  
HETATM   16  C   UNL     1      -6.608   4.782  72.115  1.00  0.00    -0.042 C  
HETATM   17  C   UNL     1      -8.308   6.317  73.060  1.00  0.00    -0.117 C  
HETATM   18  C   UNL     1      -7.814   5.643  71.786  1.00  0.00    -0.109 C  
HETATM   19  O   UNL     1      -6.457   4.162  73.158  1.00  0.00    -0.036 OA 
BRANCH  16  20
HETATM   20  O   UNL     1      -5.704   4.845  71.097  1.00  0.00    -0.011 OA 
BRANCH  20  21
HETATM   21  C   UNL     1      -5.652   3.685  70.256  1.00  0.00    -0.013 C  
HETATM   22  C   UNL     1      -6.396   2.568  70.967  1.00  0.00    -0.019 C  
ENDBRANCH  20  21
ENDBRANCH  16  20
ENDBRANCH   1  15
BRANCH   1  23
HETATM   23  N   UNL     1      -9.815   6.022  69.233  1.00  0.00    -0.147 N  
HETATM   24  C   UNL     1      -8.621   6.615  68.919  1.00  0.00    -0.126 C  
HETATM   25  H   UNL     1     -10.521   5.928  68.502  1.00  0.00     0.000 HD 
HETATM   26  O   UNL     1      -7.709   6.834  69.714  1.00  0.00    -0.107 OA 
BRANCH  24  27
HETATM   27  C   UNL     1      -8.523   7.148  67.515  1.00  0.00    -0.123 C  
BRANCH  27  28
HETATM   28  C   UNL     1      -9.649   8.137  67.284  1.00  0.00    -0.211 C  
HETATM   29  O   UNL     1     -10.453   9.860  65.844  1.00  0.00    -0.158 OA 
HETATM   30  C   UNL     1      -9.521   9.120  66.138  1.00  0.00    -0.245 C  
HETATM   31  O   UNL     1      -8.367   9.165  65.456  1.00  0.00    -0.120 OA 
ENDBRANCH  27  28
ENDBRANCH  24  27
ENDBRANCH   1  23
TORSDOF 9
ENDMDL
MODEL      265
REMARK 921   NORMALIZED FREE ENERGY PREDICTED BY IDOCK:    1.91 KCAL/MOL
REMARK 922        TOTAL FREE ENERGY PREDICTED BY IDOCK:    1.10 KCAL/MOL
REMARK 923 INTER-LIGAND FREE ENERGY PREDICTED BY IDOCK:   -0.41 KCAL/MOL
REMARK 924 INTRA-LIGAND FREE ENERGY PREDICTED BY IDOCK:    1.51 KCAL/MOL
REMARK 927      BINDING AFFINITY PREDICTED BY RF-SCORE:    0.00 PKD
ROOT
HETATM    1  C   UNL     1      -8.686  14.462  66.097  1.00  0.00     0.428 C  
ENDROOT
BRANCH   1   2
HETATM    2  C   UNL     1      -9.187  13.035  65.734  1.00  0.00     0.246 C  
BRANCH   2   3
HETATM    3  C   UNL     1      -9.483  12.047  66.841  1.00  0.00    -0.206 A  
HETATM    4  C   UNL     1     -10.384  10.322  68.931  1.00  0.00    -0.221 A  
HETATM    5  C   UNL     1      -9.601  10.672  66.642  1.00  0.00    -0.209 A  
HETATM    6  C   UNL     1     -10.078   9.840  67.651  1.00  0.00    -0.236 A  
HETATM    7  C   UNL     1      -9.686  12.533  68.138  1.00  0.00    -0.222 A  
HETATM    8  C   UNL     1     -10.111  11.683  69.168  1.00  0.00     0.053 A  
BRANCH   4   9
HETATM    9  C   UNL     1     -11.019   9.449  69.940  1.00  0.00    -0.251 A  
HETATM   10  C   UNL     1     -11.432   8.139  69.628  1.00  0.00     0.336 A  
HETATM   11  C   UNL     1     -12.134   7.353  70.545  1.00  0.00    -0.089 A  
HETATM   12  C   UNL     1     -12.415   7.847  71.813  1.00  0.00    -0.352 A  
HETATM   13  C   UNL     1     -11.999   9.129  72.162  1.00  0.00    -0.364 A  
HETATM   14  C   UNL     1     -11.314   9.920  71.233  1.00  0.00    -0.404 A  
ENDBRANCH   4   9
ENDBRANCH   2   3
ENDBRANCH   1   2
BRANCH   1  15
HETATM   15  C   UNL     1      -8.341  14.689  67.590  1.00  0.00    -0.186 C  
HETATM   16  C   UNL     1      -6.716  14.680  69.463  1.00  0.00    -0.158 C  
HETATM   17  C   UNL     1      -6.031  15.713  67.317  1.00  0.00     0.065 C  
HETATM   18  C   UNL     1      -6.859  14.603  67.953  1.00  0.00    -0.176 C  
HETATM   19  O   UNL     1      -6.604  15.717  70.102  1.00  0.00    -0.104 OA 
BRANCH  16  20
HETATM   20  O   UNL     1      -6.680  13.423  69.988  1.00  0.00     0.058 OA 
BRANCH  20  21
HETATM   21  C   UNL     1      -5.378  12.963  70.377  1.00  0.00    -0.131 C  
HETATM   22  C   UNL     1      -5.245  13.173  71.875  1.00  0.00    -0.082 C  
ENDBRANCH  20  21
ENDBRANCH  16  20
ENDBRANCH   1  15
BRANCH   1  23
HETATM   23  N   UNL     1      -9.615  15.507  65.657  1.00  0.00    -0.325 N  
HETATM   24  C   UNL     1     -10.966  15.432  65.866  1.00  0.00    -0.293 C  
HETATM   25  H   UNL     1      -9.239  16.323  65.175  1.00  0.00     0.000 HD 
HETATM   26  O   UNL     1     -11.550  14.483  66.387  1.00  0.00    -0.357 OA 
BRANCH  24  27
HETATM   27  C   UNL     1     -11.768  16.556  65.266  1.00  0.00     0.897 C  
BRANCH  27  28
HETATM   28  C   UNL     1     -11.835  17.698  66.260  1.00  0.00     2.930 C  
HETATM   29  O   UNL     1     -10.539  19.265  67.507  1.00  0.00    -0.434 OA 
HETATM   30  C   UNL     1     -10.536  18.269  66.790  1.00  0.00    -0.365 C  
HETATM   31  O   UNL     1      -9.385  17.662  66.463  1.00  0.00    -0.263 OA 
ENDBRANCH  27  28
ENDBRANCH  24  27
ENDBRANCH   1  23
TORSDOF 9
ENDMDL
MODEL      266
REMARK 921   NORMALIZED FREE ENERGY PREDICTED BY IDOCK:    5.77 KCAL/MOL
REMARK 922        TOTAL FREE ENERGY PREDICTED BY IDOCK:    6.98 KCAL/MOL
REMARK 923 INTER-LIGAND FREE ENERGY PREDICTED BY IDOCK:   -3.07 KCAL/MOL
REMARK 924 INTRA-LIGAND FREE ENERGY PREDICTED BY IDOCK:   10.05 KCAL/MOL
REMARK 927      BINDING AFFINITY PREDICTED BY RF-SCORE:    0.00 PKD
ROOT
HETATM    1  C   UNL     1     -10.315  17.729  67.904  1.00  0.00    -0.386 C  
ENDROOT
BRANCH   1   2
HETATM    2  C   UNL     1      -9.282  17.262  68.968  1.00  0.00    -0.109 C  
BRANCH   2   3
HETATM    3  C   UNL     1      -8.655  15.890  68.843  1.00  0.00    -0.221 A  
HETATM    4  C   UNL     1      -7.452  13.304  68.979  1.00  0.00     0.077 A  
HETATM    5  C   UNL     1      -9.359  14.746  68.472  1.00  0.00    -0.199 A  
HETATM    6  C   UNL     1      -8.782  13.483  68.577  1.00  0.00    -0.082 A  
HETATM    7  C   UNL     1      -7.297  15.744  69.151  1.00  0.00    -0.194 A  
HETATM    8  C   UNL     1      -6.702  14.475  69.200  1.00  0.00    -0.115 A  
BRANCH   4   9
HETATM    9  C   UNL     1      -6.906  11.952  69.217  1.00  0.00    -0.080 A  
HETATM   10  C   UNL     1      -5.620  11.586  68.773  1.00  0.00    -0.042 A  
HETATM   11  C   UNL     1      -5.145  10.278  68.895  1.00  0.00    -0.035 A  
HETATM   12  C   UNL     1      -5.936   9.305  69.494  1.00  0.00    -0.033 A  
HETATM   13  C   UNL     1      -7.202   9.638  69.966  1.00  0.00    -0.119 A  
HETATM   14  C   UNL     1      -7.681  10.946  69.822  1.00  0.00     0.166 A  
ENDBRANCH   4   9
ENDBRANCH   2   3
ENDBRANCH   1   2
BRANCH   1  15
HETATM   15  C   UNL     1     -10.938  16.606  67.038  1.00  0.00     0.015 C  
HETATM   16  C   UNL     1     -11.475  14.216  66.650  1.00  0.00    -0.366 C  
HETATM   17  C   UNL     1     -11.930  15.175  68.889  1.00  0.00    -0.284 C  
HETATM   18  C   UNL     1     -11.000  15.222  67.683  1.00  0.00    -0.311 C  
HETATM   19  O   UNL     1     -12.646  13.943  66.429  1.00  0.00    -0.413 OA 
BRANCH  16  20
HETATM   20  O   UNL     1     -10.402  13.633  66.045  1.00  0.00    -0.290 OA 
BRANCH  20  21
HETATM   21  C   UNL     1     -10.369  12.200  66.116  1.00  0.00    -0.234 C  
HETATM   22  C   UNL     1      -9.034  11.801  66.720  1.00  0.00    -0.196 C  
ENDBRANCH  20  21
ENDBRANCH  16  20
ENDBRANCH   1  15
BRANCH   1  23
HETATM   23  N   UNL     1      -9.775  18.768  67.022  1.00  0.00    -0.300 N  
HETATM   24  C   UNL     1     -10.178  20.075  67.083  1.00  0.00    -0.441 C  
HETATM   25  H   UNL     1      -9.069  18.506  66.333  1.00  0.00     0.000 HD 
HETATM   26  O   UNL     1     -11.052  20.511  67.829  1.00  0.00     0.510 OA 
BRANCH  24  27
HETATM   27  C   UNL     1      -9.576  20.978  66.039  1.00  0.00     1.086 C  
BRANCH  27  28
HETATM   28  C   UNL     1      -8.217  20.436  65.643  1.00  0.00     0.247 C  
HETATM   29  O   UNL     1      -6.257  19.339  66.445  1.00  0.00    -0.173 OA 
HETATM   30  C   UNL     1      -7.315  19.889  66.731  1.00  0.00    -0.245 C  
HETATM   31  O   UNL     1      -7.696  20.021  68.010  1.00  0.00    -0.299 OA 
ENDBRANCH  27  28
ENDBRANCH  24  27
ENDBRANCH   1  23
TORSDOF 9
ENDMDL
MODEL      267
REMARK 921   NORMALIZED FREE ENERGY PREDICTED BY IDOCK:    7.24 KCAL/MOL
REMARK 922        TOTAL FREE ENERGY PREDICTED BY IDOCK:    9.22 KCAL/MOL
REMARK 923 INTER-LIGAND FREE ENERGY PREDICTED BY IDOCK:    6.06 KCAL/MOL
REMARK 924 INTRA-LIGAND FREE ENERGY PREDICTED BY IDOCK:    3.16 KCAL/MOL
REMARK 927      BINDING AFFINITY PREDICTED BY RF-SCORE:    0.00 PKD
ROOT
HETATM    1  C   UNL     1     -10.809   9.036  66.662  1.00  0.00     0.221 C  
ENDROOT
BRANCH   1   2
HETATM    2  C   UNL     1     -10.427   8.684  68.127  1.00  0.00    -0.241 C  
BRANCH   2   3
HETATM    3  C   UNL     1      -9.467   7.545  68.393  1.00  0.00    -0.148 A  
HETATM    4  C   UNL     1      -7.798   5.236  68.590  1.00  0.00    -0.086 A  
HETATM    5  C   UNL     1      -8.088   7.633  68.212  1.00  0.00    -0.124 A  
HETATM    6  C   UNL     1      -7.282   6.499  68.269  1.00  0.00    -0.085 A  
HETATM    7  C   UNL     1      -9.987   6.315  68.813  1.00  0.00    -0.173 A  
HETATM    8  C   UNL     1      -9.164   5.186  68.927  1.00  0.00    -0.154 A  
BRANCH   4   9
HETATM    9  C   UNL     1      -6.952   4.028  68.509  1.00  0.00    -0.048 A  
HETATM   10  C   UNL     1      -6.610   3.286  69.657  1.00  0.00    -0.033 A  
HETATM   11  C   UNL     1      -5.720   2.212  69.600  1.00  0.00    -0.018 A  
HETATM   12  C   UNL     1      -5.169   1.830  68.382  1.00  0.00    -0.012 A  
HETATM   13  C   UNL     1      -5.504   2.525  67.224  1.00  0.00    -0.017 A  
HETATM   14  C   UNL     1      -6.381   3.615  67.291  1.00  0.00    -0.037 A  
ENDBRANCH   4   9
ENDBRANCH   2   3
ENDBRANCH   1   2
BRANCH   1  15
HETATM   15  C   UNL     1     -10.740   7.863  65.653  1.00  0.00     3.321 C  
HETATM   16  C   UNL     1     -10.402   5.459  65.146  1.00  0.00     0.820 C  
HETATM   17  C   UNL     1     -11.872   6.065  67.048  1.00  0.00     1.853 C  
HETATM   18  C   UNL     1     -10.629   6.465  66.260  1.00  0.00     0.179 C  
HETATM   19  O   UNL     1     -11.291   4.897  64.521  1.00  0.00     0.558 OA 
BRANCH  16  20
HETATM   20  O   UNL     1      -9.067   5.242  64.984  1.00  0.00    -0.126 OA 
BRANCH  20  21
HETATM   21  C   UNL     1      -8.490   5.845  63.818  1.00  0.00     0.100 C  
HETATM   22  C   UNL     1      -8.502   7.350  64.024  1.00  0.00     0.283 C  
ENDBRANCH  20  21
ENDBRANCH  16  20
ENDBRANCH   1  15
BRANCH   1  23
HETATM   23  N   UNL     1     -10.030  10.162  66.139  1.00  0.00    -0.233 N  
HETATM   24  C   UNL     1     -10.380  11.468  66.356  1.00  0.00    -0.237 C  
HETATM   25  H   UNL     1      -9.194   9.965  65.589  1.00  0.00     0.000 HD 
HETATM   26  O   UNL     1     -11.387  11.841  66.956  1.00  0.00    -0.308 OA 
BRANCH  24  27
HETATM   27  C   UNL     1      -9.510  12.485  65.667  1.00  0.00    -0.014 C  
BRANCH  27  28
HETATM   28  C   UNL     1      -8.353  11.771  64.997  1.00  0.00     1.027 C  
HETATM   29  O   UNL     1      -7.650  10.656  63.009  1.00  0.00    -0.093 OA 
HETATM   30  C   UNL     1      -8.583  11.144  63.637  1.00  0.00     0.212 C  
HETATM   31  O   UNL     1      -9.828  11.132  63.137  1.00  0.00    -0.323 OA 
ENDBRANCH  27  28
ENDBRANCH  24  27
ENDBRANCH   1  23
TORSDOF 9
ENDMDL
MODEL      268
REMARK 921   NORMALIZED FREE ENERGY PREDICTED BY IDOCK:    9.04 KCAL/MOL
REMARK 922        TOTAL FREE ENERGY PREDICTED BY IDOCK:   11.97 KCAL/MOL
REMARK 923 INTER-LIGAND FREE ENERGY PREDICTED BY IDOCK:   11.09 KCAL/MOL
REMARK 924 INTRA-LIGAND FREE ENERGY PREDICTED BY IDOCK:    0.88 KCAL/MOL
REMARK 927      BINDING AFFINITY PREDICTED BY RF-SCORE:    0.00 PKD
ROOT
HETATM    1  C   UNL     1     -10.473  12.486  67.196  1.00  0.00    -0.224 C  
ENDROOT
BRANCH   1   2
HETATM    2  C   UNL     1     -11.071  11.697  65.998  1.00  0.00    -0.325 C  
BRANCH   2   3
HETATM    3  C   UNL     1     -10.329  10.496  65.453  1.00  0.00    -0.292 A  
HETATM    4  C   UNL     1      -9.204   8.026  64.565  1.00  0.00     1.118 A  
HETATM    5  C   UNL     1     -10.232  10.193  64.096  1.00  0.00     0.242 A  
HETATM    6  C   UNL     1      -9.720   8.971  63.668  1.00  0.00     1.882 A  
HETATM    7  C   UNL     1      -9.730   9.612  66.358  1.00  0.00    -0.285 A  
HETATM    8  C   UNL     1      -9.162   8.407  65.920  1.00  0.00    -0.217 A  
BRANCH   4   9
HETATM    9  C   UNL     1      -8.796   6.684  64.102  1.00  0.00     0.757 A  
HETATM   10  C   UNL     1      -9.082   6.233  62.798  1.00  0.00     0.839 A  
HETATM   11  C   UNL     1      -8.799   4.927  62.394  1.00  0.00    -0.120 A  
HETATM   12  C   UNL     1      -8.191   4.042  63.277  1.00  0.00    -0.087 A  
HETATM   13  C   UNL     1      -7.872   4.462  64.565  1.00  0.00    -0.085 A  
HETATM   14  C   UNL     1      -8.177   5.767  64.971  1.00  0.00    -0.137 A  
ENDBRANCH   4   9
ENDBRANCH   2   3
ENDBRANCH   1   2
BRANCH   1  15
HETATM   15  C   UNL     1     -11.496  12.988  68.245  1.00  0.00    -0.347 C  
HETATM   16  C   UNL     1     -13.221  14.610  68.986  1.00  0.00     2.073 C  
HETATM   17  C   UNL     1     -13.353  13.726  66.674  1.00  0.00     2.423 C  
HETATM   18  C   UNL     1     -12.406  14.132  67.797  1.00  0.00    -0.050 C  
HETATM   19  O   UNL     1     -14.303  14.149  69.320  1.00  0.00     5.466 OA 
BRANCH  16  20
HETATM   20  O   UNL     1     -12.589  15.655  69.589  1.00  0.00    -0.189 OA 
BRANCH  20  21
HETATM   21  C   UNL     1     -11.248  15.896  69.140  1.00  0.00    -0.334 C  
HETATM   22  C   UNL     1     -10.305  15.345  70.195  1.00  0.00    -0.258 C  
ENDBRANCH  20  21
ENDBRANCH  16  20
ENDBRANCH   1  15
BRANCH   1  23
HETATM   23  N   UNL     1      -9.644  13.614  66.761  1.00  0.00    -0.267 N  
HETATM   24  C   UNL     1      -9.999  14.439  65.728  1.00  0.00    -0.329 C  
HETATM   25  H   UNL     1      -8.765  13.792  67.249  1.00  0.00     0.000 HD 
HETATM   26  O   UNL     1     -11.002  14.306  65.029  1.00  0.00    -0.344 OA 
BRANCH  24  27
HETATM   27  C   UNL     1      -8.980  15.487  65.369  1.00  0.00     0.876 C  
BRANCH  27  28
HETATM   28  C   UNL     1      -8.727  16.364  66.580  1.00  0.00    -0.324 C  
HETATM   29  O   UNL     1      -7.397  18.147  67.441  1.00  0.00    -0.206 OA 
HETATM   30  C   UNL     1      -7.570  17.341  66.533  1.00  0.00    -0.288 C  
HETATM   31  O   UNL     1      -6.738  17.303  65.481  1.00  0.00     0.119 OA 
ENDBRANCH  27  28
ENDBRANCH  24  27
ENDBRANCH   1  23
TORSDOF 9
ENDMDL
MODEL      269
REMARK 921   NORMALIZED FREE ENERGY PREDICTED BY IDOCK:   15.22 KCAL/MOL
REMARK 922        TOTAL FREE ENERGY PREDICTED BY IDOCK:   21.41 KCAL/MOL
REMARK 923 INTER-LIGAND FREE ENERGY PREDICTED BY IDOCK:   17.78 KCAL/MOL
REMARK 924 INTRA-LIGAND FREE ENERGY PREDICTED BY IDOCK:    3.63 KCAL/MOL
REMARK 927      BINDING AFFINITY PREDICTED BY RF-SCORE:    0.00 PKD
ROOT
HETATM    1  C   UNL     1      -8.683  14.806  65.342  1.00  0.00     2.104 C  
ENDROOT
BRANCH   1   2
HETATM    2  C   UNL     1      -8.685  13.258  65.201  1.00  0.00     2.302 C  
BRANCH   2   3
HETATM    3  C   UNL     1      -8.464  12.399  66.426  1.00  0.00     0.141 A  
HETATM    4  C   UNL     1      -8.289  10.541  68.589  1.00  0.00    -0.132 A  
HETATM    5  C   UNL     1      -7.292  11.686  66.673  1.00  0.00    -0.028 A  
HETATM    6  C   UNL     1      -7.223  10.752  67.704  1.00  0.00    -0.092 A  
HETATM    7  C   UNL     1      -9.503  12.278  67.357  1.00  0.00    -0.181 A  
HETATM    8  C   UNL     1      -9.410  11.379  68.428  1.00  0.00    -0.194 A  
BRANCH   4   9
HETATM    9  C   UNL     1      -8.245   9.451  69.585  1.00  0.00    -0.136 A  
HETATM   10  C   UNL     1      -7.200   8.507  69.601  1.00  0.00    -0.052 A  
HETATM   11  C   UNL     1      -7.213   7.411  70.467  1.00  0.00    -0.065 A  
HETATM   12  C   UNL     1      -8.263   7.245  71.362  1.00  0.00    -0.106 A  
HETATM   13  C   UNL     1      -9.301   8.173  71.389  1.00  0.00    -0.200 A  
HETATM   14  C   UNL     1      -9.292   9.259  70.506  1.00  0.00    -0.316 A  
ENDBRANCH   4   9
ENDBRANCH   2   3
ENDBRANCH   1   2
BRANCH   1  15
HETATM   15  C   UNL     1      -8.600  15.345  66.792  1.00  0.00    -0.308 C  
HETATM   16  C   UNL     1      -7.519  15.401  69.024  1.00  0.00    -0.165 C  
HETATM   17  C   UNL     1      -6.074  15.516  67.013  1.00  0.00     0.461 C  
HETATM   18  C   UNL     1      -7.361  14.935  67.587  1.00  0.00    -0.208 C  
HETATM   19  O   UNL     1      -7.178  16.497  69.443  1.00  0.00    -0.231 OA 
BRANCH  16  20
HETATM   20  O   UNL     1      -8.051  14.399  69.778  1.00  0.00     0.257 OA 
BRANCH  20  21
HETATM   21  C   UNL     1      -7.355  14.124  71.002  1.00  0.00     2.233 C  
HETATM   22  C   UNL     1      -8.115  14.805  72.126  1.00  0.00     5.767 C  
ENDBRANCH  20  21
ENDBRANCH  16  20
ENDBRANCH   1  15
BRANCH   1  23
HETATM   23  N   UNL     1      -9.825  15.428  64.666  1.00  0.00     0.164 N  
HETATM   24  C   UNL     1     -11.119  15.043  64.893  1.00  0.00    -0.415 C  
HETATM   25  H   UNL     1      -9.649  16.179  63.999  1.00  0.00     0.000 HD 
HETATM   26  O   UNL     1     -11.465  14.123  65.632  1.00  0.00    -0.313 OA 
BRANCH  24  27
HETATM   27  C   UNL     1     -12.150  15.736  64.042  1.00  0.00     0.194 C  
BRANCH  27  28
HETATM   28  C   UNL     1     -12.213  17.199  64.438  1.00  0.00     3.731 C  
HETATM   29  O   UNL     1     -10.910  19.140  64.905  1.00  0.00    -0.261 OA 
HETATM   30  C   UNL     1     -10.913  17.932  64.694  1.00  0.00     2.013 C  
HETATM   31  O   UNL     1      -9.768  17.233  64.689  1.00  0.00     1.814 OA 
ENDBRANCH  27  28
ENDBRANCH  24  27
ENDBRANCH   1  23
TORSDOF 9
ENDMDL
