MODEL        1
REMARK 921   NORMALIZED FREE ENERGY PREDICTED BY IDOCK:   -6.13 KCAL/MOL
REMARK 922        TOTAL FREE ENERGY PREDICTED BY IDOCK:   -9.43 KCAL/MOL
REMARK 923 INTER-LIGAND FREE ENERGY PREDICTED BY IDOCK:   -8.64 KCAL/MOL
REMARK 924 INTRA-LIGAND FREE ENERGY PREDICTED BY IDOCK:   -0.79 KCAL/MOL
REMARK 927      BINDING AFFINITY PREDICTED BY RF-SCORE:    0.00 PKD
ROOT
HETATM    1  C   UNL     1     -10.457  14.619  64.958  1.00  0.00    -0.447 C  
HETATM    2  C   UNL     1     -11.950  14.297  64.945  1.00  0.00    -0.425 C  
ENDROOT
BRANCH   2   3
HETATM    3  C   UNL     1     -12.180  12.898  64.323  1.00  0.00    -0.410 C  
HETATM    4  H2  UNL     1     -10.262  12.958  63.458  1.00  0.00     0.000 HD 
HETATM    5  H1  UNL     1     -11.277  11.509  63.176  1.00  0.00     0.000 HD 
HETATM    6  O   UNL     1     -13.203  12.234  64.451  1.00  0.00    -0.806 OA 
HETATM    7  N   UNL     1     -11.126  12.430  63.587  1.00  0.00    -0.441 N  
ENDBRANCH   2   3
BRANCH   2   8
HETATM    8  N   UNL     1     -12.571  14.285  66.289  1.00  0.00    -0.481 NA 
HETATM    9  H   UNL     1     -13.130  13.442  66.421  1.00  0.00     0.000 HD 
BRANCH   8  10
HETATM   10  C   UNL     1     -11.606  14.442  67.378  1.00  0.00    -0.375 C  
BRANCH  10  11
HETATM   11  C   UNL     1     -11.845  13.412  68.458  1.00  0.00    -0.401 A  
HETATM   12  C   UNL     1     -11.677  12.049  68.172  1.00  0.00    -0.398 A  
HETATM   13  C   UNL     1     -11.889  11.083  69.151  1.00  0.00    -0.407 A  
HETATM   14  C   UNL     1     -12.221  11.463  70.450  1.00  0.00    -0.362 A  
HETATM   15  C   UNL     1     -12.209  13.787  69.759  1.00  0.00    -0.368 A  
HETATM   16  C   UNL     1     -12.399  12.815  70.747  1.00  0.00    -0.375 A  
BRANCH  14  17
HETATM   17  O   UNL     1     -12.390  10.592  71.495  1.00  0.00    -0.360 OA 
BRANCH  17  18
HETATM   18  C   UNL     1     -13.014   9.355  71.140  1.00  0.00    -0.238 C  
BRANCH  18  19
HETATM   19  C   UNL     1     -12.193   8.171  71.586  1.00  0.00    -0.343 A  
HETATM   20  C   UNL     1     -11.478   8.183  72.790  1.00  0.00    -0.397 A  
HETATM   21  C   UNL     1     -10.660   7.109  73.121  1.00  0.00    -0.336 A  
HETATM   22  F   UNL     1      -9.975   7.132  74.271  1.00  0.00    -0.324 F  
HETATM   23  C   UNL     1     -10.527   6.018  72.269  1.00  0.00    -0.241 A  
HETATM   24  C   UNL     1     -11.227   5.998  71.064  1.00  0.00    -0.332 A  
HETATM   25  C   UNL     1     -12.052   7.071  70.723  1.00  0.00    -0.374 A  
ENDBRANCH  18  19
ENDBRANCH  17  18
ENDBRANCH  14  17
ENDBRANCH  10  11
ENDBRANCH   8  10
ENDBRANCH   2   8
TORSDOF 7
ENDMDL
MODEL        2
REMARK 921   NORMALIZED FREE ENERGY PREDICTED BY IDOCK:   -6.10 KCAL/MOL
REMARK 922        TOTAL FREE ENERGY PREDICTED BY IDOCK:   -9.38 KCAL/MOL
REMARK 923 INTER-LIGAND FREE ENERGY PREDICTED BY IDOCK:   -8.61 KCAL/MOL
REMARK 924 INTRA-LIGAND FREE ENERGY PREDICTED BY IDOCK:   -0.78 KCAL/MOL
REMARK 927      BINDING AFFINITY PREDICTED BY RF-SCORE:    0.00 PKD
ROOT
HETATM    1  C   UNL     1     -10.150  14.131  66.853  1.00  0.00    -0.258 C  
HETATM    2  C   UNL     1     -11.606  14.538  66.640  1.00  0.00    -0.375 C  
ENDROOT
BRANCH   2   3
HETATM    3  C   UNL     1     -12.310  13.508  65.724  1.00  0.00    -0.468 C  
HETATM    4  H2  UNL     1     -10.792  12.104  66.121  1.00  0.00     0.000 HD 
HETATM    5  H1  UNL     1     -12.127  11.626  65.025  1.00  0.00     0.000 HD 
HETATM    6  O   UNL     1     -13.355  13.710  65.114  1.00  0.00    -0.677 OA 
HETATM    7  N   UNL     1     -11.664  12.305  65.629  1.00  0.00    -0.394 N  
ENDBRANCH   2   3
BRANCH   2   8
HETATM    8  N   UNL     1     -12.394  14.620  67.891  1.00  0.00    -0.588 NA 
HETATM    9  H   UNL     1     -13.176  13.966  67.868  1.00  0.00     0.000 HD 
BRANCH   8  10
HETATM   10  C   UNL     1     -11.591  14.426  69.099  1.00  0.00    -0.307 C  
BRANCH  10  11
HETATM   11  C   UNL     1     -12.099  13.246  69.895  1.00  0.00    -0.377 A  
HETATM   12  C   UNL     1     -11.870  11.941  69.433  1.00  0.00    -0.389 A  
HETATM   13  C   UNL     1     -12.326  10.839  70.152  1.00  0.00    -0.401 A  
HETATM   14  C   UNL     1     -12.975  11.018  71.372  1.00  0.00    -0.414 A  
HETATM   15  C   UNL     1     -12.779  13.420  71.108  1.00  0.00    -0.411 A  
HETATM   16  C   UNL     1     -13.216  12.310  71.839  1.00  0.00    -0.481 A  
BRANCH  14  17
HETATM   17  O   UNL     1     -13.405   9.998  72.179  1.00  0.00    -0.444 OA 
BRANCH  17  18
HETATM   18  C   UNL     1     -13.590   8.748  71.508  1.00  0.00    -0.331 C  
BRANCH  18  19
HETATM   19  C   UNL     1     -12.376   7.862  71.640  1.00  0.00    -0.344 A  
HETATM   20  C   UNL     1     -12.048   6.914  70.663  1.00  0.00    -0.363 A  
HETATM   21  C   UNL     1     -10.975   6.054  70.865  1.00  0.00    -0.289 A  
HETATM   22  F   UNL     1     -10.673   5.147  69.929  1.00  0.00    -0.363 F  
HETATM   23  C   UNL     1     -10.222   6.107  72.034  1.00  0.00    -0.223 A  
HETATM   24  C   UNL     1     -10.544   7.041  73.017  1.00  0.00    -0.323 A  
HETATM   25  C   UNL     1     -11.619   7.910  72.823  1.00  0.00    -0.387 A  
ENDBRANCH  18  19
ENDBRANCH  17  18
ENDBRANCH  14  17
ENDBRANCH  10  11
ENDBRANCH   8  10
ENDBRANCH   2   8
TORSDOF 7
ENDMDL
MODEL        3
REMARK 921   NORMALIZED FREE ENERGY PREDICTED BY IDOCK:   -6.03 KCAL/MOL
REMARK 922        TOTAL FREE ENERGY PREDICTED BY IDOCK:   -9.29 KCAL/MOL
REMARK 923 INTER-LIGAND FREE ENERGY PREDICTED BY IDOCK:   -8.62 KCAL/MOL
REMARK 924 INTRA-LIGAND FREE ENERGY PREDICTED BY IDOCK:   -0.67 KCAL/MOL
REMARK 927      BINDING AFFINITY PREDICTED BY RF-SCORE:    0.00 PKD
ROOT
HETATM    1  C   UNL     1     -12.146  12.507  65.221  1.00  0.00    -0.500 C  
HETATM    2  C   UNL     1     -11.624  13.810  65.823  1.00  0.00    -0.331 C  
ENDROOT
BRANCH   2   3
HETATM    3  C   UNL     1     -11.724  14.948  64.779  1.00  0.00    -0.402 C  
HETATM    4  H2  UNL     1      -9.999  15.848  65.581  1.00  0.00     0.000 HD 
HETATM    5  H1  UNL     1     -10.803  16.641  64.191  1.00  0.00     0.000 HD 
HETATM    6  O   UNL     1     -12.596  15.038  63.921  1.00  0.00    -0.813 OA 
HETATM    7  N   UNL     1     -10.737  15.891  64.878  1.00  0.00    -0.416 N  
ENDBRANCH   2   3
BRANCH   2   8
HETATM    8  N   UNL     1     -12.366  14.253  67.024  1.00  0.00    -0.580 NA 
HETATM    9  H   UNL     1     -13.136  13.616  67.228  1.00  0.00     0.000 HD 
BRANCH   8  10
HETATM   10  C   UNL     1     -11.516  14.433  68.201  1.00  0.00    -0.310 C  
BRANCH  10  11
HETATM   11  C   UNL     1     -11.818  13.382  69.246  1.00  0.00    -0.385 A  
HETATM   12  C   UNL     1     -12.449  13.749  70.443  1.00  0.00    -0.384 A  
HETATM   13  C   UNL     1     -12.739  12.798  71.418  1.00  0.00    -0.353 A  
HETATM   14  C   UNL     1     -12.449  11.454  71.193  1.00  0.00    -0.360 A  
HETATM   15  C   UNL     1     -11.502  12.033  69.038  1.00  0.00    -0.357 A  
HETATM   16  C   UNL     1     -11.814  11.076  70.009  1.00  0.00    -0.435 A  
BRANCH  14  17
HETATM   17  O   UNL     1     -12.750  10.439  72.063  1.00  0.00    -0.397 OA 
BRANCH  17  18
HETATM   18  C   UNL     1     -13.165   9.223  71.435  1.00  0.00    -0.325 C  
BRANCH  18  19
HETATM   19  C   UNL     1     -12.133   8.134  71.593  1.00  0.00    -0.342 A  
HETATM   20  C   UNL     1     -11.964   7.135  70.627  1.00  0.00    -0.312 A  
HETATM   21  C   UNL     1     -11.066   6.098  70.853  1.00  0.00    -0.307 A  
HETATM   22  F   UNL     1     -10.916   5.143  69.928  1.00  0.00    -0.323 F  
HETATM   23  C   UNL     1     -10.335   6.026  72.034  1.00  0.00    -0.241 A  
HETATM   24  C   UNL     1     -10.500   7.010  73.006  1.00  0.00    -0.307 A  
HETATM   25  C   UNL     1     -11.398   8.057  72.788  1.00  0.00    -0.439 A  
ENDBRANCH  18  19
ENDBRANCH  17  18
ENDBRANCH  14  17
ENDBRANCH  10  11
ENDBRANCH   8  10
ENDBRANCH   2   8
TORSDOF 7
ENDMDL
MODEL        4
REMARK 921   NORMALIZED FREE ENERGY PREDICTED BY IDOCK:   -6.01 KCAL/MOL
REMARK 922        TOTAL FREE ENERGY PREDICTED BY IDOCK:   -9.26 KCAL/MOL
REMARK 923 INTER-LIGAND FREE ENERGY PREDICTED BY IDOCK:   -8.41 KCAL/MOL
REMARK 924 INTRA-LIGAND FREE ENERGY PREDICTED BY IDOCK:   -0.85 KCAL/MOL
REMARK 927      BINDING AFFINITY PREDICTED BY RF-SCORE:    0.00 PKD
ROOT
HETATM    1  C   UNL     1     -12.528  11.872  63.432  1.00  0.00    -0.582 C  
HETATM    2  C   UNL     1     -11.728  13.173  63.466  1.00  0.00    -0.415 C  
ENDROOT
BRANCH   2   3
HETATM    3  C   UNL     1     -12.220  14.061  64.635  1.00  0.00    -0.435 C  
HETATM    4  H2  UNL     1     -10.556  15.326  64.385  1.00  0.00     0.000 HD 
HETATM    5  H1  UNL     1     -11.734  15.716  65.678  1.00  0.00     0.000 HD 
HETATM    6  O   UNL     1     -13.238  13.859  65.289  1.00  0.00    -0.774 OA 
HETATM    7  N   UNL     1     -11.411  15.130  64.908  1.00  0.00    -0.402 N  
ENDBRANCH   2   3
BRANCH   2   8
HETATM    8  N   UNL     1     -10.273  12.976  63.650  1.00  0.00    -0.675 NA 
HETATM    9  H   UNL     1      -9.922  13.560  64.409  1.00  0.00     0.000 HD 
BRANCH   8  10
HETATM   10  C   UNL     1      -9.895  11.578  63.855  1.00  0.00    -0.296 C  
BRANCH  10  11
HETATM   11  C   UNL     1      -9.849  11.246  65.329  1.00  0.00    -0.291 A  
HETATM   12  C   UNL     1     -10.147   9.945  65.761  1.00  0.00    -0.317 A  
HETATM   13  C   UNL     1     -10.109   9.615  67.113  1.00  0.00    -0.276 A  
HETATM   14  C   UNL     1      -9.722  10.566  68.055  1.00  0.00    -0.147 A  
HETATM   15  C   UNL     1      -9.490  12.206  66.284  1.00  0.00    -0.238 A  
HETATM   16  C   UNL     1      -9.430  11.866  67.639  1.00  0.00    -0.182 A  
BRANCH  14  17
HETATM   17  O   UNL     1      -9.595  10.323  69.397  1.00  0.00    -0.213 OA 
BRANCH  17  18
HETATM   18  C   UNL     1     -10.084   9.046  69.817  1.00  0.00    -0.200 C  
BRANCH  18  19
HETATM   19  C   UNL     1     -11.377   9.170  70.584  1.00  0.00    -0.323 A  
HETATM   20  C   UNL     1     -11.882  10.415  70.977  1.00  0.00    -0.458 A  
HETATM   21  C   UNL     1     -13.027  10.481  71.762  1.00  0.00    -0.476 A  
HETATM   22  F   UNL     1     -13.499  11.676  72.139  1.00  0.00    -0.563 F  
HETATM   23  C   UNL     1     -13.681   9.326  72.178  1.00  0.00    -0.517 A  
HETATM   24  C   UNL     1     -13.183   8.081  71.800  1.00  0.00    -0.367 A  
HETATM   25  C   UNL     1     -12.034   8.003  71.011  1.00  0.00    -0.260 A  
ENDBRANCH  18  19
ENDBRANCH  17  18
ENDBRANCH  14  17
ENDBRANCH  10  11
ENDBRANCH   8  10
ENDBRANCH   2   8
TORSDOF 7
ENDMDL
MODEL        5
REMARK 921   NORMALIZED FREE ENERGY PREDICTED BY IDOCK:   -6.00 KCAL/MOL
REMARK 922        TOTAL FREE ENERGY PREDICTED BY IDOCK:   -9.25 KCAL/MOL
REMARK 923 INTER-LIGAND FREE ENERGY PREDICTED BY IDOCK:   -8.46 KCAL/MOL
REMARK 924 INTRA-LIGAND FREE ENERGY PREDICTED BY IDOCK:   -0.79 KCAL/MOL
REMARK 927      BINDING AFFINITY PREDICTED BY RF-SCORE:    0.00 PKD
ROOT
HETATM    1  C   UNL     1     -12.876  11.973  63.903  1.00  0.00    -0.400 C  
HETATM    2  C   UNL     1     -12.051  13.211  63.556  1.00  0.00    -0.514 C  
ENDROOT
BRANCH   2   3
HETATM    3  C   UNL     1     -12.462  14.389  64.472  1.00  0.00    -0.339 C  
HETATM    4  H2  UNL     1     -11.061  15.634  63.514  1.00  0.00     0.000 HD 
HETATM    5  H1  UNL     1     -12.049  16.327  64.838  1.00  0.00     0.000 HD 
HETATM    6  O   UNL     1     -13.316  14.329  65.350  1.00  0.00    -0.649 OA 
HETATM    7  N   UNL     1     -11.779  15.551  64.234  1.00  0.00    -0.303 N  
ENDBRANCH   2   3
BRANCH   2   8
HETATM    8  N   UNL     1     -10.592  13.021  63.717  1.00  0.00    -0.501 NA 
HETATM    9  H   UNL     1     -10.119  13.919  63.812  1.00  0.00     0.000 HD 
BRANCH   8  10
HETATM   10  C   UNL     1     -10.238  12.130  64.822  1.00  0.00    -0.281 C  
BRANCH  10  11
HETATM   11  C   UNL     1     -10.197  12.888  66.129  1.00  0.00    -0.286 A  
HETATM   12  C   UNL     1     -10.948  12.433  67.223  1.00  0.00    -0.302 A  
HETATM   13  C   UNL     1     -10.923  13.114  68.437  1.00  0.00    -0.287 A  
HETATM   14  C   UNL     1     -10.108  14.233  68.598  1.00  0.00    -0.238 A  
HETATM   15  C   UNL     1      -9.402  14.031  66.287  1.00  0.00    -0.199 A  
HETATM   16  C   UNL     1      -9.362  14.700  67.515  1.00  0.00    -0.195 A  
BRANCH  14  17
HETATM   17  O   UNL     1      -9.970  14.932  69.768  1.00  0.00    -0.100 OA 
BRANCH  17  18
HETATM   18  C   UNL     1     -10.885  16.020  69.920  1.00  0.00    -0.351 C  
BRANCH  18  19
HETATM   19  C   UNL     1     -11.938  15.719  70.958  1.00  0.00    -0.462 A  
HETATM   20  C   UNL     1     -11.613  15.561  72.311  1.00  0.00    -0.554 A  
HETATM   21  C   UNL     1     -12.597  15.194  73.221  1.00  0.00    -0.499 A  
HETATM   22  F   UNL     1     -12.276  15.037  74.511  1.00  0.00    -0.696 F  
HETATM   23  C   UNL     1     -13.906  14.968  72.811  1.00  0.00    -0.472 A  
HETATM   24  C   UNL     1     -14.241  15.116  71.467  1.00  0.00    -0.647 A  
HETATM   25  C   UNL     1     -13.260  15.485  70.544  1.00  0.00    -0.183 A  
ENDBRANCH  18  19
ENDBRANCH  17  18
ENDBRANCH  14  17
ENDBRANCH  10  11
ENDBRANCH   8  10
ENDBRANCH   2   8
TORSDOF 7
ENDMDL
MODEL        6
REMARK 921   NORMALIZED FREE ENERGY PREDICTED BY IDOCK:   -6.00 KCAL/MOL
REMARK 922        TOTAL FREE ENERGY PREDICTED BY IDOCK:   -9.24 KCAL/MOL
REMARK 923 INTER-LIGAND FREE ENERGY PREDICTED BY IDOCK:   -8.18 KCAL/MOL
REMARK 924 INTRA-LIGAND FREE ENERGY PREDICTED BY IDOCK:   -1.06 KCAL/MOL
REMARK 927      BINDING AFFINITY PREDICTED BY RF-SCORE:    0.00 PKD
ROOT
HETATM    1  C   UNL     1     -13.710  13.535  72.556  1.00  0.00    -0.664 C  
HETATM    2  C   UNL     1     -13.618  15.016  72.195  1.00  0.00    -0.427 C  
ENDROOT
BRANCH   2   3
HETATM    3  C   UNL     1     -12.548  15.706  73.075  1.00  0.00    -0.459 C  
HETATM    4  H2  UNL     1     -12.984  14.386  74.655  1.00  0.00     0.000 HD 
HETATM    5  H1  UNL     1     -11.716  15.626  74.910  1.00  0.00     0.000 HD 
HETATM    6  O   UNL     1     -11.853  16.654  72.722  1.00  0.00    -0.519 OA 
HETATM    7  N   UNL     1     -12.421  15.172  74.329  1.00  0.00    -0.560 N  
ENDBRANCH   2   3
BRANCH   2   8
HETATM    8  N   UNL     1     -13.249  15.266  70.783  1.00  0.00    -0.647 NA 
HETATM    9  H   UNL     1     -12.641  16.081  70.707  1.00  0.00     0.000 HD 
BRANCH   8  10
HETATM   10  C   UNL     1     -12.645  14.107  70.125  1.00  0.00    -0.268 C  
BRANCH  10  11
HETATM   11  C   UNL     1     -11.452  14.523  69.295  1.00  0.00    -0.322 A  
HETATM   12  C   UNL     1     -11.346  14.096  67.963  1.00  0.00    -0.324 A  
HETATM   13  C   UNL     1     -10.258  14.469  67.179  1.00  0.00    -0.260 A  
HETATM   14  C   UNL     1      -9.280  15.318  67.694  1.00  0.00    -0.187 A  
HETATM   15  C   UNL     1     -10.451  15.353  69.818  1.00  0.00    -0.303 A  
HETATM   16  C   UNL     1      -9.370  15.744  69.020  1.00  0.00    -0.244 A  
BRANCH  14  17
HETATM   17  O   UNL     1      -8.207  15.789  66.985  1.00  0.00    -0.185 OA 
BRANCH  17  18
HETATM   18  C   UNL     1      -8.551  16.601  65.859  1.00  0.00    -0.036 C  
BRANCH  18  19
HETATM   19  C   UNL     1      -8.933  17.999  66.277  1.00  0.00    -0.194 A  
HETATM   20  C   UNL     1      -7.974  18.929  66.697  1.00  0.00    -0.280 A  
HETATM   21  C   UNL     1      -8.376  20.176  67.162  1.00  0.00    -0.337 A  
HETATM   22  F   UNL     1      -7.454  21.056  67.568  1.00  0.00    -0.376 F  
HETATM   23  C   UNL     1      -9.723  20.516  67.231  1.00  0.00    -0.600 A  
HETATM   24  C   UNL     1     -10.686  19.597  66.824  1.00  0.00    -0.562 A  
HETATM   25  C   UNL     1     -10.294  18.342  66.354  1.00  0.00    -0.430 A  
ENDBRANCH  18  19
ENDBRANCH  17  18
ENDBRANCH  14  17
ENDBRANCH  10  11
ENDBRANCH   8  10
ENDBRANCH   2   8
TORSDOF 7
ENDMDL
MODEL        7
REMARK 921   NORMALIZED FREE ENERGY PREDICTED BY IDOCK:   -5.99 KCAL/MOL
REMARK 922        TOTAL FREE ENERGY PREDICTED BY IDOCK:   -9.23 KCAL/MOL
REMARK 923 INTER-LIGAND FREE ENERGY PREDICTED BY IDOCK:   -8.73 KCAL/MOL
REMARK 924 INTRA-LIGAND FREE ENERGY PREDICTED BY IDOCK:   -0.49 KCAL/MOL
REMARK 927      BINDING AFFINITY PREDICTED BY RF-SCORE:    0.00 PKD
ROOT
HETATM    1  C   UNL     1     -14.288   8.455  71.645  1.00  0.00    -0.536 C  
HETATM    2  C   UNL     1     -13.051   9.208  72.132  1.00  0.00    -0.446 C  
ENDROOT
BRANCH   2   3
HETATM    3  C   UNL     1     -11.818   8.274  72.091  1.00  0.00    -0.369 C  
HETATM    4  H2  UNL     1     -11.767   8.419  69.992  1.00  0.00     0.000 HD 
HETATM    5  H1  UNL     1     -10.531   7.408  70.804  1.00  0.00     0.000 HD 
HETATM    6  O   UNL     1     -11.282   7.777  73.076  1.00  0.00    -0.405 OA 
HETATM    7  N   UNL     1     -11.344   8.024  70.832  1.00  0.00    -0.275 N  
ENDBRANCH   2   3
BRANCH   2   8
HETATM    8  N   UNL     1     -12.721  10.403  71.322  1.00  0.00    -0.395 NA 
HETATM    9  H   UNL     1     -13.094  10.313  70.378  1.00  0.00     0.000 HD 
BRANCH   8  10
HETATM   10  C   UNL     1     -13.156  11.659  71.934  1.00  0.00    -0.385 C  
BRANCH  10  11
HETATM   11  C   UNL     1     -12.768  12.838  71.070  1.00  0.00    -0.331 A  
HETATM   12  C   UNL     1     -13.067  14.141  71.493  1.00  0.00    -0.424 A  
HETATM   13  C   UNL     1     -12.717  15.242  70.715  1.00  0.00    -0.491 A  
HETATM   14  C   UNL     1     -12.015  15.064  69.524  1.00  0.00    -0.313 A  
HETATM   15  C   UNL     1     -12.089  12.663  69.856  1.00  0.00    -0.322 A  
HETATM   16  C   UNL     1     -11.719  13.772  69.088  1.00  0.00    -0.379 A  
BRANCH  14  17
HETATM   17  O   UNL     1     -11.575  16.084  68.722  1.00  0.00    -0.377 OA 
BRANCH  17  18
HETATM   18  C   UNL     1     -10.398  16.744  69.195  1.00  0.00    -0.326 C  
BRANCH  18  19
HETATM   19  C   UNL     1     -10.060  17.949  68.352  1.00  0.00    -0.385 A  
HETATM   20  C   UNL     1     -10.752  18.236  67.169  1.00  0.00    -0.334 A  
HETATM   21  C   UNL     1     -10.350  19.303  66.374  1.00  0.00    -0.471 A  
HETATM   22  F   UNL     1     -11.013  19.566  65.241  1.00  0.00    -0.549 F  
HETATM   23  C   UNL     1      -9.258  20.089  66.725  1.00  0.00    -0.494 A  
HETATM   24  C   UNL     1      -8.557  19.808  67.895  1.00  0.00    -0.360 A  
HETATM   25  C   UNL     1      -8.953  18.740  68.703  1.00  0.00    -0.368 A  
ENDBRANCH  18  19
ENDBRANCH  17  18
ENDBRANCH  14  17
ENDBRANCH  10  11
ENDBRANCH   8  10
ENDBRANCH   2   8
TORSDOF 7
ENDMDL
MODEL        8
REMARK 921   NORMALIZED FREE ENERGY PREDICTED BY IDOCK:   -5.97 KCAL/MOL
REMARK 922        TOTAL FREE ENERGY PREDICTED BY IDOCK:   -9.21 KCAL/MOL
REMARK 923 INTER-LIGAND FREE ENERGY PREDICTED BY IDOCK:   -8.46 KCAL/MOL
REMARK 924 INTRA-LIGAND FREE ENERGY PREDICTED BY IDOCK:   -0.74 KCAL/MOL
REMARK 927      BINDING AFFINITY PREDICTED BY RF-SCORE:    0.00 PKD
ROOT
HETATM    1  C   UNL     1     -10.594   8.818  72.060  1.00  0.00    -0.414 C  
HETATM    2  C   UNL     1     -11.413   8.459  70.822  1.00  0.00    -0.255 C  
ENDROOT
BRANCH   2   3
HETATM    3  C   UNL     1     -11.901   6.993  70.922  1.00  0.00    -0.356 C  
HETATM    4  H2  UNL     1     -10.854   6.516  69.159  1.00  0.00     0.000 HD 
HETATM    5  H1  UNL     1     -11.777   5.217  69.978  1.00  0.00     0.000 HD 
HETATM    6  O   UNL     1     -12.627   6.554  71.808  1.00  0.00    -0.335 OA 
HETATM    7  N   UNL     1     -11.456   6.183  69.913  1.00  0.00    -0.394 N  
ENDBRANCH   2   3
BRANCH   2   8
HETATM    8  N   UNL     1     -12.613   9.306  70.632  1.00  0.00    -0.496 NA 
HETATM    9  H   UNL     1     -13.430   8.733  70.426  1.00  0.00     0.000 HD 
BRANCH   8  10
HETATM   10  C   UNL     1     -12.877  10.202  71.759  1.00  0.00    -0.452 C  
BRANCH  10  11
HETATM   11  C   UNL     1     -12.765  11.647  71.332  1.00  0.00    -0.445 A  
HETATM   12  C   UNL     1     -13.382  12.650  72.094  1.00  0.00    -0.570 A  
HETATM   13  C   UNL     1     -13.289  13.988  71.722  1.00  0.00    -0.465 A  
HETATM   14  C   UNL     1     -12.535  14.356  70.609  1.00  0.00    -0.350 A  
HETATM   15  C   UNL     1     -12.033  12.020  70.196  1.00  0.00    -0.401 A  
HETATM   16  C   UNL     1     -11.923  13.367  69.837  1.00  0.00    -0.408 A  
BRANCH  14  17
HETATM   17  O   UNL     1     -12.335  15.648  70.198  1.00  0.00    -0.395 OA 
BRANCH  17  18
HETATM   18  C   UNL     1     -10.962  16.009  70.025  1.00  0.00    -0.365 C  
BRANCH  18  19
HETATM   19  C   UNL     1     -10.732  16.709  68.709  1.00  0.00    -0.342 A  
HETATM   20  C   UNL     1     -10.778  16.019  67.491  1.00  0.00    -0.314 A  
HETATM   21  C   UNL     1     -10.471  16.680  66.308  1.00  0.00    -0.268 A  
HETATM   22  F   UNL     1     -10.509  16.011  65.150  1.00  0.00    -0.374 F  
HETATM   23  C   UNL     1     -10.104  18.022  66.310  1.00  0.00    -0.363 A  
HETATM   24  C   UNL     1     -10.048  18.718  67.516  1.00  0.00    -0.408 A  
HETATM   25  C   UNL     1     -10.356  18.063  68.710  1.00  0.00    -0.294 A  
ENDBRANCH  18  19
ENDBRANCH  17  18
ENDBRANCH  14  17
ENDBRANCH  10  11
ENDBRANCH   8  10
ENDBRANCH   2   8
TORSDOF 7
ENDMDL
MODEL        9
REMARK 921   NORMALIZED FREE ENERGY PREDICTED BY IDOCK:   -5.97 KCAL/MOL
REMARK 922        TOTAL FREE ENERGY PREDICTED BY IDOCK:   -9.21 KCAL/MOL
REMARK 923 INTER-LIGAND FREE ENERGY PREDICTED BY IDOCK:   -8.59 KCAL/MOL
REMARK 924 INTRA-LIGAND FREE ENERGY PREDICTED BY IDOCK:   -0.62 KCAL/MOL
REMARK 927      BINDING AFFINITY PREDICTED BY RF-SCORE:    0.00 PKD
ROOT
HETATM    1  C   UNL     1     -14.180   7.766  71.469  1.00  0.00    -0.540 C  
HETATM    2  C   UNL     1     -13.138   8.824  71.825  1.00  0.00    -0.363 C  
ENDROOT
BRANCH   2   3
HETATM    3  C   UNL     1     -11.721   8.202  71.780  1.00  0.00    -0.296 C  
HETATM    4  H2  UNL     1     -11.722   8.028  73.878  1.00  0.00     0.000 HD 
HETATM    5  H1  UNL     1     -10.278   7.464  72.978  1.00  0.00     0.000 HD 
HETATM    6  O   UNL     1     -11.074   8.004  70.757  1.00  0.00    -0.251 OA 
HETATM    7  N   UNL     1     -11.212   7.874  73.007  1.00  0.00    -0.377 N  
ENDBRANCH   2   3
BRANCH   2   8
HETATM    8  N   UNL     1     -13.132   9.989  70.911  1.00  0.00    -0.530 NA 
HETATM    9  H   UNL     1     -14.082  10.238  70.638  1.00  0.00     0.000 HD 
BRANCH   8  10
HETATM   10  C   UNL     1     -12.426  11.150  71.451  1.00  0.00    -0.309 C  
BRANCH  10  11
HETATM   11  C   UNL     1     -12.259  12.217  70.392  1.00  0.00    -0.378 A  
HETATM   12  C   UNL     1     -12.475  13.564  70.719  1.00  0.00    -0.428 A  
HETATM   13  C   UNL     1     -12.325  14.563  69.761  1.00  0.00    -0.317 A  
HETATM   14  C   UNL     1     -11.906  14.240  68.471  1.00  0.00    -0.347 A  
HETATM   15  C   UNL     1     -11.868  11.895  69.086  1.00  0.00    -0.371 A  
HETATM   16  C   UNL     1     -11.696  12.903  68.131  1.00  0.00    -0.395 A  
BRANCH  14  17
HETATM   17  O   UNL     1     -11.673  15.156  67.479  1.00  0.00    -0.322 OA 
BRANCH  17  18
HETATM   18  C   UNL     1     -10.352  15.705  67.478  1.00  0.00    -0.277 C  
BRANCH  18  19
HETATM   19  C   UNL     1     -10.376  17.212  67.522  1.00  0.00    -0.341 A  
HETATM   20  C   UNL     1     -10.569  17.979  66.366  1.00  0.00    -0.259 A  
HETATM   21  C   UNL     1     -10.493  19.365  66.434  1.00  0.00    -0.488 A  
HETATM   22  F   UNL     1     -10.672  20.090  65.323  1.00  0.00    -0.553 F  
HETATM   23  C   UNL     1     -10.216  20.011  67.633  1.00  0.00    -0.548 A  
HETATM   24  C   UNL     1     -10.015  19.259  68.789  1.00  0.00    -0.511 A  
HETATM   25  C   UNL     1     -10.090  17.866  68.732  1.00  0.00    -0.384 A  
ENDBRANCH  18  19
ENDBRANCH  17  18
ENDBRANCH  14  17
ENDBRANCH  10  11
ENDBRANCH   8  10
ENDBRANCH   2   8
TORSDOF 7
ENDMDL
MODEL       10
REMARK 921   NORMALIZED FREE ENERGY PREDICTED BY IDOCK:   -5.96 KCAL/MOL
REMARK 922        TOTAL FREE ENERGY PREDICTED BY IDOCK:   -9.19 KCAL/MOL
REMARK 923 INTER-LIGAND FREE ENERGY PREDICTED BY IDOCK:   -8.47 KCAL/MOL
REMARK 924 INTRA-LIGAND FREE ENERGY PREDICTED BY IDOCK:   -0.73 KCAL/MOL
REMARK 927      BINDING AFFINITY PREDICTED BY RF-SCORE:    0.00 PKD
ROOT
HETATM    1  C   UNL     1     -10.688   8.745  72.060  1.00  0.00    -0.417 C  
HETATM    2  C   UNL     1     -11.541   8.434  70.832  1.00  0.00    -0.262 C  
ENDROOT
BRANCH   2   3
HETATM    3  C   UNL     1     -12.024   6.964  70.887  1.00  0.00    -0.381 C  
HETATM    4  H2  UNL     1     -11.017   6.556  69.084  1.00  0.00     0.000 HD 
HETATM    5  H1  UNL     1     -11.919   5.225  69.875  1.00  0.00     0.000 HD 
HETATM    6  O   UNL     1     -12.728   6.490  71.773  1.00  0.00    -0.320 OA 
HETATM    7  N   UNL     1     -11.601   6.193  69.839  1.00  0.00    -0.325 N  
ENDBRANCH   2   3
BRANCH   2   8
HETATM    8  N   UNL     1     -12.746   9.285  70.708  1.00  0.00    -0.510 NA 
HETATM    9  H   UNL     1     -13.580   8.713  70.582  1.00  0.00     0.000 HD 
BRANCH   8  10
HETATM   10  C   UNL     1     -12.919  10.215  71.824  1.00  0.00    -0.462 C  
BRANCH  10  11
HETATM   11  C   UNL     1     -12.792  11.646  71.353  1.00  0.00    -0.461 A  
HETATM   12  C   UNL     1     -13.404  12.677  72.081  1.00  0.00    -0.570 A  
HETATM   13  C   UNL     1     -13.299  14.002  71.667  1.00  0.00    -0.442 A  
HETATM   14  C   UNL     1     -12.537  14.329  70.547  1.00  0.00    -0.353 A  
HETATM   15  C   UNL     1     -12.052  11.977  70.209  1.00  0.00    -0.395 A  
HETATM   16  C   UNL     1     -11.930  13.312  69.809  1.00  0.00    -0.391 A  
BRANCH  14  17
HETATM   17  O   UNL     1     -12.325  15.605  70.097  1.00  0.00    -0.395 OA 
BRANCH  17  18
HETATM   18  C   UNL     1     -10.949  15.991  70.034  1.00  0.00    -0.365 C  
BRANCH  18  19
HETATM   19  C   UNL     1     -10.613  16.639  68.714  1.00  0.00    -0.340 A  
HETATM   20  C   UNL     1     -10.349  18.011  68.615  1.00  0.00    -0.328 A  
HETATM   21  C   UNL     1     -10.134  18.587  67.369  1.00  0.00    -0.352 A  
HETATM   22  F   UNL     1      -9.890  19.900  67.282  1.00  0.00    -0.416 F  
HETATM   23  C   UNL     1     -10.188  17.824  66.207  1.00  0.00    -0.364 A  
HETATM   24  C   UNL     1     -10.458  16.460  66.292  1.00  0.00    -0.298 A  
HETATM   25  C   UNL     1     -10.673  15.871  67.539  1.00  0.00    -0.318 A  
ENDBRANCH  18  19
ENDBRANCH  17  18
ENDBRANCH  14  17
ENDBRANCH  10  11
ENDBRANCH   8  10
ENDBRANCH   2   8
TORSDOF 7
ENDMDL
MODEL       11
REMARK 921   NORMALIZED FREE ENERGY PREDICTED BY IDOCK:   -5.96 KCAL/MOL
REMARK 922        TOTAL FREE ENERGY PREDICTED BY IDOCK:   -9.18 KCAL/MOL
REMARK 923 INTER-LIGAND FREE ENERGY PREDICTED BY IDOCK:   -8.50 KCAL/MOL
REMARK 924 INTRA-LIGAND FREE ENERGY PREDICTED BY IDOCK:   -0.68 KCAL/MOL
REMARK 927      BINDING AFFINITY PREDICTED BY RF-SCORE:    0.00 PKD
ROOT
HETATM    1  C   UNL     1      -8.718   9.780  62.362  1.00  0.00    -0.237 C  
HETATM    2  C   UNL     1      -9.487  10.346  63.554  1.00  0.00    -0.312 C  
ENDROOT
BRANCH   2   3
HETATM    3  C   UNL     1      -8.908   9.774  64.871  1.00  0.00    -0.197 C  
HETATM    4  H2  UNL     1      -6.958  10.220  64.217  1.00  0.00     0.000 HD 
HETATM    5  H1  UNL     1      -7.161   9.456  65.824  1.00  0.00     0.000 HD 
HETATM    6  O   UNL     1      -9.576   9.298  65.782  1.00  0.00    -0.254 OA 
HETATM    7  N   UNL     1      -7.543   9.833  64.957  1.00  0.00    -0.120 N  
ENDBRANCH   2   3
BRANCH   2   8
HETATM    8  N   UNL     1      -9.431  11.822  63.656  1.00  0.00    -0.522 NA 
HETATM    9  H   UNL     1      -8.786  12.207  62.967  1.00  0.00     0.000 HD 
BRANCH   8  10
HETATM   10  C   UNL     1     -10.741  12.464  63.556  1.00  0.00    -0.430 C  
BRANCH  10  11
HETATM   11  C   UNL     1     -11.045  13.260  64.804  1.00  0.00    -0.359 A  
HETATM   12  C   UNL     1     -11.738  12.658  65.865  1.00  0.00    -0.470 A  
HETATM   13  C   UNL     1     -12.026  13.371  67.025  1.00  0.00    -0.429 A  
HETATM   14  C   UNL     1     -11.583  14.684  67.169  1.00  0.00    -0.378 A  
HETATM   15  C   UNL     1     -10.629  14.591  64.942  1.00  0.00    -0.450 A  
HETATM   16  C   UNL     1     -10.900  15.298  66.118  1.00  0.00    -0.320 A  
BRANCH  14  17
HETATM   17  O   UNL     1     -11.764  15.446  68.293  1.00  0.00    -0.360 OA 
BRANCH  17  18
HETATM   18  C   UNL     1     -10.973  15.045  69.415  1.00  0.00    -0.266 C  
BRANCH  18  19
HETATM   19  C   UNL     1     -11.809  14.900  70.662  1.00  0.00    -0.357 A  
HETATM   20  C   UNL     1     -12.370  13.671  71.032  1.00  0.00    -0.436 A  
HETATM   21  C   UNL     1     -13.210  13.598  72.137  1.00  0.00    -0.449 A  
HETATM   22  F   UNL     1     -13.747  12.421  72.479  1.00  0.00    -0.601 F  
HETATM   23  C   UNL     1     -13.517  14.731  72.882  1.00  0.00    -0.541 A  
HETATM   24  C   UNL     1     -12.971  15.961  72.520  1.00  0.00    -0.534 A  
HETATM   25  C   UNL     1     -12.125  16.045  71.412  1.00  0.00    -0.479 A  
ENDBRANCH  18  19
ENDBRANCH  17  18
ENDBRANCH  14  17
ENDBRANCH  10  11
ENDBRANCH   8  10
ENDBRANCH   2   8
TORSDOF 7
ENDMDL
MODEL       12
REMARK 921   NORMALIZED FREE ENERGY PREDICTED BY IDOCK:   -5.95 KCAL/MOL
REMARK 922        TOTAL FREE ENERGY PREDICTED BY IDOCK:   -9.18 KCAL/MOL
REMARK 923 INTER-LIGAND FREE ENERGY PREDICTED BY IDOCK:   -8.46 KCAL/MOL
REMARK 924 INTRA-LIGAND FREE ENERGY PREDICTED BY IDOCK:   -0.73 KCAL/MOL
REMARK 927      BINDING AFFINITY PREDICTED BY RF-SCORE:    0.00 PKD
ROOT
HETATM    1  C   UNL     1     -10.598  14.503  64.684  1.00  0.00    -0.298 C  
HETATM    2  C   UNL     1     -12.048  14.038  64.576  1.00  0.00    -0.459 C  
ENDROOT
BRANCH   2   3
HETATM    3  C   UNL     1     -12.111  12.689  63.819  1.00  0.00    -0.522 C  
HETATM    4  H2  UNL     1     -10.009  12.616  63.756  1.00  0.00     0.000 HD 
HETATM    5  H1  UNL     1     -10.929  11.271  63.010  1.00  0.00     0.000 HD 
HETATM    6  O   UNL     1     -13.145  12.110  63.502  1.00  0.00    -0.785 OA 
HETATM    7  N   UNL     1     -10.888  12.160  63.509  1.00  0.00    -0.444 N  
ENDBRANCH   2   3
BRANCH   2   8
HETATM    8  N   UNL     1     -12.711  13.836  65.884  1.00  0.00    -0.446 NA 
HETATM    9  H   UNL     1     -12.997  12.864  65.998  1.00  0.00     0.000 HD 
BRANCH   8  10
HETATM   10  C   UNL     1     -11.901  14.274  67.021  1.00  0.00    -0.428 C  
BRANCH  10  11
HETATM   11  C   UNL     1     -11.980  13.273  68.152  1.00  0.00    -0.340 A  
HETATM   12  C   UNL     1     -11.770  11.911  67.893  1.00  0.00    -0.368 A  
HETATM   13  C   UNL     1     -11.835  10.972  68.919  1.00  0.00    -0.378 A  
HETATM   14  C   UNL     1     -12.059  11.382  70.232  1.00  0.00    -0.374 A  
HETATM   15  C   UNL     1     -12.235  13.677  69.469  1.00  0.00    -0.316 A  
HETATM   16  C   UNL     1     -12.277  12.734  70.501  1.00  0.00    -0.389 A  
BRANCH  14  17
HETATM   17  O   UNL     1     -12.080  10.543  71.315  1.00  0.00    -0.354 OA 
BRANCH  17  18
HETATM   18  C   UNL     1     -12.769   9.309  71.095  1.00  0.00    -0.240 C  
BRANCH  18  19
HETATM   19  C   UNL     1     -11.902   8.121  71.432  1.00  0.00    -0.329 A  
HETATM   20  C   UNL     1     -11.688   7.083  70.517  1.00  0.00    -0.359 A  
HETATM   21  C   UNL     1     -10.959   5.963  70.897  1.00  0.00    -0.265 A  
HETATM   22  F   UNL     1     -10.766   4.973  70.018  1.00  0.00    -0.343 F  
HETATM   23  C   UNL     1     -10.443   5.845  72.183  1.00  0.00    -0.250 A  
HETATM   24  C   UNL     1     -10.655   6.867  73.106  1.00  0.00    -0.330 A  
HETATM   25  C   UNL     1     -11.385   7.998  72.733  1.00  0.00    -0.439 A  
ENDBRANCH  18  19
ENDBRANCH  17  18
ENDBRANCH  14  17
ENDBRANCH  10  11
ENDBRANCH   8  10
ENDBRANCH   2   8
TORSDOF 7
ENDMDL
MODEL       13
REMARK 921   NORMALIZED FREE ENERGY PREDICTED BY IDOCK:   -5.92 KCAL/MOL
REMARK 922        TOTAL FREE ENERGY PREDICTED BY IDOCK:   -9.13 KCAL/MOL
REMARK 923 INTER-LIGAND FREE ENERGY PREDICTED BY IDOCK:   -8.38 KCAL/MOL
REMARK 924 INTRA-LIGAND FREE ENERGY PREDICTED BY IDOCK:   -0.75 KCAL/MOL
REMARK 927      BINDING AFFINITY PREDICTED BY RF-SCORE:    0.00 PKD
ROOT
HETATM    1  C   UNL     1     -10.195  18.137  67.966  1.00  0.00    -0.392 C  
HETATM    2  C   UNL     1      -9.825  18.154  66.484  1.00  0.00    -0.362 C  
ENDROOT
BRANCH   2   3
HETATM    3  C   UNL     1      -8.555  19.012  66.270  1.00  0.00    -0.274 C  
HETATM    4  H2  UNL     1      -9.245  20.403  67.691  1.00  0.00     0.000 HD 
HETATM    5  H1  UNL     1      -7.670  20.712  66.894  1.00  0.00     0.000 HD 
HETATM    6  O   UNL     1      -7.648  18.741  65.490  1.00  0.00    -0.476 OA 
HETATM    7  N   UNL     1      -8.507  20.146  67.035  1.00  0.00    -0.329 N  
ENDBRANCH   2   3
BRANCH   2   8
HETATM    8  N   UNL     1      -9.545  16.813  65.922  1.00  0.00    -0.509 NA 
HETATM    9  H   UNL     1      -9.159  16.196  66.636  1.00  0.00     0.000 HD 
BRANCH   8  10
HETATM   10  C   UNL     1     -10.705  16.197  65.277  1.00  0.00    -0.368 C  
BRANCH  10  11
HETATM   11  C   UNL     1     -11.045  14.878  65.933  1.00  0.00    -0.338 A  
HETATM   12  C   UNL     1     -11.682  13.873  65.190  1.00  0.00    -0.357 A  
HETATM   13  C   UNL     1     -12.002  12.650  65.771  1.00  0.00    -0.503 A  
HETATM   14  C   UNL     1     -11.646  12.387  67.093  1.00  0.00    -0.365 A  
HETATM   15  C   UNL     1     -10.716  14.619  67.270  1.00  0.00    -0.290 A  
HETATM   16  C   UNL     1     -11.019  13.381  67.846  1.00  0.00    -0.276 A  
BRANCH  14  17
HETATM   17  O   UNL     1     -11.863  11.196  67.734  1.00  0.00    -0.608 OA 
BRANCH  17  18
HETATM   18  C   UNL     1     -10.887  10.871  68.727  1.00  0.00    -0.209 C  
BRANCH  18  19
HETATM   19  C   UNL     1     -11.532  10.391  70.004  1.00  0.00    -0.382 A  
HETATM   20  C   UNL     1     -11.298   9.106  70.508  1.00  0.00    -0.300 A  
HETATM   21  C   UNL     1     -11.982   8.670  71.637  1.00  0.00    -0.326 A  
HETATM   22  F   UNL     1     -11.757   7.437  72.108  1.00  0.00    -0.273 F  
HETATM   23  C   UNL     1     -12.910   9.486  72.274  1.00  0.00    -0.426 A  
HETATM   24  C   UNL     1     -13.157  10.764  71.778  1.00  0.00    -0.573 A  
HETATM   25  C   UNL     1     -12.475  11.213  70.645  1.00  0.00    -0.448 A  
ENDBRANCH  18  19
ENDBRANCH  17  18
ENDBRANCH  14  17
ENDBRANCH  10  11
ENDBRANCH   8  10
ENDBRANCH   2   8
TORSDOF 7
ENDMDL
MODEL       14
REMARK 921   NORMALIZED FREE ENERGY PREDICTED BY IDOCK:   -5.90 KCAL/MOL
REMARK 922        TOTAL FREE ENERGY PREDICTED BY IDOCK:   -9.11 KCAL/MOL
REMARK 923 INTER-LIGAND FREE ENERGY PREDICTED BY IDOCK:   -8.48 KCAL/MOL
REMARK 924 INTRA-LIGAND FREE ENERGY PREDICTED BY IDOCK:   -0.63 KCAL/MOL
REMARK 927      BINDING AFFINITY PREDICTED BY RF-SCORE:    0.00 PKD
ROOT
HETATM    1  C   UNL     1     -13.613  13.238  72.115  1.00  0.00    -0.655 C  
HETATM    2  C   UNL     1     -13.990  14.717  72.075  1.00  0.00    -0.484 C  
ENDROOT
BRANCH   2   3
HETATM    3  C   UNL     1     -13.261  15.476  73.210  1.00  0.00    -0.522 C  
HETATM    4  H2  UNL     1     -11.983  13.828  73.501  1.00  0.00     0.000 HD 
HETATM    5  H1  UNL     1     -11.760  15.271  74.540  1.00  0.00     0.000 HD 
HETATM    6  O   UNL     1     -13.541  16.608  73.591  1.00  0.00    -0.356 OA 
HETATM    7  N   UNL     1     -12.241  14.772  73.791  1.00  0.00    -0.382 N  
ENDBRANCH   2   3
BRANCH   2   8
HETATM    8  N   UNL     1     -13.638  15.390  70.804  1.00  0.00    -0.814 NA 
HETATM    9  H   UNL     1     -14.118  16.286  70.724  1.00  0.00     0.000 HD 
BRANCH   8  10
HETATM   10  C   UNL     1     -12.197  15.555  70.612  1.00  0.00    -0.402 C  
BRANCH  10  11
HETATM   11  C   UNL     1     -11.789  15.123  69.222  1.00  0.00    -0.347 A  
HETATM   12  C   UNL     1     -12.113  13.836  68.768  1.00  0.00    -0.344 A  
HETATM   13  C   UNL     1     -11.750  13.417  67.491  1.00  0.00    -0.406 A  
HETATM   14  C   UNL     1     -11.101  14.293  66.624  1.00  0.00    -0.321 A  
HETATM   15  C   UNL     1     -11.109  15.990  68.356  1.00  0.00    -0.351 A  
HETATM   16  C   UNL     1     -10.766  15.574  67.065  1.00  0.00    -0.321 A  
BRANCH  14  17
HETATM   17  O   UNL     1     -10.757  13.995  65.331  1.00  0.00    -0.306 OA 
BRANCH  17  18
HETATM   18  C   UNL     1     -11.533  12.950  64.738  1.00  0.00    -0.321 C  
BRANCH  18  19
HETATM   19  C   UNL     1     -10.684  11.750  64.401  1.00  0.00    -0.381 A  
HETATM   20  C   UNL     1     -10.367  10.781  65.360  1.00  0.00    -0.315 A  
HETATM   21  C   UNL     1      -9.507   9.739  65.034  1.00  0.00    -0.272 A  
HETATM   22  F   UNL     1      -9.204   8.821  65.960  1.00  0.00    -0.197 F  
HETATM   23  C   UNL     1      -8.941   9.645  63.768  1.00  0.00    -0.251 A  
HETATM   24  C   UNL     1      -9.242  10.607  62.807  1.00  0.00    -0.328 A  
HETATM   25  C   UNL     1     -10.106  11.657  63.123  1.00  0.00    -0.409 A  
ENDBRANCH  18  19
ENDBRANCH  17  18
ENDBRANCH  14  17
ENDBRANCH  10  11
ENDBRANCH   8  10
ENDBRANCH   2   8
TORSDOF 7
ENDMDL
MODEL       15
REMARK 921   NORMALIZED FREE ENERGY PREDICTED BY IDOCK:   -5.90 KCAL/MOL
REMARK 922        TOTAL FREE ENERGY PREDICTED BY IDOCK:   -9.10 KCAL/MOL
REMARK 923 INTER-LIGAND FREE ENERGY PREDICTED BY IDOCK:   -8.52 KCAL/MOL
REMARK 924 INTRA-LIGAND FREE ENERGY PREDICTED BY IDOCK:   -0.58 KCAL/MOL
REMARK 927      BINDING AFFINITY PREDICTED BY RF-SCORE:    0.00 PKD
ROOT
HETATM    1  C   UNL     1     -10.656  18.342  67.299  1.00  0.00    -0.435 C  
HETATM    2  C   UNL     1      -9.756  18.098  66.089  1.00  0.00    -0.210 C  
ENDROOT
BRANCH   2   3
HETATM    3  C   UNL     1      -8.333  18.634  66.377  1.00  0.00    -0.276 C  
HETATM    4  H2  UNL     1      -7.510  16.785  65.801  1.00  0.00     0.000 HD 
HETATM    5  H1  UNL     1      -6.395  18.084  66.329  1.00  0.00     0.000 HD 
HETATM    6  O   UNL     1      -8.078  19.762  66.788  1.00  0.00    -0.279 OA 
HETATM    7  N   UNL     1      -7.333  17.731  66.139  1.00  0.00    -0.294 N  
ENDBRANCH   2   3
BRANCH   2   8
HETATM    8  N   UNL     1      -9.619  16.670  65.724  1.00  0.00    -0.528 NA 
HETATM    9  H   UNL     1      -9.228  16.136  66.499  1.00  0.00     0.000 HD 
BRANCH   8  10
HETATM   10  C   UNL     1     -10.867  16.066  65.256  1.00  0.00    -0.362 C  
BRANCH  10  11
HETATM   11  C   UNL     1     -11.209  14.841  66.073  1.00  0.00    -0.341 A  
HETATM   12  C   UNL     1     -11.242  13.580  65.460  1.00  0.00    -0.304 A  
HETATM   13  C   UNL     1     -11.552  12.438  66.194  1.00  0.00    -0.452 A  
HETATM   14  C   UNL     1     -11.785  12.528  67.565  1.00  0.00    -0.374 A  
HETATM   15  C   UNL     1     -11.474  14.929  67.447  1.00  0.00    -0.354 A  
HETATM   16  C   UNL     1     -11.764  13.778  68.185  1.00  0.00    -0.392 A  
BRANCH  14  17
HETATM   17  O   UNL     1     -12.038  11.457  68.381  1.00  0.00    -0.575 OA 
BRANCH  17  18
HETATM   18  C   UNL     1     -11.945  11.742  69.780  1.00  0.00    -0.322 C  
BRANCH  18  19
HETATM   19  C   UNL     1     -12.035  10.486  70.611  1.00  0.00    -0.455 A  
HETATM   20  C   UNL     1     -13.218  10.122  71.266  1.00  0.00    -0.453 A  
HETATM   21  C   UNL     1     -13.235   9.007  72.096  1.00  0.00    -0.446 A  
HETATM   22  F   UNL     1     -14.367   8.670  72.724  1.00  0.00    -0.456 F  
HETATM   23  C   UNL     1     -12.088   8.247  72.300  1.00  0.00    -0.439 A  
HETATM   24  C   UNL     1     -10.904   8.603  71.660  1.00  0.00    -0.374 A  
HETATM   25  C   UNL     1     -10.876   9.721  70.823  1.00  0.00    -0.403 A  
ENDBRANCH  18  19
ENDBRANCH  17  18
ENDBRANCH  14  17
ENDBRANCH  10  11
ENDBRANCH   8  10
ENDBRANCH   2   8
TORSDOF 7
ENDMDL
MODEL       16
REMARK 921   NORMALIZED FREE ENERGY PREDICTED BY IDOCK:   -5.89 KCAL/MOL
REMARK 922        TOTAL FREE ENERGY PREDICTED BY IDOCK:   -9.09 KCAL/MOL
REMARK 923 INTER-LIGAND FREE ENERGY PREDICTED BY IDOCK:   -8.46 KCAL/MOL
REMARK 924 INTRA-LIGAND FREE ENERGY PREDICTED BY IDOCK:   -0.63 KCAL/MOL
REMARK 927      BINDING AFFINITY PREDICTED BY RF-SCORE:    0.00 PKD
ROOT
HETATM    1  C   UNL     1     -12.250   7.006  71.431  1.00  0.00    -0.407 C  
HETATM    2  C   UNL     1     -11.880   8.248  72.240  1.00  0.00    -0.388 C  
ENDROOT
BRANCH   2   3
HETATM    3  C   UNL     1     -10.406   8.153  72.703  1.00  0.00    -0.328 C  
HETATM    4  H2  UNL     1     -10.921   6.633  74.064  1.00  0.00     0.000 HD 
HETATM    5  H1  UNL     1      -9.210   7.156  73.982  1.00  0.00     0.000 HD 
HETATM    6  O   UNL     1      -9.489   8.840  72.266  1.00  0.00    -0.293 OA 
HETATM    7  N   UNL     1     -10.181   7.218  73.676  1.00  0.00    -0.344 N  
ENDBRANCH   2   3
BRANCH   2   8
HETATM    8  N   UNL     1     -12.022   9.515  71.488  1.00  0.00    -0.374 NA 
HETATM    9  H   UNL     1     -12.156   9.332  70.494  1.00  0.00     0.000 HD 
BRANCH   8  10
HETATM   10  C   UNL     1     -13.081  10.383  72.003  1.00  0.00    -0.416 C  
BRANCH  10  11
HETATM   11  C   UNL     1     -12.919  11.793  71.481  1.00  0.00    -0.446 A  
HETATM   12  C   UNL     1     -13.534  12.860  72.153  1.00  0.00    -0.619 A  
HETATM   13  C   UNL     1     -13.396  14.167  71.692  1.00  0.00    -0.440 A  
HETATM   14  C   UNL     1     -12.599  14.439  70.582  1.00  0.00    -0.357 A  
HETATM   15  C   UNL     1     -12.143  12.069  70.347  1.00  0.00    -0.407 A  
HETATM   16  C   UNL     1     -11.988  13.385  69.900  1.00  0.00    -0.408 A  
BRANCH  14  17
HETATM   17  O   UNL     1     -12.353  15.694  70.090  1.00  0.00    -0.395 OA 
BRANCH  17  18
HETATM   18  C   UNL     1     -10.967  16.010  69.938  1.00  0.00    -0.353 C  
BRANCH  18  19
HETATM   19  C   UNL     1     -10.688  16.655  68.603  1.00  0.00    -0.349 A  
HETATM   20  C   UNL     1     -10.649  18.047  68.453  1.00  0.00    -0.249 A  
HETATM   21  C   UNL     1     -10.480  18.603  67.190  1.00  0.00    -0.415 A  
HETATM   22  F   UNL     1     -10.452  19.934  67.054  1.00  0.00    -0.500 F  
HETATM   23  C   UNL     1     -10.360  17.798  66.062  1.00  0.00    -0.304 A  
HETATM   24  C   UNL     1     -10.404  16.413  66.198  1.00  0.00    -0.354 A  
HETATM   25  C   UNL     1     -10.572  15.844  67.462  1.00  0.00    -0.315 A  
ENDBRANCH  18  19
ENDBRANCH  17  18
ENDBRANCH  14  17
ENDBRANCH  10  11
ENDBRANCH   8  10
ENDBRANCH   2   8
TORSDOF 7
ENDMDL
MODEL       17
REMARK 921   NORMALIZED FREE ENERGY PREDICTED BY IDOCK:   -5.89 KCAL/MOL
REMARK 922        TOTAL FREE ENERGY PREDICTED BY IDOCK:   -9.09 KCAL/MOL
REMARK 923 INTER-LIGAND FREE ENERGY PREDICTED BY IDOCK:   -8.35 KCAL/MOL
REMARK 924 INTRA-LIGAND FREE ENERGY PREDICTED BY IDOCK:   -0.75 KCAL/MOL
REMARK 927      BINDING AFFINITY PREDICTED BY RF-SCORE:    0.00 PKD
ROOT
HETATM    1  C   UNL     1     -13.104  11.725  72.040  1.00  0.00    -0.436 C  
HETATM    2  C   UNL     1     -12.462  10.450  71.497  1.00  0.00    -0.404 C  
ENDROOT
BRANCH   2   3
HETATM    3  C   UNL     1     -13.048   9.216  72.225  1.00  0.00    -0.438 C  
HETATM    4  H2  UNL     1     -11.166   8.277  72.169  1.00  0.00     0.000 HD 
HETATM    5  H1  UNL     1     -12.530   7.402  72.933  1.00  0.00     0.000 HD 
HETATM    6  O   UNL     1     -14.217   9.101  72.581  1.00  0.00    -0.551 OA 
HETATM    7  N   UNL     1     -12.143   8.215  72.453  1.00  0.00    -0.359 N  
ENDBRANCH   2   3
BRANCH   2   8
HETATM    8  N   UNL     1     -12.675  10.244  70.047  1.00  0.00    -0.549 NA 
HETATM    9  H   UNL     1     -13.390  10.879  69.693  1.00  0.00     0.000 HD 
BRANCH   8  10
HETATM   10  C   UNL     1     -11.448  10.351  69.257  1.00  0.00    -0.215 C  
BRANCH  10  11
HETATM   11  C   UNL     1     -11.498  11.563  68.353  1.00  0.00    -0.364 A  
HETATM   12  C   UNL     1     -11.894  12.804  68.872  1.00  0.00    -0.351 A  
HETATM   13  C   UNL     1     -11.944  13.933  68.060  1.00  0.00    -0.390 A  
HETATM   14  C   UNL     1     -11.551  13.855  66.725  1.00  0.00    -0.378 A  
HETATM   15  C   UNL     1     -11.132  11.483  67.003  1.00  0.00    -0.365 A  
HETATM   16  C   UNL     1     -11.162  12.624  66.194  1.00  0.00    -0.350 A  
BRANCH  14  17
HETATM   17  O   UNL     1     -11.508  14.920  65.864  1.00  0.00    -0.342 OA 
BRANCH  17  18
HETATM   18  C   UNL     1     -10.235  15.567  65.784  1.00  0.00    -0.366 C  
BRANCH  18  19
HETATM   19  C   UNL     1     -10.242  16.899  66.493  1.00  0.00    -0.320 A  
HETATM   20  C   UNL     1     -10.565  18.086  65.824  1.00  0.00    -0.174 A  
HETATM   21  C   UNL     1     -10.471  19.303  66.489  1.00  0.00    -0.462 A  
HETATM   22  F   UNL     1     -10.775  20.433  65.840  1.00  0.00    -0.399 F  
HETATM   23  C   UNL     1     -10.048  19.368  67.812  1.00  0.00    -0.508 A  
HETATM   24  C   UNL     1      -9.716  18.194  68.485  1.00  0.00    -0.372 A  
HETATM   25  C   UNL     1      -9.808  16.966  67.827  1.00  0.00    -0.252 A  
ENDBRANCH  18  19
ENDBRANCH  17  18
ENDBRANCH  14  17
ENDBRANCH  10  11
ENDBRANCH   8  10
ENDBRANCH   2   8
TORSDOF 7
ENDMDL
MODEL       18
REMARK 921   NORMALIZED FREE ENERGY PREDICTED BY IDOCK:   -5.86 KCAL/MOL
REMARK 922        TOTAL FREE ENERGY PREDICTED BY IDOCK:   -9.06 KCAL/MOL
REMARK 923 INTER-LIGAND FREE ENERGY PREDICTED BY IDOCK:   -8.45 KCAL/MOL
REMARK 924 INTRA-LIGAND FREE ENERGY PREDICTED BY IDOCK:   -0.61 KCAL/MOL
REMARK 927      BINDING AFFINITY PREDICTED BY RF-SCORE:    0.00 PKD
ROOT
HETATM    1  C   UNL     1     -14.407   8.733  72.455  1.00  0.00    -0.419 C  
HETATM    2  C   UNL     1     -12.976   9.131  72.099  1.00  0.00    -0.425 C  
ENDROOT
BRANCH   2   3
HETATM    3  C   UNL     1     -12.088   7.867  72.003  1.00  0.00    -0.320 C  
HETATM    4  H2  UNL     1     -11.177   8.358  73.836  1.00  0.00     0.000 HD 
HETATM    5  H1  UNL     1     -10.643   6.870  72.993  1.00  0.00     0.000 HD 
HETATM    6  O   UNL     1     -12.116   7.058  71.082  1.00  0.00    -0.333 OA 
HETATM    7  N   UNL     1     -11.228   7.703  73.055  1.00  0.00    -0.380 N  
ENDBRANCH   2   3
BRANCH   2   8
HETATM    8  N   UNL     1     -12.858   9.846  70.808  1.00  0.00    -0.530 NA 
HETATM    9  H   UNL     1     -13.600  10.538  70.709  1.00  0.00     0.000 HD 
BRANCH   8  10
HETATM   10  C   UNL     1     -11.547  10.459  70.599  1.00  0.00    -0.349 C  
BRANCH  10  11
HETATM   11  C   UNL     1     -11.676  11.752  69.827  1.00  0.00    -0.408 A  
HETATM   12  C   UNL     1     -12.005  12.938  70.501  1.00  0.00    -0.282 A  
HETATM   13  C   UNL     1     -12.127  14.141  69.812  1.00  0.00    -0.409 A  
HETATM   14  C   UNL     1     -11.873  14.193  68.442  1.00  0.00    -0.353 A  
HETATM   15  C   UNL     1     -11.451  11.805  68.444  1.00  0.00    -0.354 A  
HETATM   16  C   UNL     1     -11.553  13.019  67.758  1.00  0.00    -0.385 A  
BRANCH  14  17
HETATM   17  O   UNL     1     -11.908  15.337  67.689  1.00  0.00    -0.265 OA 
BRANCH  17  18
HETATM   18  C   UNL     1     -10.658  15.693  67.093  1.00  0.00    -0.308 C  
BRANCH  18  19
HETATM   19  C   UNL     1     -10.397  17.175  67.192  1.00  0.00    -0.307 A  
HETATM   20  C   UNL     1     -10.319  17.827  68.429  1.00  0.00    -0.378 A  
HETATM   21  C   UNL     1     -10.170  19.208  68.476  1.00  0.00    -0.367 A  
HETATM   22  F   UNL     1     -10.103  19.824  69.662  1.00  0.00    -0.478 F  
HETATM   23  C   UNL     1     -10.107  19.964  67.310  1.00  0.00    -0.569 A  
HETATM   24  C   UNL     1     -10.191  19.327  66.073  1.00  0.00    -0.512 A  
HETATM   25  C   UNL     1     -10.340  17.941  66.015  1.00  0.00    -0.318 A  
ENDBRANCH  18  19
ENDBRANCH  17  18
ENDBRANCH  14  17
ENDBRANCH  10  11
ENDBRANCH   8  10
ENDBRANCH   2   8
TORSDOF 7
ENDMDL
MODEL       19
REMARK 921   NORMALIZED FREE ENERGY PREDICTED BY IDOCK:   -5.86 KCAL/MOL
REMARK 922        TOTAL FREE ENERGY PREDICTED BY IDOCK:   -9.06 KCAL/MOL
REMARK 923 INTER-LIGAND FREE ENERGY PREDICTED BY IDOCK:   -8.19 KCAL/MOL
REMARK 924 INTRA-LIGAND FREE ENERGY PREDICTED BY IDOCK:   -0.86 KCAL/MOL
REMARK 927      BINDING AFFINITY PREDICTED BY RF-SCORE:    0.00 PKD
ROOT
HETATM    1  C   UNL     1     -10.549  19.524  65.947  1.00  0.00    -0.572 C  
HETATM    2  C   UNL     1      -9.344  18.747  66.473  1.00  0.00    -0.336 C  
ENDROOT
BRANCH   2   3
HETATM    3  C   UNL     1      -9.417  18.648  68.016  1.00  0.00    -0.315 C  
HETATM    4  H2  UNL     1      -7.741  17.375  68.023  1.00  0.00     0.000 HD 
HETATM    5  H1  UNL     1      -8.498  17.792  69.592  1.00  0.00     0.000 HD 
HETATM    6  O   UNL     1     -10.254  19.209  68.716  1.00  0.00    -0.392 OA 
HETATM    7  N   UNL     1      -8.450  17.858  68.575  1.00  0.00    -0.302 N  
ENDBRANCH   2   3
BRANCH   2   8
HETATM    8  N   UNL     1      -9.248  17.365  65.951  1.00  0.00    -0.523 NA 
HETATM    9  H   UNL     1      -8.960  16.720  66.686  1.00  0.00     0.000 HD 
BRANCH   8  10
HETATM   10  C   UNL     1     -10.476  16.900  65.305  1.00  0.00    -0.081 C  
BRANCH  10  11
HETATM   11  C   UNL     1     -10.877  15.541  65.832  1.00  0.00    -0.317 A  
HETATM   12  C   UNL     1     -11.425  14.589  64.961  1.00  0.00    -0.382 A  
HETATM   13  C   UNL     1     -11.799  13.330  65.423  1.00  0.00    -0.392 A  
HETATM   14  C   UNL     1     -11.585  12.981  66.755  1.00  0.00    -0.368 A  
HETATM   15  C   UNL     1     -10.692  15.195  67.178  1.00  0.00    -0.310 A  
HETATM   16  C   UNL     1     -11.049  13.922  67.635  1.00  0.00    -0.295 A  
BRANCH  14  17
HETATM   17  O   UNL     1     -11.864  11.750  67.290  1.00  0.00    -0.596 OA 
BRANCH  17  18
HETATM   18  C   UNL     1     -10.818  11.206  68.100  1.00  0.00    -0.219 C  
BRANCH  18  19
HETATM   19  C   UNL     1     -11.359  10.596  69.370  1.00  0.00    -0.348 A  
HETATM   20  C   UNL     1     -12.231  11.300  70.209  1.00  0.00    -0.428 A  
HETATM   21  C   UNL     1     -12.634  10.738  71.416  1.00  0.00    -0.410 A  
HETATM   22  F   UNL     1     -13.462  11.421  72.216  1.00  0.00    -0.572 F  
HETATM   23  C   UNL     1     -12.176   9.487  71.814  1.00  0.00    -0.465 A  
HETATM   24  C   UNL     1     -11.302   8.781  70.990  1.00  0.00    -0.332 A  
HETATM   25  C   UNL     1     -10.892   9.335  69.776  1.00  0.00    -0.239 A  
ENDBRANCH  18  19
ENDBRANCH  17  18
ENDBRANCH  14  17
ENDBRANCH  10  11
ENDBRANCH   8  10
ENDBRANCH   2   8
TORSDOF 7
ENDMDL
MODEL       20
REMARK 921   NORMALIZED FREE ENERGY PREDICTED BY IDOCK:   -5.85 KCAL/MOL
REMARK 922        TOTAL FREE ENERGY PREDICTED BY IDOCK:   -9.04 KCAL/MOL
REMARK 923 INTER-LIGAND FREE ENERGY PREDICTED BY IDOCK:   -8.52 KCAL/MOL
REMARK 924 INTRA-LIGAND FREE ENERGY PREDICTED BY IDOCK:   -0.52 KCAL/MOL
REMARK 927      BINDING AFFINITY PREDICTED BY RF-SCORE:    0.00 PKD
ROOT
HETATM    1  C   UNL     1     -14.067   8.583  71.651  1.00  0.00    -0.482 C  
HETATM    2  C   UNL     1     -12.821   9.343  72.102  1.00  0.00    -0.401 C  
ENDROOT
BRANCH   2   3
HETATM    3  C   UNL     1     -11.599   8.393  72.104  1.00  0.00    -0.374 C  
HETATM    4  H2  UNL     1     -12.867   6.745  71.782  1.00  0.00     0.000 HD 
HETATM    5  H1  UNL     1     -11.106   6.448  71.915  1.00  0.00     0.000 HD 
HETATM    6  O   UNL     1     -10.435   8.748  72.262  1.00  0.00    -0.329 OA 
HETATM    7  N   UNL     1     -11.911   7.074  71.914  1.00  0.00    -0.292 N  
ENDBRANCH   2   3
BRANCH   2   8
HETATM    8  N   UNL     1     -12.478  10.495  71.238  1.00  0.00    -0.389 NA 
HETATM    9  H   UNL     1     -12.839  10.358  70.294  1.00  0.00     0.000 HD 
BRANCH   8  10
HETATM   10  C   UNL     1     -12.916  11.781  71.779  1.00  0.00    -0.361 C  
BRANCH  10  11
HETATM   11  C   UNL     1     -12.438  12.920  70.908  1.00  0.00    -0.383 A  
HETATM   12  C   UNL     1     -11.914  12.652  69.635  1.00  0.00    -0.352 A  
HETATM   13  C   UNL     1     -11.471  13.685  68.814  1.00  0.00    -0.346 A  
HETATM   14  C   UNL     1     -11.590  15.011  69.228  1.00  0.00    -0.315 A  
HETATM   15  C   UNL     1     -12.528  14.253  71.332  1.00  0.00    -0.437 A  
HETATM   16  C   UNL     1     -12.102  15.290  70.496  1.00  0.00    -0.395 A  
BRANCH  14  17
HETATM   17  O   UNL     1     -11.238  16.096  68.470  1.00  0.00    -0.337 OA 
BRANCH  17  18
HETATM   18  C   UNL     1     -10.519  17.108  69.180  1.00  0.00    -0.296 C  
BRANCH  18  19
HETATM   19  C   UNL     1     -10.094  18.232  68.269  1.00  0.00    -0.406 A  
HETATM   20  C   UNL     1     -10.784  18.518  67.084  1.00  0.00    -0.396 A  
HETATM   21  C   UNL     1     -10.307  19.502  66.225  1.00  0.00    -0.506 A  
HETATM   22  F   UNL     1     -10.968  19.763  65.091  1.00  0.00    -0.552 F  
HETATM   23  C   UNL     1      -9.144  20.206  66.516  1.00  0.00    -0.411 A  
HETATM   24  C   UNL     1      -8.445  19.926  67.688  1.00  0.00    -0.374 A  
HETATM   25  C   UNL     1      -8.915  18.940  68.558  1.00  0.00    -0.388 A  
ENDBRANCH  18  19
ENDBRANCH  17  18
ENDBRANCH  14  17
ENDBRANCH  10  11
ENDBRANCH   8  10
ENDBRANCH   2   8
TORSDOF 7
ENDMDL
MODEL       21
REMARK 921   NORMALIZED FREE ENERGY PREDICTED BY IDOCK:   -5.84 KCAL/MOL
REMARK 922        TOTAL FREE ENERGY PREDICTED BY IDOCK:   -9.03 KCAL/MOL
REMARK 923 INTER-LIGAND FREE ENERGY PREDICTED BY IDOCK:   -8.30 KCAL/MOL
REMARK 924 INTRA-LIGAND FREE ENERGY PREDICTED BY IDOCK:   -0.73 KCAL/MOL
REMARK 927      BINDING AFFINITY PREDICTED BY RF-SCORE:    0.00 PKD
ROOT
HETATM    1  C   UNL     1     -13.080  11.770  71.735  1.00  0.00    -0.480 C  
HETATM    2  C   UNL     1     -12.386  10.631  70.991  1.00  0.00    -0.403 C  
ENDROOT
BRANCH   2   3
HETATM    3  C   UNL     1     -12.863   9.270  71.553  1.00  0.00    -0.354 C  
HETATM    4  H2  UNL     1     -11.069   8.369  70.922  1.00  0.00     0.000 HD 
HETATM    5  H1  UNL     1     -12.286   7.349  71.751  1.00  0.00     0.000 HD 
HETATM    6  O   UNL     1     -13.940   9.079  72.108  1.00  0.00    -0.431 OA 
HETATM    7  N   UNL     1     -11.971   8.246  71.381  1.00  0.00    -0.293 N  
ENDBRANCH   2   3
BRANCH   2   8
HETATM    8  N   UNL     1     -12.650  10.618  69.534  1.00  0.00    -0.643 NA 
HETATM    9  H   UNL     1     -13.261  11.391  69.272  1.00  0.00     0.000 HD 
BRANCH   8  10
HETATM   10  C   UNL     1     -11.434  10.620  68.721  1.00  0.00    -0.262 C  
BRANCH  10  11
HETATM   11  C   UNL     1     -11.297  11.922  67.965  1.00  0.00    -0.352 A  
HETATM   12  C   UNL     1     -11.660  11.984  66.612  1.00  0.00    -0.389 A  
HETATM   13  C   UNL     1     -11.545  13.173  65.897  1.00  0.00    -0.391 A  
HETATM   14  C   UNL     1     -11.113  14.335  66.533  1.00  0.00    -0.323 A  
HETATM   15  C   UNL     1     -10.834  13.087  68.592  1.00  0.00    -0.287 A  
HETATM   16  C   UNL     1     -10.740  14.285  67.877  1.00  0.00    -0.244 A  
BRANCH  14  17
HETATM   17  O   UNL     1     -11.024  15.563  65.931  1.00  0.00    -0.320 OA 
BRANCH  17  18
HETATM   18  C   UNL     1      -9.698  16.095  65.862  1.00  0.00    -0.340 C  
BRANCH  18  19
HETATM   19  C   UNL     1      -9.619  17.474  66.468  1.00  0.00    -0.295 A  
HETATM   20  C   UNL     1      -8.775  17.755  67.549  1.00  0.00    -0.239 A  
HETATM   21  C   UNL     1      -8.799  19.013  68.138  1.00  0.00    -0.316 A  
HETATM   22  F   UNL     1      -7.994  19.271  69.175  1.00  0.00    -0.375 F  
HETATM   23  C   UNL     1      -9.660  20.004  67.679  1.00  0.00    -0.516 A  
HETATM   24  C   UNL     1     -10.511  19.735  66.609  1.00  0.00    -0.615 A  
HETATM   25  C   UNL     1     -10.494  18.474  66.010  1.00  0.00    -0.433 A  
ENDBRANCH  18  19
ENDBRANCH  17  18
ENDBRANCH  14  17
ENDBRANCH  10  11
ENDBRANCH   8  10
ENDBRANCH   2   8
TORSDOF 7
ENDMDL
MODEL       22
REMARK 921   NORMALIZED FREE ENERGY PREDICTED BY IDOCK:   -5.84 KCAL/MOL
REMARK 922        TOTAL FREE ENERGY PREDICTED BY IDOCK:   -9.03 KCAL/MOL
REMARK 923 INTER-LIGAND FREE ENERGY PREDICTED BY IDOCK:   -8.31 KCAL/MOL
REMARK 924 INTRA-LIGAND FREE ENERGY PREDICTED BY IDOCK:   -0.72 KCAL/MOL
REMARK 927      BINDING AFFINITY PREDICTED BY RF-SCORE:    0.00 PKD
ROOT
HETATM    1  C   UNL     1     -12.502   7.035  71.391  1.00  0.00    -0.426 C  
HETATM    2  C   UNL     1     -12.048   8.446  71.763  1.00  0.00    -0.328 C  
ENDROOT
BRANCH   2   3
HETATM    3  C   UNL     1     -10.511   8.558  71.616  1.00  0.00    -0.275 C  
HETATM    4  H2  UNL     1     -10.687   8.355  69.528  1.00  0.00     0.000 HD 
HETATM    5  H1  UNL     1      -9.049   8.552  70.228  1.00  0.00     0.000 HD 
HETATM    6  O   UNL     1      -9.726   8.704  72.547  1.00  0.00    -0.276 OA 
HETATM    7  N   UNL     1     -10.062   8.478  70.325  1.00  0.00    -0.183 N  
ENDBRANCH   2   3
BRANCH   2   8
HETATM    8  N   UNL     1     -12.646   9.507  70.922  1.00  0.00    -0.480 NA 
HETATM    9  H   UNL     1     -13.581   9.241  70.614  1.00  0.00     0.000 HD 
BRANCH   8  10
HETATM   10  C   UNL     1     -12.667  10.820  71.568  1.00  0.00    -0.431 C  
BRANCH  10  11
HETATM   11  C   UNL     1     -12.372  11.914  70.567  1.00  0.00    -0.372 A  
HETATM   12  C   UNL     1     -11.942  11.580  69.275  1.00  0.00    -0.397 A  
HETATM   13  C   UNL     1     -11.667  12.571  68.336  1.00  0.00    -0.375 A  
HETATM   14  C   UNL     1     -11.866  13.913  68.655  1.00  0.00    -0.372 A  
HETATM   15  C   UNL     1     -12.541  13.267  70.892  1.00  0.00    -0.386 A  
HETATM   16  C   UNL     1     -12.285  14.259  69.940  1.00  0.00    -0.407 A  
BRANCH  14  17
HETATM   17  O   UNL     1     -11.681  14.954  67.783  1.00  0.00    -0.347 OA 
BRANCH  17  18
HETATM   18  C   UNL     1     -10.324  15.385  67.654  1.00  0.00    -0.262 C  
BRANCH  18  19
HETATM   19  C   UNL     1     -10.227  16.885  67.525  1.00  0.00    -0.295 A  
HETATM   20  C   UNL     1     -10.144  17.716  68.649  1.00  0.00    -0.377 A  
HETATM   21  C   UNL     1     -10.149  19.097  68.491  1.00  0.00    -0.422 A  
HETATM   22  F   UNL     1     -10.077  19.884  69.571  1.00  0.00    -0.485 F  
HETATM   23  C   UNL     1     -10.249  19.676  67.230  1.00  0.00    -0.559 A  
HETATM   24  C   UNL     1     -10.339  18.859  66.105  1.00  0.00    -0.517 A  
HETATM   25  C   UNL     1     -10.334  17.471  66.252  1.00  0.00    -0.335 A  
ENDBRANCH  18  19
ENDBRANCH  17  18
ENDBRANCH  14  17
ENDBRANCH  10  11
ENDBRANCH   8  10
ENDBRANCH   2   8
TORSDOF 7
ENDMDL
MODEL       23
REMARK 921   NORMALIZED FREE ENERGY PREDICTED BY IDOCK:   -5.80 KCAL/MOL
REMARK 922        TOTAL FREE ENERGY PREDICTED BY IDOCK:   -8.96 KCAL/MOL
REMARK 923 INTER-LIGAND FREE ENERGY PREDICTED BY IDOCK:   -8.02 KCAL/MOL
REMARK 924 INTRA-LIGAND FREE ENERGY PREDICTED BY IDOCK:   -0.94 KCAL/MOL
REMARK 927      BINDING AFFINITY PREDICTED BY RF-SCORE:    0.00 PKD
ROOT
HETATM    1  C   UNL     1      -9.854  20.492  67.339  1.00  0.00    -0.574 C  
HETATM    2  C   UNL     1      -9.509  19.565  66.174  1.00  0.00    -0.340 C  
ENDROOT
BRANCH   2   3
HETATM    3  C   UNL     1      -7.975  19.374  66.093  1.00  0.00    -0.310 C  
HETATM    4  H2  UNL     1      -7.687  21.140  67.202  1.00  0.00     0.000 HD 
HETATM    5  H1  UNL     1      -6.241  20.226  66.667  1.00  0.00     0.000 HD 
HETATM    6  O   UNL     1      -7.413  18.444  65.522  1.00  0.00    -0.528 OA 
HETATM    7  N   UNL     1      -7.252  20.352  66.721  1.00  0.00    -0.271 N  
ENDBRANCH   2   3
BRANCH   2   8
HETATM    8  N   UNL     1     -10.112  18.217  66.284  1.00  0.00    -0.420 NA 
HETATM    9  H   UNL     1      -9.469  17.505  65.938  1.00  0.00     0.000 HD 
BRANCH   8  10
HETATM   10  C   UNL     1     -10.568  17.891  67.635  1.00  0.00    -0.387 C  
BRANCH  10  11
HETATM   11  C   UNL     1     -10.550  16.396  67.860  1.00  0.00    -0.320 A  
HETATM   12  C   UNL     1     -11.656  15.766  68.450  1.00  0.00    -0.343 A  
HETATM   13  C   UNL     1     -11.664  14.391  68.664  1.00  0.00    -0.367 A  
HETATM   14  C   UNL     1     -10.587  13.610  68.246  1.00  0.00    -0.253 A  
HETATM   15  C   UNL     1      -9.458  15.610  67.469  1.00  0.00    -0.214 A  
HETATM   16  C   UNL     1      -9.477  14.225  67.666  1.00  0.00    -0.211 A  
BRANCH  14  17
HETATM   17  O   UNL     1     -10.527  12.246  68.358  1.00  0.00    -0.221 OA 
BRANCH  17  18
HETATM   18  C   UNL     1     -11.451  11.542  67.523  1.00  0.00    -0.282 C  
BRANCH  18  19
HETATM   19  C   UNL     1     -11.133  11.728  66.061  1.00  0.00    -0.363 A  
HETATM   20  C   UNL     1     -11.906  12.558  65.240  1.00  0.00    -0.461 A  
HETATM   21  C   UNL     1     -11.636  12.632  63.879  1.00  0.00    -0.451 A  
HETATM   22  F   UNL     1     -12.385  13.422  63.100  1.00  0.00    -0.606 F  
HETATM   23  C   UNL     1     -10.612  11.883  63.308  1.00  0.00    -0.420 A  
HETATM   24  C   UNL     1      -9.840  11.049  64.113  1.00  0.00    -0.360 A  
HETATM   25  C   UNL     1     -10.102  10.968  65.482  1.00  0.00    -0.316 A  
ENDBRANCH  18  19
ENDBRANCH  17  18
ENDBRANCH  14  17
ENDBRANCH  10  11
ENDBRANCH   8  10
ENDBRANCH   2   8
TORSDOF 7
ENDMDL
MODEL       24
REMARK 921   NORMALIZED FREE ENERGY PREDICTED BY IDOCK:   -5.79 KCAL/MOL
REMARK 922        TOTAL FREE ENERGY PREDICTED BY IDOCK:   -8.96 KCAL/MOL
REMARK 923 INTER-LIGAND FREE ENERGY PREDICTED BY IDOCK:   -8.16 KCAL/MOL
REMARK 924 INTRA-LIGAND FREE ENERGY PREDICTED BY IDOCK:   -0.80 KCAL/MOL
REMARK 927      BINDING AFFINITY PREDICTED BY RF-SCORE:    0.00 PKD
ROOT
HETATM    1  C   UNL     1     -14.012   7.114  71.244  1.00  0.00    -0.295 C  
HETATM    2  C   UNL     1     -12.681   7.189  71.990  1.00  0.00    -0.194 C  
ENDROOT
BRANCH   2   3
HETATM    3  C   UNL     1     -11.514   6.925  71.008  1.00  0.00    -0.314 C  
HETATM    4  H2  UNL     1     -10.349   8.380  71.985  1.00  0.00     0.000 HD 
HETATM    5  H1  UNL     1      -9.635   7.519  70.586  1.00  0.00     0.000 HD 
HETATM    6  O   UNL     1     -11.540   6.111  70.090  1.00  0.00    -0.375 OA 
HETATM    7  N   UNL     1     -10.404   7.693  71.234  1.00  0.00    -0.199 N  
ENDBRANCH   2   3
BRANCH   2   8
HETATM    8  N   UNL     1     -12.426   8.501  72.628  1.00  0.00    -0.550 NA 
HETATM    9  H   UNL     1     -11.509   8.859  72.363  1.00  0.00     0.000 HD 
BRANCH   8  10
HETATM   10  C   UNL     1     -13.467   9.492  72.358  1.00  0.00    -0.393 C  
BRANCH  10  11
HETATM   11  C   UNL     1     -12.926  10.619  71.507  1.00  0.00    -0.566 A  
HETATM   12  C   UNL     1     -12.337  10.336  70.266  1.00  0.00    -0.267 A  
HETATM   13  C   UNL     1     -11.834  11.357  69.465  1.00  0.00    -0.426 A  
HETATM   14  C   UNL     1     -11.957  12.687  69.865  1.00  0.00    -0.295 A  
HETATM   15  C   UNL     1     -13.020  11.956  71.918  1.00  0.00    -0.434 A  
HETATM   16  C   UNL     1     -12.534  12.982  71.101  1.00  0.00    -0.364 A  
BRANCH  14  17
HETATM   17  O   UNL     1     -11.550  13.762  69.120  1.00  0.00    -0.272 OA 
BRANCH  17  18
HETATM   18  C   UNL     1     -10.623  13.445  68.078  1.00  0.00    -0.243 C  
BRANCH  18  19
HETATM   19  C   UNL     1     -11.210  13.707  66.714  1.00  0.00    -0.327 A  
HETATM   20  C   UNL     1     -11.909  12.716  66.012  1.00  0.00    -0.492 A  
HETATM   21  C   UNL     1     -12.354  12.967  64.720  1.00  0.00    -0.436 A  
HETATM   22  F   UNL     1     -13.015  12.013  64.054  1.00  0.00    -0.547 F  
HETATM   23  C   UNL     1     -12.108  14.187  64.099  1.00  0.00    -0.437 A  
HETATM   24  C   UNL     1     -11.407  15.178  64.784  1.00  0.00    -0.399 A  
HETATM   25  C   UNL     1     -10.956  14.937  66.083  1.00  0.00    -0.334 A  
ENDBRANCH  18  19
ENDBRANCH  17  18
ENDBRANCH  14  17
ENDBRANCH  10  11
ENDBRANCH   8  10
ENDBRANCH   2   8
TORSDOF 7
ENDMDL
MODEL       25
REMARK 921   NORMALIZED FREE ENERGY PREDICTED BY IDOCK:   -5.78 KCAL/MOL
REMARK 922        TOTAL FREE ENERGY PREDICTED BY IDOCK:   -8.94 KCAL/MOL
REMARK 923 INTER-LIGAND FREE ENERGY PREDICTED BY IDOCK:   -8.20 KCAL/MOL
REMARK 924 INTRA-LIGAND FREE ENERGY PREDICTED BY IDOCK:   -0.73 KCAL/MOL
REMARK 927      BINDING AFFINITY PREDICTED BY RF-SCORE:    0.00 PKD
ROOT
HETATM    1  C   UNL     1     -10.790   9.540  71.079  1.00  0.00    -0.423 C  
HETATM    2  C   UNL     1     -12.260   9.549  70.666  1.00  0.00    -0.123 C  
ENDROOT
BRANCH   2   3
HETATM    3  C   UNL     1     -13.132  10.054  71.842  1.00  0.00    -0.460 C  
HETATM    4  H2  UNL     1     -13.677   8.074  72.300  1.00  0.00     0.000 HD 
HETATM    5  H1  UNL     1     -14.344   9.395  73.311  1.00  0.00     0.000 HD 
HETATM    6  O   UNL     1     -13.271  11.232  72.156  1.00  0.00    -0.481 OA 
HETATM    7  N   UNL     1     -13.769   9.062  72.536  1.00  0.00    -0.474 N  
ENDBRANCH   2   3
BRANCH   2   8
HETATM    8  N   UNL     1     -12.549  10.419  69.503  1.00  0.00    -0.637 NA 
HETATM    9  H   UNL     1     -13.136  11.206  69.778  1.00  0.00     0.000 HD 
BRANCH   8  10
HETATM   10  C   UNL     1     -11.348  10.885  68.811  1.00  0.00    -0.292 C  
BRANCH  10  11
HETATM   11  C   UNL     1     -11.387  12.384  68.619  1.00  0.00    -0.332 A  
HETATM   12  C   UNL     1     -11.920  13.202  69.626  1.00  0.00    -0.370 A  
HETATM   13  C   UNL     1     -11.964  14.585  69.473  1.00  0.00    -0.363 A  
HETATM   14  C   UNL     1     -11.430  15.181  68.332  1.00  0.00    -0.332 A  
HETATM   15  C   UNL     1     -10.878  12.987  67.461  1.00  0.00    -0.264 A  
HETATM   16  C   UNL     1     -10.904  14.378  67.319  1.00  0.00    -0.290 A  
BRANCH  14  17
HETATM   17  O   UNL     1     -11.372  16.533  68.117  1.00  0.00    -0.308 OA 
BRANCH  17  18
HETATM   18  C   UNL     1     -10.526  17.243  69.026  1.00  0.00    -0.309 C  
BRANCH  18  19
HETATM   19  C   UNL     1      -9.748  18.331  68.328  1.00  0.00    -0.350 A  
HETATM   20  C   UNL     1      -8.377  18.511  68.549  1.00  0.00    -0.359 A  
HETATM   21  C   UNL     1      -7.716  19.581  67.958  1.00  0.00    -0.299 A  
HETATM   22  F   UNL     1      -6.407  19.750  68.179  1.00  0.00    -0.239 F  
HETATM   23  C   UNL     1      -8.396  20.491  67.156  1.00  0.00    -0.348 A  
HETATM   24  C   UNL     1      -9.762  20.327  66.935  1.00  0.00    -0.584 A  
HETATM   25  C   UNL     1     -10.436  19.254  67.523  1.00  0.00    -0.564 A  
ENDBRANCH  18  19
ENDBRANCH  17  18
ENDBRANCH  14  17
ENDBRANCH  10  11
ENDBRANCH   8  10
ENDBRANCH   2   8
TORSDOF 7
ENDMDL
MODEL       26
REMARK 921   NORMALIZED FREE ENERGY PREDICTED BY IDOCK:   -5.76 KCAL/MOL
REMARK 922        TOTAL FREE ENERGY PREDICTED BY IDOCK:   -8.91 KCAL/MOL
REMARK 923 INTER-LIGAND FREE ENERGY PREDICTED BY IDOCK:   -8.23 KCAL/MOL
REMARK 924 INTRA-LIGAND FREE ENERGY PREDICTED BY IDOCK:   -0.68 KCAL/MOL
REMARK 927      BINDING AFFINITY PREDICTED BY RF-SCORE:    0.00 PKD
ROOT
HETATM    1  C   UNL     1     -10.544  11.419  65.034  1.00  0.00    -0.359 C  
HETATM    2  C   UNL     1     -11.359  12.330  65.949  1.00  0.00    -0.360 C  
ENDROOT
BRANCH   2   3
HETATM    3  C   UNL     1     -12.565  12.911  65.171  1.00  0.00    -0.471 C  
HETATM    4  H2  UNL     1     -12.394  14.718  66.238  1.00  0.00     0.000 HD 
HETATM    5  H1  UNL     1     -13.692  14.575  65.011  1.00  0.00     0.000 HD 
HETATM    6  O   UNL     1     -13.198  12.311  64.308  1.00  0.00    -0.785 OA 
HETATM    7  N   UNL     1     -12.897  14.191  65.523  1.00  0.00    -0.477 N  
ENDBRANCH   2   3
BRANCH   2   8
HETATM    8  N   UNL     1     -11.901  11.647  67.146  1.00  0.00    -0.607 NA 
HETATM    9  H   UNL     1     -11.653  10.658  67.140  1.00  0.00     0.000 HD 
BRANCH   8  10
HETATM   10  C   UNL     1     -11.500  12.274  68.406  1.00  0.00    -0.307 C  
BRANCH  10  11
HETATM   11  C   UNL     1     -11.451  11.253  69.520  1.00  0.00    -0.376 A  
HETATM   12  C   UNL     1     -12.484  11.204  70.467  1.00  0.00    -0.414 A  
HETATM   13  C   UNL     1     -12.461  10.271  71.500  1.00  0.00    -0.524 A  
HETATM   14  C   UNL     1     -11.431   9.335  71.577  1.00  0.00    -0.384 A  
HETATM   15  C   UNL     1     -10.402  10.329  69.620  1.00  0.00    -0.281 A  
HETATM   16  C   UNL     1     -10.393   9.379  70.646  1.00  0.00    -0.349 A  
BRANCH  14  17
HETATM   17  O   UNL     1     -11.353   8.343  72.518  1.00  0.00    -0.375 OA 
BRANCH  17  18
HETATM   18  C   UNL     1     -12.099   7.164  72.201  1.00  0.00    -0.246 C  
BRANCH  18  19
HETATM   19  C   UNL     1     -11.198   5.969  72.013  1.00  0.00    -0.341 A  
HETATM   20  C   UNL     1     -10.601   5.686  70.778  1.00  0.00    -0.335 A  
HETATM   21  C   UNL     1      -9.852   4.525  70.621  1.00  0.00    -0.222 A  
HETATM   22  F   UNL     1      -9.291   4.258  69.436  1.00  0.00    -0.158 F  
HETATM   23  C   UNL     1      -9.691   3.627  71.671  1.00  0.00    -0.236 A  
HETATM   24  C   UNL     1     -10.286   3.895  72.902  1.00  0.00    -0.241 A  
HETATM   25  C   UNL     1     -11.039   5.058  73.070  1.00  0.00    -0.378 A  
ENDBRANCH  18  19
ENDBRANCH  17  18
ENDBRANCH  14  17
ENDBRANCH  10  11
ENDBRANCH   8  10
ENDBRANCH   2   8
TORSDOF 7
ENDMDL
MODEL       27
REMARK 921   NORMALIZED FREE ENERGY PREDICTED BY IDOCK:   -5.75 KCAL/MOL
REMARK 922        TOTAL FREE ENERGY PREDICTED BY IDOCK:   -8.90 KCAL/MOL
REMARK 923 INTER-LIGAND FREE ENERGY PREDICTED BY IDOCK:   -8.10 KCAL/MOL
REMARK 924 INTRA-LIGAND FREE ENERGY PREDICTED BY IDOCK:   -0.80 KCAL/MOL
REMARK 927      BINDING AFFINITY PREDICTED BY RF-SCORE:    0.00 PKD
ROOT
HETATM    1  C   UNL     1     -10.233   9.660  70.401  1.00  0.00    -0.348 C  
HETATM    2  C   UNL     1     -11.746   9.451  70.377  1.00  0.00    -0.144 C  
ENDROOT
BRANCH   2   3
HETATM    3  C   UNL     1     -12.330   9.685  71.792  1.00  0.00    -0.392 C  
HETATM    4  H2  UNL     1     -11.593   7.814  72.414  1.00  0.00     0.000 HD 
HETATM    5  H1  UNL     1     -12.488   8.813  73.602  1.00  0.00     0.000 HD 
HETATM    6  O   UNL     1     -12.952  10.684  72.138  1.00  0.00    -0.427 OA 
HETATM    7  N   UNL     1     -12.103   8.660  72.670  1.00  0.00    -0.300 N  
ENDBRANCH   2   3
BRANCH   2   8
HETATM    8  N   UNL     1     -12.461  10.362  69.454  1.00  0.00    -0.656 NA 
HETATM    9  H   UNL     1     -12.911  11.118  69.969  1.00  0.00     0.000 HD 
BRANCH   8  10
HETATM   10  C   UNL     1     -11.612  10.894  68.388  1.00  0.00    -0.276 C  
BRANCH  10  11
HETATM   11  C   UNL     1     -11.585  12.405  68.429  1.00  0.00    -0.373 A  
HETATM   12  C   UNL     1     -11.418  13.133  67.241  1.00  0.00    -0.375 A  
HETATM   13  C   UNL     1     -11.393  14.524  67.255  1.00  0.00    -0.363 A  
HETATM   14  C   UNL     1     -11.584  15.218  68.448  1.00  0.00    -0.349 A  
HETATM   15  C   UNL     1     -11.747  13.107  69.631  1.00  0.00    -0.370 A  
HETATM   16  C   UNL     1     -11.743  14.506  69.638  1.00  0.00    -0.356 A  
BRANCH  14  17
HETATM   17  O   UNL     1     -11.636  16.583  68.554  1.00  0.00    -0.252 OA 
BRANCH  17  18
HETATM   18  C   UNL     1     -10.474  17.176  69.141  1.00  0.00    -0.296 C  
BRANCH  18  19
HETATM   19  C   UNL     1      -9.873  18.229  68.242  1.00  0.00    -0.366 A  
HETATM   20  C   UNL     1     -10.557  18.715  67.121  1.00  0.00    -0.468 A  
HETATM   21  C   UNL     1      -9.932  19.617  66.267  1.00  0.00    -0.466 A  
HETATM   22  F   UNL     1     -10.590  20.071  65.194  1.00  0.00    -0.463 F  
HETATM   23  C   UNL     1      -8.628  20.040  66.499  1.00  0.00    -0.366 A  
HETATM   24  C   UNL     1      -7.935  19.557  67.607  1.00  0.00    -0.320 A  
HETATM   25  C   UNL     1      -8.553  18.652  68.472  1.00  0.00    -0.370 A  
ENDBRANCH  18  19
ENDBRANCH  17  18
ENDBRANCH  14  17
ENDBRANCH  10  11
ENDBRANCH   8  10
ENDBRANCH   2   8
TORSDOF 7
ENDMDL
MODEL       28
REMARK 921   NORMALIZED FREE ENERGY PREDICTED BY IDOCK:   -5.75 KCAL/MOL
REMARK 922        TOTAL FREE ENERGY PREDICTED BY IDOCK:   -8.90 KCAL/MOL
REMARK 923 INTER-LIGAND FREE ENERGY PREDICTED BY IDOCK:   -8.21 KCAL/MOL
REMARK 924 INTRA-LIGAND FREE ENERGY PREDICTED BY IDOCK:   -0.69 KCAL/MOL
REMARK 927      BINDING AFFINITY PREDICTED BY RF-SCORE:    0.00 PKD
ROOT
HETATM    1  C   UNL     1     -10.477  11.250  64.938  1.00  0.00    -0.375 C  
HETATM    2  C   UNL     1     -11.304  12.298  65.681  1.00  0.00    -0.350 C  
ENDROOT
BRANCH   2   3
HETATM    3  C   UNL     1     -12.439  12.815  64.765  1.00  0.00    -0.472 C  
HETATM    4  H2  UNL     1     -11.864  11.454  63.267  1.00  0.00     0.000 HD 
HETATM    5  H1  UNL     1     -13.255  12.535  62.943  1.00  0.00     0.000 HD 
HETATM    6  O   UNL     1     -13.230  13.705  65.063  1.00  0.00    -0.729 OA 
HETATM    7  N   UNL     1     -12.507  12.194  63.547  1.00  0.00    -0.581 N  
ENDBRANCH   2   3
BRANCH   2   8
HETATM    8  N   UNL     1     -11.938  11.792  66.919  1.00  0.00    -0.561 NA 
HETATM    9  H   UNL     1     -11.869  10.776  66.971  1.00  0.00     0.000 HD 
BRANCH   8  10
HETATM   10  C   UNL     1     -11.413  12.410  68.137  1.00  0.00    -0.318 C  
BRANCH  10  11
HETATM   11  C   UNL     1     -11.293  11.390  69.247  1.00  0.00    -0.355 A  
HETATM   12  C   UNL     1     -12.281  11.322  70.241  1.00  0.00    -0.428 A  
HETATM   13  C   UNL     1     -12.193  10.389  71.270  1.00  0.00    -0.491 A  
HETATM   14  C   UNL     1     -11.144   9.472  71.298  1.00  0.00    -0.379 A  
HETATM   15  C   UNL     1     -10.224  10.485  69.297  1.00  0.00    -0.245 A  
HETATM   16  C   UNL     1     -10.151   9.535  70.320  1.00  0.00    -0.314 A  
BRANCH  14  17
HETATM   17  O   UNL     1     -11.004   8.481  72.234  1.00  0.00    -0.338 OA 
BRANCH  17  18
HETATM   18  C   UNL     1     -11.879   7.364  72.050  1.00  0.00    -0.298 C  
BRANCH  18  19
HETATM   19  C   UNL     1     -11.192   6.232  71.328  1.00  0.00    -0.355 A  
HETATM   20  C   UNL     1     -10.459   5.258  72.017  1.00  0.00    -0.283 A  
HETATM   21  C   UNL     1      -9.765   4.284  71.310  1.00  0.00    -0.185 A  
HETATM   22  F   UNL     1      -9.061   3.361  71.976  1.00  0.00    -0.117 F  
HETATM   23  C   UNL     1      -9.773   4.264  69.919  1.00  0.00    -0.291 A  
HETATM   24  C   UNL     1     -10.492   5.232  69.222  1.00  0.00    -0.255 A  
HETATM   25  C   UNL     1     -11.195   6.214  69.923  1.00  0.00    -0.484 A  
ENDBRANCH  18  19
ENDBRANCH  17  18
ENDBRANCH  14  17
ENDBRANCH  10  11
ENDBRANCH   8  10
ENDBRANCH   2   8
TORSDOF 7
ENDMDL
MODEL       29
REMARK 921   NORMALIZED FREE ENERGY PREDICTED BY IDOCK:   -5.75 KCAL/MOL
REMARK 922        TOTAL FREE ENERGY PREDICTED BY IDOCK:   -8.89 KCAL/MOL
REMARK 923 INTER-LIGAND FREE ENERGY PREDICTED BY IDOCK:   -8.13 KCAL/MOL
REMARK 924 INTRA-LIGAND FREE ENERGY PREDICTED BY IDOCK:   -0.77 KCAL/MOL
REMARK 927      BINDING AFFINITY PREDICTED BY RF-SCORE:    0.00 PKD
ROOT
HETATM    1  C   UNL     1     -10.575  14.661  64.716  1.00  0.00    -0.379 C  
HETATM    2  C   UNL     1     -11.996  14.125  64.551  1.00  0.00    -0.458 C  
ENDROOT
BRANCH   2   3
HETATM    3  C   UNL     1     -11.964  12.779  63.787  1.00  0.00    -0.510 C  
HETATM    4  H2  UNL     1      -9.859  12.811  63.802  1.00  0.00     0.000 HD 
HETATM    5  H1  UNL     1     -10.683  11.427  63.016  1.00  0.00     0.000 HD 
HETATM    6  O   UNL     1     -12.955  12.152  63.428  1.00  0.00    -0.776 OA 
HETATM    7  N   UNL     1     -10.704  12.314  63.520  1.00  0.00    -0.456 N  
ENDBRANCH   2   3
BRANCH   2   8
HETATM    8  N   UNL     1     -12.696  13.882  65.832  1.00  0.00    -0.472 NA 
HETATM    9  H   UNL     1     -13.065  12.932  65.868  1.00  0.00     0.000 HD 
BRANCH   8  10
HETATM   10  C   UNL     1     -11.873  14.164  67.009  1.00  0.00    -0.429 C  
BRANCH  10  11
HETATM   11  C   UNL     1     -11.672  12.913  67.833  1.00  0.00    -0.405 A  
HETATM   12  C   UNL     1     -11.850  12.958  69.224  1.00  0.00    -0.363 A  
HETATM   13  C   UNL     1     -11.673  11.818  70.003  1.00  0.00    -0.386 A  
HETATM   14  C   UNL     1     -11.364  10.599  69.403  1.00  0.00    -0.284 A  
HETATM   15  C   UNL     1     -11.332  11.691  67.238  1.00  0.00    -0.372 A  
HETATM   16  C   UNL     1     -11.177  10.542  68.021  1.00  0.00    -0.361 A  
BRANCH  14  17
HETATM   17  O   UNL     1     -11.230   9.413  70.076  1.00  0.00    -0.240 OA 
BRANCH  17  18
HETATM   18  C   UNL     1     -11.483   9.497  71.481  1.00  0.00    -0.395 C  
BRANCH  18  19
HETATM   19  C   UNL     1     -10.576   8.582  72.265  1.00  0.00    -0.408 A  
HETATM   20  C   UNL     1      -9.185   8.622  72.117  1.00  0.00    -0.326 A  
HETATM   21  C   UNL     1      -8.390   7.700  72.788  1.00  0.00    -0.127 A  
HETATM   22  F   UNL     1      -7.061   7.742  72.636  1.00  0.00    -0.065 F  
HETATM   23  C   UNL     1      -8.954   6.723  73.601  1.00  0.00    -0.163 A  
HETATM   24  C   UNL     1     -10.338   6.668  73.751  1.00  0.00    -0.373 A  
HETATM   25  C   UNL     1     -11.145   7.590  73.082  1.00  0.00    -0.378 A  
ENDBRANCH  18  19
ENDBRANCH  17  18
ENDBRANCH  14  17
ENDBRANCH  10  11
ENDBRANCH   8  10
ENDBRANCH   2   8
TORSDOF 7
ENDMDL
MODEL       30
REMARK 921   NORMALIZED FREE ENERGY PREDICTED BY IDOCK:   -5.71 KCAL/MOL
REMARK 922        TOTAL FREE ENERGY PREDICTED BY IDOCK:   -8.83 KCAL/MOL
REMARK 923 INTER-LIGAND FREE ENERGY PREDICTED BY IDOCK:   -8.07 KCAL/MOL
REMARK 924 INTRA-LIGAND FREE ENERGY PREDICTED BY IDOCK:   -0.76 KCAL/MOL
REMARK 927      BINDING AFFINITY PREDICTED BY RF-SCORE:    0.00 PKD
ROOT
HETATM    1  C   UNL     1     -10.899   5.993  71.001  1.00  0.00    -0.345 C  
HETATM    2  C   UNL     1     -11.612   6.256  72.326  1.00  0.00    -0.309 C  
ENDROOT
BRANCH   2   3
HETATM    3  C   UNL     1     -10.855   5.553  73.478  1.00  0.00    -0.276 C  
HETATM    4  H2  UNL     1     -10.077   7.405  74.108  1.00  0.00     0.000 HD 
HETATM    5  H1  UNL     1      -9.621   5.935  75.026  1.00  0.00     0.000 HD 
HETATM    6  O   UNL     1     -10.878   4.347  73.700  1.00  0.00    -0.231 OA 
HETATM    7  N   UNL     1     -10.121   6.398  74.266  1.00  0.00    -0.324 N  
ENDBRANCH   2   3
BRANCH   2   8
HETATM    8  N   UNL     1     -11.709   7.691  72.678  1.00  0.00    -0.536 NA 
HETATM    9  H   UNL     1     -10.858   8.186  72.412  1.00  0.00     0.000 HD 
BRANCH   8  10
HETATM   10  C   UNL     1     -12.889   8.350  72.117  1.00  0.00    -0.346 C  
BRANCH  10  11
HETATM   11  C   UNL     1     -12.500   9.620  71.395  1.00  0.00    -0.465 A  
HETATM   12  C   UNL     1     -11.578   9.567  70.339  1.00  0.00    -0.268 A  
HETATM   13  C   UNL     1     -11.207  10.723  69.658  1.00  0.00    -0.355 A  
HETATM   14  C   UNL     1     -11.790  11.947  69.984  1.00  0.00    -0.328 A  
HETATM   15  C   UNL     1     -13.060  10.858  71.739  1.00  0.00    -0.564 A  
HETATM   16  C   UNL     1     -12.703  12.014  71.037  1.00  0.00    -0.337 A  
BRANCH  14  17
HETATM   17  O   UNL     1     -11.536  13.126  69.334  1.00  0.00    -0.280 OA 
BRANCH  17  18
HETATM   18  C   UNL     1     -10.463  13.063  68.390  1.00  0.00    -0.252 C  
BRANCH  18  19
HETATM   19  C   UNL     1     -10.936  13.368  66.990  1.00  0.00    -0.298 A  
HETATM   20  C   UNL     1     -10.532  14.526  66.314  1.00  0.00    -0.303 A  
HETATM   21  C   UNL     1     -11.062  14.817  65.062  1.00  0.00    -0.405 A  
HETATM   22  F   UNL     1     -10.676  15.929  64.426  1.00  0.00    -0.372 F  
HETATM   23  C   UNL     1     -12.000  13.981  64.467  1.00  0.00    -0.470 A  
HETATM   24  C   UNL     1     -12.415  12.830  65.134  1.00  0.00    -0.565 A  
HETATM   25  C   UNL     1     -11.889  12.527  66.391  1.00  0.00    -0.445 A  
ENDBRANCH  18  19
ENDBRANCH  17  18
ENDBRANCH  14  17
ENDBRANCH  10  11
ENDBRANCH   8  10
ENDBRANCH   2   8
TORSDOF 7
ENDMDL
MODEL       31
REMARK 921   NORMALIZED FREE ENERGY PREDICTED BY IDOCK:   -5.70 KCAL/MOL
REMARK 922        TOTAL FREE ENERGY PREDICTED BY IDOCK:   -8.83 KCAL/MOL
REMARK 923 INTER-LIGAND FREE ENERGY PREDICTED BY IDOCK:   -8.13 KCAL/MOL
REMARK 924 INTRA-LIGAND FREE ENERGY PREDICTED BY IDOCK:   -0.70 KCAL/MOL
REMARK 927      BINDING AFFINITY PREDICTED BY RF-SCORE:    0.00 PKD
ROOT
HETATM    1  C   UNL     1     -10.268  18.413  68.684  1.00  0.00    -0.370 C  
HETATM    2  C   UNL     1     -10.624  18.063  67.240  1.00  0.00    -0.346 C  
ENDROOT
BRANCH   2   3
HETATM    3  C   UNL     1     -10.318  19.267  66.317  1.00  0.00    -0.480 C  
HETATM    4  H2  UNL     1      -8.345  19.337  67.049  1.00  0.00     0.000 HD 
HETATM    5  H1  UNL     1      -8.836  20.536  65.811  1.00  0.00     0.000 HD 
HETATM    6  O   UNL     1     -11.122  19.785  65.549  1.00  0.00    -0.340 OA 
HETATM    7  N   UNL     1      -9.038  19.742  66.419  1.00  0.00    -0.369 N  
ENDBRANCH   2   3
BRANCH   2   8
HETATM    8  N   UNL     1      -9.878  16.902  66.705  1.00  0.00    -0.267 NA 
HETATM    9  H   UNL     1      -9.526  16.319  67.463  1.00  0.00     0.000 HD 
BRANCH   8  10
HETATM   10  C   UNL     1     -10.649  16.103  65.752  1.00  0.00    -0.334 C  
BRANCH  10  11
HETATM   11  C   UNL     1     -11.016  14.763  66.350  1.00  0.00    -0.331 A  
HETATM   12  C   UNL     1     -10.928  13.603  65.567  1.00  0.00    -0.297 A  
HETATM   13  C   UNL     1     -11.258  12.358  66.097  1.00  0.00    -0.364 A  
HETATM   14  C   UNL     1     -11.634  12.243  67.434  1.00  0.00    -0.355 A  
HETATM   15  C   UNL     1     -11.424  14.645  67.685  1.00  0.00    -0.364 A  
HETATM   16  C   UNL     1     -11.734  13.391  68.221  1.00  0.00    -0.391 A  
BRANCH  14  17
HETATM   17  O   UNL     1     -11.919  11.059  68.061  1.00  0.00    -0.623 OA 
BRANCH  17  18
HETATM   18  C   UNL     1     -12.160  11.175  69.466  1.00  0.00    -0.326 C  
BRANCH  18  19
HETATM   19  C   UNL     1     -11.307  10.214  70.258  1.00  0.00    -0.387 A  
HETATM   20  C   UNL     1     -11.810   9.532  71.372  1.00  0.00    -0.464 A  
HETATM   21  C   UNL     1     -10.968   8.726  72.129  1.00  0.00    -0.334 A  
HETATM   22  F   UNL     1     -11.455   8.083  73.197  1.00  0.00    -0.459 F  
HETATM   23  C   UNL     1      -9.622   8.591  71.806  1.00  0.00    -0.337 A  
HETATM   24  C   UNL     1      -9.108   9.271  70.704  1.00  0.00    -0.309 A  
HETATM   25  C   UNL     1      -9.946  10.082  69.936  1.00  0.00    -0.280 A  
ENDBRANCH  18  19
ENDBRANCH  17  18
ENDBRANCH  14  17
ENDBRANCH  10  11
ENDBRANCH   8  10
ENDBRANCH   2   8
TORSDOF 7
ENDMDL
MODEL       32
REMARK 921   NORMALIZED FREE ENERGY PREDICTED BY IDOCK:   -5.70 KCAL/MOL
REMARK 922        TOTAL FREE ENERGY PREDICTED BY IDOCK:   -8.82 KCAL/MOL
REMARK 923 INTER-LIGAND FREE ENERGY PREDICTED BY IDOCK:   -8.20 KCAL/MOL
REMARK 924 INTRA-LIGAND FREE ENERGY PREDICTED BY IDOCK:   -0.62 KCAL/MOL
REMARK 927      BINDING AFFINITY PREDICTED BY RF-SCORE:    0.00 PKD
ROOT
HETATM    1  C   UNL     1     -11.164   4.601  73.122  1.00  0.00    -0.367 C  
HETATM    2  C   UNL     1     -10.755   5.846  72.338  1.00  0.00    -0.232 C  
ENDROOT
BRANCH   2   3
HETATM    3  C   UNL     1     -10.822   5.555  70.819  1.00  0.00    -0.179 C  
HETATM    4  H2  UNL     1      -9.440   3.984  71.049  1.00  0.00     0.000 HD 
HETATM    5  H1  UNL     1     -10.071   4.327  69.408  1.00  0.00     0.000 HD 
HETATM    6  O   UNL     1     -11.511   6.175  70.016  1.00  0.00    -0.406 OA 
HETATM    7  N   UNL     1     -10.027   4.519  70.409  1.00  0.00    -0.228 N  
ENDBRANCH   2   3
BRANCH   2   8
HETATM    8  N   UNL     1     -11.613   7.024  72.595  1.00  0.00    -0.470 NA 
HETATM    9  H   UNL     1     -12.168   6.889  73.439  1.00  0.00     0.000 HD 
BRANCH   8  10
HETATM   10  C   UNL     1     -10.872   8.283  72.658  1.00  0.00    -0.311 C  
BRANCH  10  11
HETATM   11  C   UNL     1     -11.209   9.164  71.477  1.00  0.00    -0.430 A  
HETATM   12  C   UNL     1     -12.460   9.796  71.412  1.00  0.00    -0.482 A  
HETATM   13  C   UNL     1     -12.792  10.613  70.335  1.00  0.00    -0.277 A  
HETATM   14  C   UNL     1     -11.861  10.856  69.327  1.00  0.00    -0.324 A  
HETATM   15  C   UNL     1     -10.288   9.388  70.444  1.00  0.00    -0.318 A  
HETATM   16  C   UNL     1     -10.616  10.227  69.375  1.00  0.00    -0.262 A  
BRANCH  14  17
HETATM   17  O   UNL     1     -12.071  11.691  68.261  1.00  0.00    -0.552 OA 
BRANCH  17  18
HETATM   18  C   UNL     1     -10.881  12.085  67.573  1.00  0.00    -0.241 C  
BRANCH  18  19
HETATM   19  C   UNL     1     -11.162  12.439  66.133  1.00  0.00    -0.364 A  
HETATM   20  C   UNL     1     -11.819  13.625  65.783  1.00  0.00    -0.397 A  
HETATM   21  C   UNL     1     -12.141  13.871  64.453  1.00  0.00    -0.443 A  
HETATM   22  F   UNL     1     -12.776  15.004  64.128  1.00  0.00    -0.471 F  
HETATM   23  C   UNL     1     -11.833  12.951  63.457  1.00  0.00    -0.605 A  
HETATM   24  C   UNL     1     -11.186  11.764  63.795  1.00  0.00    -0.518 A  
HETATM   25  C   UNL     1     -10.857  11.507  65.127  1.00  0.00    -0.326 A  
ENDBRANCH  18  19
ENDBRANCH  17  18
ENDBRANCH  14  17
ENDBRANCH  10  11
ENDBRANCH   8  10
ENDBRANCH   2   8
TORSDOF 7
ENDMDL
MODEL       33
REMARK 921   NORMALIZED FREE ENERGY PREDICTED BY IDOCK:   -5.69 KCAL/MOL
REMARK 922        TOTAL FREE ENERGY PREDICTED BY IDOCK:   -8.81 KCAL/MOL
REMARK 923 INTER-LIGAND FREE ENERGY PREDICTED BY IDOCK:   -7.97 KCAL/MOL
REMARK 924 INTRA-LIGAND FREE ENERGY PREDICTED BY IDOCK:   -0.84 KCAL/MOL
REMARK 927      BINDING AFFINITY PREDICTED BY RF-SCORE:    0.00 PKD
ROOT
HETATM    1  C   UNL     1     -12.509  12.103  63.405  1.00  0.00    -0.625 C  
HETATM    2  C   UNL     1     -11.434  13.130  63.756  1.00  0.00    -0.373 C  
ENDROOT
BRANCH   2   3
HETATM    3  C   UNL     1     -12.043  14.245  64.640  1.00  0.00    -0.463 C  
HETATM    4  H2  UNL     1     -10.423  15.507  64.180  1.00  0.00     0.000 HD 
HETATM    5  H1  UNL     1     -11.702  16.130  65.269  1.00  0.00     0.000 HD 
HETATM    6  O   UNL     1     -13.094  14.149  65.266  1.00  0.00    -0.763 OA 
HETATM    7  N   UNL     1     -11.302  15.395  64.686  1.00  0.00    -0.397 N  
ENDBRANCH   2   3
BRANCH   2   8
HETATM    8  N   UNL     1     -10.285  12.564  64.498  1.00  0.00    -0.425 NA 
HETATM    9  H   UNL     1     -10.098  13.105  65.341  1.00  0.00     0.000 HD 
BRANCH   8  10
HETATM   10  C   UNL     1     -10.439  11.144  64.815  1.00  0.00    -0.323 C  
BRANCH  10  11
HETATM   11  C   UNL     1     -10.489  10.932  66.312  1.00  0.00    -0.304 A  
HETATM   12  C   UNL     1     -11.323  11.736  67.103  1.00  0.00    -0.387 A  
HETATM   13  C   UNL     1     -11.387  11.557  68.482  1.00  0.00    -0.337 A  
HETATM   14  C   UNL     1     -10.657  10.539  69.091  1.00  0.00    -0.229 A  
HETATM   15  C   UNL     1      -9.733   9.929  66.934  1.00  0.00    -0.236 A  
HETATM   16  C   UNL     1      -9.816   9.738  68.317  1.00  0.00    -0.167 A  
BRANCH  14  17
HETATM   17  O   UNL     1     -10.699  10.246  70.429  1.00  0.00    -0.292 OA 
BRANCH  17  18
HETATM   18  C   UNL     1     -11.875   9.547  70.846  1.00  0.00    -0.309 C  
BRANCH  18  19
HETATM   19  C   UNL     1     -11.544   8.189  71.412  1.00  0.00    -0.314 A  
HETATM   20  C   UNL     1     -11.140   8.026  72.743  1.00  0.00    -0.448 A  
HETATM   21  C   UNL     1     -10.755   6.771  73.201  1.00  0.00    -0.296 A  
HETATM   22  F   UNL     1     -10.364   6.626  74.473  1.00  0.00    -0.365 F  
HETATM   23  C   UNL     1     -10.751   5.668  72.355  1.00  0.00    -0.286 A  
HETATM   24  C   UNL     1     -11.144   5.819  71.027  1.00  0.00    -0.264 A  
HETATM   25  C   UNL     1     -11.534   7.075  70.557  1.00  0.00    -0.363 A  
ENDBRANCH  18  19
ENDBRANCH  17  18
ENDBRANCH  14  17
ENDBRANCH  10  11
ENDBRANCH   8  10
ENDBRANCH   2   8
TORSDOF 7
ENDMDL
MODEL       34
REMARK 921   NORMALIZED FREE ENERGY PREDICTED BY IDOCK:   -5.64 KCAL/MOL
REMARK 922        TOTAL FREE ENERGY PREDICTED BY IDOCK:   -8.74 KCAL/MOL
REMARK 923 INTER-LIGAND FREE ENERGY PREDICTED BY IDOCK:   -8.01 KCAL/MOL
REMARK 924 INTRA-LIGAND FREE ENERGY PREDICTED BY IDOCK:   -0.73 KCAL/MOL
REMARK 927      BINDING AFFINITY PREDICTED BY RF-SCORE:    0.00 PKD
ROOT
HETATM    1  C   UNL     1     -10.359   4.543  72.622  1.00  0.00    -0.252 C  
HETATM    2  C   UNL     1     -10.548   5.852  71.859  1.00  0.00    -0.231 C  
ENDROOT
BRANCH   2   3
HETATM    3  C   UNL     1     -10.740   5.557  70.351  1.00  0.00    -0.251 C  
HETATM    4  H2  UNL     1      -9.248   4.076  70.442  1.00  0.00     0.000 HD 
HETATM    5  H1  UNL     1     -10.050   4.379  68.869  1.00  0.00     0.000 HD 
HETATM    6  O   UNL     1     -11.539   6.134  69.620  1.00  0.00    -0.407 OA 
HETATM    7  N   UNL     1      -9.924   4.573  69.863  1.00  0.00    -0.227 N  
ENDBRANCH   2   3
BRANCH   2   8
HETATM    8  N   UNL     1     -11.721   6.639  72.302  1.00  0.00    -0.371 NA 
HETATM    9  H   UNL     1     -12.266   6.119  72.989  1.00  0.00     0.000 HD 
BRANCH   8  10
HETATM   10  C   UNL     1     -11.374   7.966  72.813  1.00  0.00    -0.393 C  
BRANCH  10  11
HETATM   11  C   UNL     1     -11.536   9.014  71.735  1.00  0.00    -0.442 A  
HETATM   12  C   UNL     1     -10.465   9.302  70.877  1.00  0.00    -0.372 A  
HETATM   13  C   UNL     1     -10.592  10.261  69.875  1.00  0.00    -0.324 A  
HETATM   14  C   UNL     1     -11.808  10.914  69.680  1.00  0.00    -0.344 A  
HETATM   15  C   UNL     1     -12.747   9.695  71.554  1.00  0.00    -0.480 A  
HETATM   16  C   UNL     1     -12.878  10.642  70.533  1.00  0.00    -0.356 A  
BRANCH  14  17
HETATM   17  O   UNL     1     -12.049  11.827  68.687  1.00  0.00    -0.406 OA 
BRANCH  17  18
HETATM   18  C   UNL     1     -10.914  12.127  67.870  1.00  0.00    -0.229 C  
BRANCH  18  19
HETATM   19  C   UNL     1     -11.268  12.126  66.404  1.00  0.00    -0.380 A  
HETATM   20  C   UNL     1     -10.592  11.315  65.485  1.00  0.00    -0.306 A  
HETATM   21  C   UNL     1     -10.885  11.411  64.129  1.00  0.00    -0.365 A  
HETATM   22  F   UNL     1     -10.229  10.637  63.257  1.00  0.00    -0.368 F  
HETATM   23  C   UNL     1     -11.837  12.311  63.663  1.00  0.00    -0.610 A  
HETATM   24  C   UNL     1     -12.512  13.129  64.567  1.00  0.00    -0.406 A  
HETATM   25  C   UNL     1     -12.225  13.040  65.930  1.00  0.00    -0.493 A  
ENDBRANCH  18  19
ENDBRANCH  17  18
ENDBRANCH  14  17
ENDBRANCH  10  11
ENDBRANCH   8  10
ENDBRANCH   2   8
TORSDOF 7
ENDMDL
MODEL       35
REMARK 921   NORMALIZED FREE ENERGY PREDICTED BY IDOCK:   -5.64 KCAL/MOL
REMARK 922        TOTAL FREE ENERGY PREDICTED BY IDOCK:   -8.74 KCAL/MOL
REMARK 923 INTER-LIGAND FREE ENERGY PREDICTED BY IDOCK:   -8.09 KCAL/MOL
REMARK 924 INTRA-LIGAND FREE ENERGY PREDICTED BY IDOCK:   -0.65 KCAL/MOL
REMARK 927      BINDING AFFINITY PREDICTED BY RF-SCORE:    0.00 PKD
ROOT
HETATM    1  C   UNL     1     -11.022  16.340  69.963  1.00  0.00    -0.356 C  
HETATM    2  C   UNL     1     -11.657  15.209  70.770  1.00  0.00    -0.317 C  
ENDROOT
BRANCH   2   3
HETATM    3  C   UNL     1     -12.419  15.794  71.984  1.00  0.00    -0.457 C  
HETATM    4  H2  UNL     1     -14.221  14.987  71.252  1.00  0.00     0.000 HD 
HETATM    5  H1  UNL     1     -14.264  15.912  72.786  1.00  0.00     0.000 HD 
HETATM    6  O   UNL     1     -11.906  16.450  72.885  1.00  0.00    -0.514 OA 
HETATM    7  N   UNL     1     -13.761  15.526  71.987  1.00  0.00    -0.487 N  
ENDBRANCH   2   3
BRANCH   2   8
HETATM    8  N   UNL     1     -12.623  14.394  70.000  1.00  0.00    -0.494 NA 
HETATM    9  H   UNL     1     -13.149  14.976  69.350  1.00  0.00     0.000 HD 
BRANCH   8  10
HETATM   10  C   UNL     1     -12.006  13.265  69.302  1.00  0.00    -0.303 C  
BRANCH  10  11
HETATM   11  C   UNL     1     -12.061  12.015  70.151  1.00  0.00    -0.377 A  
HETATM   12  C   UNL     1     -13.040  11.892  71.148  1.00  0.00    -0.131 A  
HETATM   13  C   UNL     1     -13.111  10.750  71.941  1.00  0.00    -0.557 A  
HETATM   14  C   UNL     1     -12.239   9.686  71.717  1.00  0.00    -0.384 A  
HETATM   15  C   UNL     1     -11.167  10.955  69.951  1.00  0.00    -0.355 A  
HETATM   16  C   UNL     1     -11.255   9.799  70.734  1.00  0.00    -0.419 A  
BRANCH  14  17
HETATM   17  O   UNL     1     -12.269   8.500  72.402  1.00  0.00    -0.376 OA 
BRANCH  17  18
HETATM   18  C   UNL     1     -12.778   7.395  71.651  1.00  0.00    -0.365 C  
BRANCH  18  19
HETATM   19  C   UNL     1     -11.679   6.446  71.242  1.00  0.00    -0.359 A  
HETATM   20  C   UNL     1     -11.328   6.262  69.899  1.00  0.00    -0.504 A  
HETATM   21  C   UNL     1     -10.373   5.311  69.557  1.00  0.00    -0.263 A  
HETATM   22  F   UNL     1     -10.049   5.137  68.271  1.00  0.00    -0.193 F  
HETATM   23  C   UNL     1      -9.763   4.525  70.528  1.00  0.00    -0.290 A  
HETATM   24  C   UNL     1     -10.109   4.694  71.867  1.00  0.00    -0.266 A  
HETATM   25  C   UNL     1     -11.066   5.647  72.222  1.00  0.00    -0.318 A  
ENDBRANCH  18  19
ENDBRANCH  17  18
ENDBRANCH  14  17
ENDBRANCH  10  11
ENDBRANCH   8  10
ENDBRANCH   2   8
TORSDOF 7
ENDMDL
MODEL       36
REMARK 921   NORMALIZED FREE ENERGY PREDICTED BY IDOCK:   -5.63 KCAL/MOL
REMARK 922        TOTAL FREE ENERGY PREDICTED BY IDOCK:   -8.73 KCAL/MOL
REMARK 923 INTER-LIGAND FREE ENERGY PREDICTED BY IDOCK:   -7.95 KCAL/MOL
REMARK 924 INTRA-LIGAND FREE ENERGY PREDICTED BY IDOCK:   -0.78 KCAL/MOL
REMARK 927      BINDING AFFINITY PREDICTED BY RF-SCORE:    0.00 PKD
ROOT
HETATM    1  C   UNL     1     -10.683  17.685  68.105  1.00  0.00    -0.312 C  
HETATM    2  C   UNL     1     -10.481  18.125  66.656  1.00  0.00    -0.339 C  
ENDROOT
BRANCH   2   3
HETATM    3  C   UNL     1      -9.766  19.498  66.620  1.00  0.00    -0.375 C  
HETATM    4  H2  UNL     1      -9.825  19.595  68.721  1.00  0.00     0.000 HD 
HETATM    5  H1  UNL     1      -9.073  20.954  67.829  1.00  0.00     0.000 HD 
HETATM    6  O   UNL     1      -9.415  20.079  65.598  1.00  0.00    -0.273 OA 
HETATM    7  N   UNL     1      -9.544  20.049  67.852  1.00  0.00    -0.368 N  
ENDBRANCH   2   3
BRANCH   2   8
HETATM    8  N   UNL     1      -9.665  17.186  65.854  1.00  0.00    -0.529 NA 
HETATM    9  H   UNL     1      -9.040  16.648  66.454  1.00  0.00     0.000 HD 
BRANCH   8  10
HETATM   10  C   UNL     1     -10.462  16.299  65.006  1.00  0.00    -0.130 C  
BRANCH  10  11
HETATM   11  C   UNL     1     -10.827  15.034  65.749  1.00  0.00    -0.355 A  
HETATM   12  C   UNL     1     -12.170  14.637  65.831  1.00  0.00    -0.165 A  
HETATM   13  C   UNL     1     -12.530  13.474  66.507  1.00  0.00    -0.309 A  
HETATM   14  C   UNL     1     -11.550  12.659  67.071  1.00  0.00    -0.365 A  
HETATM   15  C   UNL     1      -9.849  14.226  66.344  1.00  0.00    -0.309 A  
HETATM   16  C   UNL     1     -10.211  13.047  67.004  1.00  0.00    -0.245 A  
BRANCH  14  17
HETATM   17  O   UNL     1     -11.799  11.469  67.702  1.00  0.00    -0.595 OA 
BRANCH  17  18
HETATM   18  C   UNL     1     -11.200  11.347  68.996  1.00  0.00    -0.256 C  
BRANCH  18  19
HETATM   19  C   UNL     1     -12.024  12.033  70.056  1.00  0.00    -0.400 A  
HETATM   20  C   UNL     1     -12.157  13.427  70.098  1.00  0.00    -0.415 A  
HETATM   21  C   UNL     1     -12.849  14.026  71.144  1.00  0.00    -0.357 A  
HETATM   22  F   UNL     1     -12.964  15.358  71.180  1.00  0.00    -0.371 F  
HETATM   23  C   UNL     1     -13.406  13.264  72.165  1.00  0.00    -0.618 A  
HETATM   24  C   UNL     1     -13.275  11.877  72.139  1.00  0.00    -0.366 A  
HETATM   25  C   UNL     1     -12.583  11.265  71.092  1.00  0.00    -0.501 A  
ENDBRANCH  18  19
ENDBRANCH  17  18
ENDBRANCH  14  17
ENDBRANCH  10  11
ENDBRANCH   8  10
ENDBRANCH   2   8
TORSDOF 7
ENDMDL
MODEL       37
REMARK 921   NORMALIZED FREE ENERGY PREDICTED BY IDOCK:   -5.63 KCAL/MOL
REMARK 922        TOTAL FREE ENERGY PREDICTED BY IDOCK:   -8.73 KCAL/MOL
REMARK 923 INTER-LIGAND FREE ENERGY PREDICTED BY IDOCK:   -8.10 KCAL/MOL
REMARK 924 INTRA-LIGAND FREE ENERGY PREDICTED BY IDOCK:   -0.63 KCAL/MOL
REMARK 927      BINDING AFFINITY PREDICTED BY RF-SCORE:    0.00 PKD
ROOT
HETATM    1  C   UNL     1     -11.750  14.658  67.217  1.00  0.00    -0.406 C  
HETATM    2  C   UNL     1     -12.334  13.735  66.148  1.00  0.00    -0.452 C  
ENDROOT
BRANCH   2   3
HETATM    3  C   UNL     1     -11.817  14.157  64.752  1.00  0.00    -0.417 C  
HETATM    4  H2  UNL     1     -10.052  14.905  65.621  1.00  0.00     0.000 HD 
HETATM    5  H1  UNL     1     -10.243  15.030  63.844  1.00  0.00     0.000 HD 
HETATM    6  O   UNL     1     -12.426  13.994  63.700  1.00  0.00    -0.803 OA 
HETATM    7  N   UNL     1     -10.584  14.752  64.764  1.00  0.00    -0.388 N  
ENDBRANCH   2   3
BRANCH   2   8
HETATM    8  N   UNL     1     -11.982  12.309  66.332  1.00  0.00    -0.624 NA 
HETATM    9  H   UNL     1     -12.018  11.811  65.444  1.00  0.00     0.000 HD 
BRANCH   8  10
HETATM   10  C   UNL     1     -10.689  12.108  66.987  1.00  0.00    -0.238 C  
BRANCH  10  11
HETATM   11  C   UNL     1     -10.856  11.338  68.278  1.00  0.00    -0.249 A  
HETATM   12  C   UNL     1      -9.821  10.510  68.736  1.00  0.00    -0.191 A  
HETATM   13  C   UNL     1      -9.952   9.795  69.923  1.00  0.00    -0.282 A  
HETATM   14  C   UNL     1     -11.099   9.933  70.702  1.00  0.00    -0.340 A  
HETATM   15  C   UNL     1     -12.021  11.450  69.050  1.00  0.00    -0.387 A  
HETATM   16  C   UNL     1     -12.140  10.747  70.253  1.00  0.00    -0.433 A  
BRANCH  14  17
HETATM   17  O   UNL     1     -11.295   9.319  71.911  1.00  0.00    -0.374 OA 
BRANCH  17  18
HETATM   18  C   UNL     1     -12.018   8.087  71.840  1.00  0.00    -0.314 C  
BRANCH  18  19
HETATM   19  C   UNL     1     -11.362   7.009  72.667  1.00  0.00    -0.290 A  
HETATM   20  C   UNL     1     -11.785   5.676  72.606  1.00  0.00    -0.256 A  
HETATM   21  C   UNL     1     -11.216   4.730  73.450  1.00  0.00    -0.343 A  
HETATM   22  F   UNL     1     -11.631   3.459  73.390  1.00  0.00    -0.307 F  
HETATM   23  C   UNL     1     -10.237   5.085  74.371  1.00  0.00    -0.301 A  
HETATM   24  C   UNL     1      -9.813   6.410  74.447  1.00  0.00    -0.338 A  
HETATM   25  C   UNL     1     -10.376   7.368  73.602  1.00  0.00    -0.367 A  
ENDBRANCH  18  19
ENDBRANCH  17  18
ENDBRANCH  14  17
ENDBRANCH  10  11
ENDBRANCH   8  10
ENDBRANCH   2   8
TORSDOF 7
ENDMDL
MODEL       38
REMARK 921   NORMALIZED FREE ENERGY PREDICTED BY IDOCK:   -5.63 KCAL/MOL
REMARK 922        TOTAL FREE ENERGY PREDICTED BY IDOCK:   -8.73 KCAL/MOL
REMARK 923 INTER-LIGAND FREE ENERGY PREDICTED BY IDOCK:   -7.90 KCAL/MOL
REMARK 924 INTRA-LIGAND FREE ENERGY PREDICTED BY IDOCK:   -0.83 KCAL/MOL
REMARK 927      BINDING AFFINITY PREDICTED BY RF-SCORE:    0.00 PKD
ROOT
HETATM    1  C   UNL     1     -13.947   8.982  72.351  1.00  0.00    -0.517 C  
HETATM    2  C   UNL     1     -12.479   9.040  71.931  1.00  0.00    -0.384 C  
ENDROOT
BRANCH   2   3
HETATM    3  C   UNL     1     -11.742   7.772  72.425  1.00  0.00    -0.341 C  
HETATM    4  H2  UNL     1     -13.036   6.565  71.285  1.00  0.00     0.000 HD 
HETATM    5  H1  UNL     1     -11.758   5.764  72.252  1.00  0.00     0.000 HD 
HETATM    6  O   UNL     1     -10.789   7.770  73.197  1.00  0.00    -0.389 OA 
HETATM    7  N   UNL     1     -12.244   6.600  71.927  1.00  0.00    -0.345 N  
ENDBRANCH   2   3
BRANCH   2   8
HETATM    8  N   UNL     1     -12.279   9.119  70.466  1.00  0.00    -0.477 NA 
HETATM    9  H   UNL     1     -13.079   9.563  70.016  1.00  0.00     0.000 HD 
BRANCH   8  10
HETATM   10  C   UNL     1     -11.034   9.785  70.084  1.00  0.00    -0.291 C  
BRANCH  10  11
HETATM   11  C   UNL     1     -11.317  11.007  69.240  1.00  0.00    -0.350 A  
HETATM   12  C   UNL     1     -11.210  10.930  67.843  1.00  0.00    -0.387 A  
HETATM   13  C   UNL     1     -11.469  12.041  67.046  1.00  0.00    -0.402 A  
HETATM   14  C   UNL     1     -11.889  13.237  67.625  1.00  0.00    -0.357 A  
HETATM   15  C   UNL     1     -11.710  12.221  69.819  1.00  0.00    -0.368 A  
HETATM   16  C   UNL     1     -11.991  13.329  69.013  1.00  0.00    -0.336 A  
BRANCH  14  17
HETATM   17  O   UNL     1     -12.224  14.365  66.922  1.00  0.00    -0.415 OA 
BRANCH  17  18
HETATM   18  C   UNL     1     -11.213  14.825  66.021  1.00  0.00    -0.341 C  
BRANCH  18  19
HETATM   19  C   UNL     1     -10.275  15.800  66.689  1.00  0.00    -0.290 A  
HETATM   20  C   UNL     1     -10.719  16.690  67.674  1.00  0.00    -0.306 A  
HETATM   21  C   UNL     1      -9.845  17.635  68.199  1.00  0.00    -0.318 A  
HETATM   22  F   UNL     1     -10.280  18.486  69.135  1.00  0.00    -0.392 F  
HETATM   23  C   UNL     1      -8.531  17.723  67.753  1.00  0.00    -0.236 A  
HETATM   24  C   UNL     1      -8.079  16.848  66.767  1.00  0.00    -0.276 A  
HETATM   25  C   UNL     1      -8.949  15.894  66.234  1.00  0.00    -0.381 A  
ENDBRANCH  18  19
ENDBRANCH  17  18
ENDBRANCH  14  17
ENDBRANCH  10  11
ENDBRANCH   8  10
ENDBRANCH   2   8
TORSDOF 7
ENDMDL
MODEL       39
REMARK 921   NORMALIZED FREE ENERGY PREDICTED BY IDOCK:   -5.63 KCAL/MOL
REMARK 922        TOTAL FREE ENERGY PREDICTED BY IDOCK:   -8.72 KCAL/MOL
REMARK 923 INTER-LIGAND FREE ENERGY PREDICTED BY IDOCK:   -7.98 KCAL/MOL
REMARK 924 INTRA-LIGAND FREE ENERGY PREDICTED BY IDOCK:   -0.74 KCAL/MOL
REMARK 927      BINDING AFFINITY PREDICTED BY RF-SCORE:    0.00 PKD
ROOT
HETATM    1  C   UNL     1     -10.833  13.693  64.447  1.00  0.00    -0.374 C  
HETATM    2  C   UNL     1     -10.234  14.788  65.327  1.00  0.00    -0.384 C  
ENDROOT
BRANCH   2   3
HETATM    3  C   UNL     1     -10.845  16.159  64.947  1.00  0.00    -0.334 C  
HETATM    4  H2  UNL     1      -9.820  17.068  66.545  1.00  0.00     0.000 HD 
HETATM    5  H1  UNL     1     -10.860  18.094  65.508  1.00  0.00     0.000 HD 
HETATM    6  O   UNL     1     -11.616  16.348  64.012  1.00  0.00    -1.071 OA 
HETATM    7  N   UNL     1     -10.457  17.191  65.758  1.00  0.00    -0.305 N  
ENDBRANCH   2   3
BRANCH   2   8
HETATM    8  N   UNL     1     -10.473  14.589  66.775  1.00  0.00    -0.268 NA 
HETATM    9  H   UNL     1     -10.124  15.383  67.310  1.00  0.00     0.000 HD 
BRANCH   8  10
HETATM   10  C   UNL     1     -11.873  14.318  67.102  1.00  0.00    -0.425 C  
BRANCH  10  11
HETATM   11  C   UNL     1     -11.975  13.374  68.278  1.00  0.00    -0.352 A  
HETATM   12  C   UNL     1     -11.684  12.012  68.107  1.00  0.00    -0.398 A  
HETATM   13  C   UNL     1     -11.768  11.125  69.176  1.00  0.00    -0.408 A  
HETATM   14  C   UNL     1     -12.095  11.589  70.449  1.00  0.00    -0.382 A  
HETATM   15  C   UNL     1     -12.333  13.830  69.554  1.00  0.00    -0.258 A  
HETATM   16  C   UNL     1     -12.395  12.940  70.631  1.00  0.00    -0.385 A  
BRANCH  14  17
HETATM   17  O   UNL     1     -12.145  10.807  71.572  1.00  0.00    -0.269 OA 
BRANCH  17  18
HETATM   18  C   UNL     1     -12.120   9.400  71.316  1.00  0.00    -0.345 C  
BRANCH  18  19
HETATM   19  C   UNL     1     -10.963   8.728  72.013  1.00  0.00    -0.438 A  
HETATM   20  C   UNL     1      -9.635   9.040  71.701  1.00  0.00    -0.319 A  
HETATM   21  C   UNL     1      -8.598   8.334  72.299  1.00  0.00    -0.194 A  
HETATM   22  F   UNL     1      -7.331   8.635  71.989  1.00  0.00    -0.105 F  
HETATM   23  C   UNL     1      -8.855   7.307  73.200  1.00  0.00    -0.175 A  
HETATM   24  C   UNL     1     -10.173   6.981  73.514  1.00  0.00    -0.371 A  
HETATM   25  C   UNL     1     -11.222   7.685  72.919  1.00  0.00    -0.426 A  
ENDBRANCH  18  19
ENDBRANCH  17  18
ENDBRANCH  14  17
ENDBRANCH  10  11
ENDBRANCH   8  10
ENDBRANCH   2   8
TORSDOF 7
ENDMDL
MODEL       40
REMARK 921   NORMALIZED FREE ENERGY PREDICTED BY IDOCK:   -5.61 KCAL/MOL
REMARK 922        TOTAL FREE ENERGY PREDICTED BY IDOCK:   -8.70 KCAL/MOL
REMARK 923 INTER-LIGAND FREE ENERGY PREDICTED BY IDOCK:   -7.75 KCAL/MOL
REMARK 924 INTRA-LIGAND FREE ENERGY PREDICTED BY IDOCK:   -0.95 KCAL/MOL
REMARK 927      BINDING AFFINITY PREDICTED BY RF-SCORE:    0.00 PKD
ROOT
HETATM    1  C   UNL     1     -10.477  11.142  65.057  1.00  0.00    -0.357 C  
HETATM    2  C   UNL     1     -11.221  12.270  65.769  1.00  0.00    -0.337 C  
ENDROOT
BRANCH   2   3
HETATM    3  C   UNL     1     -12.312  12.849  64.837  1.00  0.00    -0.475 C  
HETATM    4  H2  UNL     1     -11.601  11.662  63.251  1.00  0.00     0.000 HD 
HETATM    5  H1  UNL     1     -13.002  12.737  62.946  1.00  0.00     0.000 HD 
HETATM    6  O   UNL     1     -13.148  13.684  65.169  1.00  0.00    -0.750 OA 
HETATM    7  N   UNL     1     -12.283  12.354  63.561  1.00  0.00    -0.543 N  
ENDBRANCH   2   3
BRANCH   2   8
HETATM    8  N   UNL     1     -11.894  11.847  67.018  1.00  0.00    -0.613 NA 
HETATM    9  H   UNL     1     -12.171  10.867  66.965  1.00  0.00     0.000 HD 
BRANCH   8  10
HETATM   10  C   UNL     1     -11.100  12.097  68.221  1.00  0.00    -0.243 C  
BRANCH  10  11
HETATM   11  C   UNL     1     -10.912  13.581  68.440  1.00  0.00    -0.289 A  
HETATM   12  C   UNL     1     -12.032  14.420  68.531  1.00  0.00    -0.333 A  
HETATM   13  C   UNL     1     -11.883  15.789  68.735  1.00  0.00    -0.321 A  
HETATM   14  C   UNL     1     -10.613  16.339  68.903  1.00  0.00    -0.284 A  
HETATM   15  C   UNL     1      -9.636  14.143  68.579  1.00  0.00    -0.214 A  
HETATM   16  C   UNL     1      -9.490  15.516  68.806  1.00  0.00    -0.210 A  
BRANCH  14  17
HETATM   17  O   UNL     1     -10.368  17.661  69.167  1.00  0.00    -0.353 OA 
BRANCH  17  18
HETATM   18  C   UNL     1     -10.352  18.503  68.011  1.00  0.00    -0.383 C  
BRANCH  18  19
HETATM   19  C   UNL     1      -8.947  18.906  67.635  1.00  0.00    -0.313 A  
HETATM   20  C   UNL     1      -8.406  18.600  66.381  1.00  0.00    -0.292 A  
HETATM   21  C   UNL     1      -7.079  18.907  66.106  1.00  0.00    -0.256 A  
HETATM   22  F   UNL     1      -6.567  18.605  64.907  1.00  0.00    -0.289 F  
HETATM   23  C   UNL     1      -6.267  19.504  67.064  1.00  0.00    -0.194 A  
HETATM   24  C   UNL     1      -6.792  19.806  68.319  1.00  0.00    -0.326 A  
HETATM   25  C   UNL     1      -8.124  19.504  68.604  1.00  0.00    -0.375 A  
ENDBRANCH  18  19
ENDBRANCH  17  18
ENDBRANCH  14  17
ENDBRANCH  10  11
ENDBRANCH   8  10
ENDBRANCH   2   8
TORSDOF 7
ENDMDL
MODEL       41
REMARK 921   NORMALIZED FREE ENERGY PREDICTED BY IDOCK:   -5.60 KCAL/MOL
REMARK 922        TOTAL FREE ENERGY PREDICTED BY IDOCK:   -8.68 KCAL/MOL
REMARK 923 INTER-LIGAND FREE ENERGY PREDICTED BY IDOCK:   -7.81 KCAL/MOL
REMARK 924 INTRA-LIGAND FREE ENERGY PREDICTED BY IDOCK:   -0.87 KCAL/MOL
REMARK 927      BINDING AFFINITY PREDICTED BY RF-SCORE:    0.00 PKD
ROOT
HETATM    1  C   UNL     1     -11.174  15.456  64.644  1.00  0.00    -0.374 C  
HETATM    2  C   UNL     1     -12.326  14.454  64.706  1.00  0.00    -0.414 C  
ENDROOT
BRANCH   2   3
HETATM    3  C   UNL     1     -11.912  13.135  64.008  1.00  0.00    -0.460 C  
HETATM    4  H2  UNL     1      -9.888  13.544  64.417  1.00  0.00     0.000 HD 
HETATM    5  H1  UNL     1     -10.290  12.034  63.539  1.00  0.00     0.000 HD 
HETATM    6  O   UNL     1     -12.691  12.341  63.492  1.00  0.00    -0.729 OA 
HETATM    7  N   UNL     1     -10.563  12.903  63.999  1.00  0.00    -0.413 N  
ENDBRANCH   2   3
BRANCH   2   8
HETATM    8  N   UNL     1     -12.743  14.107  66.083  1.00  0.00    -0.491 NA 
HETATM    9  H   UNL     1     -13.091  13.149  66.124  1.00  0.00     0.000 HD 
BRANCH   8  10
HETATM   10  C   UNL     1     -11.696  14.321  67.081  1.00  0.00    -0.404 C  
BRANCH  10  11
HETATM   11  C   UNL     1     -11.160  13.001  67.588  1.00  0.00    -0.296 A  
HETATM   12  C   UNL     1      -9.934  12.960  68.266  1.00  0.00    -0.234 A  
HETATM   13  C   UNL     1      -9.423  11.756  68.744  1.00  0.00    -0.037 A  
HETATM   14  C   UNL     1     -10.152  10.577  68.598  1.00  0.00    -0.180 A  
HETATM   15  C   UNL     1     -11.875  11.807  67.416  1.00  0.00    -0.210 A  
HETATM   16  C   UNL     1     -11.370  10.603  67.917  1.00  0.00    -0.342 A  
BRANCH  14  17
HETATM   17  O   UNL     1      -9.762   9.357  69.085  1.00  0.00    -0.157 OA 
BRANCH  17  18
HETATM   18  C   UNL     1      -9.725   9.274  70.512  1.00  0.00    -0.260 C  
BRANCH  18  19
HETATM   19  C   UNL     1     -11.108   9.130  71.097  1.00  0.00    -0.393 A  
HETATM   20  C   UNL     1     -11.712   7.877  71.257  1.00  0.00    -0.313 A  
HETATM   21  C   UNL     1     -13.022   7.792  71.714  1.00  0.00    -0.323 A  
HETATM   22  F   UNL     1     -13.594   6.591  71.857  1.00  0.00    -0.346 F  
HETATM   23  C   UNL     1     -13.756   8.937  72.006  1.00  0.00    -0.509 A  
HETATM   24  C   UNL     1     -13.168  10.190  71.844  1.00  0.00    -0.557 A  
HETATM   25  C   UNL     1     -11.853  10.286  71.387  1.00  0.00    -0.371 A  
ENDBRANCH  18  19
ENDBRANCH  17  18
ENDBRANCH  14  17
ENDBRANCH  10  11
ENDBRANCH   8  10
ENDBRANCH   2   8
TORSDOF 7
ENDMDL
MODEL       42
REMARK 921   NORMALIZED FREE ENERGY PREDICTED BY IDOCK:   -5.60 KCAL/MOL
REMARK 922        TOTAL FREE ENERGY PREDICTED BY IDOCK:   -8.68 KCAL/MOL
REMARK 923 INTER-LIGAND FREE ENERGY PREDICTED BY IDOCK:   -7.60 KCAL/MOL
REMARK 924 INTRA-LIGAND FREE ENERGY PREDICTED BY IDOCK:   -1.08 KCAL/MOL
REMARK 927      BINDING AFFINITY PREDICTED BY RF-SCORE:    0.00 PKD
ROOT
HETATM    1  C   UNL     1     -10.379  13.453  66.443  1.00  0.00    -0.288 C  
HETATM    2  C   UNL     1     -11.335  12.337  66.027  1.00  0.00    -0.350 C  
ENDROOT
BRANCH   2   3
HETATM    3  C   UNL     1     -12.439  12.909  65.105  1.00  0.00    -0.501 C  
HETATM    4  H2  UNL     1     -11.929  14.865  65.691  1.00  0.00     0.000 HD 
HETATM    5  H1  UNL     1     -13.262  14.651  64.514  1.00  0.00     0.000 HD 
HETATM    6  O   UNL     1     -13.189  12.234  64.408  1.00  0.00    -0.806 OA 
HETATM    7  N   UNL     1     -12.534  14.274  65.121  1.00  0.00    -0.445 N  
ENDBRANCH   2   3
BRANCH   2   8
HETATM    8  N   UNL     1     -10.680  11.232  65.290  1.00  0.00    -0.266 NA 
HETATM    9  H   UNL     1     -10.613  11.451  64.296  1.00  0.00     0.000 HD 
BRANCH   8  10
HETATM   10  C   UNL     1      -9.370  10.868  65.830  1.00  0.00    -0.203 C  
BRANCH  10  11
HETATM   11  C   UNL     1      -9.512   9.856  66.944  1.00  0.00    -0.202 A  
HETATM   12  C   UNL     1     -10.338   8.736  66.768  1.00  0.00    -0.328 A  
HETATM   13  C   UNL     1     -10.482   7.790  67.779  1.00  0.00    -0.277 A  
HETATM   14  C   UNL     1      -9.764   7.917  68.966  1.00  0.00    -0.162 A  
HETATM   15  C   UNL     1      -8.815   9.995  68.152  1.00  0.00    -0.122 A  
HETATM   16  C   UNL     1      -8.945   9.031  69.157  1.00  0.00    -0.140 A  
BRANCH  14  17
HETATM   17  O   UNL     1      -9.793   7.010  69.993  1.00  0.00    -0.176 OA 
BRANCH  17  18
HETATM   18  C   UNL     1     -10.054   7.578  71.279  1.00  0.00    -0.187 C  
BRANCH  18  19
HETATM   19  C   UNL     1     -11.498   7.993  71.420  1.00  0.00    -0.293 A  
HETATM   20  C   UNL     1     -11.860   9.325  71.658  1.00  0.00    -0.453 A  
HETATM   21  C   UNL     1     -13.193   9.652  71.874  1.00  0.00    -0.446 A  
HETATM   22  F   UNL     1     -13.530  10.926  72.107  1.00  0.00    -0.533 F  
HETATM   23  C   UNL     1     -14.182   8.674  71.871  1.00  0.00    -0.507 A  
HETATM   24  C   UNL     1     -13.833   7.344  71.643  1.00  0.00    -0.490 A  
HETATM   25  C   UNL     1     -12.497   7.005  71.424  1.00  0.00    -0.426 A  
ENDBRANCH  18  19
ENDBRANCH  17  18
ENDBRANCH  14  17
ENDBRANCH  10  11
ENDBRANCH   8  10
ENDBRANCH   2   8
TORSDOF 7
ENDMDL
MODEL       43
REMARK 921   NORMALIZED FREE ENERGY PREDICTED BY IDOCK:   -5.55 KCAL/MOL
REMARK 922        TOTAL FREE ENERGY PREDICTED BY IDOCK:   -8.61 KCAL/MOL
REMARK 923 INTER-LIGAND FREE ENERGY PREDICTED BY IDOCK:   -7.97 KCAL/MOL
REMARK 924 INTRA-LIGAND FREE ENERGY PREDICTED BY IDOCK:   -0.65 KCAL/MOL
REMARK 927      BINDING AFFINITY PREDICTED BY RF-SCORE:    0.00 PKD
ROOT
HETATM    1  C   UNL     1     -13.508   9.504  71.528  1.00  0.00    -0.444 C  
HETATM    2  C   UNL     1     -11.995   9.544  71.737  1.00  0.00    -0.371 C  
ENDROOT
BRANCH   2   3
HETATM    3  C   UNL     1     -11.432   8.102  71.763  1.00  0.00    -0.284 C  
HETATM    4  H2  UNL     1     -11.508   8.100  73.866  1.00  0.00     0.000 HD 
HETATM    5  H1  UNL     1     -10.902   6.632  73.036  1.00  0.00     0.000 HD 
HETATM    6  O   UNL     1     -11.135   7.447  70.769  1.00  0.00    -0.253 OA 
HETATM    7  N   UNL     1     -11.274   7.582  73.019  1.00  0.00    -0.357 N  
ENDBRANCH   2   3
BRANCH   2   8
HETATM    8  N   UNL     1     -11.264  10.280  70.681  1.00  0.00    -0.330 NA 
HETATM    9  H   UNL     1     -10.435   9.763  70.388  1.00  0.00     0.000 HD 
BRANCH   8  10
HETATM   10  C   UNL     1     -12.096  10.621  69.526  1.00  0.00    -0.214 C  
BRANCH  10  11
HETATM   11  C   UNL     1     -11.890  12.064  69.126  1.00  0.00    -0.369 A  
HETATM   12  C   UNL     1     -11.685  12.392  67.778  1.00  0.00    -0.413 A  
HETATM   13  C   UNL     1     -11.496  13.714  67.386  1.00  0.00    -0.365 A  
HETATM   14  C   UNL     1     -11.560  14.741  68.327  1.00  0.00    -0.323 A  
HETATM   15  C   UNL     1     -11.923  13.098  70.073  1.00  0.00    -0.391 A  
HETATM   16  C   UNL     1     -11.755  14.427  69.673  1.00  0.00    -0.362 A  
BRANCH  14  17
HETATM   17  O   UNL     1     -11.447  16.074  68.031  1.00  0.00    -0.309 OA 
BRANCH  17  18
HETATM   18  C   UNL     1     -10.638  16.818  68.946  1.00  0.00    -0.350 C  
BRANCH  18  19
HETATM   19  C   UNL     1      -9.950  17.975  68.266  1.00  0.00    -0.374 A  
HETATM   20  C   UNL     1      -8.660  18.381  68.631  1.00  0.00    -0.315 A  
HETATM   21  C   UNL     1      -8.098  19.508  68.044  1.00  0.00    -0.312 A  
HETATM   22  F   UNL     1      -6.867  19.893  68.403  1.00  0.00    -0.295 F  
HETATM   23  C   UNL     1      -8.800  20.256  67.105  1.00  0.00    -0.446 A  
HETATM   24  C   UNL     1     -10.087  19.866  66.740  1.00  0.00    -0.586 A  
HETATM   25  C   UNL     1     -10.661  18.735  67.321  1.00  0.00    -0.504 A  
ENDBRANCH  18  19
ENDBRANCH  17  18
ENDBRANCH  14  17
ENDBRANCH  10  11
ENDBRANCH   8  10
ENDBRANCH   2   8
TORSDOF 7
ENDMDL
MODEL       44
REMARK 921   NORMALIZED FREE ENERGY PREDICTED BY IDOCK:   -5.52 KCAL/MOL
REMARK 922        TOTAL FREE ENERGY PREDICTED BY IDOCK:   -8.58 KCAL/MOL
REMARK 923 INTER-LIGAND FREE ENERGY PREDICTED BY IDOCK:   -7.71 KCAL/MOL
REMARK 924 INTRA-LIGAND FREE ENERGY PREDICTED BY IDOCK:   -0.87 KCAL/MOL
REMARK 927      BINDING AFFINITY PREDICTED BY RF-SCORE:    0.00 PKD
ROOT
HETATM    1  C   UNL     1     -10.124  10.739  69.091  1.00  0.00    -0.224 C  
HETATM    2  C   UNL     1     -11.646  10.856  69.024  1.00  0.00    -0.316 C  
ENDROOT
BRANCH   2   3
HETATM    3  C   UNL     1     -12.183  11.472  70.338  1.00  0.00    -0.355 C  
HETATM    4  H2  UNL     1     -11.785  13.405  69.608  1.00  0.00     0.000 HD 
HETATM    5  H1  UNL     1     -12.494  13.245  71.245  1.00  0.00     0.000 HD 
HETATM    6  O   UNL     1     -12.615  10.828  71.289  1.00  0.00    -0.368 OA 
HETATM    7  N   UNL     1     -12.140  12.839  70.378  1.00  0.00    -0.352 N  
ENDBRANCH   2   3
BRANCH   2   8
HETATM    8  N   UNL     1     -12.132  11.707  67.913  1.00  0.00    -0.585 NA 
HETATM    9  H   UNL     1     -12.441  12.614  68.262  1.00  0.00     0.000 HD 
BRANCH   8  10
HETATM   10  C   UNL     1     -11.156  11.871  66.835  1.00  0.00    -0.305 C  
BRANCH  10  11
HETATM   11  C   UNL     1     -10.951  13.335  66.517  1.00  0.00    -0.299 A  
HETATM   12  C   UNL     1     -10.494  14.208  67.515  1.00  0.00    -0.249 A  
HETATM   13  C   UNL     1     -10.295  15.559  67.244  1.00  0.00    -0.267 A  
HETATM   14  C   UNL     1     -10.500  16.054  65.958  1.00  0.00    -0.345 A  
HETATM   15  C   UNL     1     -11.185  13.844  65.233  1.00  0.00    -0.313 A  
HETATM   16  C   UNL     1     -10.963  15.197  64.958  1.00  0.00    -0.443 A  
BRANCH  14  17
HETATM   17  O   UNL     1     -10.274  17.351  65.579  1.00  0.00    -0.604 OA 
BRANCH  17  18
HETATM   18  C   UNL     1     -10.516  18.319  66.605  1.00  0.00    -0.360 C  
BRANCH  18  19
HETATM   19  C   UNL     1      -9.245  19.016  67.022  1.00  0.00    -0.330 A  
HETATM   20  C   UNL     1      -8.456  19.718  66.103  1.00  0.00    -0.367 A  
HETATM   21  C   UNL     1      -7.246  20.269  66.507  1.00  0.00    -0.266 A  
HETATM   22  F   UNL     1      -6.495  20.932  65.621  1.00  0.00    -0.271 F  
HETATM   23  C   UNL     1      -6.793  20.126  67.814  1.00  0.00    -0.309 A  
HETATM   24  C   UNL     1      -7.566  19.423  68.737  1.00  0.00    -0.398 A  
HETATM   25  C   UNL     1      -8.784  18.867  68.341  1.00  0.00    -0.380 A  
ENDBRANCH  18  19
ENDBRANCH  17  18
ENDBRANCH  14  17
ENDBRANCH  10  11
ENDBRANCH   8  10
ENDBRANCH   2   8
TORSDOF 7
ENDMDL
MODEL       45
REMARK 921   NORMALIZED FREE ENERGY PREDICTED BY IDOCK:   -5.52 KCAL/MOL
REMARK 922        TOTAL FREE ENERGY PREDICTED BY IDOCK:   -8.58 KCAL/MOL
REMARK 923 INTER-LIGAND FREE ENERGY PREDICTED BY IDOCK:   -7.92 KCAL/MOL
REMARK 924 INTRA-LIGAND FREE ENERGY PREDICTED BY IDOCK:   -0.65 KCAL/MOL
REMARK 927      BINDING AFFINITY PREDICTED BY RF-SCORE:    0.00 PKD
ROOT
HETATM    1  C   UNL     1     -14.034  13.887  72.213  1.00  0.00    -0.663 C  
HETATM    2  C   UNL     1     -13.604  15.346  72.360  1.00  0.00    -0.515 C  
ENDROOT
BRANCH   2   3
HETATM    3  C   UNL     1     -12.662  15.495  73.578  1.00  0.00    -0.553 C  
HETATM    4  H2  UNL     1     -12.653  17.585  73.327  1.00  0.00     0.000 HD 
HETATM    5  H1  UNL     1     -11.695  16.886  74.671  1.00  0.00     0.000 HD 
HETATM    6  O   UNL     1     -12.233  14.564  74.252  1.00  0.00    -0.342 OA 
HETATM    7  N   UNL     1     -12.317  16.788  73.868  1.00  0.00    -0.328 N  
ENDBRANCH   2   3
BRANCH   2   8
HETATM    8  N   UNL     1     -12.883  15.879  71.182  1.00  0.00    -0.567 NA 
HETATM    9  H   UNL     1     -12.736  16.883  71.273  1.00  0.00     0.000 HD 
BRANCH   8  10
HETATM   10  C   UNL     1     -11.620  15.191  70.912  1.00  0.00    -0.338 C  
BRANCH  10  11
HETATM   11  C   UNL     1     -11.701  14.410  69.621  1.00  0.00    -0.362 A  
HETATM   12  C   UNL     1     -11.720  15.090  68.394  1.00  0.00    -0.341 A  
HETATM   13  C   UNL     1     -11.791  14.391  67.192  1.00  0.00    -0.437 A  
HETATM   14  C   UNL     1     -11.793  12.997  67.190  1.00  0.00    -0.373 A  
HETATM   15  C   UNL     1     -11.733  13.009  69.614  1.00  0.00    -0.364 A  
HETATM   16  C   UNL     1     -11.782  12.309  68.404  1.00  0.00    -0.390 A  
BRANCH  14  17
HETATM   17  O   UNL     1     -11.800  12.222  66.061  1.00  0.00    -0.493 OA 
BRANCH  17  18
HETATM   18  C   UNL     1     -10.717  12.473  65.162  1.00  0.00    -0.292 C  
BRANCH  18  19
HETATM   19  C   UNL     1      -9.864  11.245  64.961  1.00  0.00    -0.307 A  
HETATM   20  C   UNL     1      -9.723  10.646  63.703  1.00  0.00    -0.383 A  
HETATM   21  C   UNL     1      -9.004   9.464  63.576  1.00  0.00    -0.115 A  
HETATM   22  F   UNL     1      -8.879   8.894  62.371  1.00  0.00    -0.215 F  
HETATM   23  C   UNL     1      -8.427   8.851  64.684  1.00  0.00    -0.185 A  
HETATM   24  C   UNL     1      -8.568   9.433  65.942  1.00  0.00    -0.155 A  
HETATM   25  C   UNL     1      -9.287  10.622  66.080  1.00  0.00    -0.207 A  
ENDBRANCH  18  19
ENDBRANCH  17  18
ENDBRANCH  14  17
ENDBRANCH  10  11
ENDBRANCH   8  10
ENDBRANCH   2   8
TORSDOF 7
ENDMDL
MODEL       46
REMARK 921   NORMALIZED FREE ENERGY PREDICTED BY IDOCK:   -5.52 KCAL/MOL
REMARK 922        TOTAL FREE ENERGY PREDICTED BY IDOCK:   -8.57 KCAL/MOL
REMARK 923 INTER-LIGAND FREE ENERGY PREDICTED BY IDOCK:   -7.73 KCAL/MOL
REMARK 924 INTRA-LIGAND FREE ENERGY PREDICTED BY IDOCK:   -0.84 KCAL/MOL
REMARK 927      BINDING AFFINITY PREDICTED BY RF-SCORE:    0.00 PKD
ROOT
HETATM    1  C   UNL     1      -8.311  17.895  68.536  1.00  0.00    -0.305 C  
HETATM    2  C   UNL     1      -9.604  18.466  67.958  1.00  0.00    -0.298 C  
ENDROOT
BRANCH   2   3
HETATM    3  C   UNL     1      -9.408  18.799  66.460  1.00  0.00    -0.336 C  
HETATM    4  H2  UNL     1     -11.392  19.491  66.344  1.00  0.00     0.000 HD 
HETATM    5  H1  UNL     1     -10.384  19.549  64.864  1.00  0.00     0.000 HD 
HETATM    6  O   UNL     1      -8.370  18.617  65.831  1.00  0.00    -0.494 OA 
HETATM    7  N   UNL     1     -10.513  19.329  65.852  1.00  0.00    -0.490 N  
ENDBRANCH   2   3
BRANCH   2   8
HETATM    8  N   UNL     1     -10.759  17.544  68.053  1.00  0.00    -0.381 NA 
HETATM    9  H   UNL     1     -10.773  16.900  67.263  1.00  0.00     0.000 HD 
BRANCH   8  10
HETATM   10  C   UNL     1     -10.819  16.813  69.319  1.00  0.00    -0.275 C  
BRANCH  10  11
HETATM   11  C   UNL     1     -11.217  15.373  69.087  1.00  0.00    -0.291 A  
HETATM   12  C   UNL     1     -11.046  14.797  67.819  1.00  0.00    -0.306 A  
HETATM   13  C   UNL     1     -11.403  13.472  67.583  1.00  0.00    -0.326 A  
HETATM   14  C   UNL     1     -11.889  12.682  68.623  1.00  0.00    -0.302 A  
HETATM   15  C   UNL     1     -11.735  14.582  70.121  1.00  0.00    -0.357 A  
HETATM   16  C   UNL     1     -12.072  13.244  69.887  1.00  0.00    -0.377 A  
BRANCH  14  17
HETATM   17  O   UNL     1     -12.210  11.355  68.505  1.00  0.00    -0.557 OA 
BRANCH  17  18
HETATM   18  C   UNL     1     -11.085  10.484  68.351  1.00  0.00    -0.281 C  
BRANCH  18  19
HETATM   19  C   UNL     1     -10.745   9.783  69.643  1.00  0.00    -0.264 A  
HETATM   20  C   UNL     1     -11.728   9.467  70.589  1.00  0.00    -0.330 A  
HETATM   21  C   UNL     1     -11.363   8.903  71.805  1.00  0.00    -0.361 A  
HETATM   22  F   UNL     1     -12.308   8.611  72.707  1.00  0.00    -0.452 F  
HETATM   23  C   UNL     1     -10.029   8.655  72.110  1.00  0.00    -0.386 A  
HETATM   24  C   UNL     1      -9.041   8.972  71.180  1.00  0.00    -0.316 A  
HETATM   25  C   UNL     1      -9.397   9.537  69.954  1.00  0.00    -0.247 A  
ENDBRANCH  18  19
ENDBRANCH  17  18
ENDBRANCH  14  17
ENDBRANCH  10  11
ENDBRANCH   8  10
ENDBRANCH   2   8
TORSDOF 7
ENDMDL
MODEL       47
REMARK 921   NORMALIZED FREE ENERGY PREDICTED BY IDOCK:   -5.51 KCAL/MOL
REMARK 922        TOTAL FREE ENERGY PREDICTED BY IDOCK:   -8.56 KCAL/MOL
REMARK 923 INTER-LIGAND FREE ENERGY PREDICTED BY IDOCK:   -7.86 KCAL/MOL
REMARK 924 INTRA-LIGAND FREE ENERGY PREDICTED BY IDOCK:   -0.70 KCAL/MOL
REMARK 927      BINDING AFFINITY PREDICTED BY RF-SCORE:    0.00 PKD
ROOT
HETATM    1  C   UNL     1      -9.403   5.528  69.390  1.00  0.00    -0.154 C  
HETATM    2  C   UNL     1     -10.778   5.785  70.004  1.00  0.00    -0.330 C  
ENDROOT
BRANCH   2   3
HETATM    3  C   UNL     1     -10.691   5.679  71.546  1.00  0.00    -0.242 C  
HETATM    4  H2  UNL     1     -12.615   6.515  71.721  1.00  0.00     0.000 HD 
HETATM    5  H1  UNL     1     -11.743   6.067  73.221  1.00  0.00     0.000 HD 
HETATM    6  O   UNL     1      -9.730   5.235  72.166  1.00  0.00    -0.158 OA 
HETATM    7  N   UNL     1     -11.800   6.136  72.205  1.00  0.00    -0.318 N  
ENDBRANCH   2   3
BRANCH   2   8
HETATM    8  N   UNL     1     -11.334   7.120  69.689  1.00  0.00    -0.492 NA 
HETATM    9  H   UNL     1     -11.667   7.581  70.535  1.00  0.00     0.000 HD 
BRANCH   8  10
HETATM   10  C   UNL     1     -10.402   7.982  68.961  1.00  0.00    -0.218 C  
BRANCH  10  11
HETATM   11  C   UNL     1     -10.883   9.416  68.968  1.00  0.00    -0.161 A  
HETATM   12  C   UNL     1     -11.352   9.989  70.159  1.00  0.00    -0.357 A  
HETATM   13  C   UNL     1     -11.797  11.308  70.189  1.00  0.00    -0.449 A  
HETATM   14  C   UNL     1     -11.733  12.096  69.041  1.00  0.00    -0.322 A  
HETATM   15  C   UNL     1     -10.849  10.204  67.809  1.00  0.00    -0.346 A  
HETATM   16  C   UNL     1     -11.275  11.535  67.848  1.00  0.00    -0.344 A  
BRANCH  14  17
HETATM   17  O   UNL     1     -12.090  13.417  68.986  1.00  0.00    -0.325 OA 
BRANCH  17  18
HETATM   18  C   UNL     1     -11.304  14.279  69.814  1.00  0.00    -0.227 C  
BRANCH  18  19
HETATM   19  C   UNL     1     -12.124  14.879  70.929  1.00  0.00    -0.377 A  
HETATM   20  C   UNL     1     -11.527  15.560  71.996  1.00  0.00    -0.515 A  
HETATM   21  C   UNL     1     -12.309  16.019  73.050  1.00  0.00    -0.520 A  
HETATM   22  F   UNL     1     -11.730  16.663  74.070  1.00  0.00    -0.363 F  
HETATM   23  C   UNL     1     -13.683  15.801  73.072  1.00  0.00    -0.583 A  
HETATM   24  C   UNL     1     -14.287  15.118  72.019  1.00  0.00    -0.682 A  
HETATM   25  C   UNL     1     -13.511  14.655  70.955  1.00  0.00    -0.375 A  
ENDBRANCH  18  19
ENDBRANCH  17  18
ENDBRANCH  14  17
ENDBRANCH  10  11
ENDBRANCH   8  10
ENDBRANCH   2   8
TORSDOF 7
ENDMDL
MODEL       48
REMARK 921   NORMALIZED FREE ENERGY PREDICTED BY IDOCK:   -5.51 KCAL/MOL
REMARK 922        TOTAL FREE ENERGY PREDICTED BY IDOCK:   -8.56 KCAL/MOL
REMARK 923 INTER-LIGAND FREE ENERGY PREDICTED BY IDOCK:   -7.74 KCAL/MOL
REMARK 924 INTRA-LIGAND FREE ENERGY PREDICTED BY IDOCK:   -0.81 KCAL/MOL
REMARK 927      BINDING AFFINITY PREDICTED BY RF-SCORE:    0.00 PKD
ROOT
HETATM    1  C   UNL     1     -11.029   5.596  72.253  1.00  0.00    -0.312 C  
HETATM    2  C   UNL     1     -12.107   6.601  71.852  1.00  0.00    -0.340 C  
ENDROOT
BRANCH   2   3
HETATM    3  C   UNL     1     -11.735   8.007  72.381  1.00  0.00    -0.386 C  
HETATM    4  H2  UNL     1     -13.671   8.698  71.929  1.00  0.00     0.000 HD 
HETATM    5  H1  UNL     1     -12.505   9.850  72.651  1.00  0.00     0.000 HD 
HETATM    6  O   UNL     1     -10.639   8.319  72.835  1.00  0.00    -0.320 OA 
HETATM    7  N   UNL     1     -12.749   8.923  72.303  1.00  0.00    -0.394 N  
ENDBRANCH   2   3
BRANCH   2   8
HETATM    8  N   UNL     1     -12.297   6.721  70.389  1.00  0.00    -0.562 NA 
HETATM    9  H   UNL     1     -12.552   7.675  70.135  1.00  0.00     0.000 HD 
BRANCH   8  10
HETATM   10  C   UNL     1     -11.144   6.267  69.612  1.00  0.00    -0.412 C  
BRANCH  10  11
HETATM   11  C   UNL     1     -10.659   7.360  68.685  1.00  0.00    -0.182 A  
HETATM   12  C   UNL     1     -10.292   8.607  69.211  1.00  0.00    -0.228 A  
HETATM   13  C   UNL     1      -9.840   9.627  68.377  1.00  0.00    -0.170 A  
HETATM   14  C   UNL     1      -9.698   9.404  67.009  1.00  0.00    -0.178 A  
HETATM   15  C   UNL     1     -10.543   7.150  67.305  1.00  0.00    -0.398 A  
HETATM   16  C   UNL     1     -10.068   8.169  66.473  1.00  0.00    -0.286 A  
BRANCH  14  17
HETATM   17  O   UNL     1      -9.207  10.322  66.119  1.00  0.00    -0.151 OA 
BRANCH  17  18
HETATM   18  C   UNL     1      -9.952  10.426  64.902  1.00  0.00    -0.339 C  
BRANCH  18  19
HETATM   19  C   UNL     1     -10.776  11.689  64.861  1.00  0.00    -0.352 A  
HETATM   20  C   UNL     1     -11.222  12.314  66.032  1.00  0.00    -0.375 A  
HETATM   21  C   UNL     1     -12.055  13.424  65.950  1.00  0.00    -0.439 A  
HETATM   22  F   UNL     1     -12.483  14.011  67.074  1.00  0.00    -0.445 F  
HETATM   23  C   UNL     1     -12.468  13.923  64.720  1.00  0.00    -0.386 A  
HETATM   24  C   UNL     1     -12.036  13.305  63.548  1.00  0.00    -0.550 A  
HETATM   25  C   UNL     1     -11.198  12.191  63.619  1.00  0.00    -0.540 A  
ENDBRANCH  18  19
ENDBRANCH  17  18
ENDBRANCH  14  17
ENDBRANCH  10  11
ENDBRANCH   8  10
ENDBRANCH   2   8
TORSDOF 7
ENDMDL
MODEL       49
REMARK 921   NORMALIZED FREE ENERGY PREDICTED BY IDOCK:   -5.50 KCAL/MOL
REMARK 922        TOTAL FREE ENERGY PREDICTED BY IDOCK:   -8.55 KCAL/MOL
REMARK 923 INTER-LIGAND FREE ENERGY PREDICTED BY IDOCK:   -7.98 KCAL/MOL
REMARK 924 INTRA-LIGAND FREE ENERGY PREDICTED BY IDOCK:   -0.57 KCAL/MOL
REMARK 927      BINDING AFFINITY PREDICTED BY RF-SCORE:    0.00 PKD
ROOT
HETATM    1  C   UNL     1     -10.218  10.890  62.977  1.00  0.00    -0.182 C  
HETATM    2  C   UNL     1     -10.386  12.299  63.542  1.00  0.00    -0.410 C  
ENDROOT
BRANCH   2   3
HETATM    3  C   UNL     1     -11.890  12.605  63.748  1.00  0.00    -0.498 C  
HETATM    4  H2  UNL     1     -11.397  14.342  64.831  1.00  0.00     0.000 HD 
HETATM    5  H1  UNL     1     -13.129  13.947  64.600  1.00  0.00     0.000 HD 
HETATM    6  O   UNL     1     -12.811  11.913  63.327  1.00  0.00    -0.702 OA 
HETATM    7  N   UNL     1     -12.138  13.745  64.464  1.00  0.00    -0.416 N  
ENDBRANCH   2   3
BRANCH   2   8
HETATM    8  N   UNL     1      -9.716  12.505  64.846  1.00  0.00    -0.484 NA 
HETATM    9  H   UNL     1     -10.306  13.051  65.473  1.00  0.00     0.000 HD 
BRANCH   8  10
HETATM   10  C   UNL     1      -9.292  11.260  65.486  1.00  0.00    -0.221 C  
BRANCH  10  11
HETATM   11  C   UNL     1      -9.891  11.137  66.869  1.00  0.00    -0.223 A  
HETATM   12  C   UNL     1      -9.069  10.815  67.959  1.00  0.00    -0.150 A  
HETATM   13  C   UNL     1      -9.599  10.700  69.241  1.00  0.00    -0.164 A  
HETATM   14  C   UNL     1     -10.950  10.954  69.468  1.00  0.00    -0.253 A  
HETATM   15  C   UNL     1     -11.255  11.362  67.097  1.00  0.00    -0.363 A  
HETATM   16  C   UNL     1     -11.780  11.266  68.390  1.00  0.00    -0.365 A  
BRANCH  14  17
HETATM   17  O   UNL     1     -11.550  10.924  70.699  1.00  0.00    -0.328 OA 
BRANCH  17  18
HETATM   18  C   UNL     1     -12.850  11.521  70.739  1.00  0.00    -0.134 C  
BRANCH  18  19
HETATM   19  C   UNL     1     -12.785  12.967  71.163  1.00  0.00    -0.366 A  
HETATM   20  C   UNL     1     -11.883  13.864  70.579  1.00  0.00    -0.317 A  
HETATM   21  C   UNL     1     -11.790  15.165  71.060  1.00  0.00    -0.333 A  
HETATM   22  F   UNL     1     -10.920  16.014  70.500  1.00  0.00    -0.295 F  
HETATM   23  C   UNL     1     -12.574  15.594  72.126  1.00  0.00    -0.504 A  
HETATM   24  C   UNL     1     -13.470  14.708  72.720  1.00  0.00    -0.570 A  
HETATM   25  C   UNL     1     -13.572  13.400  72.244  1.00  0.00    -0.703 A  
ENDBRANCH  18  19
ENDBRANCH  17  18
ENDBRANCH  14  17
ENDBRANCH  10  11
ENDBRANCH   8  10
ENDBRANCH   2   8
TORSDOF 7
ENDMDL
MODEL       50
REMARK 921   NORMALIZED FREE ENERGY PREDICTED BY IDOCK:   -5.50 KCAL/MOL
REMARK 922        TOTAL FREE ENERGY PREDICTED BY IDOCK:   -8.54 KCAL/MOL
REMARK 923 INTER-LIGAND FREE ENERGY PREDICTED BY IDOCK:   -7.85 KCAL/MOL
REMARK 924 INTRA-LIGAND FREE ENERGY PREDICTED BY IDOCK:   -0.69 KCAL/MOL
REMARK 927      BINDING AFFINITY PREDICTED BY RF-SCORE:    0.00 PKD
ROOT
HETATM    1  C   UNL     1     -11.028   3.665  73.348  1.00  0.00    -0.312 C  
HETATM    2  C   UNL     1     -10.540   4.984  72.752  1.00  0.00    -0.221 C  
ENDROOT
BRANCH   2   3
HETATM    3  C   UNL     1     -10.306   4.817  71.231  1.00  0.00    -0.113 C  
HETATM    4  H2  UNL     1      -9.375   2.960  71.569  1.00  0.00     0.000 HD 
HETATM    5  H1  UNL     1      -9.515   3.546  69.881  1.00  0.00     0.000 HD 
HETATM    6  O   UNL     1     -10.642   5.630  70.376  1.00  0.00    -0.264 OA 
HETATM    7  N   UNL     1      -9.670   3.656  70.884  1.00  0.00    -0.177 N  
ENDBRANCH   2   3
BRANCH   2   8
HETATM    8  N   UNL     1     -11.489   6.107  72.927  1.00  0.00    -0.470 NA 
HETATM    9  H   UNL     1     -12.224   5.858  73.589  1.00  0.00     0.000 HD 
BRANCH   8  10
HETATM   10  C   UNL     1     -10.843   7.360  73.315  1.00  0.00    -0.368 C  
BRANCH  10  11
HETATM   11  C   UNL     1     -11.292   8.494  72.420  1.00  0.00    -0.412 A  
HETATM   12  C   UNL     1     -10.384   9.075  71.523  1.00  0.00    -0.412 A  
HETATM   13  C   UNL     1     -10.776  10.117  70.687  1.00  0.00    -0.243 A  
HETATM   14  C   UNL     1     -12.096  10.565  70.696  1.00  0.00    -0.356 A  
HETATM   15  C   UNL     1     -12.610   8.968  72.446  1.00  0.00    -0.403 A  
HETATM   16  C   UNL     1     -13.006  10.000  71.590  1.00  0.00    -0.554 A  
BRANCH  14  17
HETATM   17  O   UNL     1     -12.590  11.541  69.871  1.00  0.00    -0.126 OA 
BRANCH  17  18
HETATM   18  C   UNL     1     -11.826  12.750  69.859  1.00  0.00    -0.301 C  
BRANCH  18  19
HETATM   19  C   UNL     1     -12.420  13.793  70.772  1.00  0.00    -0.441 A  
HETATM   20  C   UNL     1     -11.708  14.942  71.137  1.00  0.00    -0.377 A  
HETATM   21  C   UNL     1     -12.254  15.833  72.054  1.00  0.00    -0.465 A  
HETATM   22  F   UNL     1     -11.564  16.925  72.402  1.00  0.00    -0.533 F  
HETATM   23  C   UNL     1     -13.498  15.599  72.629  1.00  0.00    -0.655 A  
HETATM   24  C   UNL     1     -14.213  14.455  72.280  1.00  0.00    -0.580 A  
HETATM   25  C   UNL     1     -13.674  13.554  71.359  1.00  0.00    -0.064 A  
ENDBRANCH  18  19
ENDBRANCH  17  18
ENDBRANCH  14  17
ENDBRANCH  10  11
ENDBRANCH   8  10
ENDBRANCH   2   8
TORSDOF 7
ENDMDL
MODEL       51
REMARK 921   NORMALIZED FREE ENERGY PREDICTED BY IDOCK:   -5.49 KCAL/MOL
REMARK 922        TOTAL FREE ENERGY PREDICTED BY IDOCK:   -8.53 KCAL/MOL
REMARK 923 INTER-LIGAND FREE ENERGY PREDICTED BY IDOCK:   -8.24 KCAL/MOL
REMARK 924 INTRA-LIGAND FREE ENERGY PREDICTED BY IDOCK:   -0.28 KCAL/MOL
REMARK 927      BINDING AFFINITY PREDICTED BY RF-SCORE:    0.00 PKD
ROOT
HETATM    1  C   UNL     1     -14.152   7.257  71.470  1.00  0.00    -0.515 C  
HETATM    2  C   UNL     1     -12.750   7.646  71.935  1.00  0.00    -0.293 C  
ENDROOT
BRANCH   2   3
HETATM    3  C   UNL     1     -11.715   6.636  71.385  1.00  0.00    -0.324 C  
HETATM    4  H2  UNL     1     -11.414   5.874  73.324  1.00  0.00     0.000 HD 
HETATM    5  H1  UNL     1     -10.481   5.155  71.974  1.00  0.00     0.000 HD 
HETATM    6  O   UNL     1     -11.384   6.541  70.207  1.00  0.00    -0.336 OA 
HETATM    7  N   UNL     1     -11.164   5.821  72.336  1.00  0.00    -0.279 N  
ENDBRANCH   2   3
BRANCH   2   8
HETATM    8  N   UNL     1     -12.325   8.993  71.490  1.00  0.00    -0.315 NA 
HETATM    9  H   UNL     1     -12.340   9.058  70.473  1.00  0.00     0.000 HD 
BRANCH   8  10
HETATM   10  C   UNL     1     -13.102  10.077  72.090  1.00  0.00    -0.386 C  
BRANCH  10  11
HETATM   11  C   UNL     1     -12.814  11.390  71.398  1.00  0.00    -0.502 A  
HETATM   12  C   UNL     1     -13.196  12.596  72.003  1.00  0.00    -0.531 A  
HETATM   13  C   UNL     1     -12.938  13.817  71.385  1.00  0.00    -0.433 A  
HETATM   14  C   UNL     1     -12.247  13.859  70.175  1.00  0.00    -0.358 A  
HETATM   15  C   UNL     1     -12.146  11.436  70.166  1.00  0.00    -0.439 A  
HETATM   16  C   UNL     1     -11.869  12.665  69.559  1.00  0.00    -0.376 A  
BRANCH  14  17
HETATM   17  O   UNL     1     -11.895  15.010  69.521  1.00  0.00    -0.298 OA 
BRANCH  17  18
HETATM   18  C   UNL     1     -10.749  14.883  68.674  1.00  0.00    -0.250 C  
BRANCH  18  19
HETATM   19  C   UNL     1     -11.121  14.993  67.216  1.00  0.00    -0.334 A  
HETATM   20  C   UNL     1     -11.850  13.990  66.566  1.00  0.00    -0.439 A  
HETATM   21  C   UNL     1     -12.094  14.085  65.201  1.00  0.00    -0.410 A  
HETATM   22  F   UNL     1     -12.785  13.118  64.586  1.00  0.00    -0.432 F  
HETATM   23  C   UNL     1     -11.614  15.159  64.459  1.00  0.00    -0.330 A  
HETATM   24  C   UNL     1     -10.881  16.160  65.093  1.00  0.00    -0.376 A  
HETATM   25  C   UNL     1     -10.632  16.075  66.465  1.00  0.00    -0.284 A  
ENDBRANCH  18  19
ENDBRANCH  17  18
ENDBRANCH  14  17
ENDBRANCH  10  11
ENDBRANCH   8  10
ENDBRANCH   2   8
TORSDOF 7
ENDMDL
MODEL       52
REMARK 921   NORMALIZED FREE ENERGY PREDICTED BY IDOCK:   -5.48 KCAL/MOL
REMARK 922        TOTAL FREE ENERGY PREDICTED BY IDOCK:   -8.51 KCAL/MOL
REMARK 923 INTER-LIGAND FREE ENERGY PREDICTED BY IDOCK:   -7.86 KCAL/MOL
REMARK 924 INTRA-LIGAND FREE ENERGY PREDICTED BY IDOCK:   -0.65 KCAL/MOL
REMARK 927      BINDING AFFINITY PREDICTED BY RF-SCORE:    0.00 PKD
ROOT
HETATM    1  C   UNL     1      -9.950  11.376  63.100  1.00  0.00    -0.402 C  
HETATM    2  C   UNL     1     -10.610  12.358  64.066  1.00  0.00    -0.413 C  
ENDROOT
BRANCH   2   3
HETATM    3  C   UNL     1     -12.001  12.770  63.527  1.00  0.00    -0.555 C  
HETATM    4  H2  UNL     1     -12.567  10.746  63.414  1.00  0.00     0.000 HD 
HETATM    5  H1  UNL     1     -13.754  11.990  62.910  1.00  0.00     0.000 HD 
HETATM    6  O   UNL     1     -12.364  13.926  63.331  1.00  0.00    -0.760 OA 
HETATM    7  N   UNL     1     -12.837  11.719  63.266  1.00  0.00    -0.366 N  
ENDBRANCH   2   3
BRANCH   2   8
HETATM    8  N   UNL     1     -10.813  11.813  65.427  1.00  0.00    -0.290 NA 
HETATM    9  H   UNL     1     -10.903  10.798  65.399  1.00  0.00     0.000 HD 
BRANCH   8  10
HETATM   10  C   UNL     1      -9.776  12.216  66.377  1.00  0.00    -0.231 C  
BRANCH  10  11
HETATM   11  C   UNL     1      -9.996  13.639  66.838  1.00  0.00    -0.260 A  
HETATM   12  C   UNL     1     -11.241  14.018  67.364  1.00  0.00    -0.328 A  
HETATM   13  C   UNL     1     -11.465  15.321  67.797  1.00  0.00    -0.312 A  
HETATM   14  C   UNL     1     -10.435  16.260  67.761  1.00  0.00    -0.295 A  
HETATM   15  C   UNL     1      -8.973  14.595  66.776  1.00  0.00    -0.283 A  
HETATM   16  C   UNL     1      -9.195  15.898  67.233  1.00  0.00    -0.216 A  
BRANCH  14  17
HETATM   17  O   UNL     1     -10.540  17.547  68.219  1.00  0.00    -0.372 OA 
BRANCH  17  18
HETATM   18  C   UNL     1     -10.240  18.549  67.244  1.00  0.00    -0.372 C  
BRANCH  18  19
HETATM   19  C   UNL     1      -8.909  19.205  67.512  1.00  0.00    -0.329 A  
HETATM   20  C   UNL     1      -8.286  19.120  68.763  1.00  0.00    -0.382 A  
HETATM   21  C   UNL     1      -7.105  19.814  68.997  1.00  0.00    -0.323 A  
HETATM   22  F   UNL     1      -6.520  19.733  70.198  1.00  0.00    -0.338 F  
HETATM   23  C   UNL     1      -6.530  20.608  68.010  1.00  0.00    -0.355 A  
HETATM   24  C   UNL     1      -7.144  20.706  66.763  1.00  0.00    -0.328 A  
HETATM   25  C   UNL     1      -8.330  20.012  66.517  1.00  0.00    -0.353 A  
ENDBRANCH  18  19
ENDBRANCH  17  18
ENDBRANCH  14  17
ENDBRANCH  10  11
ENDBRANCH   8  10
ENDBRANCH   2   8
TORSDOF 7
ENDMDL
MODEL       53
REMARK 921   NORMALIZED FREE ENERGY PREDICTED BY IDOCK:   -5.47 KCAL/MOL
REMARK 922        TOTAL FREE ENERGY PREDICTED BY IDOCK:   -8.50 KCAL/MOL
REMARK 923 INTER-LIGAND FREE ENERGY PREDICTED BY IDOCK:   -7.84 KCAL/MOL
REMARK 924 INTRA-LIGAND FREE ENERGY PREDICTED BY IDOCK:   -0.66 KCAL/MOL
REMARK 927      BINDING AFFINITY PREDICTED BY RF-SCORE:    0.00 PKD
ROOT
HETATM    1  C   UNL     1     -11.991  13.529  63.718  1.00  0.00    -0.475 C  
HETATM    2  C   UNL     1     -10.839  14.130  64.521  1.00  0.00    -0.320 C  
ENDROOT
BRANCH   2   3
HETATM    3  C   UNL     1     -11.153  15.607  64.863  1.00  0.00    -0.402 C  
HETATM    4  H2  UNL     1     -10.649  15.258  66.876  1.00  0.00     0.000 HD 
HETATM    5  H1  UNL     1     -11.174  16.905  66.405  1.00  0.00     0.000 HD 
HETATM    6  O   UNL     1     -11.540  16.447  64.056  1.00  0.00    -1.071 OA 
HETATM    7  N   UNL     1     -10.967  15.932  66.179  1.00  0.00    -0.198 N  
ENDBRANCH   2   3
BRANCH   2   8
HETATM    8  N   UNL     1     -10.573  13.434  65.800  1.00  0.00    -0.278 NA 
HETATM    9  H   UNL     1     -10.993  13.938  66.580  1.00  0.00     0.000 HD 
BRANCH   8  10
HETATM   10  C   UNL     1     -10.997  12.033  65.799  1.00  0.00    -0.307 C  
BRANCH  10  11
HETATM   11  C   UNL     1     -11.090  11.502  67.212  1.00  0.00    -0.351 A  
HETATM   12  C   UNL     1     -10.578  10.231  67.514  1.00  0.00    -0.320 A  
HETATM   13  C   UNL     1     -10.651   9.723  68.808  1.00  0.00    -0.244 A  
HETATM   14  C   UNL     1     -11.191  10.494  69.836  1.00  0.00    -0.307 A  
HETATM   15  C   UNL     1     -11.660  12.261  68.243  1.00  0.00    -0.385 A  
HETATM   16  C   UNL     1     -11.711  11.756  69.546  1.00  0.00    -0.408 A  
BRANCH  14  17
HETATM   17  O   UNL     1     -11.252  10.106  71.148  1.00  0.00    -0.325 OA 
BRANCH  17  18
HETATM   18  C   UNL     1     -12.075   8.963  71.391  1.00  0.00    -0.322 C  
BRANCH  18  19
HETATM   19  C   UNL     1     -11.324   7.883  72.129  1.00  0.00    -0.367 A  
HETATM   20  C   UNL     1     -11.827   6.581  72.240  1.00  0.00    -0.299 A  
HETATM   21  C   UNL     1     -11.150   5.639  73.006  1.00  0.00    -0.282 A  
HETATM   22  F   UNL     1     -11.642   4.399  73.112  1.00  0.00    -0.321 F  
HETATM   23  C   UNL     1      -9.979   5.969  73.679  1.00  0.00    -0.199 A  
HETATM   24  C   UNL     1      -9.471   7.263  73.582  1.00  0.00    -0.293 A  
HETATM   25  C   UNL     1     -10.143   8.216  72.815  1.00  0.00    -0.367 A  
ENDBRANCH  18  19
ENDBRANCH  17  18
ENDBRANCH  14  17
ENDBRANCH  10  11
ENDBRANCH   8  10
ENDBRANCH   2   8
TORSDOF 7
ENDMDL
MODEL       54
REMARK 921   NORMALIZED FREE ENERGY PREDICTED BY IDOCK:   -5.44 KCAL/MOL
REMARK 922        TOTAL FREE ENERGY PREDICTED BY IDOCK:   -8.46 KCAL/MOL
REMARK 923 INTER-LIGAND FREE ENERGY PREDICTED BY IDOCK:   -7.68 KCAL/MOL
REMARK 924 INTRA-LIGAND FREE ENERGY PREDICTED BY IDOCK:   -0.78 KCAL/MOL
REMARK 927      BINDING AFFINITY PREDICTED BY RF-SCORE:    0.00 PKD
ROOT
HETATM    1  C   UNL     1      -9.208  15.468  68.644  1.00  0.00    -0.202 C  
HETATM    2  C   UNL     1     -10.304  16.433  69.092  1.00  0.00    -0.289 C  
ENDROOT
BRANCH   2   3
HETATM    3  C   UNL     1     -10.278  17.704  68.208  1.00  0.00    -0.374 C  
HETATM    4  H2  UNL     1     -10.430  18.913  69.924  1.00  0.00     0.000 HD 
HETATM    5  H1  UNL     1     -10.342  19.715  68.325  1.00  0.00     0.000 HD 
HETATM    6  O   UNL     1     -10.198  17.705  66.984  1.00  0.00    -0.309 OA 
HETATM    7  N   UNL     1     -10.359  18.877  68.907  1.00  0.00    -0.197 N  
ENDBRANCH   2   3
BRANCH   2   8
HETATM    8  N   UNL     1     -11.670  15.869  69.006  1.00  0.00    -0.390 NA 
HETATM    9  H   UNL     1     -11.652  14.943  68.580  1.00  0.00     0.000 HD 
BRANCH   8  10
HETATM   10  C   UNL     1     -12.370  15.836  70.290  1.00  0.00    -0.310 C  
BRANCH  10  11
HETATM   11  C   UNL     1     -12.562  14.412  70.759  1.00  0.00    -0.426 A  
HETATM   12  C   UNL     1     -13.346  14.150  71.892  1.00  0.00    -0.476 A  
HETATM   13  C   UNL     1     -13.539  12.847  72.341  1.00  0.00    -0.577 A  
HETATM   14  C   UNL     1     -12.995  11.775  71.636  1.00  0.00    -0.362 A  
HETATM   15  C   UNL     1     -11.992  13.332  70.071  1.00  0.00    -0.399 A  
HETATM   16  C   UNL     1     -12.206  12.022  70.511  1.00  0.00    -0.414 A  
BRANCH  14  17
HETATM   17  O   UNL     1     -13.179  10.457  71.963  1.00  0.00    -0.456 OA 
BRANCH  17  18
HETATM   18  C   UNL     1     -12.682   9.531  70.992  1.00  0.00    -0.238 C  
BRANCH  18  19
HETATM   19  C   UNL     1     -11.773   8.503  71.620  1.00  0.00    -0.369 A  
HETATM   20  C   UNL     1     -12.216   7.204  71.901  1.00  0.00    -0.358 A  
HETATM   21  C   UNL     1     -11.377   6.315  72.562  1.00  0.00    -0.275 A  
HETATM   22  F   UNL     1     -11.810   5.078  72.833  1.00  0.00    -0.345 F  
HETATM   23  C   UNL     1     -10.101   6.695  72.965  1.00  0.00    -0.204 A  
HETATM   24  C   UNL     1      -9.652   7.987  72.698  1.00  0.00    -0.327 A  
HETATM   25  C   UNL     1     -10.486   8.888  72.033  1.00  0.00    -0.383 A  
ENDBRANCH  18  19
ENDBRANCH  17  18
ENDBRANCH  14  17
ENDBRANCH  10  11
ENDBRANCH   8  10
ENDBRANCH   2   8
TORSDOF 7
ENDMDL
MODEL       55
REMARK 921   NORMALIZED FREE ENERGY PREDICTED BY IDOCK:   -5.43 KCAL/MOL
REMARK 922        TOTAL FREE ENERGY PREDICTED BY IDOCK:   -8.44 KCAL/MOL
REMARK 923 INTER-LIGAND FREE ENERGY PREDICTED BY IDOCK:   -7.46 KCAL/MOL
REMARK 924 INTRA-LIGAND FREE ENERGY PREDICTED BY IDOCK:   -0.98 KCAL/MOL
REMARK 927      BINDING AFFINITY PREDICTED BY RF-SCORE:    0.00 PKD
ROOT
HETATM    1  C   UNL     1      -7.331  18.136  68.250  1.00  0.00    -0.265 C  
HETATM    2  C   UNL     1      -8.603  18.982  68.258  1.00  0.00    -0.331 C  
ENDROOT
BRANCH   2   3
HETATM    3  C   UNL     1      -8.678  19.831  66.966  1.00  0.00    -0.325 C  
HETATM    4  H2  UNL     1     -10.459  20.723  67.644  1.00  0.00     0.000 HD 
HETATM    5  H1  UNL     1      -9.810  21.224  66.051  1.00  0.00     0.000 HD 
HETATM    6  O   UNL     1      -7.861  19.789  66.052  1.00  0.00    -0.328 OA 
HETATM    7  N   UNL     1      -9.761  20.665  66.903  1.00  0.00    -0.367 N  
ENDBRANCH   2   3
BRANCH   2   8
HETATM    8  N   UNL     1      -9.850  18.186  68.330  1.00  0.00    -0.350 NA 
HETATM    9  H   UNL     1     -10.462  18.402  67.544  1.00  0.00     0.000 HD 
BRANCH   8  10
HETATM   10  C   UNL     1      -9.616  16.745  68.425  1.00  0.00    -0.241 C  
BRANCH  10  11
HETATM   11  C   UNL     1     -10.397  16.004  67.362  1.00  0.00    -0.294 A  
HETATM   12  C   UNL     1     -10.171  16.287  66.007  1.00  0.00    -0.376 A  
HETATM   13  C   UNL     1     -10.876  15.616  65.012  1.00  0.00    -0.468 A  
HETATM   14  C   UNL     1     -11.783  14.614  65.349  1.00  0.00    -0.330 A  
HETATM   15  C   UNL     1     -11.332  15.016  67.697  1.00  0.00    -0.342 A  
HETATM   16  C   UNL     1     -12.023  14.329  66.694  1.00  0.00    -0.454 A  
BRANCH  14  17
HETATM   17  O   UNL     1     -12.479  13.858  64.442  1.00  0.00    -0.613 OA 
BRANCH  17  18
HETATM   18  C   UNL     1     -12.577  12.471  64.778  1.00  0.00    -0.413 C  
BRANCH  18  19
HETATM   19  C   UNL     1     -11.296  11.734  64.477  1.00  0.00    -0.349 A  
HETATM   20  C   UNL     1     -10.624  10.997  65.460  1.00  0.00    -0.267 A  
HETATM   21  C   UNL     1      -9.399  10.408  65.168  1.00  0.00    -0.222 A  
HETATM   22  F   UNL     1      -8.760   9.712  66.115  1.00  0.00    -0.129 F  
HETATM   23  C   UNL     1      -8.817  10.548  63.913  1.00  0.00    -0.203 A  
HETATM   24  C   UNL     1      -9.472  11.285  62.929  1.00  0.00    -0.385 A  
HETATM   25  C   UNL     1     -10.703  11.879  63.211  1.00  0.00    -0.415 A  
ENDBRANCH  18  19
ENDBRANCH  17  18
ENDBRANCH  14  17
ENDBRANCH  10  11
ENDBRANCH   8  10
ENDBRANCH   2   8
TORSDOF 7
ENDMDL
MODEL       56
REMARK 921   NORMALIZED FREE ENERGY PREDICTED BY IDOCK:   -5.42 KCAL/MOL
REMARK 922        TOTAL FREE ENERGY PREDICTED BY IDOCK:   -8.42 KCAL/MOL
REMARK 923 INTER-LIGAND FREE ENERGY PREDICTED BY IDOCK:   -7.88 KCAL/MOL
REMARK 924 INTRA-LIGAND FREE ENERGY PREDICTED BY IDOCK:   -0.55 KCAL/MOL
REMARK 927      BINDING AFFINITY PREDICTED BY RF-SCORE:    0.00 PKD
ROOT
HETATM    1  C   UNL     1      -8.621  18.298  67.781  1.00  0.00    -0.263 C  
HETATM    2  C   UNL     1     -10.127  18.448  67.579  1.00  0.00    -0.357 C  
ENDROOT
BRANCH   2   3
HETATM    3  C   UNL     1     -10.435  18.682  66.080  1.00  0.00    -0.430 C  
HETATM    4  H2  UNL     1     -10.281  20.762  66.364  1.00  0.00     0.000 HD 
HETATM    5  H1  UNL     1     -10.658  20.154  64.721  1.00  0.00     0.000 HD 
HETATM    6  O   UNL     1     -10.652  17.795  65.261  1.00  0.00    -0.651 OA 
HETATM    7  N   UNL     1     -10.455  19.999  65.709  1.00  0.00    -0.442 N  
ENDBRANCH   2   3
BRANCH   2   8
HETATM    8  N   UNL     1     -10.909  17.265  68.005  1.00  0.00    -0.357 NA 
HETATM    9  H   UNL     1     -11.013  16.605  67.235  1.00  0.00     0.000 HD 
BRANCH   8  10
HETATM   10  C   UNL     1     -10.362  16.601  69.188  1.00  0.00    -0.326 C  
BRANCH  10  11
HETATM   11  C   UNL     1     -10.919  15.202  69.322  1.00  0.00    -0.260 A  
HETATM   12  C   UNL     1     -10.389  14.162  68.544  1.00  0.00    -0.249 A  
HETATM   13  C   UNL     1     -10.884  12.865  68.653  1.00  0.00    -0.288 A  
HETATM   14  C   UNL     1     -11.884  12.572  69.579  1.00  0.00    -0.310 A  
HETATM   15  C   UNL     1     -11.945  14.907  70.230  1.00  0.00    -0.365 A  
HETATM   16  C   UNL     1     -12.426  13.599  70.353  1.00  0.00    -0.364 A  
BRANCH  14  17
HETATM   17  O   UNL     1     -12.394  11.320  69.802  1.00  0.00    -0.276 OA 
BRANCH  17  18
HETATM   18  C   UNL     1     -12.688  11.035  71.172  1.00  0.00    -0.419 C  
BRANCH  18  19
HETATM   19  C   UNL     1     -12.669   9.552  71.448  1.00  0.00    -0.445 A  
HETATM   20  C   UNL     1     -11.469   8.844  71.580  1.00  0.00    -0.391 A  
HETATM   21  C   UNL     1     -11.493   7.464  71.742  1.00  0.00    -0.265 A  
HETATM   22  F   UNL     1     -10.341   6.794  71.860  1.00  0.00    -0.199 F  
HETATM   23  C   UNL     1     -12.695   6.764  71.764  1.00  0.00    -0.342 A  
HETATM   24  C   UNL     1     -13.896   7.457  71.627  1.00  0.00    -0.490 A  
HETATM   25  C   UNL     1     -13.883   8.844  71.464  1.00  0.00    -0.388 A  
ENDBRANCH  18  19
ENDBRANCH  17  18
ENDBRANCH  14  17
ENDBRANCH  10  11
ENDBRANCH   8  10
ENDBRANCH   2   8
TORSDOF 7
ENDMDL
MODEL       57
REMARK 921   NORMALIZED FREE ENERGY PREDICTED BY IDOCK:   -5.38 KCAL/MOL
REMARK 922        TOTAL FREE ENERGY PREDICTED BY IDOCK:   -8.38 KCAL/MOL
REMARK 923 INTER-LIGAND FREE ENERGY PREDICTED BY IDOCK:   -7.76 KCAL/MOL
REMARK 924 INTRA-LIGAND FREE ENERGY PREDICTED BY IDOCK:   -0.62 KCAL/MOL
REMARK 927      BINDING AFFINITY PREDICTED BY RF-SCORE:    0.00 PKD
ROOT
HETATM    1  C   UNL     1     -10.237   9.608  70.588  1.00  0.00    -0.346 C  
HETATM    2  C   UNL     1     -11.504  10.318  70.114  1.00  0.00    -0.309 C  
ENDROOT
BRANCH   2   3
HETATM    3  C   UNL     1     -12.632  10.131  71.157  1.00  0.00    -0.386 C  
HETATM    4  H2  UNL     1     -12.702  12.212  71.468  1.00  0.00     0.000 HD 
HETATM    5  H1  UNL     1     -13.823  11.174  72.405  1.00  0.00     0.000 HD 
HETATM    6  O   UNL     1     -13.110   9.051  71.487  1.00  0.00    -0.329 OA 
HETATM    7  N   UNL     1     -13.079  11.297  71.717  1.00  0.00    -0.468 N  
ENDBRANCH   2   3
BRANCH   2   8
HETATM    8  N   UNL     1     -11.333  11.775  69.912  1.00  0.00    -0.491 NA 
HETATM    9  H   UNL     1     -10.380  12.061  70.134  1.00  0.00     0.000 HD 
BRANCH   8  10
HETATM   10  C   UNL     1     -11.711  12.226  68.573  1.00  0.00    -0.331 C  
BRANCH  10  11
HETATM   11  C   UNL     1     -11.441  13.705  68.410  1.00  0.00    -0.346 A  
HETATM   12  C   UNL     1     -10.939  14.192  67.194  1.00  0.00    -0.304 A  
HETATM   13  C   UNL     1     -10.686  15.550  67.020  1.00  0.00    -0.321 A  
HETATM   14  C   UNL     1     -10.978  16.454  68.040  1.00  0.00    -0.327 A  
HETATM   15  C   UNL     1     -11.706  14.615  69.442  1.00  0.00    -0.355 A  
HETATM   16  C   UNL     1     -11.471  15.981  69.257  1.00  0.00    -0.350 A  
BRANCH  14  17
HETATM   17  O   UNL     1     -10.822  17.812  67.943  1.00  0.00    -0.365 OA 
BRANCH  17  18
HETATM   18  C   UNL     1     -10.081  18.243  66.798  1.00  0.00    -0.364 C  
BRANCH  18  19
HETATM   19  C   UNL     1      -8.824  18.977  67.192  1.00  0.00    -0.306 A  
HETATM   20  C   UNL     1      -8.263  18.842  68.468  1.00  0.00    -0.379 A  
HETATM   21  C   UNL     1      -7.158  19.606  68.823  1.00  0.00    -0.346 A  
HETATM   22  F   UNL     1      -6.632  19.475  70.047  1.00  0.00    -0.331 F  
HETATM   23  C   UNL     1      -6.600  20.518  67.934  1.00  0.00    -0.347 A  
HETATM   24  C   UNL     1      -7.154  20.667  66.665  1.00  0.00    -0.299 A  
HETATM   25  C   UNL     1      -8.263  19.904  66.297  1.00  0.00    -0.357 A  
ENDBRANCH  18  19
ENDBRANCH  17  18
ENDBRANCH  14  17
ENDBRANCH  10  11
ENDBRANCH   8  10
ENDBRANCH   2   8
TORSDOF 7
ENDMDL
MODEL       58
REMARK 921   NORMALIZED FREE ENERGY PREDICTED BY IDOCK:   -5.38 KCAL/MOL
REMARK 922        TOTAL FREE ENERGY PREDICTED BY IDOCK:   -8.37 KCAL/MOL
REMARK 923 INTER-LIGAND FREE ENERGY PREDICTED BY IDOCK:   -7.95 KCAL/MOL
REMARK 924 INTRA-LIGAND FREE ENERGY PREDICTED BY IDOCK:   -0.43 KCAL/MOL
REMARK 927      BINDING AFFINITY PREDICTED BY RF-SCORE:    0.00 PKD
ROOT
HETATM    1  C   UNL     1      -9.923  15.378  65.332  1.00  0.00    -0.356 C  
HETATM    2  C   UNL     1     -10.721  14.105  65.051  1.00  0.00    -0.416 C  
ENDROOT
BRANCH   2   3
HETATM    3  C   UNL     1     -12.194  14.467  64.741  1.00  0.00    -0.446 C  
HETATM    4  H2  UNL     1     -12.823  13.402  66.445  1.00  0.00     0.000 HD 
HETATM    5  H1  UNL     1     -14.067  14.203  65.436  1.00  0.00     0.000 HD 
HETATM    6  O   UNL     1     -12.565  15.138  63.784  1.00  0.00    -0.752 OA 
HETATM    7  N   UNL     1     -13.097  13.966  65.640  1.00  0.00    -0.345 N  
ENDBRANCH   2   3
BRANCH   2   8
HETATM    8  N   UNL     1     -10.213  13.322  63.902  1.00  0.00    -0.735 NA 
HETATM    9  H   UNL     1      -9.201  13.209  63.962  1.00  0.00     0.000 HD 
BRANCH   8  10
HETATM   10  C   UNL     1     -10.871  12.026  63.744  1.00  0.00    -0.420 C  
BRANCH  10  11
HETATM   11  C   UNL     1     -10.460  11.077  64.847  1.00  0.00    -0.371 A  
HETATM   12  C   UNL     1      -9.531  10.061  64.583  1.00  0.00    -0.367 A  
HETATM   13  C   UNL     1      -9.135   9.178  65.584  1.00  0.00    -0.273 A  
HETATM   14  C   UNL     1      -9.622   9.326  66.881  1.00  0.00    -0.174 A  
HETATM   15  C   UNL     1     -10.969  11.203  66.147  1.00  0.00    -0.203 A  
HETATM   16  C   UNL     1     -10.553  10.328  67.156  1.00  0.00    -0.320 A  
BRANCH  14  17
HETATM   17  O   UNL     1      -9.247   8.547  67.945  1.00  0.00    -0.139 OA 
BRANCH  17  18
HETATM   18  C   UNL     1     -10.188   7.528  68.293  1.00  0.00    -0.186 C  
BRANCH  18  19
HETATM   19  C   UNL     1     -10.650   7.662  69.723  1.00  0.00    -0.245 A  
HETATM   20  C   UNL     1     -11.642   6.831  70.257  1.00  0.00    -0.417 A  
HETATM   21  C   UNL     1     -12.105   7.047  71.550  1.00  0.00    -0.353 A  
HETATM   22  F   UNL     1     -13.058   6.252  72.050  1.00  0.00    -0.341 F  
HETATM   23  C   UNL     1     -11.607   8.088  72.326  1.00  0.00    -0.424 A  
HETATM   24  C   UNL     1     -10.625   8.926  71.804  1.00  0.00    -0.432 A  
HETATM   25  C   UNL     1     -10.152   8.717  70.507  1.00  0.00    -0.233 A  
ENDBRANCH  18  19
ENDBRANCH  17  18
ENDBRANCH  14  17
ENDBRANCH  10  11
ENDBRANCH   8  10
ENDBRANCH   2   8
TORSDOF 7
ENDMDL
MODEL       59
REMARK 921   NORMALIZED FREE ENERGY PREDICTED BY IDOCK:   -5.32 KCAL/MOL
REMARK 922        TOTAL FREE ENERGY PREDICTED BY IDOCK:   -8.30 KCAL/MOL
REMARK 923 INTER-LIGAND FREE ENERGY PREDICTED BY IDOCK:   -7.74 KCAL/MOL
REMARK 924 INTRA-LIGAND FREE ENERGY PREDICTED BY IDOCK:   -0.56 KCAL/MOL
REMARK 927      BINDING AFFINITY PREDICTED BY RF-SCORE:    0.00 PKD
ROOT
HETATM    1  C   UNL     1     -11.909  14.499  66.810  1.00  0.00    -0.390 C  
HETATM    2  C   UNL     1     -11.274  14.702  65.436  1.00  0.00    -0.347 C  
ENDROOT
BRANCH   2   3
HETATM    3  C   UNL     1     -10.767  16.158  65.303  1.00  0.00    -0.368 C  
HETATM    4  H2  UNL     1      -9.550  15.900  67.001  1.00  0.00     0.000 HD 
HETATM    5  H1  UNL     1      -9.529  17.489  66.174  1.00  0.00     0.000 HD 
HETATM    6  O   UNL     1     -11.120  16.947  64.432  1.00  0.00    -1.128 OA 
HETATM    7  N   UNL     1      -9.863  16.529  66.261  1.00  0.00    -0.297 N  
ENDBRANCH   2   3
BRANCH   2   8
HETATM    8  N   UNL     1     -10.120  13.812  65.174  1.00  0.00    -0.538 NA 
HETATM    9  H   UNL     1      -9.654  13.559  66.044  1.00  0.00     0.000 HD 
BRANCH   8  10
HETATM   10  C   UNL     1     -10.469  12.616  64.406  1.00  0.00    -0.373 C  
BRANCH  10  11
HETATM   11  C   UNL     1     -10.333  11.375  65.258  1.00  0.00    -0.336 A  
HETATM   12  C   UNL     1     -10.909  11.340  66.537  1.00  0.00    -0.319 A  
HETATM   13  C   UNL     1     -10.799  10.207  67.338  1.00  0.00    -0.323 A  
HETATM   14  C   UNL     1     -10.156   9.067  66.857  1.00  0.00    -0.267 A  
HETATM   15  C   UNL     1      -9.662  10.237  64.791  1.00  0.00    -0.397 A  
HETATM   16  C   UNL     1      -9.573   9.092  65.590  1.00  0.00    -0.237 A  
BRANCH  14  17
HETATM   17  O   UNL     1     -10.050   7.887  67.544  1.00  0.00    -0.178 OA 
BRANCH  17  18
HETATM   18  C   UNL     1      -9.214   7.949  68.703  1.00  0.00    -0.142 C  
BRANCH  18  19
HETATM   19  C   UNL     1     -10.027   8.005  69.973  1.00  0.00    -0.191 A  
HETATM   20  C   UNL     1     -11.071   7.104  70.217  1.00  0.00    -0.303 A  
HETATM   21  C   UNL     1     -11.855   7.246  71.356  1.00  0.00    -0.305 A  
HETATM   22  F   UNL     1     -12.855   6.385  71.579  1.00  0.00    -0.316 F  
HETATM   23  C   UNL     1     -11.630   8.280  72.259  1.00  0.00    -0.449 A  
HETATM   24  C   UNL     1     -10.600   9.187  72.023  1.00  0.00    -0.199 A  
HETATM   25  C   UNL     1      -9.805   9.053  70.883  1.00  0.00    -0.330 A  
ENDBRANCH  18  19
ENDBRANCH  17  18
ENDBRANCH  14  17
ENDBRANCH  10  11
ENDBRANCH   8  10
ENDBRANCH   2   8
TORSDOF 7
ENDMDL
MODEL       60
REMARK 921   NORMALIZED FREE ENERGY PREDICTED BY IDOCK:   -5.32 KCAL/MOL
REMARK 922        TOTAL FREE ENERGY PREDICTED BY IDOCK:   -8.29 KCAL/MOL
REMARK 923 INTER-LIGAND FREE ENERGY PREDICTED BY IDOCK:   -7.58 KCAL/MOL
REMARK 924 INTRA-LIGAND FREE ENERGY PREDICTED BY IDOCK:   -0.71 KCAL/MOL
REMARK 927      BINDING AFFINITY PREDICTED BY RF-SCORE:    0.00 PKD
ROOT
HETATM    1  C   UNL     1     -10.617  17.249  68.163  1.00  0.00    -0.386 C  
HETATM    2  C   UNL     1     -11.343  15.919  68.350  1.00  0.00    -0.361 C  
ENDROOT
BRANCH   2   3
HETATM    3  C   UNL     1     -10.866  14.906  67.281  1.00  0.00    -0.306 C  
HETATM    4  H2  UNL     1     -12.856  14.607  66.663  1.00  0.00     0.000 HD 
HETATM    5  H1  UNL     1     -11.560  13.696  65.826  1.00  0.00     0.000 HD 
HETATM    6  O   UNL     1      -9.698  14.584  67.091  1.00  0.00    -0.230 OA 
HETATM    7  N   UNL     1     -11.874  14.364  66.530  1.00  0.00    -0.396 N  
ENDBRANCH   2   3
BRANCH   2   8
HETATM    8  N   UNL     1     -11.118  15.295  69.674  1.00  0.00    -0.257 NA 
HETATM    9  H   UNL     1     -10.498  15.871  70.243  1.00  0.00     0.000 HD 
BRANCH   8  10
HETATM   10  C   UNL     1     -12.355  14.996  70.395  1.00  0.00    -0.348 C  
BRANCH  10  11
HETATM   11  C   UNL     1     -12.472  13.513  70.665  1.00  0.00    -0.405 A  
HETATM   12  C   UNL     1     -11.847  12.596  69.808  1.00  0.00    -0.379 A  
HETATM   13  C   UNL     1     -11.939  11.227  70.038  1.00  0.00    -0.447 A  
HETATM   14  C   UNL     1     -12.615  10.748  71.159  1.00  0.00    -0.428 A  
HETATM   15  C   UNL     1     -13.177  13.025  71.774  1.00  0.00    -0.486 A  
HETATM   16  C   UNL     1     -13.249  11.650  72.016  1.00  0.00    -0.443 A  
BRANCH  14  17
HETATM   17  O   UNL     1     -12.710   9.426  71.504  1.00  0.00    -0.322 OA 
BRANCH  17  18
HETATM   18  C   UNL     1     -11.546   8.896  72.145  1.00  0.00    -0.330 C  
BRANCH  18  19
HETATM   19  C   UNL     1     -11.093   7.610  71.500  1.00  0.00    -0.267 A  
HETATM   20  C   UNL     1     -11.271   7.371  70.132  1.00  0.00    -0.239 A  
HETATM   21  C   UNL     1     -10.923   6.138  69.593  1.00  0.00    -0.389 A  
HETATM   22  F   UNL     1     -11.103   5.916  68.286  1.00  0.00    -0.331 F  
HETATM   23  C   UNL     1     -10.408   5.124  70.394  1.00  0.00    -0.326 A  
HETATM   24  C   UNL     1     -10.233   5.347  71.758  1.00  0.00    -0.263 A  
HETATM   25  C   UNL     1     -10.578   6.582  72.309  1.00  0.00    -0.238 A  
ENDBRANCH  18  19
ENDBRANCH  17  18
ENDBRANCH  14  17
ENDBRANCH  10  11
ENDBRANCH   8  10
ENDBRANCH   2   8
TORSDOF 7
ENDMDL
MODEL       61
REMARK 921   NORMALIZED FREE ENERGY PREDICTED BY IDOCK:   -5.32 KCAL/MOL
REMARK 922        TOTAL FREE ENERGY PREDICTED BY IDOCK:   -8.29 KCAL/MOL
REMARK 923 INTER-LIGAND FREE ENERGY PREDICTED BY IDOCK:   -7.53 KCAL/MOL
REMARK 924 INTRA-LIGAND FREE ENERGY PREDICTED BY IDOCK:   -0.76 KCAL/MOL
REMARK 927      BINDING AFFINITY PREDICTED BY RF-SCORE:    0.00 PKD
ROOT
HETATM    1  C   UNL     1     -10.743   5.722  70.010  1.00  0.00    -0.400 C  
HETATM    2  C   UNL     1     -10.732   5.830  71.534  1.00  0.00    -0.258 C  
ENDROOT
BRANCH   2   3
HETATM    3  C   UNL     1      -9.946   4.641  72.138  1.00  0.00    -0.181 C  
HETATM    4  H2  UNL     1      -8.527   5.974  72.938  1.00  0.00     0.000 HD 
HETATM    5  H1  UNL     1      -8.304   4.220  73.228  1.00  0.00     0.000 HD 
HETATM    6  O   UNL     1     -10.264   3.461  72.028  1.00  0.00    -0.144 OA 
HETATM    7  N   UNL     1      -8.822   5.003  72.830  1.00  0.00    -0.121 N  
ENDBRANCH   2   3
BRANCH   2   8
HETATM    8  N   UNL     1     -10.104   7.071  72.040  1.00  0.00    -0.185 NA 
HETATM    9  H   UNL     1      -9.574   7.535  71.303  1.00  0.00     0.000 HD 
BRANCH   8  10
HETATM   10  C   UNL     1     -11.055   7.996  72.656  1.00  0.00    -0.387 C  
BRANCH  10  11
HETATM   11  C   UNL     1     -11.382   9.133  71.714  1.00  0.00    -0.451 A  
HETATM   12  C   UNL     1     -12.573   9.856  71.880  1.00  0.00    -0.471 A  
HETATM   13  C   UNL     1     -12.893  10.909  71.027  1.00  0.00    -0.472 A  
HETATM   14  C   UNL     1     -12.006  11.292  70.023  1.00  0.00    -0.368 A  
HETATM   15  C   UNL     1     -10.508   9.504  70.683  1.00  0.00    -0.374 A  
HETATM   16  C   UNL     1     -10.823  10.576  69.841  1.00  0.00    -0.334 A  
BRANCH  14  17
HETATM   17  O   UNL     1     -12.204  12.349  69.174  1.00  0.00    -0.191 OA 
BRANCH  17  18
HETATM   18  C   UNL     1     -11.057  12.710  68.399  1.00  0.00    -0.265 C  
BRANCH  18  19
HETATM   19  C   UNL     1     -11.446  13.219  67.034  1.00  0.00    -0.378 A  
HETATM   20  C   UNL     1     -11.907  12.357  66.032  1.00  0.00    -0.459 A  
HETATM   21  C   UNL     1     -12.168  12.851  64.759  1.00  0.00    -0.445 A  
HETATM   22  F   UNL     1     -12.602  12.019  63.805  1.00  0.00    -0.546 F  
HETATM   23  C   UNL     1     -11.968  14.193  64.455  1.00  0.00    -0.478 A  
HETATM   24  C   UNL     1     -11.502  15.060  65.441  1.00  0.00    -0.287 A  
HETATM   25  C   UNL     1     -11.238  14.574  66.723  1.00  0.00    -0.336 A  
ENDBRANCH  18  19
ENDBRANCH  17  18
ENDBRANCH  14  17
ENDBRANCH  10  11
ENDBRANCH   8  10
ENDBRANCH   2   8
TORSDOF 7
ENDMDL
MODEL       62
REMARK 921   NORMALIZED FREE ENERGY PREDICTED BY IDOCK:   -5.31 KCAL/MOL
REMARK 922        TOTAL FREE ENERGY PREDICTED BY IDOCK:   -8.28 KCAL/MOL
REMARK 923 INTER-LIGAND FREE ENERGY PREDICTED BY IDOCK:   -7.60 KCAL/MOL
REMARK 924 INTRA-LIGAND FREE ENERGY PREDICTED BY IDOCK:   -0.68 KCAL/MOL
REMARK 927      BINDING AFFINITY PREDICTED BY RF-SCORE:    0.00 PKD
ROOT
HETATM    1  C   UNL     1     -12.107  13.450  66.454  1.00  0.00    -0.464 C  
HETATM    2  C   UNL     1     -10.787  13.938  67.047  1.00  0.00    -0.285 C  
ENDROOT
BRANCH   2   3
HETATM    3  C   UNL     1     -10.663  15.470  66.862  1.00  0.00    -0.317 C  
HETATM    4  H2  UNL     1      -9.988  15.185  64.888  1.00  0.00     0.000 HD 
HETATM    5  H1  UNL     1     -10.135  16.862  65.503  1.00  0.00     0.000 HD 
HETATM    6  O   UNL     1     -10.925  16.304  67.722  1.00  0.00    -0.330 OA 
HETATM    7  N   UNL     1     -10.218  15.852  65.625  1.00  0.00    -0.358 N  
ENDBRANCH   2   3
BRANCH   2   8
HETATM    8  N   UNL     1     -10.643  13.661  68.494  1.00  0.00    -0.246 NA 
HETATM    9  H   UNL     1     -10.024  14.342  68.933  1.00  0.00     0.000 HD 
BRANCH   8  10
HETATM   10  C   UNL     1     -11.921  13.589  69.204  1.00  0.00    -0.333 C  
BRANCH  10  11
HETATM   11  C   UNL     1     -12.026  12.301  69.989  1.00  0.00    -0.379 A  
HETATM   12  C   UNL     1     -11.235  11.200  69.631  1.00  0.00    -0.333 A  
HETATM   13  C   UNL     1     -11.312  10.005  70.342  1.00  0.00    -0.392 A  
HETATM   14  C   UNL     1     -12.144   9.904  71.455  1.00  0.00    -0.410 A  
HETATM   15  C   UNL     1     -12.883  12.185  71.091  1.00  0.00    -0.313 A  
HETATM   16  C   UNL     1     -12.942  10.990  71.817  1.00  0.00    -0.544 A  
BRANCH  14  17
HETATM   17  O   UNL     1     -12.244   8.794  72.252  1.00  0.00    -0.364 OA 
BRANCH  17  18
HETATM   18  C   UNL     1     -12.882   7.674  71.631  1.00  0.00    -0.349 C  
BRANCH  18  19
HETATM   19  C   UNL     1     -11.908   6.550  71.376  1.00  0.00    -0.384 A  
HETATM   20  C   UNL     1     -11.421   5.750  72.417  1.00  0.00    -0.343 A  
HETATM   21  C   UNL     1     -10.455   4.785  72.154  1.00  0.00    -0.175 A  
HETATM   22  F   UNL     1      -9.989   4.030  73.156  1.00  0.00    -0.147 F  
HETATM   23  C   UNL     1      -9.951   4.605  70.871  1.00  0.00    -0.273 A  
HETATM   24  C   UNL     1     -10.423   5.400  69.829  1.00  0.00    -0.378 A  
HETATM   25  C   UNL     1     -11.393   6.371  70.081  1.00  0.00    -0.485 A  
ENDBRANCH  18  19
ENDBRANCH  17  18
ENDBRANCH  14  17
ENDBRANCH  10  11
ENDBRANCH   8  10
ENDBRANCH   2   8
TORSDOF 7
ENDMDL
MODEL       63
REMARK 921   NORMALIZED FREE ENERGY PREDICTED BY IDOCK:   -5.31 KCAL/MOL
REMARK 922        TOTAL FREE ENERGY PREDICTED BY IDOCK:   -8.27 KCAL/MOL
REMARK 923 INTER-LIGAND FREE ENERGY PREDICTED BY IDOCK:   -7.59 KCAL/MOL
REMARK 924 INTRA-LIGAND FREE ENERGY PREDICTED BY IDOCK:   -0.69 KCAL/MOL
REMARK 927      BINDING AFFINITY PREDICTED BY RF-SCORE:    0.00 PKD
ROOT
HETATM    1  C   UNL     1     -11.109   6.531  67.433  1.00  0.00    -0.411 C  
HETATM    2  C   UNL     1     -10.566   5.479  68.398  1.00  0.00    -0.140 C  
ENDROOT
BRANCH   2   3
HETATM    3  C   UNL     1      -9.303   4.816  67.796  1.00  0.00    -0.136 C  
HETATM    4  H2  UNL     1     -10.478   3.918  66.299  1.00  0.00     0.000 HD 
HETATM    5  H1  UNL     1      -8.714   3.607  66.295  1.00  0.00     0.000 HD 
HETATM    6  O   UNL     1      -8.167   4.940  68.240  1.00  0.00    -0.085 OA 
HETATM    7  N   UNL     1      -9.546   4.045  66.692  1.00  0.00    -0.204 N  
ENDBRANCH   2   3
BRANCH   2   8
HETATM    8  N   UNL     1     -10.184   6.022  69.722  1.00  0.00    -0.189 NA 
HETATM    9  H   UNL     1      -9.795   6.960  69.628  1.00  0.00     0.000 HD 
BRANCH   8  10
HETATM   10  C   UNL     1     -11.278   6.009  70.694  1.00  0.00    -0.277 C  
BRANCH  10  11
HETATM   11  C   UNL     1     -11.704   7.418  71.039  1.00  0.00    -0.326 A  
HETATM   12  C   UNL     1     -10.799   8.478  70.887  1.00  0.00    -0.275 A  
HETATM   13  C   UNL     1     -11.171   9.784  71.195  1.00  0.00    -0.444 A  
HETATM   14  C   UNL     1     -12.471  10.063  71.613  1.00  0.00    -0.418 A  
HETATM   15  C   UNL     1     -13.001   7.700  71.489  1.00  0.00    -0.378 A  
HETATM   16  C   UNL     1     -13.379   9.016  71.777  1.00  0.00    -0.453 A  
BRANCH  14  17
HETATM   17  O   UNL     1     -12.948  11.319  71.882  1.00  0.00    -0.456 OA 
BRANCH  17  18
HETATM   18  C   UNL     1     -12.815  12.247  70.802  1.00  0.00    -0.017 C  
BRANCH  18  19
HETATM   19  C   UNL     1     -12.645  13.660  71.302  1.00  0.00    -0.435 A  
HETATM   20  C   UNL     1     -11.877  14.599  70.603  1.00  0.00    -0.367 A  
HETATM   21  C   UNL     1     -11.669  15.863  71.142  1.00  0.00    -0.442 A  
HETATM   22  F   UNL     1     -10.928  16.753  70.471  1.00  0.00    -0.314 F  
HETATM   23  C   UNL     1     -12.203  16.213  72.378  1.00  0.00    -0.592 A  
HETATM   24  C   UNL     1     -12.963  15.285  73.086  1.00  0.00    -0.625 A  
HETATM   25  C   UNL     1     -13.179  14.013  72.553  1.00  0.00    -0.602 A  
ENDBRANCH  18  19
ENDBRANCH  17  18
ENDBRANCH  14  17
ENDBRANCH  10  11
ENDBRANCH   8  10
ENDBRANCH   2   8
TORSDOF 7
ENDMDL
MODEL       64
REMARK 921   NORMALIZED FREE ENERGY PREDICTED BY IDOCK:   -5.31 KCAL/MOL
REMARK 922        TOTAL FREE ENERGY PREDICTED BY IDOCK:   -8.27 KCAL/MOL
REMARK 923 INTER-LIGAND FREE ENERGY PREDICTED BY IDOCK:   -7.33 KCAL/MOL
REMARK 924 INTRA-LIGAND FREE ENERGY PREDICTED BY IDOCK:   -0.94 KCAL/MOL
REMARK 927      BINDING AFFINITY PREDICTED BY RF-SCORE:    0.00 PKD
ROOT
HETATM    1  C   UNL     1     -11.687   8.912  70.984  1.00  0.00    -0.340 C  
HETATM    2  C   UNL     1     -10.618   8.493  69.977  1.00  0.00    -0.227 C  
ENDROOT
BRANCH   2   3
HETATM    3  C   UNL     1     -10.449   6.954  70.001  1.00  0.00    -0.207 C  
HETATM    4  H2  UNL     1     -12.219   6.734  68.883  1.00  0.00     0.000 HD 
HETATM    5  H1  UNL     1     -11.327   5.256  69.363  1.00  0.00     0.000 HD 
HETATM    6  O   UNL     1      -9.528   6.358  70.550  1.00  0.00    -0.161 OA 
HETATM    7  N   UNL     1     -11.438   6.270  69.347  1.00  0.00    -0.394 N  
ENDBRANCH   2   3
BRANCH   2   8
HETATM    8  N   UNL     1     -10.927   8.876  68.581  1.00  0.00    -0.444 NA 
HETATM    9  H   UNL     1     -11.869   9.261  68.513  1.00  0.00     0.000 HD 
BRANCH   8  10
HETATM   10  C   UNL     1      -9.948   9.794  67.998  1.00  0.00    -0.158 C  
BRANCH  10  11
HETATM   11  C   UNL     1     -10.398  11.228  68.157  1.00  0.00    -0.205 A  
HETATM   12  C   UNL     1      -9.469  12.270  68.018  1.00  0.00    -0.206 A  
HETATM   13  C   UNL     1      -9.860  13.599  68.157  1.00  0.00    -0.236 A  
HETATM   14  C   UNL     1     -11.198  13.915  68.389  1.00  0.00    -0.264 A  
HETATM   15  C   UNL     1     -11.736  11.551  68.420  1.00  0.00    -0.372 A  
HETATM   16  C   UNL     1     -12.130  12.888  68.538  1.00  0.00    -0.158 A  
BRANCH  14  17
HETATM   17  O   UNL     1     -11.690  15.190  68.481  1.00  0.00    -0.330 OA 
BRANCH  17  18
HETATM   18  C   UNL     1     -11.224  15.925  69.617  1.00  0.00    -0.331 C  
BRANCH  18  19
HETATM   19  C   UNL     1     -12.050  15.633  70.845  1.00  0.00    -0.452 A  
HETATM   20  C   UNL     1     -11.458  15.429  72.097  1.00  0.00    -0.525 A  
HETATM   21  C   UNL     1     -12.246  15.073  73.185  1.00  0.00    -0.364 A  
HETATM   22  F   UNL     1     -11.672  14.872  74.377  1.00  0.00    -0.541 F  
HETATM   23  C   UNL     1     -13.620  14.901  73.052  1.00  0.00    -0.416 A  
HETATM   24  C   UNL     1     -14.219  15.094  71.809  1.00  0.00    -0.674 A  
HETATM   25  C   UNL     1     -13.437  15.454  70.710  1.00  0.00    -0.324 A  
ENDBRANCH  18  19
ENDBRANCH  17  18
ENDBRANCH  14  17
ENDBRANCH  10  11
ENDBRANCH   8  10
ENDBRANCH   2   8
TORSDOF 7
ENDMDL
MODEL       65
REMARK 921   NORMALIZED FREE ENERGY PREDICTED BY IDOCK:   -5.30 KCAL/MOL
REMARK 922        TOTAL FREE ENERGY PREDICTED BY IDOCK:   -8.25 KCAL/MOL
REMARK 923 INTER-LIGAND FREE ENERGY PREDICTED BY IDOCK:   -7.76 KCAL/MOL
REMARK 924 INTRA-LIGAND FREE ENERGY PREDICTED BY IDOCK:   -0.50 KCAL/MOL
REMARK 927      BINDING AFFINITY PREDICTED BY RF-SCORE:    0.00 PKD
ROOT
HETATM    1  C   UNL     1     -10.484   7.856  70.138  1.00  0.00    -0.231 C  
HETATM    2  C   UNL     1     -11.805   8.320  70.747  1.00  0.00    -0.162 C  
ENDROOT
BRANCH   2   3
HETATM    3  C   UNL     1     -12.414   7.186  71.607  1.00  0.00    -0.370 C  
HETATM    4  H2  UNL     1     -14.350   7.769  71.022  1.00  0.00     0.000 HD 
HETATM    5  H1  UNL     1     -14.181   6.376  72.137  1.00  0.00     0.000 HD 
HETATM    6  O   UNL     1     -11.765   6.393  72.282  1.00  0.00    -0.297 OA 
HETATM    7  N   UNL     1     -13.780   7.123  71.570  1.00  0.00    -0.359 N  
ENDBRANCH   2   3
BRANCH   2   8
HETATM    8  N   UNL     1     -11.676   9.509  71.620  1.00  0.00    -0.389 NA 
HETATM    9  H   UNL     1     -10.883  10.083  71.334  1.00  0.00     0.000 HD 
BRANCH   8  10
HETATM   10  C   UNL     1     -12.897  10.312  71.695  1.00  0.00    -0.463 C  
BRANCH  10  11
HETATM   11  C   UNL     1     -12.663  11.696  71.134  1.00  0.00    -0.426 A  
HETATM   12  C   UNL     1     -11.967  11.851  69.926  1.00  0.00    -0.398 A  
HETATM   13  C   UNL     1     -11.742  13.116  69.390  1.00  0.00    -0.386 A  
HETATM   14  C   UNL     1     -12.253  14.248  70.023  1.00  0.00    -0.359 A  
HETATM   15  C   UNL     1     -13.148  12.840  71.783  1.00  0.00    -0.455 A  
HETATM   16  C   UNL     1     -12.940  14.108  71.230  1.00  0.00    -0.426 A  
BRANCH  14  17
HETATM   17  O   UNL     1     -12.136  15.526  69.543  1.00  0.00    -0.344 OA 
BRANCH  17  18
HETATM   18  C   UNL     1     -11.391  15.637  68.327  1.00  0.00    -0.356 C  
BRANCH  18  19
HETATM   19  C   UNL     1     -10.400  16.772  68.385  1.00  0.00    -0.319 A  
HETATM   20  C   UNL     1     -10.721  18.052  67.917  1.00  0.00    -0.329 A  
HETATM   21  C   UNL     1      -9.750  19.047  67.902  1.00  0.00    -0.326 A  
HETATM   22  F   UNL     1     -10.063  20.266  67.446  1.00  0.00    -0.503 F  
HETATM   23  C   UNL     1      -8.453  18.792  68.335  1.00  0.00    -0.374 A  
HETATM   24  C   UNL     1      -8.120  17.520  68.796  1.00  0.00    -0.232 A  
HETATM   25  C   UNL     1      -9.088  16.514  68.816  1.00  0.00    -0.256 A  
ENDBRANCH  18  19
ENDBRANCH  17  18
ENDBRANCH  14  17
ENDBRANCH  10  11
ENDBRANCH   8  10
ENDBRANCH   2   8
TORSDOF 7
ENDMDL
MODEL       66
REMARK 921   NORMALIZED FREE ENERGY PREDICTED BY IDOCK:   -5.29 KCAL/MOL
REMARK 922        TOTAL FREE ENERGY PREDICTED BY IDOCK:   -8.25 KCAL/MOL
REMARK 923 INTER-LIGAND FREE ENERGY PREDICTED BY IDOCK:   -7.62 KCAL/MOL
REMARK 924 INTRA-LIGAND FREE ENERGY PREDICTED BY IDOCK:   -0.62 KCAL/MOL
REMARK 927      BINDING AFFINITY PREDICTED BY RF-SCORE:    0.00 PKD
ROOT
HETATM    1  C   UNL     1     -10.826   6.021  70.464  1.00  0.00    -0.382 C  
HETATM    2  C   UNL     1     -11.388   6.284  71.860  1.00  0.00    -0.299 C  
ENDROOT
BRANCH   2   3
HETATM    3  C   UNL     1     -10.802   5.261  72.863  1.00  0.00    -0.270 C  
HETATM    4  H2  UNL     1      -8.855   5.917  72.408  1.00  0.00     0.000 HD 
HETATM    5  H1  UNL     1      -9.050   4.608  73.615  1.00  0.00     0.000 HD 
HETATM    6  O   UNL     1     -11.466   4.479  73.536  1.00  0.00    -0.303 OA 
HETATM    7  N   UNL     1      -9.437   5.282  72.955  1.00  0.00    -0.144 N  
ENDBRANCH   2   3
BRANCH   2   8
HETATM    8  N   UNL     1     -11.081   7.635  72.384  1.00  0.00    -0.284 NA 
HETATM    9  H   UNL     1     -10.292   8.044  71.885  1.00  0.00     0.000 HD 
BRANCH   8  10
HETATM   10  C   UNL     1     -12.230   8.540  72.370  1.00  0.00    -0.366 C  
BRANCH  10  11
HETATM   11  C   UNL     1     -11.977   9.712  71.448  1.00  0.00    -0.480 A  
HETATM   12  C   UNL     1     -12.683  10.910  71.632  1.00  0.00    -0.498 A  
HETATM   13  C   UNL     1     -12.465  12.002  70.798  1.00  0.00    -0.372 A  
HETATM   14  C   UNL     1     -11.500  11.937  69.794  1.00  0.00    -0.229 A  
HETATM   15  C   UNL     1     -11.029   9.641  70.418  1.00  0.00    -0.356 A  
HETATM   16  C   UNL     1     -10.796  10.748  69.595  1.00  0.00    -0.294 A  
BRANCH  14  17
HETATM   17  O   UNL     1     -11.171  12.975  68.964  1.00  0.00    -0.254 OA 
BRANCH  17  18
HETATM   18  C   UNL     1     -12.120  13.226  67.924  1.00  0.00    -0.228 C  
BRANCH  18  19
HETATM   19  C   UNL     1     -11.543  12.931  66.562  1.00  0.00    -0.425 A  
HETATM   20  C   UNL     1     -12.212  13.294  65.386  1.00  0.00    -0.501 A  
HETATM   21  C   UNL     1     -11.693  12.923  64.151  1.00  0.00    -0.406 A  
HETATM   22  F   UNL     1     -12.342  13.267  63.033  1.00  0.00    -0.610 F  
HETATM   23  C   UNL     1     -10.519  12.183  64.059  1.00  0.00    -0.418 A  
HETATM   24  C   UNL     1      -9.849  11.809  65.222  1.00  0.00    -0.267 A  
HETATM   25  C   UNL     1     -10.361  12.178  66.467  1.00  0.00    -0.239 A  
ENDBRANCH  18  19
ENDBRANCH  17  18
ENDBRANCH  14  17
ENDBRANCH  10  11
ENDBRANCH   8  10
ENDBRANCH   2   8
TORSDOF 7
ENDMDL
MODEL       67
REMARK 921   NORMALIZED FREE ENERGY PREDICTED BY IDOCK:   -5.27 KCAL/MOL
REMARK 922        TOTAL FREE ENERGY PREDICTED BY IDOCK:   -8.21 KCAL/MOL
REMARK 923 INTER-LIGAND FREE ENERGY PREDICTED BY IDOCK:   -7.42 KCAL/MOL
REMARK 924 INTRA-LIGAND FREE ENERGY PREDICTED BY IDOCK:   -0.79 KCAL/MOL
REMARK 927      BINDING AFFINITY PREDICTED BY RF-SCORE:    0.00 PKD
ROOT
HETATM    1  C   UNL     1     -10.306   5.861  71.356  1.00  0.00    -0.271 C  
HETATM    2  C   UNL     1     -11.558   6.730  71.255  1.00  0.00    -0.320 C  
ENDROOT
BRANCH   2   3
HETATM    3  C   UNL     1     -11.562   7.779  72.393  1.00  0.00    -0.356 C  
HETATM    4  H2  UNL     1     -13.520   8.350  71.872  1.00  0.00     0.000 HD 
HETATM    5  H1  UNL     1     -12.727   9.187  73.244  1.00  0.00     0.000 HD 
HETATM    6  O   UNL     1     -10.627   7.987  73.159  1.00  0.00    -0.334 OA 
HETATM    7  N   UNL     1     -12.724   8.495  72.494  1.00  0.00    -0.333 N  
ENDBRANCH   2   3
BRANCH   2   8
HETATM    8  N   UNL     1     -11.669   7.471  69.978  1.00  0.00    -0.488 NA 
HETATM    9  H   UNL     1     -12.477   8.093  69.991  1.00  0.00     0.000 HD 
BRANCH   8  10
HETATM   10  C   UNL     1     -10.455   8.206  69.623  1.00  0.00    -0.224 C  
BRANCH  10  11
HETATM   11  C   UNL     1     -10.798   9.563  69.051  1.00  0.00    -0.184 A  
HETATM   12  C   UNL     1     -10.539   9.837  67.700  1.00  0.00    -0.333 A  
HETATM   13  C   UNL     1     -10.849  11.078  67.152  1.00  0.00    -0.336 A  
HETATM   14  C   UNL     1     -11.472  12.053  67.929  1.00  0.00    -0.330 A  
HETATM   15  C   UNL     1     -11.397  10.558  69.837  1.00  0.00    -0.380 A  
HETATM   16  C   UNL     1     -11.728  11.796  69.277  1.00  0.00    -0.398 A  
BRANCH  14  17
HETATM   17  O   UNL     1     -11.869  13.279  67.466  1.00  0.00    -0.346 OA 
BRANCH  17  18
HETATM   18  C   UNL     1     -11.756  14.339  68.420  1.00  0.00    -0.338 C  
BRANCH  18  19
HETATM   19  C   UNL     1     -11.110  15.562  67.818  1.00  0.00    -0.315 A  
HETATM   20  C   UNL     1     -10.967  16.751  68.545  1.00  0.00    -0.312 A  
HETATM   21  C   UNL     1     -10.451  17.883  67.926  1.00  0.00    -0.396 A  
HETATM   22  F   UNL     1     -10.325  19.017  68.625  1.00  0.00    -0.408 F  
HETATM   23  C   UNL     1     -10.081  17.863  66.585  1.00  0.00    -0.362 A  
HETATM   24  C   UNL     1     -10.225  16.688  65.850  1.00  0.00    -0.358 A  
HETATM   25  C   UNL     1     -10.742  15.545  66.462  1.00  0.00    -0.304 A  
ENDBRANCH  18  19
ENDBRANCH  17  18
ENDBRANCH  14  17
ENDBRANCH  10  11
ENDBRANCH   8  10
ENDBRANCH   2   8
TORSDOF 7
ENDMDL
MODEL       68
REMARK 921   NORMALIZED FREE ENERGY PREDICTED BY IDOCK:   -5.26 KCAL/MOL
REMARK 922        TOTAL FREE ENERGY PREDICTED BY IDOCK:   -8.20 KCAL/MOL
REMARK 923 INTER-LIGAND FREE ENERGY PREDICTED BY IDOCK:   -7.40 KCAL/MOL
REMARK 924 INTRA-LIGAND FREE ENERGY PREDICTED BY IDOCK:   -0.81 KCAL/MOL
REMARK 927      BINDING AFFINITY PREDICTED BY RF-SCORE:    0.00 PKD
ROOT
HETATM    1  C   UNL     1     -12.967  15.521  71.429  1.00  0.00    -0.553 C  
HETATM    2  C   UNL     1     -11.955  14.386  71.284  1.00  0.00    -0.291 C  
ENDROOT
BRANCH   2   3
HETATM    3  C   UNL     1     -12.677  13.022  71.401  1.00  0.00    -0.281 C  
HETATM    4  H2  UNL     1     -14.090  13.871  72.710  1.00  0.00     0.000 HD 
HETATM    5  H1  UNL     1     -14.250  12.135  72.297  1.00  0.00     0.000 HD 
HETATM    6  O   UNL     1     -12.329  11.993  70.831  1.00  0.00    -0.373 OA 
HETATM    7  N   UNL     1     -13.774  13.034  72.219  1.00  0.00    -0.557 N  
ENDBRANCH   2   3
BRANCH   2   8
HETATM    8  N   UNL     1     -11.234  14.389  69.992  1.00  0.00    -0.435 NA 
HETATM    9  H   UNL     1     -10.967  13.441  69.725  1.00  0.00     0.000 HD 
BRANCH   8  10
HETATM   10  C   UNL     1     -11.974  15.042  68.912  1.00  0.00    -0.254 C  
BRANCH  10  11
HETATM   11  C   UNL     1     -11.505  14.546  67.564  1.00  0.00    -0.375 A  
HETATM   12  C   UNL     1     -10.147  14.629  67.224  1.00  0.00    -0.236 A  
HETATM   13  C   UNL     1      -9.692  14.176  65.989  1.00  0.00    -0.297 A  
HETATM   14  C   UNL     1     -10.577  13.584  65.089  1.00  0.00    -0.355 A  
HETATM   15  C   UNL     1     -12.396  13.977  66.643  1.00  0.00    -0.408 A  
HETATM   16  C   UNL     1     -11.932  13.503  65.412  1.00  0.00    -0.406 A  
BRANCH  14  17
HETATM   17  O   UNL     1     -10.215  13.055  63.878  1.00  0.00    -0.378 OA 
BRANCH  17  18
HETATM   18  C   UNL     1     -10.819  11.793  63.578  1.00  0.00    -0.426 C  
BRANCH  18  19
HETATM   19  C   UNL     1      -9.917  10.643  63.948  1.00  0.00    -0.390 A  
HETATM   20  C   UNL     1      -9.153   9.969  62.987  1.00  0.00    -0.298 A  
HETATM   21  C   UNL     1      -8.405   8.856  63.353  1.00  0.00    -0.176 A  
HETATM   22  F   UNL     1      -7.684   8.214  62.427  1.00  0.00    -0.099 F  
HETATM   23  C   UNL     1      -8.409   8.387  64.662  1.00  0.00    -0.137 A  
HETATM   24  C   UNL     1      -9.171   9.044  65.626  1.00  0.00    -0.288 A  
HETATM   25  C   UNL     1      -9.925  10.164  65.269  1.00  0.00    -0.381 A  
ENDBRANCH  18  19
ENDBRANCH  17  18
ENDBRANCH  14  17
ENDBRANCH  10  11
ENDBRANCH   8  10
ENDBRANCH   2   8
TORSDOF 7
ENDMDL
MODEL       69
REMARK 921   NORMALIZED FREE ENERGY PREDICTED BY IDOCK:   -5.22 KCAL/MOL
REMARK 922        TOTAL FREE ENERGY PREDICTED BY IDOCK:   -8.15 KCAL/MOL
REMARK 923 INTER-LIGAND FREE ENERGY PREDICTED BY IDOCK:   -7.45 KCAL/MOL
REMARK 924 INTRA-LIGAND FREE ENERGY PREDICTED BY IDOCK:   -0.69 KCAL/MOL
REMARK 927      BINDING AFFINITY PREDICTED BY RF-SCORE:    0.00 PKD
ROOT
HETATM    1  C   UNL     1     -11.504  15.324  64.459  1.00  0.00    -0.318 C  
HETATM    2  C   UNL     1     -12.362  14.061  64.521  1.00  0.00    -0.378 C  
ENDROOT
BRANCH   2   3
HETATM    3  C   UNL     1     -11.644  12.903  63.786  1.00  0.00    -0.475 C  
HETATM    4  H2  UNL     1     -13.495  11.965  63.436  1.00  0.00     0.000 HD 
HETATM    5  H1  UNL     1     -12.010  11.167  62.831  1.00  0.00     0.000 HD 
HETATM    6  O   UNL     1     -10.431  12.822  63.622  1.00  0.00    -0.382 OA 
HETATM    7  N   UNL     1     -12.483  11.930  63.315  1.00  0.00    -0.519 N  
ENDBRANCH   2   3
BRANCH   2   8
HETATM    8  N   UNL     1     -12.645  13.597  65.897  1.00  0.00    -0.452 NA 
HETATM    9  H   UNL     1     -13.503  13.048  65.924  1.00  0.00     0.000 HD 
BRANCH   8  10
HETATM   10  C   UNL     1     -11.537  12.856  66.501  1.00  0.00    -0.371 C  
BRANCH  10  11
HETATM   11  C   UNL     1     -10.540  13.803  67.131  1.00  0.00    -0.277 A  
HETATM   12  C   UNL     1     -10.943  14.646  68.177  1.00  0.00    -0.269 A  
HETATM   13  C   UNL     1     -10.042  15.523  68.773  1.00  0.00    -0.211 A  
HETATM   14  C   UNL     1      -8.707  15.539  68.371  1.00  0.00    -0.174 A  
HETATM   15  C   UNL     1      -9.204  13.844  66.710  1.00  0.00    -0.267 A  
HETATM   16  C   UNL     1      -8.295  14.711  67.326  1.00  0.00    -0.234 A  
BRANCH  14  17
HETATM   17  O   UNL     1      -7.735  16.321  68.936  1.00  0.00    -0.193 OA 
BRANCH  17  18
HETATM   18  C   UNL     1      -7.299  17.410  68.117  1.00  0.00    -0.205 C  
BRANCH  18  19
HETATM   19  C   UNL     1      -8.431  18.355  67.799  1.00  0.00    -0.270 A  
HETATM   20  C   UNL     1      -9.047  19.124  68.794  1.00  0.00    -0.397 A  
HETATM   21  C   UNL     1     -10.147  19.913  68.477  1.00  0.00    -0.421 A  
HETATM   22  F   UNL     1     -10.734  20.640  69.435  1.00  0.00    -0.329 F  
HETATM   23  C   UNL     1     -10.659  19.946  67.184  1.00  0.00    -0.527 A  
HETATM   24  C   UNL     1     -10.059  19.179  66.188  1.00  0.00    -0.492 A  
HETATM   25  C   UNL     1      -8.953  18.383  66.495  1.00  0.00    -0.294 A  
ENDBRANCH  18  19
ENDBRANCH  17  18
ENDBRANCH  14  17
ENDBRANCH  10  11
ENDBRANCH   8  10
ENDBRANCH   2   8
TORSDOF 7
ENDMDL
MODEL       70
REMARK 921   NORMALIZED FREE ENERGY PREDICTED BY IDOCK:   -5.19 KCAL/MOL
REMARK 922        TOTAL FREE ENERGY PREDICTED BY IDOCK:   -8.10 KCAL/MOL
REMARK 923 INTER-LIGAND FREE ENERGY PREDICTED BY IDOCK:   -7.36 KCAL/MOL
REMARK 924 INTRA-LIGAND FREE ENERGY PREDICTED BY IDOCK:   -0.75 KCAL/MOL
REMARK 927      BINDING AFFINITY PREDICTED BY RF-SCORE:    0.00 PKD
ROOT
HETATM    1  C   UNL     1     -10.418   9.178  71.442  1.00  0.00    -0.414 C  
HETATM    2  C   UNL     1     -10.709   8.447  70.133  1.00  0.00    -0.236 C  
ENDROOT
BRANCH   2   3
HETATM    3  C   UNL     1     -11.605   7.215  70.409  1.00  0.00    -0.258 C  
HETATM    4  H2  UNL     1     -12.574   8.255  71.961  1.00  0.00     0.000 HD 
HETATM    5  H1  UNL     1     -13.092   6.576  71.610  1.00  0.00     0.000 HD 
HETATM    6  O   UNL     1     -11.548   6.154  69.794  1.00  0.00    -0.405 OA 
HETATM    7  N   UNL     1     -12.502   7.388  71.428  1.00  0.00    -0.353 N  
ENDBRANCH   2   3
BRANCH   2   8
HETATM    8  N   UNL     1     -11.407   9.278  69.126  1.00  0.00    -0.429 NA 
HETATM    9  H   UNL     1     -11.661  10.183  69.519  1.00  0.00     0.000 HD 
BRANCH   8  10
HETATM   10  C   UNL     1     -10.653   9.444  67.884  1.00  0.00    -0.237 C  
BRANCH  10  11
HETATM   11  C   UNL     1     -10.832  10.840  67.331  1.00  0.00    -0.345 A  
HETATM   12  C   UNL     1     -10.205  11.200  66.129  1.00  0.00    -0.293 A  
HETATM   13  C   UNL     1     -10.358  12.478  65.600  1.00  0.00    -0.294 A  
HETATM   14  C   UNL     1     -11.183  13.406  66.234  1.00  0.00    -0.305 A  
HETATM   15  C   UNL     1     -11.637  11.786  67.980  1.00  0.00    -0.386 A  
HETATM   16  C   UNL     1     -11.807  13.062  67.434  1.00  0.00    -0.411 A  
BRANCH  14  17
HETATM   17  O   UNL     1     -11.444  14.664  65.760  1.00  0.00    -0.342 OA 
BRANCH  17  18
HETATM   18  C   UNL     1     -10.280  15.450  65.491  1.00  0.00    -0.382 C  
BRANCH  18  19
HETATM   19  C   UNL     1     -10.054  16.494  66.556  1.00  0.00    -0.307 A  
HETATM   20  C   UNL     1     -10.574  17.789  66.438  1.00  0.00    -0.218 A  
HETATM   21  C   UNL     1     -10.267  18.748  67.396  1.00  0.00    -0.395 A  
HETATM   22  F   UNL     1     -10.761  19.985  67.271  1.00  0.00    -0.523 F  
HETATM   23  C   UNL     1      -9.438  18.449  68.472  1.00  0.00    -0.355 A  
HETATM   24  C   UNL     1      -8.909  17.166  68.596  1.00  0.00    -0.266 A  
HETATM   25  C   UNL     1      -9.212  16.195  67.640  1.00  0.00    -0.205 A  
ENDBRANCH  18  19
ENDBRANCH  17  18
ENDBRANCH  14  17
ENDBRANCH  10  11
ENDBRANCH   8  10
ENDBRANCH   2   8
TORSDOF 7
ENDMDL
MODEL       71
REMARK 921   NORMALIZED FREE ENERGY PREDICTED BY IDOCK:   -5.15 KCAL/MOL
REMARK 922        TOTAL FREE ENERGY PREDICTED BY IDOCK:   -8.06 KCAL/MOL
REMARK 923 INTER-LIGAND FREE ENERGY PREDICTED BY IDOCK:   -7.47 KCAL/MOL
REMARK 924 INTRA-LIGAND FREE ENERGY PREDICTED BY IDOCK:   -0.58 KCAL/MOL
REMARK 927      BINDING AFFINITY PREDICTED BY RF-SCORE:    0.00 PKD
ROOT
HETATM    1  C   UNL     1     -14.280  15.047  71.870  1.00  0.00    -0.649 C  
HETATM    2  C   UNL     1     -13.067  14.890  70.955  1.00  0.00    -0.398 C  
ENDROOT
BRANCH   2   3
HETATM    3  C   UNL     1     -11.923  15.815  71.438  1.00  0.00    -0.441 C  
HETATM    4  H2  UNL     1     -10.853  15.430  69.666  1.00  0.00     0.000 HD 
HETATM    5  H1  UNL     1     -10.123  16.529  70.879  1.00  0.00     0.000 HD 
HETATM    6  O   UNL     1     -11.912  16.418  72.506  1.00  0.00    -0.534 OA 
HETATM    7  N   UNL     1     -10.878  15.920  70.561  1.00  0.00    -0.308 N  
ENDBRANCH   2   3
BRANCH   2   8
HETATM    8  N   UNL     1     -12.525  13.513  70.911  1.00  0.00    -0.371 NA 
HETATM    9  H   UNL     1     -11.560  13.494  71.237  1.00  0.00     0.000 HD 
BRANCH   8  10
HETATM   10  C   UNL     1     -13.339  12.543  71.643  1.00  0.00    -0.196 C  
BRANCH  10  11
HETATM   11  C   UNL     1     -12.814  11.140  71.438  1.00  0.00    -0.544 A  
HETATM   12  C   UNL     1     -11.704  10.925  70.607  1.00  0.00    -0.418 A  
HETATM   13  C   UNL     1     -11.202   9.642  70.406  1.00  0.00    -0.342 A  
HETATM   14  C   UNL     1     -11.767   8.555  71.071  1.00  0.00    -0.275 A  
HETATM   15  C   UNL     1     -13.397  10.039  72.081  1.00  0.00    -0.469 A  
HETATM   16  C   UNL     1     -12.876   8.755  71.894  1.00  0.00    -0.423 A  
BRANCH  14  17
HETATM   17  O   UNL     1     -11.307   7.268  70.985  1.00  0.00    -0.259 OA 
BRANCH  17  18
HETATM   18  C   UNL     1     -11.886   6.501  69.925  1.00  0.00    -0.156 C  
BRANCH  18  19
HETATM   19  C   UNL     1     -10.834   5.761  69.136  1.00  0.00    -0.355 A  
HETATM   20  C   UNL     1     -10.731   5.891  67.746  1.00  0.00    -0.346 A  
HETATM   21  C   UNL     1      -9.810   5.122  67.045  1.00  0.00    -0.177 A  
HETATM   22  F   UNL     1      -9.723   5.248  65.715  1.00  0.00    -0.168 F  
HETATM   23  C   UNL     1      -8.989   4.210  67.700  1.00  0.00    -0.141 A  
HETATM   24  C   UNL     1      -9.088   4.066  69.082  1.00  0.00    -0.197 A  
HETATM   25  C   UNL     1     -10.009   4.834  69.796  1.00  0.00    -0.308 A  
ENDBRANCH  18  19
ENDBRANCH  17  18
ENDBRANCH  14  17
ENDBRANCH  10  11
ENDBRANCH   8  10
ENDBRANCH   2   8
TORSDOF 7
ENDMDL
MODEL       72
REMARK 921   NORMALIZED FREE ENERGY PREDICTED BY IDOCK:   -5.15 KCAL/MOL
REMARK 922        TOTAL FREE ENERGY PREDICTED BY IDOCK:   -8.04 KCAL/MOL
REMARK 923 INTER-LIGAND FREE ENERGY PREDICTED BY IDOCK:   -7.40 KCAL/MOL
REMARK 924 INTRA-LIGAND FREE ENERGY PREDICTED BY IDOCK:   -0.64 KCAL/MOL
REMARK 927      BINDING AFFINITY PREDICTED BY RF-SCORE:    0.00 PKD
ROOT
HETATM    1  C   UNL     1     -10.602   5.763  69.563  1.00  0.00    -0.390 C  
HETATM    2  C   UNL     1     -10.872   6.945  70.493  1.00  0.00    -0.253 C  
ENDROOT
BRANCH   2   3
HETATM    3  C   UNL     1     -11.887   6.530  71.586  1.00  0.00    -0.333 C  
HETATM    4  H2  UNL     1     -10.395   5.409  72.559  1.00  0.00     0.000 HD 
HETATM    5  H1  UNL     1     -12.036   5.443  73.276  1.00  0.00     0.000 HD 
HETATM    6  O   UNL     1     -13.064   6.875  71.617  1.00  0.00    -0.365 OA 
HETATM    7  N   UNL     1     -11.368   5.716  72.556  1.00  0.00    -0.296 N  
ENDBRANCH   2   3
BRANCH   2   8
HETATM    8  N   UNL     1      -9.665   7.449  71.186  1.00  0.00    -0.164 NA 
HETATM    9  H   UNL     1      -8.826   7.245  70.644  1.00  0.00     0.000 HD 
BRANCH   8  10
HETATM   10  C   UNL     1      -9.735   8.872  71.518  1.00  0.00    -0.302 C  
BRANCH  10  11
HETATM   11  C   UNL     1     -10.358   9.656  70.385  1.00  0.00    -0.350 A  
HETATM   12  C   UNL     1     -11.499  10.437  70.623  1.00  0.00    -0.438 A  
HETATM   13  C   UNL     1     -12.088  11.170  69.596  1.00  0.00    -0.406 A  
HETATM   14  C   UNL     1     -11.519  11.177  68.324  1.00  0.00    -0.303 A  
HETATM   15  C   UNL     1      -9.808   9.642  69.097  1.00  0.00    -0.189 A  
HETATM   16  C   UNL     1     -10.389  10.397  68.072  1.00  0.00    -0.212 A  
BRANCH  14  17
HETATM   17  O   UNL     1     -11.989  11.911  67.267  1.00  0.00    -0.605 OA 
BRANCH  17  18
HETATM   18  C   UNL     1     -11.037  12.119  66.219  1.00  0.00    -0.310 C  
BRANCH  18  19
HETATM   19  C   UNL     1     -10.588  13.557  66.154  1.00  0.00    -0.290 A  
HETATM   20  C   UNL     1     -11.273  14.507  65.387  1.00  0.00    -0.342 A  
HETATM   21  C   UNL     1     -10.775  15.800  65.279  1.00  0.00    -0.428 A  
HETATM   22  F   UNL     1     -11.433  16.700  64.538  1.00  0.00    -0.450 F  
HETATM   23  C   UNL     1      -9.594  16.170  65.913  1.00  0.00    -0.359 A  
HETATM   24  C   UNL     1      -8.899  15.232  66.672  1.00  0.00    -0.328 A  
HETATM   25  C   UNL     1      -9.391  13.930  66.788  1.00  0.00    -0.286 A  
ENDBRANCH  18  19
ENDBRANCH  17  18
ENDBRANCH  14  17
ENDBRANCH  10  11
ENDBRANCH   8  10
ENDBRANCH   2   8
TORSDOF 7
ENDMDL
MODEL       73
REMARK 921   NORMALIZED FREE ENERGY PREDICTED BY IDOCK:   -5.13 KCAL/MOL
REMARK 922        TOTAL FREE ENERGY PREDICTED BY IDOCK:   -8.02 KCAL/MOL
REMARK 923 INTER-LIGAND FREE ENERGY PREDICTED BY IDOCK:   -7.14 KCAL/MOL
REMARK 924 INTRA-LIGAND FREE ENERGY PREDICTED BY IDOCK:   -0.88 KCAL/MOL
REMARK 927      BINDING AFFINITY PREDICTED BY RF-SCORE:    0.00 PKD
ROOT
HETATM    1  C   UNL     1     -10.309   7.230  71.534  1.00  0.00    -0.217 C  
HETATM    2  C   UNL     1     -11.575   6.660  70.897  1.00  0.00    -0.361 C  
ENDROOT
BRANCH   2   3
HETATM    3  C   UNL     1     -12.816   7.423  71.421  1.00  0.00    -0.365 C  
HETATM    4  H2  UNL     1     -11.594   9.043  71.979  1.00  0.00     0.000 HD 
HETATM    5  H1  UNL     1     -13.355   9.161  72.286  1.00  0.00     0.000 HD 
HETATM    6  O   UNL     1     -13.965   6.994  71.396  1.00  0.00    -0.319 OA 
HETATM    7  N   UNL     1     -12.538   8.658  71.940  1.00  0.00    -0.337 N  
ENDBRANCH   2   3
BRANCH   2   8
HETATM    8  N   UNL     1     -11.596   6.754  69.420  1.00  0.00    -0.624 NA 
HETATM    9  H   UNL     1     -12.318   7.404  69.110  1.00  0.00     0.000 HD 
BRANCH   8  10
HETATM   10  C   UNL     1     -10.299   7.105  68.840  1.00  0.00    -0.196 C  
BRANCH  10  11
HETATM   11  C   UNL     1     -10.403   8.374  68.024  1.00  0.00    -0.270 A  
HETATM   12  C   UNL     1     -10.899   9.545  68.616  1.00  0.00    -0.177 A  
HETATM   13  C   UNL     1     -11.000  10.726  67.885  1.00  0.00    -0.344 A  
HETATM   14  C   UNL     1     -10.561  10.772  66.563  1.00  0.00    -0.218 A  
HETATM   15  C   UNL     1      -9.991   8.419  66.686  1.00  0.00    -0.354 A  
HETATM   16  C   UNL     1     -10.074   9.612  65.960  1.00  0.00    -0.318 A  
BRANCH  14  17
HETATM   17  O   UNL     1     -10.564  11.898  65.783  1.00  0.00    -0.250 OA 
BRANCH  17  18
HETATM   18  C   UNL     1     -11.736  12.708  65.916  1.00  0.00    -0.420 C  
BRANCH  18  19
HETATM   19  C   UNL     1     -11.414  14.058  66.507  1.00  0.00    -0.368 A  
HETATM   20  C   UNL     1     -10.545  14.952  65.868  1.00  0.00    -0.334 A  
HETATM   21  C   UNL     1     -10.202  16.147  66.490  1.00  0.00    -0.297 A  
HETATM   22  F   UNL     1      -9.366  16.993  65.876  1.00  0.00    -0.275 F  
HETATM   23  C   UNL     1     -10.698  16.471  67.748  1.00  0.00    -0.329 A  
HETATM   24  C   UNL     1     -11.557  15.586  68.397  1.00  0.00    -0.368 A  
HETATM   25  C   UNL     1     -11.909  14.384  67.781  1.00  0.00    -0.402 A  
ENDBRANCH  18  19
ENDBRANCH  17  18
ENDBRANCH  14  17
ENDBRANCH  10  11
ENDBRANCH   8  10
ENDBRANCH   2   8
TORSDOF 7
ENDMDL
MODEL       74
REMARK 921   NORMALIZED FREE ENERGY PREDICTED BY IDOCK:   -5.12 KCAL/MOL
REMARK 922        TOTAL FREE ENERGY PREDICTED BY IDOCK:   -8.01 KCAL/MOL
REMARK 923 INTER-LIGAND FREE ENERGY PREDICTED BY IDOCK:   -7.47 KCAL/MOL
REMARK 924 INTRA-LIGAND FREE ENERGY PREDICTED BY IDOCK:   -0.54 KCAL/MOL
REMARK 927      BINDING AFFINITY PREDICTED BY RF-SCORE:    0.00 PKD
ROOT
HETATM    1  C   UNL     1      -8.925   9.811  62.810  1.00  0.00    -0.274 C  
HETATM    2  C   UNL     1      -9.849  10.440  63.850  1.00  0.00    -0.267 C  
ENDROOT
BRANCH   2   3
HETATM    3  C   UNL     1      -9.567   9.825  65.242  1.00  0.00    -0.300 C  
HETATM    4  H2  UNL     1      -8.590   8.196  64.335  1.00  0.00     0.000 HD 
HETATM    5  H1  UNL     1      -8.701   8.232  66.122  1.00  0.00     0.000 HD 
HETATM    6  O   UNL     1      -9.909  10.321  66.311  1.00  0.00    -0.198 OA 
HETATM    7  N   UNL     1      -8.887   8.638  65.205  1.00  0.00    -0.170 N  
ENDBRANCH   2   3
BRANCH   2   8
HETATM    8  N   UNL     1      -9.692  11.906  63.982  1.00  0.00    -0.488 NA 
HETATM    9  H   UNL     1      -9.021  12.260  63.301  1.00  0.00     0.000 HD 
BRANCH   8  10
HETATM   10  C   UNL     1     -10.956  12.638  63.892  1.00  0.00    -0.424 C  
BRANCH  10  11
HETATM   11  C   UNL     1     -11.096  13.608  65.043  1.00  0.00    -0.338 A  
HETATM   12  C   UNL     1     -10.753  14.956  64.866  1.00  0.00    -0.426 A  
HETATM   13  C   UNL     1     -10.877  15.867  65.911  1.00  0.00    -0.237 A  
HETATM   14  C   UNL     1     -11.395  15.459  67.139  1.00  0.00    -0.203 A  
HETATM   15  C   UNL     1     -11.588  13.196  66.290  1.00  0.00    -0.399 A  
HETATM   16  C   UNL     1     -11.732  14.119  67.331  1.00  0.00    -0.422 A  
BRANCH  14  17
HETATM   17  O   UNL     1     -11.610  16.291  68.206  1.00  0.00    -0.301 OA 
BRANCH  17  18
HETATM   18  C   UNL     1     -10.427  16.655  68.923  1.00  0.00    -0.322 C  
BRANCH  18  19
HETATM   19  C   UNL     1      -9.792  17.899  68.353  1.00  0.00    -0.355 A  
HETATM   20  C   UNL     1      -8.424  18.158  68.497  1.00  0.00    -0.312 A  
HETATM   21  C   UNL     1      -7.894  19.358  68.039  1.00  0.00    -0.302 A  
HETATM   22  F   UNL     1      -6.586  19.601  68.187  1.00  0.00    -0.255 F  
HETATM   23  C   UNL     1      -8.704  20.320  67.445  1.00  0.00    -0.428 A  
HETATM   24  C   UNL     1     -10.068  20.078  67.303  1.00  0.00    -0.577 A  
HETATM   25  C   UNL     1     -10.610  18.875  67.759  1.00  0.00    -0.471 A  
ENDBRANCH  18  19
ENDBRANCH  17  18
ENDBRANCH  14  17
ENDBRANCH  10  11
ENDBRANCH   8  10
ENDBRANCH   2   8
TORSDOF 7
ENDMDL
MODEL       75
REMARK 921   NORMALIZED FREE ENERGY PREDICTED BY IDOCK:   -5.11 KCAL/MOL
REMARK 922        TOTAL FREE ENERGY PREDICTED BY IDOCK:   -8.00 KCAL/MOL
REMARK 923 INTER-LIGAND FREE ENERGY PREDICTED BY IDOCK:   -7.33 KCAL/MOL
REMARK 924 INTRA-LIGAND FREE ENERGY PREDICTED BY IDOCK:   -0.67 KCAL/MOL
REMARK 927      BINDING AFFINITY PREDICTED BY RF-SCORE:    0.00 PKD
ROOT
HETATM    1  C   UNL     1     -11.005   9.843  70.819  1.00  0.00    -0.407 C  
HETATM    2  C   UNL     1     -10.498   9.340  69.469  1.00  0.00    -0.220 C  
ENDROOT
BRANCH   2   3
HETATM    3  C   UNL     1     -10.328   7.802  69.512  1.00  0.00    -0.219 C  
HETATM    4  H2  UNL     1      -8.244   8.018  69.309  1.00  0.00     0.000 HD 
HETATM    5  H1  UNL     1      -8.919   6.363  69.435  1.00  0.00     0.000 HD 
HETATM    6  O   UNL     1     -11.247   6.998  69.625  1.00  0.00    -0.243 OA 
HETATM    7  N   UNL     1      -9.031   7.376  69.407  1.00  0.00    -0.140 N  
ENDBRANCH   2   3
BRANCH   2   8
HETATM    8  N   UNL     1     -11.402   9.648  68.338  1.00  0.00    -0.502 NA 
HETATM    9  H   UNL     1     -12.141  10.286  68.630  1.00  0.00     0.000 HD 
BRANCH   8  10
HETATM   10  C   UNL     1     -10.705  10.165  67.159  1.00  0.00    -0.221 C  
BRANCH  10  11
HETATM   11  C   UNL     1     -10.789  11.674  67.107  1.00  0.00    -0.306 A  
HETATM   12  C   UNL     1      -9.871  12.397  66.331  1.00  0.00    -0.249 A  
HETATM   13  C   UNL     1      -9.931  13.786  66.266  1.00  0.00    -0.312 A  
HETATM   14  C   UNL     1     -10.940  14.477  66.934  1.00  0.00    -0.316 A  
HETATM   15  C   UNL     1     -11.784  12.376  67.801  1.00  0.00    -0.413 A  
HETATM   16  C   UNL     1     -11.855  13.770  67.716  1.00  0.00    -0.404 A  
BRANCH  14  17
HETATM   17  O   UNL     1     -11.118  15.835  66.882  1.00  0.00    -0.260 OA 
BRANCH  17  18
HETATM   18  C   UNL     1     -10.810  16.520  68.099  1.00  0.00    -0.345 C  
BRANCH  18  19
HETATM   19  C   UNL     1     -10.036  17.789  67.842  1.00  0.00    -0.342 A  
HETATM   20  C   UNL     1      -8.806  18.039  68.463  1.00  0.00    -0.304 A  
HETATM   21  C   UNL     1      -8.170  19.260  68.271  1.00  0.00    -0.337 A  
HETATM   22  F   UNL     1      -6.998  19.493  68.874  1.00  0.00    -0.323 F  
HETATM   23  C   UNL     1      -8.740  20.251  67.479  1.00  0.00    -0.401 A  
HETATM   24  C   UNL     1      -9.967  20.017  66.863  1.00  0.00    -0.584 A  
HETATM   25  C   UNL     1     -10.614  18.794  67.047  1.00  0.00    -0.483 A  
ENDBRANCH  18  19
ENDBRANCH  17  18
ENDBRANCH  14  17
ENDBRANCH  10  11
ENDBRANCH   8  10
ENDBRANCH   2   8
TORSDOF 7
ENDMDL
MODEL       76
REMARK 921   NORMALIZED FREE ENERGY PREDICTED BY IDOCK:   -5.09 KCAL/MOL
REMARK 922        TOTAL FREE ENERGY PREDICTED BY IDOCK:   -7.97 KCAL/MOL
REMARK 923 INTER-LIGAND FREE ENERGY PREDICTED BY IDOCK:   -7.34 KCAL/MOL
REMARK 924 INTRA-LIGAND FREE ENERGY PREDICTED BY IDOCK:   -0.62 KCAL/MOL
REMARK 927      BINDING AFFINITY PREDICTED BY RF-SCORE:    0.00 PKD
ROOT
HETATM    1  C   UNL     1      -9.757   8.480  70.474  1.00  0.00    -0.202 C  
HETATM    2  C   UNL     1     -11.270   8.664  70.372  1.00  0.00    -0.218 C  
ENDROOT
BRANCH   2   3
HETATM    3  C   UNL     1     -11.869   8.869  71.785  1.00  0.00    -0.358 C  
HETATM    4  H2  UNL     1     -12.792  10.649  71.144  1.00  0.00     0.000 HD 
HETATM    5  H1  UNL     1     -13.027  10.134  72.844  1.00  0.00     0.000 HD 
HETATM    6  O   UNL     1     -11.699   8.113  72.736  1.00  0.00    -0.403 OA 
HETATM    7  N   UNL     1     -12.632   9.998  71.913  1.00  0.00    -0.388 N  
ENDBRANCH   2   3
BRANCH   2   8
HETATM    8  N   UNL     1     -11.677   9.827  69.552  1.00  0.00    -0.450 NA 
HETATM    9  H   UNL     1     -11.495  10.699  70.047  1.00  0.00     0.000 HD 
BRANCH   8  10
HETATM   10  C   UNL     1     -11.065   9.846  68.223  1.00  0.00    -0.150 C  
BRANCH  10  11
HETATM   11  C   UNL     1     -10.826  11.267  67.764  1.00  0.00    -0.284 A  
HETATM   12  C   UNL     1     -11.718  11.869  66.865  1.00  0.00    -0.291 A  
HETATM   13  C   UNL     1     -11.519  13.176  66.431  1.00  0.00    -0.374 A  
HETATM   14  C   UNL     1     -10.454  13.926  66.926  1.00  0.00    -0.276 A  
HETATM   15  C   UNL     1      -9.739  12.015  68.236  1.00  0.00    -0.205 A  
HETATM   16  C   UNL     1      -9.554  13.336  67.815  1.00  0.00    -0.214 A  
BRANCH  14  17
HETATM   17  O   UNL     1     -10.210  15.235  66.606  1.00  0.00    -0.259 OA 
BRANCH  17  18
HETATM   18  C   UNL     1      -9.550  15.983  67.631  1.00  0.00    -0.218 C  
BRANCH  18  19
HETATM   19  C   UNL     1      -9.847  17.458  67.523  1.00  0.00    -0.277 A  
HETATM   20  C   UNL     1     -10.355  18.021  66.346  1.00  0.00    -0.382 A  
HETATM   21  C   UNL     1     -10.529  19.397  66.255  1.00  0.00    -0.493 A  
HETATM   22  F   UNL     1     -11.008  19.927  65.124  1.00  0.00    -0.568 F  
HETATM   23  C   UNL     1     -10.195  20.234  67.314  1.00  0.00    -0.495 A  
HETATM   24  C   UNL     1      -9.681  19.687  68.488  1.00  0.00    -0.493 A  
HETATM   25  C   UNL     1      -9.504  18.306  68.590  1.00  0.00    -0.343 A  
ENDBRANCH  18  19
ENDBRANCH  17  18
ENDBRANCH  14  17
ENDBRANCH  10  11
ENDBRANCH   8  10
ENDBRANCH   2   8
TORSDOF 7
ENDMDL
MODEL       77
REMARK 921   NORMALIZED FREE ENERGY PREDICTED BY IDOCK:   -5.09 KCAL/MOL
REMARK 922        TOTAL FREE ENERGY PREDICTED BY IDOCK:   -7.96 KCAL/MOL
REMARK 923 INTER-LIGAND FREE ENERGY PREDICTED BY IDOCK:   -7.38 KCAL/MOL
REMARK 924 INTRA-LIGAND FREE ENERGY PREDICTED BY IDOCK:   -0.58 KCAL/MOL
REMARK 927      BINDING AFFINITY PREDICTED BY RF-SCORE:    0.00 PKD
ROOT
HETATM    1  C   UNL     1     -10.749  19.088  67.020  1.00  0.00    -0.516 C  
HETATM    2  C   UNL     1      -9.838  18.061  66.350  1.00  0.00    -0.340 C  
ENDROOT
BRANCH   2   3
HETATM    3  C   UNL     1      -8.363  18.516  66.461  1.00  0.00    -0.281 C  
HETATM    4  H2  UNL     1      -8.814  19.577  68.222  1.00  0.00     0.000 HD 
HETATM    5  H1  UNL     1      -7.127  19.609  67.618  1.00  0.00     0.000 HD 
HETATM    6  O   UNL     1      -7.476  18.219  65.668  1.00  0.00    -0.532 OA 
HETATM    7  N   UNL     1      -8.099  19.309  67.545  1.00  0.00    -0.272 N  
ENDBRANCH   2   3
BRANCH   2   8
HETATM    8  N   UNL     1      -9.924  16.708  66.943  1.00  0.00    -0.262 NA 
HETATM    9  H   UNL     1     -10.511  16.716  67.777  1.00  0.00     0.000 HD 
BRANCH   8  10
HETATM   10  C   UNL     1     -10.376  15.685  66.000  1.00  0.00    -0.335 C  
BRANCH  10  11
HETATM   11  C   UNL     1     -10.861  14.456  66.735  1.00  0.00    -0.301 A  
HETATM   12  C   UNL     1     -11.209  14.545  68.091  1.00  0.00    -0.301 A  
HETATM   13  C   UNL     1     -11.661  13.427  68.786  1.00  0.00    -0.363 A  
HETATM   14  C   UNL     1     -11.821  12.210  68.128  1.00  0.00    -0.299 A  
HETATM   15  C   UNL     1     -10.996  13.221  66.085  1.00  0.00    -0.292 A  
HETATM   16  C   UNL     1     -11.471  12.105  66.782  1.00  0.00    -0.418 A  
BRANCH  14  17
HETATM   17  O   UNL     1     -12.314  11.071  68.710  1.00  0.00    -0.533 OA 
BRANCH  17  18
HETATM   18  C   UNL     1     -11.995  10.928  70.097  1.00  0.00    -0.352 C  
BRANCH  18  19
HETATM   19  C   UNL     1     -11.738   9.487  70.462  1.00  0.00    -0.285 A  
HETATM   20  C   UNL     1     -10.735   8.738  69.836  1.00  0.00    -0.228 A  
HETATM   21  C   UNL     1     -10.590   7.388  70.135  1.00  0.00    -0.230 A  
HETATM   22  F   UNL     1      -9.634   6.677  69.527  1.00  0.00    -0.146 F  
HETATM   23  C   UNL     1     -11.437   6.759  71.042  1.00  0.00    -0.372 A  
HETATM   24  C   UNL     1     -12.443   7.492  71.666  1.00  0.00    -0.371 A  
HETATM   25  C   UNL     1     -12.596   8.849  71.374  1.00  0.00    -0.351 A  
ENDBRANCH  18  19
ENDBRANCH  17  18
ENDBRANCH  14  17
ENDBRANCH  10  11
ENDBRANCH   8  10
ENDBRANCH   2   8
TORSDOF 7
ENDMDL
MODEL       78
REMARK 921   NORMALIZED FREE ENERGY PREDICTED BY IDOCK:   -5.08 KCAL/MOL
REMARK 922        TOTAL FREE ENERGY PREDICTED BY IDOCK:   -7.95 KCAL/MOL
REMARK 923 INTER-LIGAND FREE ENERGY PREDICTED BY IDOCK:   -7.55 KCAL/MOL
REMARK 924 INTRA-LIGAND FREE ENERGY PREDICTED BY IDOCK:   -0.40 KCAL/MOL
REMARK 927      BINDING AFFINITY PREDICTED BY RF-SCORE:    0.00 PKD
ROOT
HETATM    1  C   UNL     1     -10.189  10.208  65.623  1.00  0.00    -0.288 C  
HETATM    2  C   UNL     1     -10.713  11.576  65.189  1.00  0.00    -0.289 C  
ENDROOT
BRANCH   2   3
HETATM    3  C   UNL     1     -10.869  11.613  63.649  1.00  0.00    -0.432 C  
HETATM    4  H2  UNL     1     -12.939  11.929  63.858  1.00  0.00     0.000 HD 
HETATM    5  H1  UNL     1     -12.256  11.837  62.204  1.00  0.00     0.000 HD 
HETATM    6  O   UNL     1      -9.951  11.475  62.847  1.00  0.00    -0.330 OA 
HETATM    7  N   UNL     1     -12.152  11.813  63.219  1.00  0.00    -0.387 N  
ENDBRANCH   2   3
BRANCH   2   8
HETATM    8  N   UNL     1     -12.029  11.924  65.770  1.00  0.00    -0.406 NA 
HETATM    9  H   UNL     1     -12.578  11.084  65.949  1.00  0.00     0.000 HD 
BRANCH   8  10
HETATM   10  C   UNL     1     -11.934  12.750  66.974  1.00  0.00    -0.295 C  
BRANCH  10  11
HETATM   11  C   UNL     1     -11.427  14.133  66.637  1.00  0.00    -0.378 A  
HETATM   12  C   UNL     1     -11.598  14.642  65.341  1.00  0.00    -0.345 A  
HETATM   13  C   UNL     1     -11.142  15.915  65.008  1.00  0.00    -0.370 A  
HETATM   14  C   UNL     1     -10.551  16.723  65.977  1.00  0.00    -0.228 A  
HETATM   15  C   UNL     1     -10.805  14.939  67.600  1.00  0.00    -0.286 A  
HETATM   16  C   UNL     1     -10.367  16.226  67.268  1.00  0.00    -0.285 A  
BRANCH  14  17
HETATM   17  O   UNL     1     -10.126  18.008  65.763  1.00  0.00    -0.564 OA 
BRANCH  17  18
HETATM   18  C   UNL     1     -10.275  18.877  66.889  1.00  0.00    -0.386 C  
BRANCH  18  19
HETATM   19  C   UNL     1      -8.941  19.375  67.388  1.00  0.00    -0.354 A  
HETATM   20  C   UNL     1      -8.045  20.046  66.547  1.00  0.00    -0.346 A  
HETATM   21  C   UNL     1      -6.789  20.407  67.020  1.00  0.00    -0.261 A  
HETATM   22  F   UNL     1      -5.936  21.042  66.207  1.00  0.00    -0.233 F  
HETATM   23  C   UNL     1      -6.396  20.102  68.319  1.00  0.00    -0.322 A  
HETATM   24  C   UNL     1      -7.276  19.428  69.163  1.00  0.00    -0.377 A  
HETATM   25  C   UNL     1      -8.540  19.062  68.698  1.00  0.00    -0.389 A  
ENDBRANCH  18  19
ENDBRANCH  17  18
ENDBRANCH  14  17
ENDBRANCH  10  11
ENDBRANCH   8  10
ENDBRANCH   2   8
TORSDOF 7
ENDMDL
MODEL       79
REMARK 921   NORMALIZED FREE ENERGY PREDICTED BY IDOCK:   -5.08 KCAL/MOL
REMARK 922        TOTAL FREE ENERGY PREDICTED BY IDOCK:   -7.94 KCAL/MOL
REMARK 923 INTER-LIGAND FREE ENERGY PREDICTED BY IDOCK:   -7.12 KCAL/MOL
REMARK 924 INTRA-LIGAND FREE ENERGY PREDICTED BY IDOCK:   -0.82 KCAL/MOL
REMARK 927      BINDING AFFINITY PREDICTED BY RF-SCORE:    0.00 PKD
ROOT
HETATM    1  C   UNL     1     -11.671  15.859  72.088  1.00  0.00    -0.586 C  
HETATM    2  C   UNL     1     -12.183  14.660  71.292  1.00  0.00    -0.348 C  
ENDROOT
BRANCH   2   3
HETATM    3  C   UNL     1     -13.336  13.971  72.062  1.00  0.00    -0.427 C  
HETATM    4  H2  UNL     1     -12.624  12.085  71.459  1.00  0.00     0.000 HD 
HETATM    5  H1  UNL     1     -14.088  12.151  72.489  1.00  0.00     0.000 HD 
HETATM    6  O   UNL     1     -14.204  14.560  72.698  1.00  0.00    -0.499 OA 
HETATM    7  N   UNL     1     -13.329  12.605  71.982  1.00  0.00    -0.504 N  
ENDBRANCH   2   3
BRANCH   2   8
HETATM    8  N   UNL     1     -12.702  15.011  69.950  1.00  0.00    -0.602 NA 
HETATM    9  H   UNL     1     -13.366  15.782  70.011  1.00  0.00     0.000 HD 
BRANCH   8  10
HETATM   10  C   UNL     1     -11.650  15.306  68.977  1.00  0.00    -0.343 C  
BRANCH  10  11
HETATM   11  C   UNL     1     -11.279  14.066  68.196  1.00  0.00    -0.299 A  
HETATM   12  C   UNL     1     -12.132  13.597  67.186  1.00  0.00    -0.404 A  
HETATM   13  C   UNL     1     -11.810  12.459  66.452  1.00  0.00    -0.421 A  
HETATM   14  C   UNL     1     -10.604  11.797  66.678  1.00  0.00    -0.240 A  
HETATM   15  C   UNL     1     -10.082  13.379  68.440  1.00  0.00    -0.244 A  
HETATM   16  C   UNL     1      -9.751  12.249  67.685  1.00  0.00    -0.194 A  
BRANCH  14  17
HETATM   17  O   UNL     1     -10.172  10.708  65.968  1.00  0.00    -0.242 OA 
BRANCH  17  18
HETATM   18  C   UNL     1      -9.133   9.959  66.606  1.00  0.00    -0.147 C  
BRANCH  18  19
HETATM   19  C   UNL     1      -9.662   8.690  67.226  1.00  0.00    -0.241 A  
HETATM   20  C   UNL     1     -10.324   7.720  66.464  1.00  0.00    -0.126 A  
HETATM   21  C   UNL     1     -10.877   6.608  67.087  1.00  0.00    -0.401 A  
HETATM   22  F   UNL     1     -11.515   5.690  66.352  1.00  0.00    -0.132 F  
HETATM   23  C   UNL     1     -10.796   6.443  68.466  1.00  0.00    -0.382 A  
HETATM   24  C   UNL     1     -10.146   7.405  69.236  1.00  0.00    -0.186 A  
HETATM   25  C   UNL     1      -9.586   8.526  68.619  1.00  0.00    -0.153 A  
ENDBRANCH  18  19
ENDBRANCH  17  18
ENDBRANCH  14  17
ENDBRANCH  10  11
ENDBRANCH   8  10
ENDBRANCH   2   8
TORSDOF 7
ENDMDL
MODEL       80
REMARK 921   NORMALIZED FREE ENERGY PREDICTED BY IDOCK:   -5.05 KCAL/MOL
REMARK 922        TOTAL FREE ENERGY PREDICTED BY IDOCK:   -7.91 KCAL/MOL
REMARK 923 INTER-LIGAND FREE ENERGY PREDICTED BY IDOCK:   -7.31 KCAL/MOL
REMARK 924 INTRA-LIGAND FREE ENERGY PREDICTED BY IDOCK:   -0.60 KCAL/MOL
REMARK 927      BINDING AFFINITY PREDICTED BY RF-SCORE:    0.00 PKD
ROOT
HETATM    1  C   UNL     1     -10.466  19.927  65.915  1.00  0.00    -0.567 C  
HETATM    2  C   UNL     1      -9.166  19.234  66.321  1.00  0.00    -0.331 C  
ENDROOT
BRANCH   2   3
HETATM    3  C   UNL     1      -9.045  19.210  67.864  1.00  0.00    -0.302 C  
HETATM    4  H2  UNL     1     -10.995  18.434  68.015  1.00  0.00     0.000 HD 
HETATM    5  H1  UNL     1     -10.077  18.725  69.526  1.00  0.00     0.000 HD 
HETATM    6  O   UNL     1      -8.058  19.573  68.495  1.00  0.00    -0.337 OA 
HETATM    7  N   UNL     1     -10.157  18.741  68.509  1.00  0.00    -0.390 N  
ENDBRANCH   2   3
BRANCH   2   8
HETATM    8  N   UNL     1      -9.065  17.833  65.853  1.00  0.00    -0.512 NA 
HETATM    9  H   UNL     1      -9.140  17.785  64.838  1.00  0.00     0.000 HD 
BRANCH   8  10
HETATM   10  C   UNL     1      -7.857  17.150  66.316  1.00  0.00    -0.316 C  
BRANCH  10  11
HETATM   11  C   UNL     1      -8.171  15.733  66.740  1.00  0.00    -0.302 A  
HETATM   12  C   UNL     1      -7.256  15.022  67.529  1.00  0.00    -0.228 A  
HETATM   13  C   UNL     1      -7.525  13.717  67.933  1.00  0.00    -0.153 A  
HETATM   14  C   UNL     1      -8.737  13.116  67.599  1.00  0.00    -0.192 A  
HETATM   15  C   UNL     1      -9.375  15.113  66.381  1.00  0.00    -0.332 A  
HETATM   16  C   UNL     1      -9.653  13.810  66.807  1.00  0.00    -0.283 A  
BRANCH  14  17
HETATM   17  O   UNL     1      -9.119  11.862  67.999  1.00  0.00    -0.175 OA 
BRANCH  17  18
HETATM   18  C   UNL     1     -10.534  11.672  68.084  1.00  0.00    -0.195 C  
BRANCH  18  19
HETATM   19  C   UNL     1     -10.916  10.891  69.317  1.00  0.00    -0.295 A  
HETATM   20  C   UNL     1     -11.999  11.270  70.120  1.00  0.00    -0.452 A  
HETATM   21  C   UNL     1     -12.263  10.579  71.297  1.00  0.00    -0.368 A  
HETATM   22  F   UNL     1     -13.296  10.952  72.062  1.00  0.00    -0.533 F  
HETATM   23  C   UNL     1     -11.460   9.519  71.704  1.00  0.00    -0.433 A  
HETATM   24  C   UNL     1     -10.375   9.138  70.917  1.00  0.00    -0.349 A  
HETATM   25  C   UNL     1     -10.102   9.824  69.732  1.00  0.00    -0.268 A  
ENDBRANCH  18  19
ENDBRANCH  17  18
ENDBRANCH  14  17
ENDBRANCH  10  11
ENDBRANCH   8  10
ENDBRANCH   2   8
TORSDOF 7
ENDMDL
MODEL       81
REMARK 921   NORMALIZED FREE ENERGY PREDICTED BY IDOCK:   -5.03 KCAL/MOL
REMARK 922        TOTAL FREE ENERGY PREDICTED BY IDOCK:   -7.89 KCAL/MOL
REMARK 923 INTER-LIGAND FREE ENERGY PREDICTED BY IDOCK:   -7.15 KCAL/MOL
REMARK 924 INTRA-LIGAND FREE ENERGY PREDICTED BY IDOCK:   -0.74 KCAL/MOL
REMARK 927      BINDING AFFINITY PREDICTED BY RF-SCORE:    0.00 PKD
ROOT
HETATM    1  C   UNL     1     -10.897   7.141  67.255  1.00  0.00    -0.382 C  
HETATM    2  C   UNL     1     -10.338   8.560  67.342  1.00  0.00    -0.286 C  
ENDROOT
BRANCH   2   3
HETATM    3  C   UNL     1      -9.637   8.931  66.013  1.00  0.00    -0.250 C  
HETATM    4  H2  UNL     1      -8.154   7.483  66.382  1.00  0.00     0.000 HD 
HETATM    5  H1  UNL     1      -8.042   8.450  64.878  1.00  0.00     0.000 HD 
HETATM    6  O   UNL     1     -10.024   9.794  65.233  1.00  0.00    -0.318 OA 
HETATM    7  N   UNL     1      -8.505   8.206  65.754  1.00  0.00    -0.142 N  
ENDBRANCH   2   3
BRANCH   2   8
HETATM    8  N   UNL     1     -11.368   9.594  67.595  1.00  0.00    -0.401 NA 
HETATM    9  H   UNL     1     -12.263   9.163  67.826  1.00  0.00     0.000 HD 
BRANCH   8  10
HETATM   10  C   UNL     1     -10.980  10.565  68.619  1.00  0.00    -0.248 C  
BRANCH  10  11
HETATM   11  C   UNL     1     -10.850  11.948  68.023  1.00  0.00    -0.256 A  
HETATM   12  C   UNL     1      -9.597  12.408  67.594  1.00  0.00    -0.193 A  
HETATM   13  C   UNL     1      -9.453  13.677  67.040  1.00  0.00    -0.252 A  
HETATM   14  C   UNL     1     -10.569  14.492  66.856  1.00  0.00    -0.279 A  
HETATM   15  C   UNL     1     -11.964  12.784  67.864  1.00  0.00    -0.320 A  
HETATM   16  C   UNL     1     -11.821  14.049  67.287  1.00  0.00    -0.445 A  
BRANCH  14  17
HETATM   17  O   UNL     1     -10.539  15.728  66.267  1.00  0.00    -0.306 OA 
BRANCH  17  18
HETATM   18  C   UNL     1      -9.259  16.365  66.289  1.00  0.00    -0.315 C  
BRANCH  18  19
HETATM   19  C   UNL     1      -9.373  17.833  66.616  1.00  0.00    -0.296 A  
HETATM   20  C   UNL     1      -8.303  18.715  66.421  1.00  0.00    -0.292 A  
HETATM   21  C   UNL     1      -8.418  20.042  66.820  1.00  0.00    -0.324 A  
HETATM   22  F   UNL     1      -7.388  20.876  66.637  1.00  0.00    -0.302 F  
HETATM   23  C   UNL     1      -9.579  20.512  67.425  1.00  0.00    -0.578 A  
HETATM   24  C   UNL     1     -10.647  19.642  67.631  1.00  0.00    -0.556 A  
HETATM   25  C   UNL     1     -10.543  18.308  67.233  1.00  0.00    -0.406 A  
ENDBRANCH  18  19
ENDBRANCH  17  18
ENDBRANCH  14  17
ENDBRANCH  10  11
ENDBRANCH   8  10
ENDBRANCH   2   8
TORSDOF 7
ENDMDL
MODEL       82
REMARK 921   NORMALIZED FREE ENERGY PREDICTED BY IDOCK:   -5.02 KCAL/MOL
REMARK 922        TOTAL FREE ENERGY PREDICTED BY IDOCK:   -7.86 KCAL/MOL
REMARK 923 INTER-LIGAND FREE ENERGY PREDICTED BY IDOCK:   -6.81 KCAL/MOL
REMARK 924 INTRA-LIGAND FREE ENERGY PREDICTED BY IDOCK:   -1.06 KCAL/MOL
REMARK 927      BINDING AFFINITY PREDICTED BY RF-SCORE:    0.00 PKD
ROOT
HETATM    1  C   UNL     1     -10.947   6.111  68.827  1.00  0.00    -0.421 C  
HETATM    2  C   UNL     1     -10.154   6.185  67.524  1.00  0.00    -0.158 C  
ENDROOT
BRANCH   2   3
HETATM    3  C   UNL     1     -10.290   4.851  66.751  1.00  0.00    -0.217 C  
HETATM    4  H2  UNL     1      -9.155   3.870  68.226  1.00  0.00     0.000 HD 
HETATM    5  H1  UNL     1      -9.755   2.910  66.838  1.00  0.00     0.000 HD 
HETATM    6  O   UNL     1     -10.892   4.713  65.691  1.00  0.00    -0.292 OA 
HETATM    7  N   UNL     1      -9.666   3.789  67.347  1.00  0.00    -0.164 N  
ENDBRANCH   2   3
BRANCH   2   8
HETATM    8  N   UNL     1     -10.599   7.265  66.614  1.00  0.00    -0.518 NA 
HETATM    9  H   UNL     1     -11.458   7.695  66.956  1.00  0.00     0.000 HD 
BRANCH   8  10
HETATM   10  C   UNL     1      -9.574   8.279  66.368  1.00  0.00    -0.230 C  
BRANCH  10  11
HETATM   11  C   UNL     1      -9.903   9.562  67.097  1.00  0.00    -0.239 A  
HETATM   12  C   UNL     1      -8.958  10.596  67.151  1.00  0.00    -0.143 A  
HETATM   13  C   UNL     1      -9.240  11.787  67.815  1.00  0.00    -0.181 A  
HETATM   14  C   UNL     1     -10.492  11.987  68.394  1.00  0.00    -0.219 A  
HETATM   15  C   UNL     1     -11.150   9.756  67.708  1.00  0.00    -0.142 A  
HETATM   16  C   UNL     1     -11.439  10.962  68.355  1.00  0.00    -0.374 A  
BRANCH  14  17
HETATM   17  O   UNL     1     -10.885  13.144  69.015  1.00  0.00    -0.234 OA 
BRANCH  17  18
HETATM   18  C   UNL     1     -12.058  13.745  68.461  1.00  0.00    -0.292 C  
BRANCH  18  19
HETATM   19  C   UNL     1     -11.767  14.424  67.145  1.00  0.00    -0.424 A  
HETATM   20  C   UNL     1     -12.317  13.963  65.943  1.00  0.00    -0.517 A  
HETATM   21  C   UNL     1     -11.951  14.558  64.741  1.00  0.00    -0.442 A  
HETATM   22  F   UNL     1     -12.476  14.107  63.596  1.00  0.00    -0.495 F  
HETATM   23  C   UNL     1     -11.034  15.603  64.707  1.00  0.00    -0.418 A  
HETATM   24  C   UNL     1     -10.474  16.065  65.896  1.00  0.00    -0.373 A  
HETATM   25  C   UNL     1     -10.835  15.475  67.109  1.00  0.00    -0.316 A  
ENDBRANCH  18  19
ENDBRANCH  17  18
ENDBRANCH  14  17
ENDBRANCH  10  11
ENDBRANCH   8  10
ENDBRANCH   2   8
TORSDOF 7
ENDMDL
MODEL       83
REMARK 921   NORMALIZED FREE ENERGY PREDICTED BY IDOCK:   -5.00 KCAL/MOL
REMARK 922        TOTAL FREE ENERGY PREDICTED BY IDOCK:   -7.84 KCAL/MOL
REMARK 923 INTER-LIGAND FREE ENERGY PREDICTED BY IDOCK:   -6.98 KCAL/MOL
REMARK 924 INTRA-LIGAND FREE ENERGY PREDICTED BY IDOCK:   -0.86 KCAL/MOL
REMARK 927      BINDING AFFINITY PREDICTED BY RF-SCORE:    0.00 PKD
ROOT
HETATM    1  C   UNL     1     -10.441  19.026  67.178  1.00  0.00    -0.522 C  
HETATM    2  C   UNL     1      -9.067  18.439  66.859  1.00  0.00    -0.286 C  
ENDROOT
BRANCH   2   3
HETATM    3  C   UNL     1      -8.318  18.112  68.174  1.00  0.00    -0.277 C  
HETATM    4  H2  UNL     1      -8.544  16.053  67.801  1.00  0.00     0.000 HD 
HETATM    5  H1  UNL     1      -7.689  16.558  69.292  1.00  0.00     0.000 HD 
HETATM    6  O   UNL     1      -7.872  18.948  68.953  1.00  0.00    -0.329 OA 
HETATM    7  N   UNL     1      -8.182  16.774  68.426  1.00  0.00    -0.215 N  
ENDBRANCH   2   3
BRANCH   2   8
HETATM    8  N   UNL     1      -9.120  17.190  66.065  1.00  0.00    -0.513 NA 
HETATM    9  H   UNL     1      -8.777  16.400  66.611  1.00  0.00     0.000 HD 
BRANCH   8  10
HETATM   10  C   UNL     1     -10.446  16.904  65.517  1.00  0.00    -0.204 C  
BRANCH  10  11
HETATM   11  C   UNL     1     -10.898  15.515  65.904  1.00  0.00    -0.317 A  
HETATM   12  C   UNL     1     -10.904  14.491  64.945  1.00  0.00    -0.436 A  
HETATM   13  C   UNL     1     -11.313  13.203  65.280  1.00  0.00    -0.321 A  
HETATM   14  C   UNL     1     -11.676  12.900  66.591  1.00  0.00    -0.390 A  
HETATM   15  C   UNL     1     -11.292  15.212  67.214  1.00  0.00    -0.305 A  
HETATM   16  C   UNL     1     -11.682  13.912  67.552  1.00  0.00    -0.416 A  
BRANCH  14  17
HETATM   17  O   UNL     1     -12.034  11.653  67.030  1.00  0.00    -0.593 OA 
BRANCH  17  18
HETATM   18  C   UNL     1     -11.790  11.421  68.420  1.00  0.00    -0.274 C  
BRANCH  18  19
HETATM   19  C   UNL     1     -11.144  10.078  68.654  1.00  0.00    -0.223 A  
HETATM   20  C   UNL     1     -10.664   9.298  67.595  1.00  0.00    -0.276 A  
HETATM   21  C   UNL     1     -10.159   8.027  67.844  1.00  0.00    -0.194 A  
HETATM   22  F   UNL     1      -9.710   7.285  66.825  1.00  0.00    -0.195 F  
HETATM   23  C   UNL     1     -10.131   7.505  69.133  1.00  0.00    -0.192 A  
HETATM   24  C   UNL     1     -10.612   8.269  70.194  1.00  0.00    -0.233 A  
HETATM   25  C   UNL     1     -11.120   9.547  69.955  1.00  0.00    -0.268 A  
ENDBRANCH  18  19
ENDBRANCH  17  18
ENDBRANCH  14  17
ENDBRANCH  10  11
ENDBRANCH   8  10
ENDBRANCH   2   8
TORSDOF 7
ENDMDL
MODEL       84
REMARK 921   NORMALIZED FREE ENERGY PREDICTED BY IDOCK:   -4.99 KCAL/MOL
REMARK 922        TOTAL FREE ENERGY PREDICTED BY IDOCK:   -7.82 KCAL/MOL
REMARK 923 INTER-LIGAND FREE ENERGY PREDICTED BY IDOCK:   -6.82 KCAL/MOL
REMARK 924 INTRA-LIGAND FREE ENERGY PREDICTED BY IDOCK:   -1.01 KCAL/MOL
REMARK 927      BINDING AFFINITY PREDICTED BY RF-SCORE:    0.00 PKD
ROOT
HETATM    1  C   UNL     1     -10.268  19.635  68.434  1.00  0.00    -0.553 C  
HETATM    2  C   UNL     1     -10.100  18.372  67.591  1.00  0.00    -0.360 C  
ENDROOT
BRANCH   2   3
HETATM    3  C   UNL     1     -10.525  18.657  66.130  1.00  0.00    -0.430 C  
HETATM    4  H2  UNL     1     -10.724  16.591  65.776  1.00  0.00     0.000 HD 
HETATM    5  H1  UNL     1     -11.075  17.722  64.431  1.00  0.00     0.000 HD 
HETATM    6  O   UNL     1     -10.620  19.774  65.632  1.00  0.00    -0.507 OA 
HETATM    7  N   UNL     1     -10.795  17.535  65.394  1.00  0.00    -0.130 N  
ENDBRANCH   2   3
BRANCH   2   8
HETATM    8  N   UNL     1      -8.711  17.861  67.550  1.00  0.00    -0.242 NA 
HETATM    9  H   UNL     1      -8.052  18.620  67.387  1.00  0.00     0.000 HD 
BRANCH   8  10
HETATM   10  C   UNL     1      -8.337  17.095  68.740  1.00  0.00    -0.236 C  
BRANCH  10  11
HETATM   11  C   UNL     1      -8.840  15.673  68.642  1.00  0.00    -0.201 A  
HETATM   12  C   UNL     1     -10.054  15.319  69.250  1.00  0.00    -0.252 A  
HETATM   13  C   UNL     1     -10.538  14.016  69.170  1.00  0.00    -0.149 A  
HETATM   14  C   UNL     1      -9.845  13.054  68.439  1.00  0.00    -0.203 A  
HETATM   15  C   UNL     1      -8.132  14.694  67.933  1.00  0.00    -0.149 A  
HETATM   16  C   UNL     1      -8.632  13.391  67.836  1.00  0.00    -0.184 A  
BRANCH  14  17
HETATM   17  O   UNL     1     -10.270  11.765  68.253  1.00  0.00    -0.192 OA 
BRANCH  17  18
HETATM   18  C   UNL     1     -11.534  11.647  67.594  1.00  0.00    -0.303 C  
BRANCH  18  19
HETATM   19  C   UNL     1     -11.402  11.816  66.101  1.00  0.00    -0.342 A  
HETATM   20  C   UNL     1     -10.661  10.918  65.323  1.00  0.00    -0.259 A  
HETATM   21  C   UNL     1     -10.487  11.160  63.965  1.00  0.00    -0.383 A  
HETATM   22  F   UNL     1      -9.771  10.301  63.229  1.00  0.00    -0.318 F  
HETATM   23  C   UNL     1     -11.027  12.290  63.361  1.00  0.00    -0.467 A  
HETATM   24  C   UNL     1     -11.760  13.194  64.127  1.00  0.00    -0.472 A  
HETATM   25  C   UNL     1     -11.942  12.961  65.491  1.00  0.00    -0.482 A  
ENDBRANCH  18  19
ENDBRANCH  17  18
ENDBRANCH  14  17
ENDBRANCH  10  11
ENDBRANCH   8  10
ENDBRANCH   2   8
TORSDOF 7
ENDMDL
MODEL       85
REMARK 921   NORMALIZED FREE ENERGY PREDICTED BY IDOCK:   -4.99 KCAL/MOL
REMARK 922        TOTAL FREE ENERGY PREDICTED BY IDOCK:   -7.82 KCAL/MOL
REMARK 923 INTER-LIGAND FREE ENERGY PREDICTED BY IDOCK:   -7.16 KCAL/MOL
REMARK 924 INTRA-LIGAND FREE ENERGY PREDICTED BY IDOCK:   -0.67 KCAL/MOL
REMARK 927      BINDING AFFINITY PREDICTED BY RF-SCORE:    0.00 PKD
ROOT
HETATM    1  C   UNL     1      -9.760   4.015  71.060  1.00  0.00    -0.252 C  
HETATM    2  C   UNL     1     -10.520   5.225  71.600  1.00  0.00    -0.214 C  
ENDROOT
BRANCH   2   3
HETATM    3  C   UNL     1     -10.729   5.074  73.126  1.00  0.00    -0.257 C  
HETATM    4  H2  UNL     1     -10.390   7.135  73.386  1.00  0.00     0.000 HD 
HETATM    5  H1  UNL     1     -10.740   6.143  74.835  1.00  0.00     0.000 HD 
HETATM    6  O   UNL     1     -10.983   4.019  73.699  1.00  0.00    -0.228 OA 
HETATM    7  N   UNL     1     -10.603   6.242  73.829  1.00  0.00    -0.275 N  
ENDBRANCH   2   3
BRANCH   2   8
HETATM    8  N   UNL     1      -9.826   6.514  71.380  1.00  0.00    -0.176 NA 
HETATM    9  H   UNL     1      -8.827   6.422  71.563  1.00  0.00     0.000 HD 
BRANCH   8  10
HETATM   10  C   UNL     1     -10.059   7.083  70.052  1.00  0.00    -0.187 C  
BRANCH  10  11
HETATM   11  C   UNL     1     -10.797   8.398  70.155  1.00  0.00    -0.238 A  
HETATM   12  C   UNL     1     -11.603   8.661  71.273  1.00  0.00    -0.340 A  
HETATM   13  C   UNL     1     -12.289   9.866  71.390  1.00  0.00    -0.498 A  
HETATM   14  C   UNL     1     -12.143  10.854  70.417  1.00  0.00    -0.363 A  
HETATM   15  C   UNL     1     -10.678   9.383  69.165  1.00  0.00    -0.216 A  
HETATM   16  C   UNL     1     -11.351  10.602  69.296  1.00  0.00    -0.346 A  
BRANCH  14  17
HETATM   17  O   UNL     1     -12.728  12.091  70.473  1.00  0.00    -0.139 OA 
BRANCH  17  18
HETATM   18  C   UNL     1     -13.052  12.535  71.794  1.00  0.00    -0.347 C  
BRANCH  18  19
HETATM   19  C   UNL     1     -12.737  13.998  71.982  1.00  0.00    -0.367 A  
HETATM   20  C   UNL     1     -12.056  14.735  71.006  1.00  0.00    -0.391 A  
HETATM   21  C   UNL     1     -11.704  16.056  71.256  1.00  0.00    -0.461 A  
HETATM   22  F   UNL     1     -11.047  16.751  70.320  1.00  0.00    -0.357 F  
HETATM   23  C   UNL     1     -12.005  16.662  72.470  1.00  0.00    -0.259 A  
HETATM   24  C   UNL     1     -12.676  15.937  73.453  1.00  0.00    -0.676 A  
HETATM   25  C   UNL     1     -13.036  14.610  73.212  1.00  0.00    -0.569 A  
ENDBRANCH  18  19
ENDBRANCH  17  18
ENDBRANCH  14  17
ENDBRANCH  10  11
ENDBRANCH   8  10
ENDBRANCH   2   8
TORSDOF 7
ENDMDL
MODEL       86
REMARK 921   NORMALIZED FREE ENERGY PREDICTED BY IDOCK:   -4.99 KCAL/MOL
REMARK 922        TOTAL FREE ENERGY PREDICTED BY IDOCK:   -7.82 KCAL/MOL
REMARK 923 INTER-LIGAND FREE ENERGY PREDICTED BY IDOCK:   -6.88 KCAL/MOL
REMARK 924 INTRA-LIGAND FREE ENERGY PREDICTED BY IDOCK:   -0.94 KCAL/MOL
REMARK 927      BINDING AFFINITY PREDICTED BY RF-SCORE:    0.00 PKD
ROOT
HETATM    1  C   UNL     1      -8.171  18.493  68.450  1.00  0.00    -0.351 C  
HETATM    2  C   UNL     1      -9.468  19.154  67.988  1.00  0.00    -0.330 C  
ENDROOT
BRANCH   2   3
HETATM    3  C   UNL     1      -9.323  19.625  66.520  1.00  0.00    -0.384 C  
HETATM    4  H2  UNL     1     -11.417  19.664  66.316  1.00  0.00     0.000 HD 
HETATM    5  H1  UNL     1     -10.417  20.127  64.904  1.00  0.00     0.000 HD 
HETATM    6  O   UNL     1      -8.255  19.818  65.948  1.00  0.00    -0.347 OA 
HETATM    7  N   UNL     1     -10.512  19.817  65.871  1.00  0.00    -0.519 N  
ENDBRANCH   2   3
BRANCH   2   8
HETATM    8  N   UNL     1     -10.648  18.262  68.046  1.00  0.00    -0.364 NA 
HETATM    9  H   UNL     1     -10.905  17.942  67.112  1.00  0.00     0.000 HD 
BRANCH   8  10
HETATM   10  C   UNL     1     -10.477  17.128  68.954  1.00  0.00    -0.346 C  
BRANCH  10  11
HETATM   11  C   UNL     1     -10.946  15.846  68.304  1.00  0.00    -0.329 A  
HETATM   12  C   UNL     1     -10.769  15.658  66.925  1.00  0.00    -0.307 A  
HETATM   13  C   UNL     1     -11.190  14.484  66.306  1.00  0.00    -0.342 A  
HETATM   14  C   UNL     1     -11.750  13.455  67.060  1.00  0.00    -0.381 A  
HETATM   15  C   UNL     1     -11.537  14.820  69.053  1.00  0.00    -0.324 A  
HETATM   16  C   UNL     1     -11.939  13.633  68.431  1.00  0.00    -0.391 A  
BRANCH  14  17
HETATM   17  O   UNL     1     -12.138  12.243  66.553  1.00  0.00    -0.616 OA 
BRANCH  17  18
HETATM   18  C   UNL     1     -11.329  11.764  65.476  1.00  0.00    -0.223 C  
BRANCH  18  19
HETATM   19  C   UNL     1     -10.221  10.867  65.969  1.00  0.00    -0.311 A  
HETATM   20  C   UNL     1     -10.434   9.924  66.982  1.00  0.00    -0.296 A  
HETATM   21  C   UNL     1      -9.367   9.181  67.472  1.00  0.00    -0.135 A  
HETATM   22  F   UNL     1      -9.578   8.287  68.445  1.00  0.00    -0.141 F  
HETATM   23  C   UNL     1      -8.078   9.366  66.983  1.00  0.00    -0.105 A  
HETATM   24  C   UNL     1      -7.852  10.307  65.980  1.00  0.00    -0.133 A  
HETATM   25  C   UNL     1      -8.917  11.057  65.480  1.00  0.00    -0.208 A  
ENDBRANCH  18  19
ENDBRANCH  17  18
ENDBRANCH  14  17
ENDBRANCH  10  11
ENDBRANCH   8  10
ENDBRANCH   2   8
TORSDOF 7
ENDMDL
MODEL       87
REMARK 921   NORMALIZED FREE ENERGY PREDICTED BY IDOCK:   -4.98 KCAL/MOL
REMARK 922        TOTAL FREE ENERGY PREDICTED BY IDOCK:   -7.81 KCAL/MOL
REMARK 923 INTER-LIGAND FREE ENERGY PREDICTED BY IDOCK:   -7.14 KCAL/MOL
REMARK 924 INTRA-LIGAND FREE ENERGY PREDICTED BY IDOCK:   -0.67 KCAL/MOL
REMARK 927      BINDING AFFINITY PREDICTED BY RF-SCORE:    0.00 PKD
ROOT
HETATM    1  C   UNL     1      -7.316  19.192  65.976  1.00  0.00    -0.295 C  
HETATM    2  C   UNL     1      -6.882  18.835  67.397  1.00  0.00    -0.204 C  
ENDROOT
BRANCH   2   3
HETATM    3  C   UNL     1      -6.581  20.128  68.193  1.00  0.00    -0.292 C  
HETATM    4  H2  UNL     1      -6.708  21.259  66.422  1.00  0.00     0.000 HD 
HETATM    5  H1  UNL     1      -6.348  22.116  67.954  1.00  0.00     0.000 HD 
HETATM    6  O   UNL     1      -6.379  20.177  69.402  1.00  0.00    -0.314 OA 
HETATM    7  N   UNL     1      -6.548  21.264  67.430  1.00  0.00    -0.363 N  
ENDBRANCH   2   3
BRANCH   2   8
HETATM    8  N   UNL     1      -7.900  18.080  68.161  1.00  0.00    -0.263 NA 
HETATM    9  H   UNL     1      -7.853  18.311  69.153  1.00  0.00     0.000 HD 
BRANCH   8  10
HETATM   10  C   UNL     1      -9.261  18.256  67.652  1.00  0.00    -0.267 C  
BRANCH  10  11
HETATM   11  C   UNL     1     -10.131  17.080  68.032  1.00  0.00    -0.305 A  
HETATM   12  C   UNL     1     -10.488  16.133  67.059  1.00  0.00    -0.306 A  
HETATM   13  C   UNL     1     -11.286  15.041  67.386  1.00  0.00    -0.337 A  
HETATM   14  C   UNL     1     -11.701  14.845  68.702  1.00  0.00    -0.330 A  
HETATM   15  C   UNL     1     -10.577  16.894  69.347  1.00  0.00    -0.292 A  
HETATM   16  C   UNL     1     -11.361  15.783  69.677  1.00  0.00    -0.334 A  
BRANCH  14  17
HETATM   17  O   UNL     1     -12.436  13.772  69.133  1.00  0.00    -0.216 OA 
BRANCH  17  18
HETATM   18  C   UNL     1     -12.341  13.513  70.536  1.00  0.00    -0.342 C  
BRANCH  18  19
HETATM   19  C   UNL     1     -12.275  12.034  70.825  1.00  0.00    -0.382 A  
HETATM   20  C   UNL     1     -11.434  11.180  70.102  1.00  0.00    -0.361 A  
HETATM   21  C   UNL     1     -11.469   9.810  70.336  1.00  0.00    -0.280 A  
HETATM   22  F   UNL     1     -10.666   9.001  69.636  1.00  0.00    -0.219 F  
HETATM   23  C   UNL     1     -12.339   9.265  71.274  1.00  0.00    -0.403 A  
HETATM   24  C   UNL     1     -13.187  10.103  71.995  1.00  0.00    -0.534 A  
HETATM   25  C   UNL     1     -13.158  11.480  71.768  1.00  0.00    -0.503 A  
ENDBRANCH  18  19
ENDBRANCH  17  18
ENDBRANCH  14  17
ENDBRANCH  10  11
ENDBRANCH   8  10
ENDBRANCH   2   8
TORSDOF 7
ENDMDL
MODEL       88
REMARK 921   NORMALIZED FREE ENERGY PREDICTED BY IDOCK:   -4.97 KCAL/MOL
REMARK 922        TOTAL FREE ENERGY PREDICTED BY IDOCK:   -7.80 KCAL/MOL
REMARK 923 INTER-LIGAND FREE ENERGY PREDICTED BY IDOCK:   -7.00 KCAL/MOL
REMARK 924 INTRA-LIGAND FREE ENERGY PREDICTED BY IDOCK:   -0.80 KCAL/MOL
REMARK 927      BINDING AFFINITY PREDICTED BY RF-SCORE:    0.00 PKD
ROOT
HETATM    1  C   UNL     1      -8.272  18.023  68.308  1.00  0.00    -0.298 C  
HETATM    2  C   UNL     1      -9.630  18.624  67.951  1.00  0.00    -0.310 C  
ENDROOT
BRANCH   2   3
HETATM    3  C   UNL     1      -9.711  18.868  66.425  1.00  0.00    -0.363 C  
HETATM    4  H2  UNL     1      -8.269  20.393  66.582  1.00  0.00     0.000 HD 
HETATM    5  H1  UNL     1      -8.939  20.020  64.963  1.00  0.00     0.000 HD 
HETATM    6  O   UNL     1     -10.440  18.252  65.654  1.00  0.00    -0.627 OA 
HETATM    7  N   UNL     1      -8.885  19.859  65.969  1.00  0.00    -0.324 N  
ENDBRANCH   2   3
BRANCH   2   8
HETATM    8  N   UNL     1     -10.779  17.765  68.318  1.00  0.00    -0.306 NA 
HETATM    9  H   UNL     1     -11.193  17.343  67.488  1.00  0.00     0.000 HD 
BRANCH   8  10
HETATM   10  C   UNL     1     -10.448  16.742  69.310  1.00  0.00    -0.331 C  
BRANCH  10  11
HETATM   11  C   UNL     1     -10.916  15.380  68.852  1.00  0.00    -0.261 A  
HETATM   12  C   UNL     1     -10.739  14.995  67.515  1.00  0.00    -0.284 A  
HETATM   13  C   UNL     1     -11.160  13.744  67.071  1.00  0.00    -0.313 A  
HETATM   14  C   UNL     1     -11.720  12.834  67.966  1.00  0.00    -0.356 A  
HETATM   15  C   UNL     1     -11.508  14.472  69.741  1.00  0.00    -0.327 A  
HETATM   16  C   UNL     1     -11.909  13.208  69.297  1.00  0.00    -0.377 A  
BRANCH  14  17
HETATM   17  O   UNL     1     -12.108  11.562  67.639  1.00  0.00    -0.623 OA 
BRANCH  17  18
HETATM   18  C   UNL     1     -11.435  10.531  68.366  1.00  0.00    -0.214 C  
BRANCH  18  19
HETATM   19  C   UNL     1     -10.532   9.718  67.471  1.00  0.00    -0.309 A  
HETATM   20  C   UNL     1      -9.878  10.290  66.373  1.00  0.00    -0.272 A  
HETATM   21  C   UNL     1      -9.129   9.488  65.519  1.00  0.00    -0.212 A  
HETATM   22  F   UNL     1      -8.513  10.041  64.468  1.00  0.00    -0.139 F  
HETATM   23  C   UNL     1      -9.025   8.117  65.728  1.00  0.00    -0.165 A  
HETATM   24  C   UNL     1      -9.677   7.536  66.813  1.00  0.00    -0.283 A  
HETATM   25  C   UNL     1     -10.431   8.332  67.678  1.00  0.00    -0.303 A  
ENDBRANCH  18  19
ENDBRANCH  17  18
ENDBRANCH  14  17
ENDBRANCH  10  11
ENDBRANCH   8  10
ENDBRANCH   2   8
TORSDOF 7
ENDMDL
MODEL       89
REMARK 921   NORMALIZED FREE ENERGY PREDICTED BY IDOCK:   -4.96 KCAL/MOL
REMARK 922        TOTAL FREE ENERGY PREDICTED BY IDOCK:   -7.79 KCAL/MOL
REMARK 923 INTER-LIGAND FREE ENERGY PREDICTED BY IDOCK:   -7.79 KCAL/MOL
REMARK 924 INTRA-LIGAND FREE ENERGY PREDICTED BY IDOCK:    0.01 KCAL/MOL
REMARK 927      BINDING AFFINITY PREDICTED BY RF-SCORE:    0.00 PKD
ROOT
HETATM    1  C   UNL     1     -13.998  13.728  72.525  1.00  0.00    -0.572 C  
HETATM    2  C   UNL     1     -13.830  15.213  72.209  1.00  0.00    -0.515 C  
ENDROOT
BRANCH   2   3
HETATM    3  C   UNL     1     -12.737  15.823  73.119  1.00  0.00    -0.507 C  
HETATM    4  H2  UNL     1     -13.625  14.926  74.803  1.00  0.00     0.000 HD 
HETATM    5  H1  UNL     1     -12.149  15.913  75.045  1.00  0.00     0.000 HD 
HETATM    6  O   UNL     1     -11.815  16.533  72.729  1.00  0.00    -0.539 OA 
HETATM    7  N   UNL     1     -12.870  15.511  74.444  1.00  0.00    -0.258 N  
ENDBRANCH   2   3
BRANCH   2   8
HETATM    8  N   UNL     1     -13.434  15.485  70.808  1.00  0.00    -0.809 NA 
HETATM    9  H   UNL     1     -13.612  16.459  70.565  1.00  0.00     0.000 HD 
BRANCH   8  10
HETATM   10  C   UNL     1     -12.047  15.123  70.514  1.00  0.00    -0.343 C  
BRANCH  10  11
HETATM   11  C   UNL     1     -11.985  14.098  69.404  1.00  0.00    -0.382 A  
HETATM   12  C   UNL     1     -12.071  14.512  68.067  1.00  0.00    -0.233 A  
HETATM   13  C   UNL     1     -12.013  13.586  67.029  1.00  0.00    -0.440 A  
HETATM   14  C   UNL     1     -11.817  12.234  67.304  1.00  0.00    -0.260 A  
HETATM   15  C   UNL     1     -11.818  12.733  69.677  1.00  0.00    -0.384 A  
HETATM   16  C   UNL     1     -11.739  11.808  68.631  1.00  0.00    -0.389 A  
BRANCH  14  17
HETATM   17  O   UNL     1     -11.688  11.258  66.352  1.00  0.00    -0.268 OA 
BRANCH  17  18
HETATM   18  C   UNL     1     -10.340  10.997  65.951  1.00  0.00    -0.257 C  
BRANCH  18  19
HETATM   19  C   UNL     1      -9.999   9.532  66.067  1.00  0.00    -0.348 A  
HETATM   20  C   UNL     1     -10.628   8.703  67.004  1.00  0.00    -0.293 A  
HETATM   21  C   UNL     1     -10.221   7.381  67.143  1.00  0.00    -0.277 A  
HETATM   22  F   UNL     1     -10.822   6.598  68.046  1.00  0.00    -0.226 F  
HETATM   23  C   UNL     1      -9.185   6.864  66.373  1.00  0.00    -0.186 A  
HETATM   24  C   UNL     1      -8.546   7.681  65.442  1.00  0.00    -0.074 A  
HETATM   25  C   UNL     1      -8.948   9.010  65.294  1.00  0.00    -0.233 A  
ENDBRANCH  18  19
ENDBRANCH  17  18
ENDBRANCH  14  17
ENDBRANCH  10  11
ENDBRANCH   8  10
ENDBRANCH   2   8
TORSDOF 7
ENDMDL
MODEL       90
REMARK 921   NORMALIZED FREE ENERGY PREDICTED BY IDOCK:   -4.96 KCAL/MOL
REMARK 922        TOTAL FREE ENERGY PREDICTED BY IDOCK:   -7.78 KCAL/MOL
REMARK 923 INTER-LIGAND FREE ENERGY PREDICTED BY IDOCK:   -6.82 KCAL/MOL
REMARK 924 INTRA-LIGAND FREE ENERGY PREDICTED BY IDOCK:   -0.96 KCAL/MOL
REMARK 927      BINDING AFFINITY PREDICTED BY RF-SCORE:    0.00 PKD
ROOT
HETATM    1  C   UNL     1     -11.920  16.013  71.080  1.00  0.00    -0.407 C  
HETATM    2  C   UNL     1     -12.056  14.638  71.731  1.00  0.00    -0.319 C  
ENDROOT
BRANCH   2   3
HETATM    3  C   UNL     1     -13.379  14.565  72.532  1.00  0.00    -0.472 C  
HETATM    4  H2  UNL     1     -13.546  16.662  72.463  1.00  0.00     0.000 HD 
HETATM    5  H1  UNL     1     -14.826  15.735  73.307  1.00  0.00     0.000 HD 
HETATM    6  O   UNL     1     -13.901  13.530  72.932  1.00  0.00    -0.645 OA 
HETATM    7  N   UNL     1     -13.954  15.782  72.779  1.00  0.00    -0.564 N  
ENDBRANCH   2   3
BRANCH   2   8
HETATM    8  N   UNL     1     -12.069  13.517  70.764  1.00  0.00    -0.482 NA 
HETATM    9  H   UNL     1     -12.871  12.908  70.927  1.00  0.00     0.000 HD 
BRANCH   8  10
HETATM   10  C   UNL     1     -12.023  13.951  69.368  1.00  0.00    -0.354 C  
BRANCH  10  11
HETATM   11  C   UNL     1     -11.184  13.004  68.540  1.00  0.00    -0.309 A  
HETATM   12  C   UNL     1      -9.797  12.942  68.741  1.00  0.00     0.023 A  
HETATM   13  C   UNL     1      -9.005  12.076  67.993  1.00  0.00    -0.187 A  
HETATM   14  C   UNL     1      -9.590  11.217  67.064  1.00  0.00    -0.181 A  
HETATM   15  C   UNL     1     -11.763  12.159  67.584  1.00  0.00    -0.386 A  
HETATM   16  C   UNL     1     -10.968  11.274  66.849  1.00  0.00    -0.348 A  
BRANCH  14  17
HETATM   17  O   UNL     1      -8.905  10.289  66.325  1.00  0.00    -0.142 OA 
BRANCH  17  18
HETATM   18  C   UNL     1      -8.289   9.254  67.096  1.00  0.00    -0.124 C  
BRANCH  18  19
HETATM   19  C   UNL     1      -9.307   8.283  67.638  1.00  0.00    -0.158 A  
HETATM   20  C   UNL     1      -9.451   8.059  69.012  1.00  0.00    -0.151 A  
HETATM   21  C   UNL     1     -10.337   7.089  69.467  1.00  0.00    -0.213 A  
HETATM   22  F   UNL     1     -10.463   6.877  70.783  1.00  0.00    -0.217 F  
HETATM   23  C   UNL     1     -11.080   6.322  68.577  1.00  0.00    -0.397 A  
HETATM   24  C   UNL     1     -10.940   6.530  67.207  1.00  0.00    -0.475 A  
HETATM   25  C   UNL     1     -10.055   7.502  66.739  1.00  0.00    -0.313 A  
ENDBRANCH  18  19
ENDBRANCH  17  18
ENDBRANCH  14  17
ENDBRANCH  10  11
ENDBRANCH   8  10
ENDBRANCH   2   8
TORSDOF 7
ENDMDL
MODEL       91
REMARK 921   NORMALIZED FREE ENERGY PREDICTED BY IDOCK:   -4.95 KCAL/MOL
REMARK 922        TOTAL FREE ENERGY PREDICTED BY IDOCK:   -7.77 KCAL/MOL
REMARK 923 INTER-LIGAND FREE ENERGY PREDICTED BY IDOCK:   -6.94 KCAL/MOL
REMARK 924 INTRA-LIGAND FREE ENERGY PREDICTED BY IDOCK:   -0.83 KCAL/MOL
REMARK 927      BINDING AFFINITY PREDICTED BY RF-SCORE:    0.00 PKD
ROOT
HETATM    1  C   UNL     1     -10.250  19.610  68.393  1.00  0.00    -0.553 C  
HETATM    2  C   UNL     1      -9.800  18.702  67.250  1.00  0.00    -0.318 C  
ENDROOT
BRANCH   2   3
HETATM    3  C   UNL     1      -8.351  19.057  66.838  1.00  0.00    -0.277 C  
HETATM    4  H2  UNL     1      -7.896  19.558  68.831  1.00  0.00     0.000 HD 
HETATM    5  H1  UNL     1      -6.605  19.717  67.600  1.00  0.00     0.000 HD 
HETATM    6  O   UNL     1      -7.908  18.983  65.696  1.00  0.00    -0.457 OA 
HETATM    7  N   UNL     1      -7.560  19.482  67.871  1.00  0.00    -0.281 N  
ENDBRANCH   2   3
BRANCH   2   8
HETATM    8  N   UNL     1      -9.816  17.261  67.589  1.00  0.00    -0.272 NA 
HETATM    9  H   UNL     1      -8.930  16.978  68.007  1.00  0.00     0.000 HD 
BRANCH   8  10
HETATM   10  C   UNL     1     -10.938  16.876  68.445  1.00  0.00    -0.296 C  
BRANCH  10  11
HETATM   11  C   UNL     1     -11.249  15.404  68.293  1.00  0.00    -0.325 A  
HETATM   12  C   UNL     1     -11.305  14.582  69.427  1.00  0.00    -0.314 A  
HETATM   13  C   UNL     1     -11.592  13.225  69.311  1.00  0.00    -0.370 A  
HETATM   14  C   UNL     1     -11.878  12.673  68.064  1.00  0.00    -0.323 A  
HETATM   15  C   UNL     1     -11.508  14.838  67.037  1.00  0.00    -0.362 A  
HETATM   16  C   UNL     1     -11.818  13.478  66.926  1.00  0.00    -0.452 A  
BRANCH  14  17
HETATM   17  O   UNL     1     -12.229  11.365  67.856  1.00  0.00    -0.592 OA 
BRANCH  17  18
HETATM   18  C   UNL     1     -11.185  10.422  68.113  1.00  0.00    -0.268 C  
BRANCH  18  19
HETATM   19  C   UNL     1     -10.116  10.472  67.050  1.00  0.00    -0.259 A  
HETATM   20  C   UNL     1     -10.381  10.107  65.724  1.00  0.00    -0.216 A  
HETATM   21  C   UNL     1      -9.348  10.078  64.795  1.00  0.00    -0.271 A  
HETATM   22  F   UNL     1      -9.608   9.721  63.531  1.00  0.00    -0.316 F  
HETATM   23  C   UNL     1      -8.044  10.396  65.160  1.00  0.00    -0.145 A  
HETATM   24  C   UNL     1      -7.767  10.754  66.478  1.00  0.00    -0.145 A  
HETATM   25  C   UNL     1      -8.797  10.787  67.419  1.00  0.00    -0.129 A  
ENDBRANCH  18  19
ENDBRANCH  17  18
ENDBRANCH  14  17
ENDBRANCH  10  11
ENDBRANCH   8  10
ENDBRANCH   2   8
TORSDOF 7
ENDMDL
MODEL       92
REMARK 921   NORMALIZED FREE ENERGY PREDICTED BY IDOCK:   -4.95 KCAL/MOL
REMARK 922        TOTAL FREE ENERGY PREDICTED BY IDOCK:   -7.76 KCAL/MOL
REMARK 923 INTER-LIGAND FREE ENERGY PREDICTED BY IDOCK:   -7.22 KCAL/MOL
REMARK 924 INTRA-LIGAND FREE ENERGY PREDICTED BY IDOCK:   -0.54 KCAL/MOL
REMARK 927      BINDING AFFINITY PREDICTED BY RF-SCORE:    0.00 PKD
ROOT
HETATM    1  C   UNL     1      -8.685   9.566  70.474  1.00  0.00    -0.247 C  
HETATM    2  C   UNL     1     -10.125   9.674  69.975  1.00  0.00    -0.252 C  
ENDROOT
BRANCH   2   3
HETATM    3  C   UNL     1     -10.529   8.368  69.250  1.00  0.00    -0.215 C  
HETATM    4  H2  UNL     1     -10.673   7.375  71.101  1.00  0.00     0.000 HD 
HETATM    5  H1  UNL     1     -11.025   6.447  69.609  1.00  0.00     0.000 HD 
HETATM    6  O   UNL     1     -10.641   8.245  68.035  1.00  0.00    -0.201 OA 
HETATM    7  N   UNL     1     -10.759   7.309  70.086  1.00  0.00    -0.239 N  
ENDBRANCH   2   3
BRANCH   2   8
HETATM    8  N   UNL     1     -11.115   9.900  71.051  1.00  0.00    -0.351 NA 
HETATM    9  H   UNL     1     -10.723  10.489  71.785  1.00  0.00     0.000 HD 
BRANCH   8  10
HETATM   10  C   UNL     1     -12.384  10.448  70.571  1.00  0.00    -0.322 C  
BRANCH  10  11
HETATM   11  C   UNL     1     -12.233  11.906  70.202  1.00  0.00    -0.319 A  
HETATM   12  C   UNL     1     -12.351  12.892  71.193  1.00  0.00    -0.262 A  
HETATM   13  C   UNL     1     -12.213  14.241  70.877  1.00  0.00    -0.425 A  
HETATM   14  C   UNL     1     -11.903  14.628  69.574  1.00  0.00    -0.330 A  
HETATM   15  C   UNL     1     -11.950  12.303  68.888  1.00  0.00    -0.300 A  
HETATM   16  C   UNL     1     -11.790  13.658  68.578  1.00  0.00    -0.406 A  
BRANCH  14  17
HETATM   17  O   UNL     1     -11.688  15.922  69.179  1.00  0.00    -0.376 OA 
BRANCH  17  18
HETATM   18  C   UNL     1     -10.887  16.057  68.002  1.00  0.00    -0.335 C  
BRANCH  18  19
HETATM   19  C   UNL     1     -10.341  17.456  67.859  1.00  0.00    -0.369 A  
HETATM   20  C   UNL     1     -10.691  18.275  66.779  1.00  0.00    -0.247 A  
HETATM   21  C   UNL     1     -10.095  19.523  66.634  1.00  0.00    -0.420 A  
HETATM   22  F   UNL     1     -10.430  20.297  65.595  1.00  0.00    -0.516 F  
HETATM   23  C   UNL     1      -9.141  19.972  67.541  1.00  0.00    -0.457 A  
HETATM   24  C   UNL     1      -8.778  19.163  68.615  1.00  0.00    -0.394 A  
HETATM   25  C   UNL     1      -9.372  17.909  68.770  1.00  0.00    -0.234 A  
ENDBRANCH  18  19
ENDBRANCH  17  18
ENDBRANCH  14  17
ENDBRANCH  10  11
ENDBRANCH   8  10
ENDBRANCH   2   8
TORSDOF 7
ENDMDL
MODEL       93
REMARK 921   NORMALIZED FREE ENERGY PREDICTED BY IDOCK:   -4.94 KCAL/MOL
REMARK 922        TOTAL FREE ENERGY PREDICTED BY IDOCK:   -7.75 KCAL/MOL
REMARK 923 INTER-LIGAND FREE ENERGY PREDICTED BY IDOCK:   -6.96 KCAL/MOL
REMARK 924 INTRA-LIGAND FREE ENERGY PREDICTED BY IDOCK:   -0.79 KCAL/MOL
REMARK 927      BINDING AFFINITY PREDICTED BY RF-SCORE:    0.00 PKD
ROOT
HETATM    1  C   UNL     1      -9.730   4.309  70.255  1.00  0.00    -0.280 C  
HETATM    2  C   UNL     1      -9.987   4.866  71.654  1.00  0.00    -0.190 C  
ENDROOT
BRANCH   2   3
HETATM    3  C   UNL     1     -10.110   3.702  72.667  1.00  0.00    -0.164 C  
HETATM    4  H2  UNL     1     -12.093   4.267  73.089  1.00  0.00     0.000 HD 
HETATM    5  H1  UNL     1     -11.411   2.852  73.950  1.00  0.00     0.000 HD 
HETATM    6  O   UNL     1      -9.216   2.904  72.930  1.00  0.00    -0.088 OA 
HETATM    7  N   UNL     1     -11.330   3.618  73.282  1.00  0.00    -0.122 N  
ENDBRANCH   2   3
BRANCH   2   8
HETATM    8  N   UNL     1      -8.917   5.763  72.147  1.00  0.00    -0.137 NA 
HETATM    9  H   UNL     1      -8.447   6.225  71.369  1.00  0.00     0.000 HD 
BRANCH   8  10
HETATM   10  C   UNL     1      -9.384   6.743  73.127  1.00  0.00    -0.133 C  
BRANCH  10  11
HETATM   11  C   UNL     1     -10.214   7.815  72.460  1.00  0.00    -0.320 A  
HETATM   12  C   UNL     1     -11.560   7.982  72.821  1.00  0.00    -0.390 A  
HETATM   13  C   UNL     1     -12.343   8.964  72.221  1.00  0.00    -0.430 A  
HETATM   14  C   UNL     1     -11.783   9.833  71.286  1.00  0.00    -0.394 A  
HETATM   15  C   UNL     1      -9.665   8.673  71.497  1.00  0.00    -0.333 A  
HETATM   16  C   UNL     1     -10.448   9.673  70.913  1.00  0.00    -0.359 A  
BRANCH  14  17
HETATM   17  O   UNL     1     -12.454  10.867  70.688  1.00  0.00    -0.322 OA 
BRANCH  17  18
HETATM   18  C   UNL     1     -13.175  11.709  71.592  1.00  0.00    -0.272 C  
BRANCH  18  19
HETATM   19  C   UNL     1     -12.762  13.154  71.455  1.00  0.00    -0.390 A  
HETATM   20  C   UNL     1     -13.071  14.103  72.437  1.00  0.00    -0.525 A  
HETATM   21  C   UNL     1     -12.755  15.440  72.231  1.00  0.00    -0.379 A  
HETATM   22  F   UNL     1     -13.059  16.342  73.172  1.00  0.00    -0.519 F  
HETATM   23  C   UNL     1     -12.144  15.861  71.054  1.00  0.00    -0.438 A  
HETATM   24  C   UNL     1     -11.839  14.927  70.066  1.00  0.00    -0.353 A  
HETATM   25  C   UNL     1     -12.151  13.581  70.264  1.00  0.00    -0.425 A  
ENDBRANCH  18  19
ENDBRANCH  17  18
ENDBRANCH  14  17
ENDBRANCH  10  11
ENDBRANCH   8  10
ENDBRANCH   2   8
TORSDOF 7
ENDMDL
MODEL       94
REMARK 921   NORMALIZED FREE ENERGY PREDICTED BY IDOCK:   -4.93 KCAL/MOL
REMARK 922        TOTAL FREE ENERGY PREDICTED BY IDOCK:   -7.74 KCAL/MOL
REMARK 923 INTER-LIGAND FREE ENERGY PREDICTED BY IDOCK:   -6.97 KCAL/MOL
REMARK 924 INTRA-LIGAND FREE ENERGY PREDICTED BY IDOCK:   -0.77 KCAL/MOL
REMARK 927      BINDING AFFINITY PREDICTED BY RF-SCORE:    0.00 PKD
ROOT
HETATM    1  C   UNL     1     -11.871  13.647  63.877  1.00  0.00    -0.419 C  
HETATM    2  C   UNL     1     -10.901  14.420  64.768  1.00  0.00    -0.399 C  
ENDROOT
BRANCH   2   3
HETATM    3  C   UNL     1     -11.132  15.941  64.600  1.00  0.00    -0.354 C  
HETATM    4  H2  UNL     1      -9.953  16.318  66.302  1.00  0.00     0.000 HD 
HETATM    5  H1  UNL     1     -10.669  17.715  65.437  1.00  0.00     0.000 HD 
HETATM    6  O   UNL     1     -11.804  16.454  63.711  1.00  0.00    -1.002 OA 
HETATM    7  N   UNL     1     -10.517  16.712  65.548  1.00  0.00    -0.324 N  
ENDBRANCH   2   3
BRANCH   2   8
HETATM    8  N   UNL     1     -11.040  14.114  66.210  1.00  0.00    -0.314 NA 
HETATM    9  H   UNL     1     -11.350  14.938  66.725  1.00  0.00     0.000 HD 
BRANCH   8  10
HETATM   10  C   UNL     1     -11.914  12.973  66.482  1.00  0.00    -0.391 C  
BRANCH  10  11
HETATM   11  C   UNL     1     -11.148  11.864  67.168  1.00  0.00    -0.347 A  
HETATM   12  C   UNL     1     -11.140  11.785  68.569  1.00  0.00    -0.288 A  
HETATM   13  C   UNL     1     -10.445  10.771  69.222  1.00  0.00    -0.243 A  
HETATM   14  C   UNL     1      -9.787   9.786  68.487  1.00  0.00    -0.156 A  
HETATM   15  C   UNL     1     -10.459  10.889  66.435  1.00  0.00    -0.307 A  
HETATM   16  C   UNL     1      -9.780   9.858  67.093  1.00  0.00    -0.224 A  
BRANCH  14  17
HETATM   17  O   UNL     1      -9.128   8.718  69.036  1.00  0.00    -0.140 OA 
BRANCH  17  18
HETATM   18  C   UNL     1      -8.889   8.827  70.442  1.00  0.00    -0.168 C  
BRANCH  18  19
HETATM   19  C   UNL     1      -9.708   7.830  71.224  1.00  0.00    -0.179 A  
HETATM   20  C   UNL     1      -9.597   6.452  71.002  1.00  0.00    -0.188 A  
HETATM   21  C   UNL     1     -10.435   5.572  71.677  1.00  0.00    -0.231 A  
HETATM   22  F   UNL     1     -10.327   4.257  71.454  1.00  0.00    -0.244 F  
HETATM   23  C   UNL     1     -11.397   6.037  72.567  1.00  0.00    -0.344 A  
HETATM   24  C   UNL     1     -11.522   7.407  72.791  1.00  0.00    -0.312 A  
HETATM   25  C   UNL     1     -10.685   8.299  72.119  1.00  0.00    -0.389 A  
ENDBRANCH  18  19
ENDBRANCH  17  18
ENDBRANCH  14  17
ENDBRANCH  10  11
ENDBRANCH   8  10
ENDBRANCH   2   8
TORSDOF 7
ENDMDL
MODEL       95
REMARK 921   NORMALIZED FREE ENERGY PREDICTED BY IDOCK:   -4.91 KCAL/MOL
REMARK 922        TOTAL FREE ENERGY PREDICTED BY IDOCK:   -7.72 KCAL/MOL
REMARK 923 INTER-LIGAND FREE ENERGY PREDICTED BY IDOCK:   -6.94 KCAL/MOL
REMARK 924 INTRA-LIGAND FREE ENERGY PREDICTED BY IDOCK:   -0.77 KCAL/MOL
REMARK 927      BINDING AFFINITY PREDICTED BY RF-SCORE:    0.00 PKD
ROOT
HETATM    1  C   UNL     1     -12.010  10.994  69.222  1.00  0.00    -0.410 C  
HETATM    2  C   UNL     1     -10.517  10.900  68.910  1.00  0.00    -0.203 C  
ENDROOT
BRANCH   2   3
HETATM    3  C   UNL     1     -10.141   9.434  68.583  1.00  0.00    -0.190 C  
HETATM    4  H2  UNL     1      -8.808   9.404  70.212  1.00  0.00     0.000 HD 
HETATM    5  H1  UNL     1      -8.966   7.924  69.216  1.00  0.00     0.000 HD 
HETATM    6  O   UNL     1     -10.604   8.782  67.653  1.00  0.00    -0.253 OA 
HETATM    7  N   UNL     1      -9.215   8.889  69.431  1.00  0.00    -0.145 N  
ENDBRANCH   2   3
BRANCH   2   8
HETATM    8  N   UNL     1     -10.094  11.727  67.758  1.00  0.00    -0.185 NA 
HETATM    9  H   UNL     1      -9.450  11.210  67.159  1.00  0.00     0.000 HD 
BRANCH   8  10
HETATM   10  C   UNL     1     -11.213  12.257  66.979  1.00  0.00    -0.310 C  
BRANCH  10  11
HETATM   11  C   UNL     1     -10.984  13.711  66.633  1.00  0.00    -0.295 A  
HETATM   12  C   UNL     1     -10.881  14.664  67.658  1.00  0.00    -0.284 A  
HETATM   13  C   UNL     1     -10.667  16.008  67.363  1.00  0.00    -0.306 A  
HETATM   14  C   UNL     1     -10.500  16.418  66.042  1.00  0.00    -0.323 A  
HETATM   15  C   UNL     1     -10.846  14.134  65.304  1.00  0.00    -0.356 A  
HETATM   16  C   UNL     1     -10.609  15.482  65.013  1.00  0.00    -0.435 A  
BRANCH  14  17
HETATM   17  O   UNL     1     -10.227  17.704  65.657  1.00  0.00    -0.593 OA 
BRANCH  17  18
HETATM   18  C   UNL     1     -10.269  18.663  66.718  1.00  0.00    -0.393 C  
BRANCH  18  19
HETATM   19  C   UNL     1      -8.886  19.109  67.119  1.00  0.00    -0.314 A  
HETATM   20  C   UNL     1      -8.423  18.976  68.434  1.00  0.00    -0.383 A  
HETATM   21  C   UNL     1      -7.177  19.483  68.785  1.00  0.00    -0.356 A  
HETATM   22  F   UNL     1      -6.746  19.359  70.045  1.00  0.00    -0.301 F  
HETATM   23  C   UNL     1      -6.379  20.136  67.851  1.00  0.00    -0.276 A  
HETATM   24  C   UNL     1      -6.831  20.281  66.542  1.00  0.00    -0.274 A  
HETATM   25  C   UNL     1      -8.081  19.774  66.179  1.00  0.00    -0.357 A  
ENDBRANCH  18  19
ENDBRANCH  17  18
ENDBRANCH  14  17
ENDBRANCH  10  11
ENDBRANCH   8  10
ENDBRANCH   2   8
TORSDOF 7
ENDMDL
MODEL       96
REMARK 921   NORMALIZED FREE ENERGY PREDICTED BY IDOCK:   -4.90 KCAL/MOL
REMARK 922        TOTAL FREE ENERGY PREDICTED BY IDOCK:   -7.70 KCAL/MOL
REMARK 923 INTER-LIGAND FREE ENERGY PREDICTED BY IDOCK:   -6.93 KCAL/MOL
REMARK 924 INTRA-LIGAND FREE ENERGY PREDICTED BY IDOCK:   -0.77 KCAL/MOL
REMARK 927      BINDING AFFINITY PREDICTED BY RF-SCORE:    0.00 PKD
ROOT
HETATM    1  C   UNL     1     -10.811   6.613  68.998  1.00  0.00    -0.324 C  
HETATM    2  C   UNL     1     -10.062   7.875  69.423  1.00  0.00    -0.196 C  
ENDROOT
BRANCH   2   3
HETATM    3  C   UNL     1      -8.901   7.501  70.376  1.00  0.00    -0.145 C  
HETATM    4  H2  UNL     1      -8.531   5.758  69.254  1.00  0.00     0.000 HD 
HETATM    5  H1  UNL     1      -7.499   6.086  70.682  1.00  0.00     0.000 HD 
HETATM    6  O   UNL     1      -8.551   8.161  71.348  1.00  0.00    -0.119 OA 
HETATM    7  N   UNL     1      -8.264   6.333  70.054  1.00  0.00    -0.123 N  
ENDBRANCH   2   3
BRANCH   2   8
HETATM    8  N   UNL     1      -9.473   8.630  68.293  1.00  0.00    -0.140 NA 
HETATM    9  H   UNL     1      -8.870   8.029  67.733  1.00  0.00     0.000 HD 
BRANCH   8  10
HETATM   10  C   UNL     1     -10.471   9.292  67.452  1.00  0.00    -0.273 C  
BRANCH  10  11
HETATM   11  C   UNL     1     -10.495  10.780  67.720  1.00  0.00    -0.243 A  
HETATM   12  C   UNL     1     -11.682  11.503  67.535  1.00  0.00    -0.262 A  
HETATM   13  C   UNL     1     -11.729  12.873  67.778  1.00  0.00    -0.412 A  
HETATM   14  C   UNL     1     -10.603  13.538  68.260  1.00  0.00    -0.250 A  
HETATM   15  C   UNL     1      -9.357  11.459  68.176  1.00  0.00    -0.181 A  
HETATM   16  C   UNL     1      -9.413  12.832  68.440  1.00  0.00    -0.162 A  
BRANCH  14  17
HETATM   17  O   UNL     1     -10.566  14.868  68.585  1.00  0.00    -0.237 OA 
BRANCH  17  18
HETATM   18  C   UNL     1     -11.836  15.428  68.933  1.00  0.00    -0.329 C  
BRANCH  18  19
HETATM   19  C   UNL     1     -12.152  15.224  70.394  1.00  0.00    -0.388 A  
HETATM   20  C   UNL     1     -13.092  14.276  70.817  1.00  0.00    -0.321 A  
HETATM   21  C   UNL     1     -13.423  14.182  72.164  1.00  0.00    -0.454 A  
HETATM   22  F   UNL     1     -14.327  13.278  72.558  1.00  0.00    -0.588 F  
HETATM   23  C   UNL     1     -12.843  15.025  73.106  1.00  0.00    -0.615 A  
HETATM   24  C   UNL     1     -11.913  15.977  72.696  1.00  0.00    -0.646 A  
HETATM   25  C   UNL     1     -11.572  16.079  71.346  1.00  0.00    -0.520 A  
ENDBRANCH  18  19
ENDBRANCH  17  18
ENDBRANCH  14  17
ENDBRANCH  10  11
ENDBRANCH   8  10
ENDBRANCH   2   8
TORSDOF 7
ENDMDL
MODEL       97
REMARK 921   NORMALIZED FREE ENERGY PREDICTED BY IDOCK:   -4.90 KCAL/MOL
REMARK 922        TOTAL FREE ENERGY PREDICTED BY IDOCK:   -7.70 KCAL/MOL
REMARK 923 INTER-LIGAND FREE ENERGY PREDICTED BY IDOCK:   -7.11 KCAL/MOL
REMARK 924 INTRA-LIGAND FREE ENERGY PREDICTED BY IDOCK:   -0.59 KCAL/MOL
REMARK 927      BINDING AFFINITY PREDICTED BY RF-SCORE:    0.00 PKD
ROOT
HETATM    1  C   UNL     1      -9.712  19.166  68.527  1.00  0.00    -0.467 C  
HETATM    2  C   UNL     1     -10.600  18.286  67.649  1.00  0.00    -0.405 C  
ENDROOT
BRANCH   2   3
HETATM    3  C   UNL     1     -10.508  18.753  66.176  1.00  0.00    -0.446 C  
HETATM    4  H2  UNL     1      -9.752  20.614  66.804  1.00  0.00     0.000 HD 
HETATM    5  H1  UNL     1      -9.966  20.333  65.048  1.00  0.00     0.000 HD 
HETATM    6  O   UNL     1     -10.830  18.077  65.205  1.00  0.00    -0.665 OA 
HETATM    7  N   UNL     1     -10.027  20.024  66.018  1.00  0.00    -0.470 N  
ENDBRANCH   2   3
BRANCH   2   8
HETATM    8  N   UNL     1     -10.236  16.852  67.676  1.00  0.00    -0.296 NA 
HETATM    9  H   UNL     1      -9.357  16.712  68.174  1.00  0.00     0.000 HD 
BRANCH   8  10
HETATM   10  C   UNL     1     -11.285  15.994  68.226  1.00  0.00    -0.350 C  
BRANCH  10  11
HETATM   11  C   UNL     1     -10.807  14.564  68.333  1.00  0.00    -0.250 A  
HETATM   12  C   UNL     1      -9.532  14.217  67.861  1.00  0.00    -0.212 A  
HETATM   13  C   UNL     1      -9.070  12.907  67.952  1.00  0.00    -0.201 A  
HETATM   14  C   UNL     1      -9.851  11.928  68.562  1.00  0.00    -0.183 A  
HETATM   15  C   UNL     1     -11.601  13.569  68.919  1.00  0.00    -0.364 A  
HETATM   16  C   UNL     1     -11.125  12.258  69.028  1.00  0.00    -0.289 A  
BRANCH  14  17
HETATM   17  O   UNL     1      -9.460  10.629  68.752  1.00  0.00    -0.168 OA 
BRANCH  17  18
HETATM   18  C   UNL     1     -10.339   9.656  68.179  1.00  0.00    -0.209 C  
BRANCH  18  19
HETATM   19  C   UNL     1     -10.769   8.628  69.197  1.00  0.00    -0.136 A  
HETATM   20  C   UNL     1     -11.170   8.995  70.487  1.00  0.00    -0.301 A  
HETATM   21  C   UNL     1     -11.470   8.013  71.424  1.00  0.00    -0.258 A  
HETATM   22  F   UNL     1     -11.846   8.371  72.657  1.00  0.00    -0.432 F  
HETATM   23  C   UNL     1     -11.368   6.662  71.107  1.00  0.00    -0.355 A  
HETATM   24  C   UNL     1     -10.963   6.285  69.828  1.00  0.00    -0.444 A  
HETATM   25  C   UNL     1     -10.660   7.264  68.879  1.00  0.00    -0.207 A  
ENDBRANCH  18  19
ENDBRANCH  17  18
ENDBRANCH  14  17
ENDBRANCH  10  11
ENDBRANCH   8  10
ENDBRANCH   2   8
TORSDOF 7
ENDMDL
MODEL       98
REMARK 921   NORMALIZED FREE ENERGY PREDICTED BY IDOCK:   -4.89 KCAL/MOL
REMARK 922        TOTAL FREE ENERGY PREDICTED BY IDOCK:   -7.69 KCAL/MOL
REMARK 923 INTER-LIGAND FREE ENERGY PREDICTED BY IDOCK:   -6.84 KCAL/MOL
REMARK 924 INTRA-LIGAND FREE ENERGY PREDICTED BY IDOCK:   -0.85 KCAL/MOL
REMARK 927      BINDING AFFINITY PREDICTED BY RF-SCORE:    0.00 PKD
ROOT
HETATM    1  C   UNL     1      -9.914   5.772  70.365  1.00  0.00    -0.257 C  
HETATM    2  C   UNL     1     -11.334   6.250  70.068  1.00  0.00    -0.416 C  
ENDROOT
BRANCH   2   3
HETATM    3  C   UNL     1     -12.019   6.704  71.380  1.00  0.00    -0.353 C  
HETATM    4  H2  UNL     1     -10.251   6.310  72.451  1.00  0.00     0.000 HD 
HETATM    5  H1  UNL     1     -11.669   6.933  73.352  1.00  0.00     0.000 HD 
HETATM    6  O   UNL     1     -13.179   7.097  71.466  1.00  0.00    -0.383 OA 
HETATM    7  N   UNL     1     -11.218   6.634  72.487  1.00  0.00    -0.262 N  
ENDBRANCH   2   3
BRANCH   2   8
HETATM    8  N   UNL     1     -11.397   7.389  69.125  1.00  0.00    -0.407 NA 
HETATM    9  H   UNL     1     -12.297   7.864  69.192  1.00  0.00     0.000 HD 
BRANCH   8  10
HETATM   10  C   UNL     1     -10.297   8.340  69.285  1.00  0.00    -0.218 C  
BRANCH  10  11
HETATM   11  C   UNL     1     -10.805   9.763  69.228  1.00  0.00    -0.240 A  
HETATM   12  C   UNL     1     -11.558  10.278  70.294  1.00  0.00    -0.396 A  
HETATM   13  C   UNL     1     -12.034  11.585  70.265  1.00  0.00    -0.455 A  
HETATM   14  C   UNL     1     -11.723  12.421  69.193  1.00  0.00    -0.322 A  
HETATM   15  C   UNL     1     -10.521  10.598  68.139  1.00  0.00    -0.215 A  
HETATM   16  C   UNL     1     -10.982  11.918  68.123  1.00  0.00    -0.272 A  
BRANCH  14  17
HETATM   17  O   UNL     1     -12.093  13.737  69.101  1.00  0.00    -0.346 OA 
BRANCH  17  18
HETATM   18  C   UNL     1     -11.445  14.601  70.038  1.00  0.00    -0.265 C  
BRANCH  18  19
HETATM   19  C   UNL     1     -10.597  15.637  69.344  1.00  0.00    -0.253 A  
HETATM   20  C   UNL     1     -11.161  16.615  68.515  1.00  0.00    -0.239 A  
HETATM   21  C   UNL     1     -10.338  17.494  67.821  1.00  0.00    -0.367 A  
HETATM   22  F   UNL     1     -10.885  18.420  67.025  1.00  0.00    -0.402 F  
HETATM   23  C   UNL     1      -8.953  17.414  67.924  1.00  0.00    -0.251 A  
HETATM   24  C   UNL     1      -8.380  16.441  68.740  1.00  0.00    -0.242 A  
HETATM   25  C   UNL     1      -9.197  15.554  69.442  1.00  0.00    -0.280 A  
ENDBRANCH  18  19
ENDBRANCH  17  18
ENDBRANCH  14  17
ENDBRANCH  10  11
ENDBRANCH   8  10
ENDBRANCH   2   8
TORSDOF 7
ENDMDL
MODEL       99
REMARK 921   NORMALIZED FREE ENERGY PREDICTED BY IDOCK:   -4.88 KCAL/MOL
REMARK 922        TOTAL FREE ENERGY PREDICTED BY IDOCK:   -7.68 KCAL/MOL
REMARK 923 INTER-LIGAND FREE ENERGY PREDICTED BY IDOCK:   -6.96 KCAL/MOL
REMARK 924 INTRA-LIGAND FREE ENERGY PREDICTED BY IDOCK:   -0.71 KCAL/MOL
REMARK 927      BINDING AFFINITY PREDICTED BY RF-SCORE:    0.00 PKD
ROOT
HETATM    1  C   UNL     1      -8.918   5.681  72.039  1.00  0.00    -0.142 C  
HETATM    2  C   UNL     1     -10.265   5.053  72.389  1.00  0.00    -0.201 C  
ENDROOT
BRANCH   2   3
HETATM    3  C   UNL     1     -10.045   3.775  73.235  1.00  0.00    -0.142 C  
HETATM    4  H2  UNL     1     -11.025   4.675  74.866  1.00  0.00     0.000 HD 
HETATM    5  H1  UNL     1     -10.401   3.007  75.064  1.00  0.00     0.000 HD 
HETATM    6  O   UNL     1      -9.472   2.764  72.842  1.00  0.00    -0.089 OA 
HETATM    7  N   UNL     1     -10.546   3.849  74.506  1.00  0.00    -0.202 N  
ENDBRANCH   2   3
BRANCH   2   8
HETATM    8  N   UNL     1     -11.156   5.943  73.167  1.00  0.00    -0.393 NA 
HETATM    9  H   UNL     1     -11.426   5.505  74.047  1.00  0.00     0.000 HD 
BRANCH   8  10
HETATM   10  C   UNL     1     -10.592   7.272  73.401  1.00  0.00    -0.389 C  
BRANCH  10  11
HETATM   11  C   UNL     1     -11.211   8.289  72.469  1.00  0.00    -0.446 A  
HETATM   12  C   UNL     1     -12.575   8.595  72.577  1.00  0.00    -0.367 A  
HETATM   13  C   UNL     1     -13.166   9.530  71.731  1.00  0.00    -0.505 A  
HETATM   14  C   UNL     1     -12.394  10.215  70.795  1.00  0.00    -0.328 A  
HETATM   15  C   UNL     1     -10.445   8.959  71.505  1.00  0.00    -0.393 A  
HETATM   16  C   UNL     1     -11.037   9.914  70.672  1.00  0.00    -0.409 A  
BRANCH  14  17
HETATM   17  O   UNL     1     -12.871  11.192  69.962  1.00  0.00    -0.120 OA 
BRANCH  17  18
HETATM   18  C   UNL     1     -11.894  11.741  69.073  1.00  0.00    -0.317 C  
BRANCH  18  19
HETATM   19  C   UNL     1     -11.867  13.248  69.138  1.00  0.00    -0.378 A  
HETATM   20  C   UNL     1     -12.359  13.945  70.248  1.00  0.00    -0.413 A  
HETATM   21  C   UNL     1     -12.401  15.334  70.231  1.00  0.00    -0.366 A  
HETATM   22  F   UNL     1     -12.880  15.992  71.294  1.00  0.00    -0.501 F  
HETATM   23  C   UNL     1     -11.973  16.052  69.120  1.00  0.00    -0.187 A  
HETATM   24  C   UNL     1     -11.488  15.370  68.006  1.00  0.00    -0.333 A  
HETATM   25  C   UNL     1     -11.440  13.974  68.013  1.00  0.00    -0.342 A  
ENDBRANCH  18  19
ENDBRANCH  17  18
ENDBRANCH  14  17
ENDBRANCH  10  11
ENDBRANCH   8  10
ENDBRANCH   2   8
TORSDOF 7
ENDMDL
MODEL      100
REMARK 921   NORMALIZED FREE ENERGY PREDICTED BY IDOCK:   -4.86 KCAL/MOL
REMARK 922        TOTAL FREE ENERGY PREDICTED BY IDOCK:   -7.64 KCAL/MOL
REMARK 923 INTER-LIGAND FREE ENERGY PREDICTED BY IDOCK:   -7.01 KCAL/MOL
REMARK 924 INTRA-LIGAND FREE ENERGY PREDICTED BY IDOCK:   -0.63 KCAL/MOL
REMARK 927      BINDING AFFINITY PREDICTED BY RF-SCORE:    0.00 PKD
ROOT
HETATM    1  C   UNL     1     -13.762  15.017  71.462  1.00  0.00    -0.553 C  
HETATM    2  C   UNL     1     -12.790  14.291  70.533  1.00  0.00    -0.275 C  
ENDROOT
BRANCH   2   3
HETATM    3  C   UNL     1     -11.643  15.246  70.124  1.00  0.00    -0.299 C  
HETATM    4  H2  UNL     1     -12.680  15.752  68.363  1.00  0.00     0.000 HD 
HETATM    5  H1  UNL     1     -11.089  16.519  68.662  1.00  0.00     0.000 HD 
HETATM    6  O   UNL     1     -10.623  15.438  70.777  1.00  0.00    -0.272 OA 
HETATM    7  N   UNL     1     -11.845  15.890  68.933  1.00  0.00    -0.377 N  
ENDBRANCH   2   3
BRANCH   2   8
HETATM    8  N   UNL     1     -12.165  13.093  71.139  1.00  0.00    -0.383 NA 
HETATM    9  H   UNL     1     -11.369  13.356  71.719  1.00  0.00     0.000 HD 
BRANCH   8  10
HETATM   10  C   UNL     1     -13.105  12.265  71.894  1.00  0.00    -0.363 C  
BRANCH  10  11
HETATM   11  C   UNL     1     -12.865  10.797  71.621  1.00  0.00    -0.562 A  
HETATM   12  C   UNL     1     -13.753   9.838  72.130  1.00  0.00    -0.350 A  
HETATM   13  C   UNL     1     -13.552   8.482  71.888  1.00  0.00    -0.427 A  
HETATM   14  C   UNL     1     -12.490   8.060  71.091  1.00  0.00    -0.192 A  
HETATM   15  C   UNL     1     -11.780  10.366  70.844  1.00  0.00    -0.455 A  
HETATM   16  C   UNL     1     -11.595   9.004  70.585  1.00  0.00    -0.265 A  
BRANCH  14  17
HETATM   17  O   UNL     1     -12.245   6.757  70.748  1.00  0.00    -0.390 OA 
BRANCH  17  18
HETATM   18  C   UNL     1     -10.859   6.415  70.668  1.00  0.00    -0.276 C  
BRANCH  18  19
HETATM   19  C   UNL     1     -10.475   5.402  71.718  1.00  0.00    -0.288 A  
HETATM   20  C   UNL     1      -9.714   4.270  71.404  1.00  0.00    -0.252 A  
HETATM   21  C   UNL     1      -9.459   3.314  72.381  1.00  0.00    -0.121 A  
HETATM   22  F   UNL     1      -8.737   2.231  72.070  1.00  0.00    -0.065 F  
HETATM   23  C   UNL     1      -9.958   3.455  73.671  1.00  0.00    -0.169 A  
HETATM   24  C   UNL     1     -10.723   4.574  73.994  1.00  0.00    -0.340 A  
HETATM   25  C   UNL     1     -10.984   5.541  73.021  1.00  0.00    -0.336 A  
ENDBRANCH  18  19
ENDBRANCH  17  18
ENDBRANCH  14  17
ENDBRANCH  10  11
ENDBRANCH   8  10
ENDBRANCH   2   8
TORSDOF 7
ENDMDL
MODEL      101
REMARK 921   NORMALIZED FREE ENERGY PREDICTED BY IDOCK:   -4.85 KCAL/MOL
REMARK 922        TOTAL FREE ENERGY PREDICTED BY IDOCK:   -7.62 KCAL/MOL
REMARK 923 INTER-LIGAND FREE ENERGY PREDICTED BY IDOCK:   -6.99 KCAL/MOL
REMARK 924 INTRA-LIGAND FREE ENERGY PREDICTED BY IDOCK:   -0.63 KCAL/MOL
REMARK 927      BINDING AFFINITY PREDICTED BY RF-SCORE:    0.00 PKD
ROOT
HETATM    1  C   UNL     1      -8.659  16.528  67.532  1.00  0.00    -0.188 C  
HETATM    2  C   UNL     1      -9.958  17.056  68.137  1.00  0.00    -0.287 C  
ENDROOT
BRANCH   2   3
HETATM    3  C   UNL     1     -10.332  18.407  67.481  1.00  0.00    -0.393 C  
HETATM    4  H2  UNL     1     -10.432  17.474  65.597  1.00  0.00     0.000 HD 
HETATM    5  H1  UNL     1     -10.772  19.230  65.695  1.00  0.00     0.000 HD 
HETATM    6  O   UNL     1     -10.451  19.469  68.082  1.00  0.00    -0.422 OA 
HETATM    7  N   UNL     1     -10.526  18.340  66.128  1.00  0.00    -0.420 N  
ENDBRANCH   2   3
BRANCH   2   8
HETATM    8  N   UNL     1     -11.114  16.148  67.957  1.00  0.00    -0.339 NA 
HETATM    9  H   UNL     1     -10.826  15.284  67.499  1.00  0.00     0.000 HD 
BRANCH   8  10
HETATM   10  C   UNL     1     -11.829  15.862  69.201  1.00  0.00    -0.330 C  
BRANCH  10  11
HETATM   11  C   UNL     1     -11.911  14.371  69.441  1.00  0.00    -0.369 A  
HETATM   12  C   UNL     1     -12.309  13.888  70.696  1.00  0.00    -0.451 A  
HETATM   13  C   UNL     1     -12.395  12.520  70.939  1.00  0.00    -0.349 A  
HETATM   14  C   UNL     1     -12.133  11.608  69.917  1.00  0.00    -0.301 A  
HETATM   15  C   UNL     1     -11.619  13.450  68.426  1.00  0.00    -0.368 A  
HETATM   16  C   UNL     1     -11.727  12.076  68.667  1.00  0.00    -0.380 A  
BRANCH  14  17
HETATM   17  O   UNL     1     -12.247  10.249  70.041  1.00  0.00    -0.217 OA 
BRANCH  17  18
HETATM   18  C   UNL     1     -12.163   9.767  71.385  1.00  0.00    -0.397 C  
BRANCH  18  19
HETATM   19  C   UNL     1     -11.535   8.397  71.446  1.00  0.00    -0.328 A  
HETATM   20  C   UNL     1     -10.492   8.028  70.588  1.00  0.00    -0.219 A  
HETATM   21  C   UNL     1     -10.001   6.727  70.613  1.00  0.00    -0.187 A  
HETATM   22  F   UNL     1      -9.010   6.381  69.784  1.00  0.00    -0.136 F  
HETATM   23  C   UNL     1     -10.538   5.774  71.473  1.00  0.00    -0.304 A  
HETATM   24  C   UNL     1     -11.581   6.128  72.326  1.00  0.00    -0.362 A  
HETATM   25  C   UNL     1     -12.080   7.431  72.310  1.00  0.00    -0.246 A  
ENDBRANCH  18  19
ENDBRANCH  17  18
ENDBRANCH  14  17
ENDBRANCH  10  11
ENDBRANCH   8  10
ENDBRANCH   2   8
TORSDOF 7
ENDMDL
MODEL      102
REMARK 921   NORMALIZED FREE ENERGY PREDICTED BY IDOCK:   -4.83 KCAL/MOL
REMARK 922        TOTAL FREE ENERGY PREDICTED BY IDOCK:   -7.60 KCAL/MOL
REMARK 923 INTER-LIGAND FREE ENERGY PREDICTED BY IDOCK:   -6.84 KCAL/MOL
REMARK 924 INTRA-LIGAND FREE ENERGY PREDICTED BY IDOCK:   -0.76 KCAL/MOL
REMARK 927      BINDING AFFINITY PREDICTED BY RF-SCORE:    0.00 PKD
ROOT
HETATM    1  C   UNL     1     -11.900  13.663  64.054  1.00  0.00    -0.444 C  
HETATM    2  C   UNL     1     -10.834  14.373  64.887  1.00  0.00    -0.416 C  
ENDROOT
BRANCH   2   3
HETATM    3  C   UNL     1     -11.019  15.906  64.780  1.00  0.00    -0.375 C  
HETATM    4  H2  UNL     1      -9.832  16.178  66.496  1.00  0.00     0.000 HD 
HETATM    5  H1  UNL     1     -10.505  17.629  65.689  1.00  0.00     0.000 HD 
HETATM    6  O   UNL     1     -11.674  16.475  63.912  1.00  0.00    -1.148 OA 
HETATM    7  N   UNL     1     -10.382  16.619  65.759  1.00  0.00    -0.347 N  
ENDBRANCH   2   3
BRANCH   2   8
HETATM    8  N   UNL     1     -10.872  14.028  66.326  1.00  0.00    -0.290 NA 
HETATM    9  H   UNL     1     -10.832  14.869  66.900  1.00  0.00     0.000 HD 
BRANCH   8  10
HETATM   10  C   UNL     1     -12.021  13.201  66.697  1.00  0.00    -0.389 C  
BRANCH  10  11
HETATM   11  C   UNL     1     -11.566  11.907  67.332  1.00  0.00    -0.367 A  
HETATM   12  C   UNL     1     -10.934  10.930  66.549  1.00  0.00    -0.187 A  
HETATM   13  C   UNL     1     -10.505   9.732  67.114  1.00  0.00    -0.316 A  
HETATM   14  C   UNL     1     -10.653   9.508  68.481  1.00  0.00    -0.212 A  
HETATM   15  C   UNL     1     -11.740  11.664  68.702  1.00  0.00    -0.386 A  
HETATM   16  C   UNL     1     -11.287  10.469  69.270  1.00  0.00    -0.325 A  
BRANCH  14  17
HETATM   17  O   UNL     1     -10.210   8.390  69.138  1.00  0.00    -0.202 OA 
BRANCH  17  18
HETATM   18  C   UNL     1      -8.959   7.882  68.666  1.00  0.00    -0.134 C  
BRANCH  18  19
HETATM   19  C   UNL     1      -9.085   6.462  68.174  1.00  0.00    -0.113 A  
HETATM   20  C   UNL     1      -9.936   6.124  67.114  1.00  0.00    -0.188 A  
HETATM   21  C   UNL     1     -10.095   4.792  66.751  1.00  0.00    -0.229 A  
HETATM   22  F   UNL     1     -10.916   4.477  65.742  1.00  0.00    -0.323 F  
HETATM   23  C   UNL     1      -9.429   3.778  67.431  1.00  0.00    -0.239 A  
HETATM   24  C   UNL     1      -8.585   4.101  68.492  1.00  0.00    -0.112 A  
HETATM   25  C   UNL     1      -8.418   5.436  68.864  1.00  0.00    -0.099 A  
ENDBRANCH  18  19
ENDBRANCH  17  18
ENDBRANCH  14  17
ENDBRANCH  10  11
ENDBRANCH   8  10
ENDBRANCH   2   8
TORSDOF 7
ENDMDL
MODEL      103
REMARK 921   NORMALIZED FREE ENERGY PREDICTED BY IDOCK:   -4.81 KCAL/MOL
REMARK 922        TOTAL FREE ENERGY PREDICTED BY IDOCK:   -7.57 KCAL/MOL
REMARK 923 INTER-LIGAND FREE ENERGY PREDICTED BY IDOCK:   -6.59 KCAL/MOL
REMARK 924 INTRA-LIGAND FREE ENERGY PREDICTED BY IDOCK:   -0.98 KCAL/MOL
REMARK 927      BINDING AFFINITY PREDICTED BY RF-SCORE:    0.00 PKD
ROOT
HETATM    1  C   UNL     1     -10.689  11.616  63.687  1.00  0.00    -0.500 C  
HETATM    2  C   UNL     1     -10.655  12.483  64.944  1.00  0.00    -0.301 C  
ENDROOT
BRANCH   2   3
HETATM    3  C   UNL     1     -12.091  12.674  65.489  1.00  0.00    -0.458 C  
HETATM    4  H2  UNL     1     -11.319  13.137  67.391  1.00  0.00     0.000 HD 
HETATM    5  H1  UNL     1     -13.097  13.143  67.171  1.00  0.00     0.000 HD 
HETATM    6  O   UNL     1     -13.116  12.537  64.828  1.00  0.00    -0.853 OA 
HETATM    7  N   UNL     1     -12.150  13.017  66.812  1.00  0.00    -0.356 N  
ENDBRANCH   2   3
BRANCH   2   8
HETATM    8  N   UNL     1      -9.845  11.910  66.043  1.00  0.00    -0.230 NA 
HETATM    9  H   UNL     1     -10.444  11.561  66.790  1.00  0.00     0.000 HD 
BRANCH   8  10
HETATM   10  C   UNL     1      -8.911  10.875  65.601  1.00  0.00    -0.194 C  
BRANCH  10  11
HETATM   11  C   UNL     1      -9.063   9.624  66.436  1.00  0.00    -0.191 A  
HETATM   12  C   UNL     1     -10.147   8.763  66.212  1.00  0.00    -0.254 A  
HETATM   13  C   UNL     1     -10.306   7.604  66.967  1.00  0.00    -0.400 A  
HETATM   14  C   UNL     1      -9.357   7.257  67.926  1.00  0.00    -0.129 A  
HETATM   15  C   UNL     1      -8.127   9.285  67.423  1.00  0.00    -0.110 A  
HETATM   16  C   UNL     1      -8.278   8.109  68.165  1.00  0.00    -0.129 A  
BRANCH  14  17
HETATM   17  O   UNL     1      -9.393   6.110  68.676  1.00  0.00    -0.122 OA 
BRANCH  17  18
HETATM   18  C   UNL     1     -10.681   5.791  69.209  1.00  0.00    -0.316 C  
BRANCH  18  19
HETATM   19  C   UNL     1     -11.047   6.698  70.358  1.00  0.00    -0.374 A  
HETATM   20  C   UNL     1     -10.125   7.024  71.360  1.00  0.00    -0.197 A  
HETATM   21  C   UNL     1     -10.527   7.787  72.450  1.00  0.00    -0.263 A  
HETATM   22  F   UNL     1      -9.641   8.088  73.407  1.00  0.00    -0.307 F  
HETATM   23  C   UNL     1     -11.841   8.227  72.573  1.00  0.00    -0.439 A  
HETATM   24  C   UNL     1     -12.770   7.902  71.586  1.00  0.00    -0.352 A  
HETATM   25  C   UNL     1     -12.376   7.137  70.487  1.00  0.00    -0.113 A  
ENDBRANCH  18  19
ENDBRANCH  17  18
ENDBRANCH  14  17
ENDBRANCH  10  11
ENDBRANCH   8  10
ENDBRANCH   2   8
TORSDOF 7
ENDMDL
MODEL      104
REMARK 921   NORMALIZED FREE ENERGY PREDICTED BY IDOCK:   -4.81 KCAL/MOL
REMARK 922        TOTAL FREE ENERGY PREDICTED BY IDOCK:   -7.57 KCAL/MOL
REMARK 923 INTER-LIGAND FREE ENERGY PREDICTED BY IDOCK:   -6.82 KCAL/MOL
REMARK 924 INTRA-LIGAND FREE ENERGY PREDICTED BY IDOCK:   -0.75 KCAL/MOL
REMARK 927      BINDING AFFINITY PREDICTED BY RF-SCORE:    0.00 PKD
ROOT
HETATM    1  C   UNL     1      -9.292   6.070  68.721  1.00  0.00    -0.128 C  
HETATM    2  C   UNL     1     -10.764   6.478  68.713  1.00  0.00    -0.272 C  
ENDROOT
BRANCH   2   3
HETATM    3  C   UNL     1     -11.101   7.251  70.011  1.00  0.00    -0.240 C  
HETATM    4  H2  UNL     1     -12.343   5.672  70.640  1.00  0.00     0.000 HD 
HETATM    5  H1  UNL     1     -12.181   7.103  71.706  1.00  0.00     0.000 HD 
HETATM    6  O   UNL     1     -10.664   8.360  70.300  1.00  0.00    -0.227 OA 
HETATM    7  N   UNL     1     -11.958   6.594  70.851  1.00  0.00    -0.378 N  
ENDBRANCH   2   3
BRANCH   2   8
HETATM    8  N   UNL     1     -11.137   7.349  67.576  1.00  0.00    -0.551 NA 
HETATM    9  H   UNL     1     -11.790   8.073  67.875  1.00  0.00     0.000 HD 
BRANCH   8  10
HETATM   10  C   UNL     1      -9.986   7.940  66.893  1.00  0.00    -0.262 C  
BRANCH  10  11
HETATM   11  C   UNL     1     -10.284   9.361  66.472  1.00  0.00    -0.308 A  
HETATM   12  C   UNL     1     -10.999  10.208  67.332  1.00  0.00    -0.295 A  
HETATM   13  C   UNL     1     -11.283  11.521  66.968  1.00  0.00    -0.365 A  
HETATM   14  C   UNL     1     -10.813  12.030  65.759  1.00  0.00    -0.287 A  
HETATM   15  C   UNL     1      -9.840   9.869  65.244  1.00  0.00    -0.373 A  
HETATM   16  C   UNL     1     -10.107  11.196  64.890  1.00  0.00    -0.345 A  
BRANCH  14  17
HETATM   17  O   UNL     1     -10.988  13.322  65.339  1.00  0.00    -0.279 OA 
BRANCH  17  18
HETATM   18  C   UNL     1     -11.982  14.051  66.064  1.00  0.00    -0.416 C  
BRANCH  18  19
HETATM   19  C   UNL     1     -11.362  14.982  67.077  1.00  0.00    -0.319 A  
HETATM   20  C   UNL     1     -11.488  14.759  68.453  1.00  0.00    -0.336 A  
HETATM   21  C   UNL     1     -10.981  15.689  69.354  1.00  0.00    -0.283 A  
HETATM   22  F   UNL     1     -11.112  15.472  70.668  1.00  0.00    -0.274 F  
HETATM   23  C   UNL     1     -10.357  16.850  68.913  1.00  0.00    -0.333 A  
HETATM   24  C   UNL     1     -10.232  17.086  67.545  1.00  0.00    -0.323 A  
HETATM   25  C   UNL     1     -10.737  16.159  66.632  1.00  0.00    -0.226 A  
ENDBRANCH  18  19
ENDBRANCH  17  18
ENDBRANCH  14  17
ENDBRANCH  10  11
ENDBRANCH   8  10
ENDBRANCH   2   8
TORSDOF 7
ENDMDL
MODEL      105
REMARK 921   NORMALIZED FREE ENERGY PREDICTED BY IDOCK:   -4.79 KCAL/MOL
REMARK 922        TOTAL FREE ENERGY PREDICTED BY IDOCK:   -7.54 KCAL/MOL
REMARK 923 INTER-LIGAND FREE ENERGY PREDICTED BY IDOCK:   -6.73 KCAL/MOL
REMARK 924 INTRA-LIGAND FREE ENERGY PREDICTED BY IDOCK:   -0.81 KCAL/MOL
REMARK 927      BINDING AFFINITY PREDICTED BY RF-SCORE:    0.00 PKD
ROOT
HETATM    1  C   UNL     1     -13.459  15.482  71.013  1.00  0.00    -0.436 C  
HETATM    2  C   UNL     1     -12.526  14.336  71.399  1.00  0.00    -0.360 C  
ENDROOT
BRANCH   2   3
HETATM    3  C   UNL     1     -13.344  13.182  72.027  1.00  0.00    -0.493 C  
HETATM    4  H2  UNL     1     -11.968  11.782  71.267  1.00  0.00     0.000 HD 
HETATM    5  H1  UNL     1     -13.362  11.175  72.215  1.00  0.00     0.000 HD 
HETATM    6  O   UNL     1     -14.376  13.325  72.674  1.00  0.00    -0.679 OA 
HETATM    7  N   UNL     1     -12.823  11.936  71.802  1.00  0.00    -0.332 N  
ENDBRANCH   2   3
BRANCH   2   8
HETATM    8  N   UNL     1     -11.773  13.768  70.258  1.00  0.00    -0.476 NA 
HETATM    9  H   UNL     1     -11.920  12.761  70.195  1.00  0.00     0.000 HD 
BRANCH   8  10
HETATM   10  C   UNL     1     -12.072  14.417  68.982  1.00  0.00    -0.263 C  
BRANCH  10  11
HETATM   11  C   UNL     1     -11.389  13.696  67.841  1.00  0.00    -0.325 A  
HETATM   12  C   UNL     1     -10.054  13.286  67.975  1.00  0.00    -0.235 A  
HETATM   13  C   UNL     1      -9.407  12.618  66.939  1.00  0.00    -0.228 A  
HETATM   14  C   UNL     1     -10.095  12.301  65.770  1.00  0.00    -0.252 A  
HETATM   15  C   UNL     1     -12.068  13.401  66.651  1.00  0.00    -0.429 A  
HETATM   16  C   UNL     1     -11.421  12.711  65.621  1.00  0.00    -0.387 A  
BRANCH  14  17
HETATM   17  O   UNL     1      -9.564  11.596  64.722  1.00  0.00    -0.217 OA 
BRANCH  17  18
HETATM   18  C   UNL     1      -9.964  10.224  64.668  1.00  0.00    -0.307 C  
BRANCH  18  19
HETATM   19  C   UNL     1      -9.405   9.436  65.827  1.00  0.00    -0.301 A  
HETATM   20  C   UNL     1     -10.184   9.128  66.949  1.00  0.00    -0.336 A  
HETATM   21  C   UNL     1      -9.607   8.481  68.035  1.00  0.00    -0.149 A  
HETATM   22  F   UNL     1     -10.356   8.197  69.107  1.00  0.00    -0.202 F  
HETATM   23  C   UNL     1      -8.258   8.140  68.035  1.00  0.00    -0.129 A  
HETATM   24  C   UNL     1      -7.472   8.447  66.927  1.00  0.00    -0.087 A  
HETATM   25  C   UNL     1      -8.042   9.097  65.830  1.00  0.00    -0.111 A  
ENDBRANCH  18  19
ENDBRANCH  17  18
ENDBRANCH  14  17
ENDBRANCH  10  11
ENDBRANCH   8  10
ENDBRANCH   2   8
TORSDOF 7
ENDMDL
MODEL      106
REMARK 921   NORMALIZED FREE ENERGY PREDICTED BY IDOCK:   -4.79 KCAL/MOL
REMARK 922        TOTAL FREE ENERGY PREDICTED BY IDOCK:   -7.54 KCAL/MOL
REMARK 923 INTER-LIGAND FREE ENERGY PREDICTED BY IDOCK:   -6.85 KCAL/MOL
REMARK 924 INTRA-LIGAND FREE ENERGY PREDICTED BY IDOCK:   -0.69 KCAL/MOL
REMARK 927      BINDING AFFINITY PREDICTED BY RF-SCORE:    0.00 PKD
ROOT
HETATM    1  C   UNL     1     -10.243   5.706  67.731  1.00  0.00    -0.238 C  
HETATM    2  C   UNL     1      -9.286   6.362  66.738  1.00  0.00    -0.142 C  
ENDROOT
BRANCH   2   3
HETATM    3  C   UNL     1      -8.918   5.356  65.621  1.00  0.00    -0.156 C  
HETATM    4  H2  UNL     1      -6.885   5.863  65.820  1.00  0.00     0.000 HD 
HETATM    5  H1  UNL     1      -7.338   4.631  64.600  1.00  0.00     0.000 HD 
HETATM    6  O   UNL     1      -9.723   4.657  65.014  1.00  0.00    -0.150 OA 
HETATM    7  N   UNL     1      -7.581   5.294  65.337  1.00  0.00    -0.080 N  
ENDBRANCH   2   3
BRANCH   2   8
HETATM    8  N   UNL     1      -9.841   7.564  66.077  1.00  0.00    -0.408 NA 
HETATM    9  H   UNL     1     -10.790   7.749  66.401  1.00  0.00     0.000 HD 
BRANCH   8  10
HETATM   10  C   UNL     1      -9.001   8.753  66.227  1.00  0.00    -0.173 C  
BRANCH  10  11
HETATM   11  C   UNL     1      -9.821   9.932  66.701  1.00  0.00    -0.265 A  
HETATM   12  C   UNL     1      -9.791  11.135  65.981  1.00  0.00    -0.270 A  
HETATM   13  C   UNL     1     -10.540  12.233  66.397  1.00  0.00    -0.272 A  
HETATM   14  C   UNL     1     -11.372  12.133  67.510  1.00  0.00    -0.326 A  
HETATM   15  C   UNL     1     -10.636   9.846  67.837  1.00  0.00    -0.303 A  
HETATM   16  C   UNL     1     -11.404  10.944  68.239  1.00  0.00    -0.374 A  
BRANCH  14  17
HETATM   17  O   UNL     1     -12.191  13.136  67.960  1.00  0.00    -0.260 OA 
BRANCH  17  18
HETATM   18  C   UNL     1     -11.515  14.180  68.667  1.00  0.00    -0.299 C  
BRANCH  18  19
HETATM   19  C   UNL     1     -12.001  14.292  70.091  1.00  0.00    -0.391 A  
HETATM   20  C   UNL     1     -12.707  13.253  70.711  1.00  0.00    -0.284 A  
HETATM   21  C   UNL     1     -13.217  13.430  71.991  1.00  0.00    -0.438 A  
HETATM   22  F   UNL     1     -13.897  12.435  72.573  1.00  0.00    -0.558 F  
HETATM   23  C   UNL     1     -13.050  14.632  72.671  1.00  0.00    -0.549 A  
HETATM   24  C   UNL     1     -12.356  15.675  72.062  1.00  0.00    -0.505 A  
HETATM   25  C   UNL     1     -11.838  15.507  70.777  1.00  0.00    -0.406 A  
ENDBRANCH  18  19
ENDBRANCH  17  18
ENDBRANCH  14  17
ENDBRANCH  10  11
ENDBRANCH   8  10
ENDBRANCH   2   8
TORSDOF 7
ENDMDL
MODEL      107
REMARK 921   NORMALIZED FREE ENERGY PREDICTED BY IDOCK:   -4.77 KCAL/MOL
REMARK 922        TOTAL FREE ENERGY PREDICTED BY IDOCK:   -7.52 KCAL/MOL
REMARK 923 INTER-LIGAND FREE ENERGY PREDICTED BY IDOCK:   -6.36 KCAL/MOL
REMARK 924 INTRA-LIGAND FREE ENERGY PREDICTED BY IDOCK:   -1.16 KCAL/MOL
REMARK 927      BINDING AFFINITY PREDICTED BY RF-SCORE:    0.00 PKD
ROOT
HETATM    1  C   UNL     1      -8.065  19.031  68.391  1.00  0.00    -0.381 C  
HETATM    2  C   UNL     1      -7.708  17.983  67.338  1.00  0.00    -0.208 C  
ENDROOT
BRANCH   2   3
HETATM    3  C   UNL     1      -7.530  16.601  68.012  1.00  0.00    -0.164 C  
HETATM    4  H2  UNL     1      -7.169  15.722  66.134  1.00  0.00     0.000 HD 
HETATM    5  H1  UNL     1      -7.135  14.671  67.586  1.00  0.00     0.000 HD 
HETATM    6  O   UNL     1      -7.625  16.391  69.217  1.00  0.00    -0.234 OA 
HETATM    7  N   UNL     1      -7.252  15.583  67.142  1.00  0.00    -0.203 N  
ENDBRANCH   2   3
BRANCH   2   8
HETATM    8  N   UNL     1      -8.732  17.825  66.281  1.00  0.00    -0.445 NA 
HETATM    9  H   UNL     1      -8.534  17.007  65.706  1.00  0.00     0.000 HD 
BRANCH   8  10
HETATM   10  C   UNL     1     -10.100  17.776  66.798  1.00  0.00    -0.349 C  
BRANCH  10  11
HETATM   11  C   UNL     1     -10.746  16.447  66.479  1.00  0.00    -0.163 A  
HETATM   12  C   UNL     1     -10.776  15.985  65.155  1.00  0.00    -0.429 A  
HETATM   13  C   UNL     1     -11.363  14.763  64.838  1.00  0.00    -0.411 A  
HETATM   14  C   UNL     1     -11.886  13.954  65.846  1.00  0.00    -0.382 A  
HETATM   15  C   UNL     1     -11.300  15.643  67.485  1.00  0.00    -0.198 A  
HETATM   16  C   UNL     1     -11.869  14.405  67.167  1.00  0.00    -0.437 A  
BRANCH  14  17
HETATM   17  O   UNL     1     -12.428  12.713  65.642  1.00  0.00    -0.622 OA 
BRANCH  17  18
HETATM   18  C   UNL     1     -11.499  11.729  65.180  1.00  0.00    -0.183 C  
BRANCH  18  19
HETATM   19  C   UNL     1     -10.548  11.305  66.273  1.00  0.00    -0.315 A  
HETATM   20  C   UNL     1     -10.966  10.504  67.341  1.00  0.00    -0.352 A  
HETATM   21  C   UNL     1     -10.084  10.212  68.375  1.00  0.00    -0.164 A  
HETATM   22  F   UNL     1     -10.494   9.451  69.396  1.00  0.00    -0.192 F  
HETATM   23  C   UNL     1      -8.787  10.714  68.375  1.00  0.00    -0.145 A  
HETATM   24  C   UNL     1      -8.361  11.519  67.321  1.00  0.00    -0.154 A  
HETATM   25  C   UNL     1      -9.239  11.817  66.277  1.00  0.00    -0.227 A  
ENDBRANCH  18  19
ENDBRANCH  17  18
ENDBRANCH  14  17
ENDBRANCH  10  11
ENDBRANCH   8  10
ENDBRANCH   2   8
TORSDOF 7
ENDMDL
MODEL      108
REMARK 921   NORMALIZED FREE ENERGY PREDICTED BY IDOCK:   -4.77 KCAL/MOL
REMARK 922        TOTAL FREE ENERGY PREDICTED BY IDOCK:   -7.51 KCAL/MOL
REMARK 923 INTER-LIGAND FREE ENERGY PREDICTED BY IDOCK:   -6.71 KCAL/MOL
REMARK 924 INTRA-LIGAND FREE ENERGY PREDICTED BY IDOCK:   -0.80 KCAL/MOL
REMARK 927      BINDING AFFINITY PREDICTED BY RF-SCORE:    0.00 PKD
ROOT
HETATM    1  C   UNL     1     -13.796  13.747  72.205  1.00  0.00    -0.679 C  
HETATM    2  C   UNL     1     -13.527  15.228  71.944  1.00  0.00    -0.450 C  
ENDROOT
BRANCH   2   3
HETATM    3  C   UNL     1     -12.465  15.752  72.941  1.00  0.00    -0.460 C  
HETATM    4  H2  UNL     1     -12.536  13.928  73.989  1.00  0.00     0.000 HD 
HETATM    5  H1  UNL     1     -11.426  15.205  74.579  1.00  0.00     0.000 HD 
HETATM    6  O   UNL     1     -11.950  16.865  72.897  1.00  0.00    -0.320 OA 
HETATM    7  N   UNL     1     -12.125  14.860  73.921  1.00  0.00    -0.444 N  
ENDBRANCH   2   3
BRANCH   2   8
HETATM    8  N   UNL     1     -13.024  15.513  70.581  1.00  0.00    -0.617 NA 
HETATM    9  H   UNL     1     -12.981  16.518  70.415  1.00  0.00     0.000 HD 
BRANCH   8  10
HETATM   10  C   UNL     1     -11.734  14.885  70.293  1.00  0.00    -0.303 C  
BRANCH  10  11
HETATM   11  C   UNL     1     -11.788  14.128  68.985  1.00  0.00    -0.384 A  
HETATM   12  C   UNL     1     -11.654  14.819  67.772  1.00  0.00    -0.378 A  
HETATM   13  C   UNL     1     -11.698  14.142  66.557  1.00  0.00    -0.414 A  
HETATM   14  C   UNL     1     -11.825  12.754  66.531  1.00  0.00    -0.405 A  
HETATM   15  C   UNL     1     -11.946  12.735  68.953  1.00  0.00    -0.286 A  
HETATM   16  C   UNL     1     -11.967  12.055  67.731  1.00  0.00    -0.177 A  
BRANCH  14  17
HETATM   17  O   UNL     1     -11.817  11.995  65.391  1.00  0.00    -0.338 OA 
BRANCH  17  18
HETATM   18  C   UNL     1     -10.541  11.894  64.754  1.00  0.00    -0.299 C  
BRANCH  18  19
HETATM   19  C   UNL     1      -9.528  11.216  65.642  1.00  0.00    -0.252 A  
HETATM   20  C   UNL     1      -8.350  11.862  66.040  1.00  0.00     0.264 A  
HETATM   21  C   UNL     1      -7.399  11.171  66.782  1.00  0.00    -0.146 A  
HETATM   22  F   UNL     1      -6.273  11.793  67.152  1.00  0.00    -0.086 F  
HETATM   23  C   UNL     1      -7.589   9.839  67.131  1.00  0.00    -0.092 A  
HETATM   24  C   UNL     1      -8.753   9.184  66.735  1.00  0.00    -0.138 A  
HETATM   25  C   UNL     1      -9.716   9.868  65.990  1.00  0.00    -0.310 A  
ENDBRANCH  18  19
ENDBRANCH  17  18
ENDBRANCH  14  17
ENDBRANCH  10  11
ENDBRANCH   8  10
ENDBRANCH   2   8
TORSDOF 7
ENDMDL
MODEL      109
REMARK 921   NORMALIZED FREE ENERGY PREDICTED BY IDOCK:   -4.74 KCAL/MOL
REMARK 922        TOTAL FREE ENERGY PREDICTED BY IDOCK:   -7.48 KCAL/MOL
REMARK 923 INTER-LIGAND FREE ENERGY PREDICTED BY IDOCK:   -6.53 KCAL/MOL
REMARK 924 INTRA-LIGAND FREE ENERGY PREDICTED BY IDOCK:   -0.95 KCAL/MOL
REMARK 927      BINDING AFFINITY PREDICTED BY RF-SCORE:    0.00 PKD
ROOT
HETATM    1  C   UNL     1     -10.775   8.772  70.391  1.00  0.00    -0.254 C  
HETATM    2  C   UNL     1     -10.333   8.380  68.983  1.00  0.00    -0.218 C  
ENDROOT
BRANCH   2   3
HETATM    3  C   UNL     1     -10.438   6.846  68.807  1.00  0.00    -0.205 C  
HETATM    4  H2  UNL     1     -11.953   6.774  70.267  1.00  0.00     0.000 HD 
HETATM    5  H1  UNL     1     -11.443   5.240  69.494  1.00  0.00     0.000 HD 
HETATM    6  O   UNL     1      -9.760   6.180  68.031  1.00  0.00    -0.118 OA 
HETATM    7  N   UNL     1     -11.374   6.251  69.609  1.00  0.00    -0.432 N  
ENDBRANCH   2   3
BRANCH   2   8
HETATM    8  N   UNL     1     -11.142   8.999  67.908  1.00  0.00    -0.480 NA 
HETATM    9  H   UNL     1     -11.735   9.739  68.284  1.00  0.00     0.000 HD 
BRANCH   8  10
HETATM   10  C   UNL     1     -10.343   9.494  66.788  1.00  0.00    -0.228 C  
BRANCH  10  11
HETATM   11  C   UNL     1     -10.731  10.912  66.437  1.00  0.00    -0.257 A  
HETATM   12  C   UNL     1     -10.315  11.469  65.219  1.00  0.00    -0.322 A  
HETATM   13  C   UNL     1     -10.664  12.772  64.873  1.00  0.00    -0.329 A  
HETATM   14  C   UNL     1     -11.477  13.527  65.716  1.00  0.00    -0.315 A  
HETATM   15  C   UNL     1     -11.524  11.687  67.295  1.00  0.00    -0.350 A  
HETATM   16  C   UNL     1     -11.891  12.988  66.935  1.00  0.00    -0.442 A  
BRANCH  14  17
HETATM   17  O   UNL     1     -11.922  14.792  65.438  1.00  0.00    -0.310 OA 
BRANCH  17  18
HETATM   18  C   UNL     1     -10.909  15.687  64.972  1.00  0.00    -0.450 C  
BRANCH  18  19
HETATM   19  C   UNL     1     -10.099  16.253  66.112  1.00  0.00    -0.362 A  
HETATM   20  C   UNL     1      -8.703  16.147  66.146  1.00  0.00    -0.358 A  
HETATM   21  C   UNL     1      -8.001  16.598  67.257  1.00  0.00    -0.167 A  
HETATM   22  F   UNL     1      -6.668  16.487  67.284  1.00  0.00    -0.140 F  
HETATM   23  C   UNL     1      -8.663  17.147  68.350  1.00  0.00    -0.246 A  
HETATM   24  C   UNL     1     -10.052  17.251  68.332  1.00  0.00    -0.333 A  
HETATM   25  C   UNL     1     -10.767  16.801  67.220  1.00  0.00    -0.213 A  
ENDBRANCH  18  19
ENDBRANCH  17  18
ENDBRANCH  14  17
ENDBRANCH  10  11
ENDBRANCH   8  10
ENDBRANCH   2   8
TORSDOF 7
ENDMDL
MODEL      110
REMARK 921   NORMALIZED FREE ENERGY PREDICTED BY IDOCK:   -4.74 KCAL/MOL
REMARK 922        TOTAL FREE ENERGY PREDICTED BY IDOCK:   -7.47 KCAL/MOL
REMARK 923 INTER-LIGAND FREE ENERGY PREDICTED BY IDOCK:   -6.63 KCAL/MOL
REMARK 924 INTRA-LIGAND FREE ENERGY PREDICTED BY IDOCK:   -0.84 KCAL/MOL
REMARK 927      BINDING AFFINITY PREDICTED BY RF-SCORE:    0.00 PKD
ROOT
HETATM    1  C   UNL     1     -11.279   5.679  72.864  1.00  0.00    -0.338 C  
HETATM    2  C   UNL     1      -9.830   5.803  72.397  1.00  0.00    -0.163 C  
ENDROOT
BRANCH   2   3
HETATM    3  C   UNL     1      -9.588   4.871  71.184  1.00  0.00    -0.170 C  
HETATM    4  H2  UNL     1     -11.095   5.870  70.106  1.00  0.00     0.000 HD 
HETATM    5  H1  UNL     1     -10.236   4.514  69.309  1.00  0.00     0.000 HD 
HETATM    6  O   UNL     1      -8.760   3.967  71.148  1.00  0.00    -0.082 OA 
HETATM    7  N   UNL     1     -10.394   5.128  70.108  1.00  0.00    -0.282 N  
ENDBRANCH   2   3
BRANCH   2   8
HETATM    8  N   UNL     1      -9.451   7.171  71.978  1.00  0.00    -0.138 NA 
HETATM    9  H   UNL     1      -9.437   7.247  70.962  1.00  0.00     0.000 HD 
BRANCH   8  10
HETATM   10  C   UNL     1     -10.293   8.214  72.565  1.00  0.00    -0.330 C  
BRANCH  10  11
HETATM   11  C   UNL     1     -10.835   9.131  71.493  1.00  0.00    -0.436 A  
HETATM   12  C   UNL     1     -10.068   9.396  70.348  1.00  0.00    -0.310 A  
HETATM   13  C   UNL     1     -10.548  10.236  69.347  1.00  0.00    -0.262 A  
HETATM   14  C   UNL     1     -11.825  10.786  69.445  1.00  0.00    -0.298 A  
HETATM   15  C   UNL     1     -12.106   9.712  71.600  1.00  0.00    -0.481 A  
HETATM   16  C   UNL     1     -12.594  10.537  70.582  1.00  0.00    -0.457 A  
BRANCH  14  17
HETATM   17  O   UNL     1     -12.407  11.573  68.487  1.00  0.00    -0.459 OA 
BRANCH  17  18
HETATM   18  C   UNL     1     -11.507  12.467  67.826  1.00  0.00    -0.324 C  
BRANCH  18  19
HETATM   19  C   UNL     1     -11.316  13.742  68.608  1.00  0.00    -0.321 A  
HETATM   20  C   UNL     1     -10.118  14.465  68.555  1.00  0.00    -0.244 A  
HETATM   21  C   UNL     1      -9.948  15.585  69.360  1.00  0.00    -0.277 A  
HETATM   22  F   UNL     1      -8.797  16.265  69.309  1.00  0.00    -0.235 F  
HETATM   23  C   UNL     1     -10.948  15.999  70.234  1.00  0.00    -0.360 A  
HETATM   24  C   UNL     1     -12.141  15.284  70.301  1.00  0.00    -0.388 A  
HETATM   25  C   UNL     1     -12.323  14.159  69.495  1.00  0.00    -0.275 A  
ENDBRANCH  18  19
ENDBRANCH  17  18
ENDBRANCH  14  17
ENDBRANCH  10  11
ENDBRANCH   8  10
ENDBRANCH   2   8
TORSDOF 7
ENDMDL
MODEL      111
REMARK 921   NORMALIZED FREE ENERGY PREDICTED BY IDOCK:   -4.73 KCAL/MOL
REMARK 922        TOTAL FREE ENERGY PREDICTED BY IDOCK:   -7.46 KCAL/MOL
REMARK 923 INTER-LIGAND FREE ENERGY PREDICTED BY IDOCK:   -6.74 KCAL/MOL
REMARK 924 INTRA-LIGAND FREE ENERGY PREDICTED BY IDOCK:   -0.72 KCAL/MOL
REMARK 927      BINDING AFFINITY PREDICTED BY RF-SCORE:    0.00 PKD
ROOT
HETATM    1  C   UNL     1     -10.355  16.145  67.403  1.00  0.00    -0.294 C  
HETATM    2  C   UNL     1     -11.217  14.888  67.300  1.00  0.00    -0.345 C  
ENDROOT
BRANCH   2   3
HETATM    3  C   UNL     1     -11.077  14.270  65.888  1.00  0.00    -0.310 C  
HETATM    4  H2  UNL     1     -13.026  14.905  65.407  1.00  0.00     0.000 HD 
HETATM    5  H1  UNL     1     -12.090  14.016  64.164  1.00  0.00     0.000 HD 
HETATM    6  O   UNL     1     -10.083  13.682  65.475  1.00  0.00    -0.298 OA 
HETATM    7  N   UNL     1     -12.182  14.424  65.095  1.00  0.00    -0.402 N  
ENDBRANCH   2   3
BRANCH   2   8
HETATM    8  N   UNL     1     -10.857  13.834  68.276  1.00  0.00    -0.243 NA 
HETATM    9  H   UNL     1     -10.178  14.185  68.951  1.00  0.00     0.000 HD 
BRANCH   8  10
HETATM   10  C   UNL     1     -12.012  13.251  68.957  1.00  0.00    -0.293 C  
BRANCH  10  11
HETATM   11  C   UNL     1     -11.655  11.917  69.571  1.00  0.00    -0.394 A  
HETATM   12  C   UNL     1     -12.381  11.438  70.672  1.00  0.00    -0.466 A  
HETATM   13  C   UNL     1     -12.072  10.211  71.252  1.00  0.00    -0.489 A  
HETATM   14  C   UNL     1     -11.063   9.415  70.712  1.00  0.00    -0.300 A  
HETATM   15  C   UNL     1     -10.621  11.125  69.051  1.00  0.00    -0.251 A  
HETATM   16  C   UNL     1     -10.327   9.883  69.623  1.00  0.00    -0.265 A  
BRANCH  14  17
HETATM   17  O   UNL     1     -10.725   8.170  71.174  1.00  0.00    -0.216 OA 
BRANCH  17  18
HETATM   18  C   UNL     1     -11.611   7.125  70.763  1.00  0.00    -0.318 C  
BRANCH  18  19
HETATM   19  C   UNL     1     -10.967   6.220  69.742  1.00  0.00    -0.444 A  
HETATM   20  C   UNL     1     -11.237   6.345  68.374  1.00  0.00    -0.297 A  
HETATM   21  C   UNL     1     -10.695   5.434  67.475  1.00  0.00    -0.058 A  
HETATM   22  F   UNL     1     -10.965   5.556  66.170  1.00  0.00    -0.301 F  
HETATM   23  C   UNL     1      -9.893   4.385  67.911  1.00  0.00    -0.141 A  
HETATM   24  C   UNL     1      -9.623   4.245  69.271  1.00  0.00    -0.261 A  
HETATM   25  C   UNL     1     -10.161   5.156  70.182  1.00  0.00    -0.348 A  
ENDBRANCH  18  19
ENDBRANCH  17  18
ENDBRANCH  14  17
ENDBRANCH  10  11
ENDBRANCH   8  10
ENDBRANCH   2   8
TORSDOF 7
ENDMDL
MODEL      112
REMARK 921   NORMALIZED FREE ENERGY PREDICTED BY IDOCK:   -4.72 KCAL/MOL
REMARK 922        TOTAL FREE ENERGY PREDICTED BY IDOCK:   -7.44 KCAL/MOL
REMARK 923 INTER-LIGAND FREE ENERGY PREDICTED BY IDOCK:   -6.66 KCAL/MOL
REMARK 924 INTRA-LIGAND FREE ENERGY PREDICTED BY IDOCK:   -0.78 KCAL/MOL
REMARK 927      BINDING AFFINITY PREDICTED BY RF-SCORE:    0.00 PKD
ROOT
HETATM    1  C   UNL     1      -8.277   8.220  64.957  1.00  0.00    -0.160 C  
HETATM    2  C   UNL     1      -8.814   9.594  64.563  1.00  0.00    -0.223 C  
ENDROOT
BRANCH   2   3
HETATM    3  C   UNL     1      -8.819   9.733  63.021  1.00  0.00    -0.246 C  
HETATM    4  H2  UNL     1      -7.970   7.816  62.837  1.00  0.00     0.000 HD 
HETATM    5  H1  UNL     1      -8.320   8.738  61.341  1.00  0.00     0.000 HD 
HETATM    6  O   UNL     1      -9.224  10.714  62.406  1.00  0.00    -0.259 OA 
HETATM    7  N   UNL     1      -8.317   8.647  62.357  1.00  0.00    -0.195 N  
ENDBRANCH   2   3
BRANCH   2   8
HETATM    8  N   UNL     1     -10.196   9.853  65.028  1.00  0.00    -0.273 NA 
HETATM    9  H   UNL     1     -10.706   8.978  65.146  1.00  0.00     0.000 HD 
BRANCH   8  10
HETATM   10  C   UNL     1     -10.259  10.658  66.248  1.00  0.00    -0.245 C  
BRANCH  10  11
HETATM   11  C   UNL     1     -10.236  12.133  65.917  1.00  0.00    -0.272 A  
HETATM   12  C   UNL     1     -11.042  12.628  64.880  1.00  0.00    -0.331 A  
HETATM   13  C   UNL     1     -11.040  13.983  64.560  1.00  0.00    -0.360 A  
HETATM   14  C   UNL     1     -10.271  14.878  65.302  1.00  0.00    -0.373 A  
HETATM   15  C   UNL     1      -9.442  13.034  66.640  1.00  0.00    -0.256 A  
HETATM   16  C   UNL     1      -9.459  14.397  66.330  1.00  0.00    -0.309 A  
BRANCH  14  17
HETATM   17  O   UNL     1     -10.249  16.233  65.103  1.00  0.00    -0.566 OA 
BRANCH  17  18
HETATM   18  C   UNL     1     -10.823  16.998  66.166  1.00  0.00     0.020 C  
BRANCH  18  19
HETATM   19  C   UNL     1      -9.974  18.197  66.509  1.00  0.00    -0.374 A  
HETATM   20  C   UNL     1      -8.601  18.078  66.762  1.00  0.00    -0.270 A  
HETATM   21  C   UNL     1      -7.872  19.191  67.165  1.00  0.00    -0.250 A  
HETATM   22  F   UNL     1      -6.563  19.067  67.411  1.00  0.00    -0.193 F  
HETATM   23  C   UNL     1      -8.485  20.428  67.335  1.00  0.00    -0.394 A  
HETATM   24  C   UNL     1      -9.851  20.557  67.094  1.00  0.00    -0.567 A  
HETATM   25  C   UNL     1     -10.593  19.446  66.688  1.00  0.00    -0.566 A  
ENDBRANCH  18  19
ENDBRANCH  17  18
ENDBRANCH  14  17
ENDBRANCH  10  11
ENDBRANCH   8  10
ENDBRANCH   2   8
TORSDOF 7
ENDMDL
MODEL      113
REMARK 921   NORMALIZED FREE ENERGY PREDICTED BY IDOCK:   -4.70 KCAL/MOL
REMARK 922        TOTAL FREE ENERGY PREDICTED BY IDOCK:   -7.41 KCAL/MOL
REMARK 923 INTER-LIGAND FREE ENERGY PREDICTED BY IDOCK:   -6.57 KCAL/MOL
REMARK 924 INTRA-LIGAND FREE ENERGY PREDICTED BY IDOCK:   -0.84 KCAL/MOL
REMARK 927      BINDING AFFINITY PREDICTED BY RF-SCORE:    0.00 PKD
ROOT
HETATM    1  C   UNL     1     -10.534  15.921  66.830  1.00  0.00    -0.309 C  
HETATM    2  C   UNL     1     -10.076  14.518  66.436  1.00  0.00    -0.284 C  
ENDROOT
BRANCH   2   3
HETATM    3  C   UNL     1      -8.802  14.141  67.231  1.00  0.00    -0.218 C  
HETATM    4  H2  UNL     1      -8.782  16.047  68.123  1.00  0.00     0.000 HD 
HETATM    5  H1  UNL     1      -7.492  14.886  68.569  1.00  0.00     0.000 HD 
HETATM    6  O   UNL     1      -8.229  13.058  67.164  1.00  0.00    -0.177 OA 
HETATM    7  N   UNL     1      -8.332  15.135  68.045  1.00  0.00    -0.143 N  
ENDBRANCH   2   3
BRANCH   2   8
HETATM    8  N   UNL     1     -11.082  13.464  66.699  1.00  0.00    -0.291 NA 
HETATM    9  H   UNL     1     -10.635  12.553  66.794  1.00  0.00     0.000 HD 
BRANCH   8  10
HETATM   10  C   UNL     1     -11.934  13.747  67.854  1.00  0.00    -0.356 C  
BRANCH  10  11
HETATM   11  C   UNL     1     -11.895  12.603  68.842  1.00  0.00    -0.345 A  
HETATM   12  C   UNL     1     -11.360  11.366  68.455  1.00  0.00    -0.346 A  
HETATM   13  C   UNL     1     -11.310  10.299  69.348  1.00  0.00    -0.279 A  
HETATM   14  C   UNL     1     -11.747  10.464  70.661  1.00  0.00    -0.351 A  
HETATM   15  C   UNL     1     -12.361  12.755  70.155  1.00  0.00    -0.235 A  
HETATM   16  C   UNL     1     -12.289  11.688  71.057  1.00  0.00    -0.405 A  
BRANCH  14  17
HETATM   17  O   UNL     1     -11.684   9.495  71.628  1.00  0.00    -0.370 OA 
BRANCH  17  18
HETATM   18  C   UNL     1     -12.469   8.331  71.354  1.00  0.00    -0.292 C  
BRANCH  18  19
HETATM   19  C   UNL     1     -11.602   7.117  71.132  1.00  0.00    -0.336 A  
HETATM   20  C   UNL     1     -11.285   6.666  69.845  1.00  0.00    -0.421 A  
HETATM   21  C   UNL     1     -10.561   5.490  69.682  1.00  0.00    -0.305 A  
HETATM   22  F   UNL     1     -10.268   5.063  68.448  1.00  0.00    -0.225 F  
HETATM   23  C   UNL     1     -10.152   4.741  70.779  1.00  0.00    -0.286 A  
HETATM   24  C   UNL     1     -10.468   5.175  72.065  1.00  0.00    -0.278 A  
HETATM   25  C   UNL     1     -11.194   6.355  72.240  1.00  0.00    -0.314 A  
ENDBRANCH  18  19
ENDBRANCH  17  18
ENDBRANCH  14  17
ENDBRANCH  10  11
ENDBRANCH   8  10
ENDBRANCH   2   8
TORSDOF 7
ENDMDL
MODEL      114
REMARK 921   NORMALIZED FREE ENERGY PREDICTED BY IDOCK:   -4.69 KCAL/MOL
REMARK 922        TOTAL FREE ENERGY PREDICTED BY IDOCK:   -7.40 KCAL/MOL
REMARK 923 INTER-LIGAND FREE ENERGY PREDICTED BY IDOCK:   -6.81 KCAL/MOL
REMARK 924 INTRA-LIGAND FREE ENERGY PREDICTED BY IDOCK:   -0.59 KCAL/MOL
REMARK 927      BINDING AFFINITY PREDICTED BY RF-SCORE:    0.00 PKD
ROOT
HETATM    1  C   UNL     1     -10.514   5.753  71.073  1.00  0.00    -0.307 C  
HETATM    2  C   UNL     1     -11.337   5.885  72.353  1.00  0.00    -0.307 C  
ENDROOT
BRANCH   2   3
HETATM    3  C   UNL     1     -10.699   5.034  73.477  1.00  0.00    -0.282 C  
HETATM    4  H2  UNL     1      -8.786   5.707  72.914  1.00  0.00     0.000 HD 
HETATM    5  H1  UNL     1      -8.915   4.566  74.289  1.00  0.00     0.000 HD 
HETATM    6  O   UNL     1     -11.323   4.322  74.257  1.00  0.00    -0.096 OA 
HETATM    7  N   UNL     1      -9.336   5.127  73.548  1.00  0.00    -0.133 N  
ENDBRANCH   2   3
BRANCH   2   8
HETATM    8  N   UNL     1     -11.437   7.273  72.858  1.00  0.00    -0.545 NA 
HETATM    9  H   UNL     1     -11.546   7.281  73.872  1.00  0.00     0.000 HD 
BRANCH   8  10
HETATM   10  C   UNL     1     -10.319   8.124  72.450  1.00  0.00    -0.311 C  
BRANCH  10  11
HETATM   11  C   UNL     1     -10.782   9.189  71.483  1.00  0.00    -0.437 A  
HETATM   12  C   UNL     1      -9.936   9.600  70.441  1.00  0.00    -0.330 A  
HETATM   13  C   UNL     1     -10.342  10.577  69.537  1.00  0.00    -0.251 A  
HETATM   14  C   UNL     1     -11.620  11.126  69.624  1.00  0.00    -0.326 A  
HETATM   15  C   UNL     1     -12.055   9.766  71.584  1.00  0.00    -0.475 A  
HETATM   16  C   UNL     1     -12.468  10.732  70.660  1.00  0.00    -0.461 A  
BRANCH  14  17
HETATM   17  O   UNL     1     -12.132  12.047  68.748  1.00  0.00    -0.273 OA 
BRANCH  17  18
HETATM   18  C   UNL     1     -12.276  13.363  69.288  1.00  0.00    -0.176 C  
BRANCH  18  19
HETATM   19  C   UNL     1     -11.388  14.355  68.578  1.00  0.00    -0.307 A  
HETATM   20  C   UNL     1     -11.328  15.699  68.968  1.00  0.00    -0.332 A  
HETATM   21  C   UNL     1     -10.569  16.601  68.231  1.00  0.00    -0.338 A  
HETATM   22  F   UNL     1     -10.523  17.884  68.607  1.00  0.00    -0.341 F  
HETATM   23  C   UNL     1      -9.871  16.195  67.099  1.00  0.00    -0.241 A  
HETATM   24  C   UNL     1      -9.928  14.862  66.697  1.00  0.00    -0.267 A  
HETATM   25  C   UNL     1     -10.687  13.948  67.430  1.00  0.00    -0.275 A  
ENDBRANCH  18  19
ENDBRANCH  17  18
ENDBRANCH  14  17
ENDBRANCH  10  11
ENDBRANCH   8  10
ENDBRANCH   2   8
TORSDOF 7
ENDMDL
MODEL      115
REMARK 921   NORMALIZED FREE ENERGY PREDICTED BY IDOCK:   -4.67 KCAL/MOL
REMARK 922        TOTAL FREE ENERGY PREDICTED BY IDOCK:   -7.38 KCAL/MOL
REMARK 923 INTER-LIGAND FREE ENERGY PREDICTED BY IDOCK:   -6.71 KCAL/MOL
REMARK 924 INTRA-LIGAND FREE ENERGY PREDICTED BY IDOCK:   -0.67 KCAL/MOL
REMARK 927      BINDING AFFINITY PREDICTED BY RF-SCORE:    0.00 PKD
ROOT
HETATM    1  C   UNL     1     -10.647  19.042  66.932  1.00  0.00    -0.518 C  
HETATM    2  C   UNL     1      -9.340  18.255  66.878  1.00  0.00    -0.286 C  
ENDROOT
BRANCH   2   3
HETATM    3  C   UNL     1      -8.211  19.063  67.563  1.00  0.00    -0.276 C  
HETATM    4  H2  UNL     1      -6.764  17.919  66.550  1.00  0.00     0.000 HD 
HETATM    5  H1  UNL     1      -6.203  19.209  67.660  1.00  0.00     0.000 HD 
HETATM    6  O   UNL     1      -8.388  19.977  68.361  1.00  0.00    -0.231 OA 
HETATM    7  N   UNL     1      -6.947  18.676  67.208  1.00  0.00    -0.203 N  
ENDBRANCH   2   3
BRANCH   2   8
HETATM    8  N   UNL     1      -9.405  16.939  67.554  1.00  0.00    -0.230 NA 
HETATM    9  H   UNL     1      -8.561  16.397  67.372  1.00  0.00     0.000 HD 
BRANCH   8  10
HETATM   10  C   UNL     1      -9.660  17.035  68.992  1.00  0.00    -0.197 C  
BRANCH  10  11
HETATM   11  C   UNL     1     -10.586  15.930  69.446  1.00  0.00    -0.263 A  
HETATM   12  C   UNL     1     -11.419  16.130  70.557  1.00  0.00    -0.363 A  
HETATM   13  C   UNL     1     -12.282  15.128  70.992  1.00  0.00    -0.393 A  
HETATM   14  C   UNL     1     -12.367  13.925  70.295  1.00  0.00    -0.345 A  
HETATM   15  C   UNL     1     -10.655  14.706  68.766  1.00  0.00    -0.248 A  
HETATM   16  C   UNL     1     -11.539  13.710  69.192  1.00  0.00    -0.356 A  
BRANCH  14  17
HETATM   17  O   UNL     1     -13.227  12.905  70.608  1.00  0.00     0.179 OA 
BRANCH  17  18
HETATM   18  C   UNL     1     -12.884  12.185  71.795  1.00  0.00    -0.262 C  
BRANCH  18  19
HETATM   19  C   UNL     1     -12.646  10.723  71.510  1.00  0.00    -0.500 A  
HETATM   20  C   UNL     1     -13.534   9.734  71.949  1.00  0.00    -0.485 A  
HETATM   21  C   UNL     1     -13.232   8.392  71.746  1.00  0.00    -0.355 A  
HETATM   22  F   UNL     1     -14.083   7.453  72.175  1.00  0.00    -0.354 F  
HETATM   23  C   UNL     1     -12.050   8.009  71.121  1.00  0.00    -0.284 A  
HETATM   24  C   UNL     1     -11.155   8.984  70.686  1.00  0.00    -0.314 A  
HETATM   25  C   UNL     1     -11.449  10.334  70.884  1.00  0.00    -0.425 A  
ENDBRANCH  18  19
ENDBRANCH  17  18
ENDBRANCH  14  17
ENDBRANCH  10  11
ENDBRANCH   8  10
ENDBRANCH   2   8
TORSDOF 7
ENDMDL
MODEL      116
REMARK 921   NORMALIZED FREE ENERGY PREDICTED BY IDOCK:   -4.66 KCAL/MOL
REMARK 922        TOTAL FREE ENERGY PREDICTED BY IDOCK:   -7.36 KCAL/MOL
REMARK 923 INTER-LIGAND FREE ENERGY PREDICTED BY IDOCK:   -6.72 KCAL/MOL
REMARK 924 INTRA-LIGAND FREE ENERGY PREDICTED BY IDOCK:   -0.65 KCAL/MOL
REMARK 927      BINDING AFFINITY PREDICTED BY RF-SCORE:    0.00 PKD
ROOT
HETATM    1  C   UNL     1     -12.565  13.782  65.808  1.00  0.00    -0.525 C  
HETATM    2  C   UNL     1     -11.715  13.286  66.976  1.00  0.00    -0.389 C  
ENDROOT
BRANCH   2   3
HETATM    3  C   UNL     1     -11.819  14.279  68.159  1.00  0.00    -0.339 C  
HETATM    4  H2  UNL     1     -11.037  15.814  66.950  1.00  0.00     0.000 HD 
HETATM    5  H1  UNL     1     -11.460  16.201  68.647  1.00  0.00     0.000 HD 
HETATM    6  O   UNL     1     -12.236  13.997  69.277  1.00  0.00    -0.344 OA 
HETATM    7  N   UNL     1     -11.392  15.547  67.868  1.00  0.00    -0.330 N  
ENDBRANCH   2   3
BRANCH   2   8
HETATM    8  N   UNL     1     -12.119  11.956  67.486  1.00  0.00    -0.528 NA 
HETATM    9  H   UNL     1     -12.998  11.659  67.064  1.00  0.00     0.000 HD 
BRANCH   8  10
HETATM   10  C   UNL     1     -11.090  10.930  67.317  1.00  0.00    -0.283 C  
BRANCH  10  11
HETATM   11  C   UNL     1     -10.970  10.081  68.562  1.00  0.00    -0.255 A  
HETATM   12  C   UNL     1     -10.496   8.764  68.466  1.00  0.00    -0.212 A  
HETATM   13  C   UNL     1     -10.375   7.965  69.599  1.00  0.00    -0.216 A  
HETATM   14  C   UNL     1     -10.675   8.483  70.858  1.00  0.00    -0.224 A  
HETATM   15  C   UNL     1     -11.299  10.587  69.827  1.00  0.00    -0.367 A  
HETATM   16  C   UNL     1     -11.155   9.789  70.966  1.00  0.00    -0.431 A  
BRANCH  14  17
HETATM   17  O   UNL     1     -10.530   7.797  72.035  1.00  0.00    -0.207 OA 
BRANCH  17  18
HETATM   18  C   UNL     1     -11.535   6.806  72.270  1.00  0.00    -0.276 C  
BRANCH  18  19
HETATM   19  C   UNL     1     -10.941   5.422  72.359  1.00  0.00    -0.298 A  
HETATM   20  C   UNL     1     -10.138   4.900  71.337  1.00  0.00    -0.268 A  
HETATM   21  C   UNL     1      -9.686   3.588  71.414  1.00  0.00    -0.166 A  
HETATM   22  F   UNL     1      -8.925   3.094  70.430  1.00  0.00    -0.115 F  
HETATM   23  C   UNL     1     -10.026   2.773  72.489  1.00  0.00    -0.229 A  
HETATM   24  C   UNL     1     -10.830   3.279  73.508  1.00  0.00    -0.320 A  
HETATM   25  C   UNL     1     -11.289   4.596  73.441  1.00  0.00    -0.394 A  
ENDBRANCH  18  19
ENDBRANCH  17  18
ENDBRANCH  14  17
ENDBRANCH  10  11
ENDBRANCH   8  10
ENDBRANCH   2   8
TORSDOF 7
ENDMDL
MODEL      117
REMARK 921   NORMALIZED FREE ENERGY PREDICTED BY IDOCK:   -4.65 KCAL/MOL
REMARK 922        TOTAL FREE ENERGY PREDICTED BY IDOCK:   -7.34 KCAL/MOL
REMARK 923 INTER-LIGAND FREE ENERGY PREDICTED BY IDOCK:   -6.69 KCAL/MOL
REMARK 924 INTRA-LIGAND FREE ENERGY PREDICTED BY IDOCK:   -0.65 KCAL/MOL
REMARK 927      BINDING AFFINITY PREDICTED BY RF-SCORE:    0.00 PKD
ROOT
HETATM    1  C   UNL     1     -10.496   5.608  66.585  1.00  0.00    -0.340 C  
HETATM    2  C   UNL     1     -10.533   6.286  67.953  1.00  0.00    -0.230 C  
ENDROOT
BRANCH   2   3
HETATM    3  C   UNL     1      -9.125   6.245  68.596  1.00  0.00    -0.126 C  
HETATM    4  H2  UNL     1      -8.460   4.946  67.080  1.00  0.00     0.000 HD 
HETATM    5  H1  UNL     1      -7.297   5.433  68.352  1.00  0.00     0.000 HD 
HETATM    6  O   UNL     1      -8.802   6.845  69.616  1.00  0.00    -0.140 OA 
HETATM    7  N   UNL     1      -8.224   5.461  67.929  1.00  0.00    -0.100 N  
ENDBRANCH   2   3
BRANCH   2   8
HETATM    8  N   UNL     1     -10.950   7.705  67.906  1.00  0.00    -0.484 NA 
HETATM    9  H   UNL     1     -10.960   8.110  68.842  1.00  0.00     0.000 HD 
BRANCH   8  10
HETATM   10  C   UNL     1     -10.144   8.520  66.997  1.00  0.00    -0.277 C  
BRANCH  10  11
HETATM   11  C   UNL     1     -10.660   9.941  66.950  1.00  0.00    -0.248 A  
HETATM   12  C   UNL     1     -11.260  10.502  68.087  1.00  0.00    -0.357 A  
HETATM   13  C   UNL     1     -11.740  11.809  68.068  1.00  0.00    -0.363 A  
HETATM   14  C   UNL     1     -11.582  12.597  66.930  1.00  0.00    -0.373 A  
HETATM   15  C   UNL     1     -10.531  10.728  65.798  1.00  0.00    -0.256 A  
HETATM   16  C   UNL     1     -10.994  12.048  65.790  1.00  0.00    -0.351 A  
BRANCH  14  17
HETATM   17  O   UNL     1     -11.966  13.909  66.835  1.00  0.00    -0.396 OA 
BRANCH  17  18
HETATM   18  C   UNL     1     -11.102  14.723  66.036  1.00  0.00    -0.330 C  
BRANCH  18  19
HETATM   19  C   UNL     1     -10.750  16.013  66.735  1.00  0.00    -0.259 A  
HETATM   20  C   UNL     1     -10.195  17.096  66.043  1.00  0.00    -0.332 A  
HETATM   21  C   UNL     1      -9.800  18.233  66.738  1.00  0.00    -0.341 A  
HETATM   22  F   UNL     1      -9.263  19.261  66.070  1.00  0.00    -0.343 F  
HETATM   23  C   UNL     1      -9.936  18.313  68.120  1.00  0.00    -0.377 A  
HETATM   24  C   UNL     1     -10.480  17.239  68.820  1.00  0.00    -0.340 A  
HETATM   25  C   UNL     1     -10.881  16.093  68.132  1.00  0.00    -0.329 A  
ENDBRANCH  18  19
ENDBRANCH  17  18
ENDBRANCH  14  17
ENDBRANCH  10  11
ENDBRANCH   8  10
ENDBRANCH   2   8
TORSDOF 7
ENDMDL
MODEL      118
REMARK 921   NORMALIZED FREE ENERGY PREDICTED BY IDOCK:   -4.63 KCAL/MOL
REMARK 922        TOTAL FREE ENERGY PREDICTED BY IDOCK:   -7.32 KCAL/MOL
REMARK 923 INTER-LIGAND FREE ENERGY PREDICTED BY IDOCK:   -6.76 KCAL/MOL
REMARK 924 INTRA-LIGAND FREE ENERGY PREDICTED BY IDOCK:   -0.56 KCAL/MOL
REMARK 927      BINDING AFFINITY PREDICTED BY RF-SCORE:    0.00 PKD
ROOT
HETATM    1  C   UNL     1      -6.900   9.759  65.506  1.00  0.00    -0.095 C  
HETATM    2  C   UNL     1      -7.841   9.930  64.315  1.00  0.00    -0.139 C  
ENDROOT
BRANCH   2   3
HETATM    3  C   UNL     1      -7.276   9.175  63.087  1.00  0.00    -0.091 C  
HETATM    4  H2  UNL     1      -9.042   8.038  62.963  1.00  0.00     0.000 HD 
HETATM    5  H1  UNL     1      -7.748   7.731  61.763  1.00  0.00     0.000 HD 
HETATM    6  O   UNL     1      -6.172   9.372  62.589  1.00  0.00    -0.094 OA 
HETATM    7  N   UNL     1      -8.120   8.229  62.572  1.00  0.00    -0.162 N  
ENDBRANCH   2   3
BRANCH   2   8
HETATM    8  N   UNL     1      -9.208   9.414  64.554  1.00  0.00    -0.430 NA 
HETATM    9  H   UNL     1      -9.492   8.784  63.804  1.00  0.00     0.000 HD 
BRANCH   8  10
HETATM   10  C   UNL     1      -9.369   8.774  65.859  1.00  0.00    -0.218 C  
BRANCH  10  11
HETATM   11  C   UNL     1     -10.171   9.653  66.792  1.00  0.00    -0.308 A  
HETATM   12  C   UNL     1     -10.497   9.192  68.076  1.00  0.00    -0.276 A  
HETATM   13  C   UNL     1     -11.233   9.985  68.953  1.00  0.00    -0.179 A  
HETATM   14  C   UNL     1     -11.612  11.274  68.582  1.00  0.00    -0.318 A  
HETATM   15  C   UNL     1     -10.580  10.938  66.414  1.00  0.00    -0.289 A  
HETATM   16  C   UNL     1     -11.300  11.741  67.305  1.00  0.00    -0.379 A  
BRANCH  14  17
HETATM   17  O   UNL     1     -12.283  12.149  69.395  1.00  0.00    -0.207 OA 
BRANCH  17  18
HETATM   18  C   UNL     1     -11.575  13.361  69.672  1.00  0.00    -0.268 C  
BRANCH  18  19
HETATM   19  C   UNL     1     -12.294  14.202  70.698  1.00  0.00    -0.435 A  
HETATM   20  C   UNL     1     -11.678  15.300  71.311  1.00  0.00    -0.425 A  
HETATM   21  C   UNL     1     -12.340  15.993  72.318  1.00  0.00    -0.490 A  
HETATM   22  F   UNL     1     -11.741  17.037  72.903  1.00  0.00    -0.565 F  
HETATM   23  C   UNL     1     -13.608  15.607  72.741  1.00  0.00    -0.678 A  
HETATM   24  C   UNL     1     -14.228  14.512  72.144  1.00  0.00    -0.619 A  
HETATM   25  C   UNL     1     -13.572  13.810  71.131  1.00  0.00    -0.091 A  
ENDBRANCH  18  19
ENDBRANCH  17  18
ENDBRANCH  14  17
ENDBRANCH  10  11
ENDBRANCH   8  10
ENDBRANCH   2   8
TORSDOF 7
ENDMDL
MODEL      119
REMARK 921   NORMALIZED FREE ENERGY PREDICTED BY IDOCK:   -4.63 KCAL/MOL
REMARK 922        TOTAL FREE ENERGY PREDICTED BY IDOCK:   -7.32 KCAL/MOL
REMARK 923 INTER-LIGAND FREE ENERGY PREDICTED BY IDOCK:   -6.42 KCAL/MOL
REMARK 924 INTRA-LIGAND FREE ENERGY PREDICTED BY IDOCK:   -0.90 KCAL/MOL
REMARK 927      BINDING AFFINITY PREDICTED BY RF-SCORE:    0.00 PKD
ROOT
HETATM    1  C   UNL     1     -11.116  15.755  64.860  1.00  0.00    -0.411 C  
HETATM    2  C   UNL     1     -10.447  14.874  65.914  1.00  0.00    -0.315 C  
ENDROOT
BRANCH   2   3
HETATM    3  C   UNL     1     -10.365  15.636  67.259  1.00  0.00    -0.277 C  
HETATM    4  H2  UNL     1     -12.337  15.061  67.715  1.00  0.00     0.000 HD 
HETATM    5  H1  UNL     1     -11.451  16.071  68.900  1.00  0.00     0.000 HD 
HETATM    6  O   UNL     1      -9.385  16.261  67.652  1.00  0.00    -0.216 OA 
HETATM    7  N   UNL     1     -11.504  15.569  68.014  1.00  0.00    -0.335 N  
ENDBRANCH   2   3
BRANCH   2   8
HETATM    8  N   UNL     1     -11.163  13.605  66.174  1.00  0.00    -0.300 NA 
HETATM    9  H   UNL     1     -11.808  13.392  65.414  1.00  0.00     0.000 HD 
BRANCH   8  10
HETATM   10  C   UNL     1     -10.270  12.474  66.429  1.00  0.00    -0.244 C  
BRANCH  10  11
HETATM   11  C   UNL     1     -10.617  11.802  67.738  1.00  0.00    -0.232 A  
HETATM   12  C   UNL     1      -9.690  10.946  68.350  1.00  0.00    -0.179 A  
HETATM   13  C   UNL     1      -9.986  10.319  69.556  1.00  0.00    -0.252 A  
HETATM   14  C   UNL     1     -11.195  10.574  70.201  1.00  0.00    -0.315 A  
HETATM   15  C   UNL     1     -11.844  12.032  68.375  1.00  0.00    -0.360 A  
HETATM   16  C   UNL     1     -12.130  11.417  69.598  1.00  0.00    -0.373 A  
BRANCH  14  17
HETATM   17  O   UNL     1     -11.553  10.053  71.417  1.00  0.00    -0.368 OA 
BRANCH  17  18
HETATM   18  C   UNL     1     -12.382   8.890  71.343  1.00  0.00    -0.313 C  
BRANCH  18  19
HETATM   19  C   UNL     1     -11.567   7.622  71.401  1.00  0.00    -0.300 A  
HETATM   20  C   UNL     1     -10.702   7.352  72.469  1.00  0.00    -0.315 A  
HETATM   21  C   UNL     1      -9.900   6.217  72.441  1.00  0.00    -0.164 A  
HETATM   22  F   UNL     1      -9.071   5.971  73.462  1.00  0.00    -0.131 F  
HETATM   23  C   UNL     1      -9.931   5.342  71.360  1.00  0.00    -0.241 A  
HETATM   24  C   UNL     1     -10.783   5.604  70.288  1.00  0.00    -0.364 A  
HETATM   25  C   UNL     1     -11.593   6.740  70.307  1.00  0.00    -0.417 A  
ENDBRANCH  18  19
ENDBRANCH  17  18
ENDBRANCH  14  17
ENDBRANCH  10  11
ENDBRANCH   8  10
ENDBRANCH   2   8
TORSDOF 7
ENDMDL
MODEL      120
REMARK 921   NORMALIZED FREE ENERGY PREDICTED BY IDOCK:   -4.62 KCAL/MOL
REMARK 922        TOTAL FREE ENERGY PREDICTED BY IDOCK:   -7.31 KCAL/MOL
REMARK 923 INTER-LIGAND FREE ENERGY PREDICTED BY IDOCK:   -6.47 KCAL/MOL
REMARK 924 INTRA-LIGAND FREE ENERGY PREDICTED BY IDOCK:   -0.84 KCAL/MOL
REMARK 927      BINDING AFFINITY PREDICTED BY RF-SCORE:    0.00 PKD
ROOT
HETATM    1  C   UNL     1     -10.924   6.289  66.955  1.00  0.00    -0.442 C  
HETATM    2  C   UNL     1     -10.915   6.858  68.373  1.00  0.00    -0.132 C  
ENDROOT
BRANCH   2   3
HETATM    3  C   UNL     1     -10.329   5.813  69.354  1.00  0.00    -0.262 C  
HETATM    4  H2  UNL     1      -8.712   5.482  68.048  1.00  0.00     0.000 HD 
HETATM    5  H1  UNL     1      -8.773   4.552  69.578  1.00  0.00     0.000 HD 
HETATM    6  O   UNL     1     -10.837   5.493  70.423  1.00  0.00    -0.277 OA 
HETATM    7  N   UNL     1      -9.160   5.241  68.933  1.00  0.00    -0.109 N  
ENDBRANCH   2   3
BRANCH   2   8
HETATM    8  N   UNL     1     -10.110   8.092  68.517  1.00  0.00    -0.194 NA 
HETATM    9  H   UNL     1     -10.084   8.610  67.640  1.00  0.00     0.000 HD 
BRANCH   8  10
HETATM   10  C   UNL     1     -10.552   8.951  69.615  1.00  0.00    -0.226 C  
BRANCH  10  11
HETATM   11  C   UNL     1     -11.037  10.284  69.090  1.00  0.00    -0.283 A  
HETATM   12  C   UNL     1     -11.449  11.279  69.988  1.00  0.00    -0.359 A  
HETATM   13  C   UNL     1     -11.896  12.515  69.527  1.00  0.00    -0.375 A  
HETATM   14  C   UNL     1     -11.892  12.798  68.163  1.00  0.00    -0.324 A  
HETATM   15  C   UNL     1     -11.063  10.563  67.717  1.00  0.00    -0.382 A  
HETATM   16  C   UNL     1     -11.492  11.813  67.259  1.00  0.00    -0.373 A  
BRANCH  14  17
HETATM   17  O   UNL     1     -12.255  14.001  67.618  1.00  0.00    -0.352 OA 
BRANCH  17  18
HETATM   18  C   UNL     1     -11.436  14.429  66.526  1.00  0.00    -0.362 C  
BRANCH  18  19
HETATM   19  C   UNL     1     -10.474  15.513  66.945  1.00  0.00    -0.301 A  
HETATM   20  C   UNL     1      -9.194  15.615  66.386  1.00  0.00    -0.346 A  
HETATM   21  C   UNL     1      -8.304  16.570  66.863  1.00  0.00    -0.212 A  
HETATM   22  F   UNL     1      -7.081  16.656  66.328  1.00  0.00    -0.262 F  
HETATM   23  C   UNL     1      -8.657  17.425  67.902  1.00  0.00    -0.232 A  
HETATM   24  C   UNL     1      -9.925  17.328  68.471  1.00  0.00    -0.320 A  
HETATM   25  C   UNL     1     -10.827  16.373  67.998  1.00  0.00    -0.342 A  
ENDBRANCH  18  19
ENDBRANCH  17  18
ENDBRANCH  14  17
ENDBRANCH  10  11
ENDBRANCH   8  10
ENDBRANCH   2   8
TORSDOF 7
ENDMDL
MODEL      121
REMARK 921   NORMALIZED FREE ENERGY PREDICTED BY IDOCK:   -4.62 KCAL/MOL
REMARK 922        TOTAL FREE ENERGY PREDICTED BY IDOCK:   -7.31 KCAL/MOL
REMARK 923 INTER-LIGAND FREE ENERGY PREDICTED BY IDOCK:   -6.69 KCAL/MOL
REMARK 924 INTRA-LIGAND FREE ENERGY PREDICTED BY IDOCK:   -0.61 KCAL/MOL
REMARK 927      BINDING AFFINITY PREDICTED BY RF-SCORE:    0.00 PKD
ROOT
HETATM    1  C   UNL     1      -9.530   3.246  68.788  1.00  0.00    -0.198 C  
HETATM    2  C   UNL     1      -9.540   4.705  69.239  1.00  0.00    -0.181 C  
ENDROOT
BRANCH   2   3
HETATM    3  C   UNL     1      -9.152   5.623  68.054  1.00  0.00    -0.107 C  
HETATM    4  H2  UNL     1     -11.123   5.524  67.320  1.00  0.00     0.000 HD 
HETATM    5  H1  UNL     1      -9.925   6.499  66.412  1.00  0.00     0.000 HD 
HETATM    6  O   UNL     1      -8.032   6.086  67.863  1.00  0.00    -0.104 OA 
HETATM    7  N   UNL     1     -10.181   5.894  67.193  1.00  0.00    -0.177 N  
ENDBRANCH   2   3
BRANCH   2   8
HETATM    8  N   UNL     1     -10.855   5.168  69.737  1.00  0.00     0.014 NA 
HETATM    9  H   UNL     1     -11.565   4.448  69.605  1.00  0.00     0.000 HD 
BRANCH   8  10
HETATM   10  C   UNL     1     -10.825   5.617  71.130  1.00  0.00    -0.218 C  
BRANCH  10  11
HETATM   11  C   UNL     1     -11.393   7.012  71.255  1.00  0.00    -0.309 A  
HETATM   12  C   UNL     1     -12.733   7.189  71.630  1.00  0.00    -0.415 A  
HETATM   13  C   UNL     1     -13.277   8.464  71.755  1.00  0.00    -0.376 A  
HETATM   14  C   UNL     1     -12.478   9.589  71.556  1.00  0.00    -0.376 A  
HETATM   15  C   UNL     1     -10.603   8.147  71.027  1.00  0.00    -0.242 A  
HETATM   16  C   UNL     1     -11.146   9.427  71.174  1.00  0.00    -0.432 A  
BRANCH  14  17
HETATM   17  O   UNL     1     -12.905  10.882  71.714  1.00  0.00    -0.431 OA 
BRANCH  17  18
HETATM   18  C   UNL     1     -12.439  11.786  70.708  1.00  0.00    -0.312 C  
BRANCH  18  19
HETATM   19  C   UNL     1     -12.523  13.220  71.168  1.00  0.00    -0.397 A  
HETATM   20  C   UNL     1     -12.803  13.550  72.500  1.00  0.00    -0.244 A  
HETATM   21  C   UNL     1     -12.963  14.881  72.865  1.00  0.00    -0.475 A  
HETATM   22  F   UNL     1     -13.238  15.187  74.138  1.00  0.00    -0.342 F  
HETATM   23  C   UNL     1     -12.861  15.901  71.925  1.00  0.00    -0.455 A  
HETATM   24  C   UNL     1     -12.590  15.585  70.595  1.00  0.00    -0.493 A  
HETATM   25  C   UNL     1     -12.426  14.251  70.218  1.00  0.00    -0.422 A  
ENDBRANCH  18  19
ENDBRANCH  17  18
ENDBRANCH  14  17
ENDBRANCH  10  11
ENDBRANCH   8  10
ENDBRANCH   2   8
TORSDOF 7
ENDMDL
MODEL      122
REMARK 921   NORMALIZED FREE ENERGY PREDICTED BY IDOCK:   -4.62 KCAL/MOL
REMARK 922        TOTAL FREE ENERGY PREDICTED BY IDOCK:   -7.30 KCAL/MOL
REMARK 923 INTER-LIGAND FREE ENERGY PREDICTED BY IDOCK:   -6.43 KCAL/MOL
REMARK 924 INTRA-LIGAND FREE ENERGY PREDICTED BY IDOCK:   -0.87 KCAL/MOL
REMARK 927      BINDING AFFINITY PREDICTED BY RF-SCORE:    0.00 PKD
ROOT
HETATM    1  C   UNL     1      -9.324   8.789  65.863  1.00  0.00    -0.284 C  
HETATM    2  C   UNL     1      -8.743   9.225  67.207  1.00  0.00    -0.128 C  
ENDROOT
BRANCH   2   3
HETATM    3  C   UNL     1      -7.665  10.314  66.983  1.00  0.00    -0.100 C  
HETATM    4  H2  UNL     1      -7.436  10.528  69.064  1.00  0.00     0.000 HD 
HETATM    5  H1  UNL     1      -6.432  11.550  67.989  1.00  0.00     0.000 HD 
HETATM    6  O   UNL     1      -7.286  10.711  65.886  1.00  0.00    -0.144 OA 
HETATM    7  N   UNL     1      -7.142  10.833  68.136  1.00  0.00    -0.076 N  
ENDBRANCH   2   3
BRANCH   2   8
HETATM    8  N   UNL     1      -9.746   9.789  68.138  1.00  0.00    -0.143 NA 
HETATM    9  H   UNL     1      -9.350  10.563  68.670  1.00  0.00     0.000 HD 
BRANCH   8  10
HETATM   10  C   UNL     1     -10.988  10.195  67.480  1.00  0.00    -0.255 C  
BRANCH  10  11
HETATM   11  C   UNL     1     -11.096  11.702  67.423  1.00  0.00    -0.337 A  
HETATM   12  C   UNL     1     -11.724  12.396  68.467  1.00  0.00    -0.373 A  
HETATM   13  C   UNL     1     -11.833  13.784  68.437  1.00  0.00    -0.411 A  
HETATM   14  C   UNL     1     -11.271  14.509  67.388  1.00  0.00    -0.327 A  
HETATM   15  C   UNL     1     -10.560  12.434  66.355  1.00  0.00    -0.271 A  
HETATM   16  C   UNL     1     -10.651  13.830  66.339  1.00  0.00    -0.284 A  
BRANCH  14  17
HETATM   17  O   UNL     1     -11.274  15.876  67.300  1.00  0.00    -0.234 OA 
BRANCH  17  18
HETATM   18  C   UNL     1     -11.000  16.550  68.531  1.00  0.00    -0.350 C  
BRANCH  18  19
HETATM   19  C   UNL     1     -10.019  17.680  68.341  1.00  0.00    -0.356 A  
HETATM   20  C   UNL     1     -10.436  18.959  67.951  1.00  0.00    -0.459 A  
HETATM   21  C   UNL     1      -9.493  19.948  67.697  1.00  0.00    -0.364 A  
HETATM   22  F   UNL     1      -9.901  21.165  67.319  1.00  0.00    -0.622 F  
HETATM   23  C   UNL     1      -8.132  19.688  67.811  1.00  0.00    -0.336 A  
HETATM   24  C   UNL     1      -7.704  18.417  68.191  1.00  0.00    -0.304 A  
HETATM   25  C   UNL     1      -8.643  17.417  68.450  1.00  0.00    -0.270 A  
ENDBRANCH  18  19
ENDBRANCH  17  18
ENDBRANCH  14  17
ENDBRANCH  10  11
ENDBRANCH   8  10
ENDBRANCH   2   8
TORSDOF 7
ENDMDL
MODEL      123
REMARK 921   NORMALIZED FREE ENERGY PREDICTED BY IDOCK:   -4.61 KCAL/MOL
REMARK 922        TOTAL FREE ENERGY PREDICTED BY IDOCK:   -7.29 KCAL/MOL
REMARK 923 INTER-LIGAND FREE ENERGY PREDICTED BY IDOCK:   -6.71 KCAL/MOL
REMARK 924 INTRA-LIGAND FREE ENERGY PREDICTED BY IDOCK:   -0.58 KCAL/MOL
REMARK 927      BINDING AFFINITY PREDICTED BY RF-SCORE:    0.00 PKD
ROOT
HETATM    1  C   UNL     1     -13.334  10.959  71.706  1.00  0.00    -0.413 C  
HETATM    2  C   UNL     1     -11.868  10.958  71.277  1.00  0.00     0.019 C  
ENDROOT
BRANCH   2   3
HETATM    3  C   UNL     1     -11.450   9.533  70.841  1.00  0.00    -0.334 C  
HETATM    4  H2  UNL     1     -11.830   8.817  72.784  1.00  0.00     0.000 HD 
HETATM    5  H1  UNL     1     -11.249   7.656  71.549  1.00  0.00     0.000 HD 
HETATM    6  O   UNL     1     -11.075   9.226  69.714  1.00  0.00    -0.227 OA 
HETATM    7  N   UNL     1     -11.525   8.596  71.836  1.00  0.00    -0.324 N  
ENDBRANCH   2   3
BRANCH   2   8
HETATM    8  N   UNL     1     -11.576  11.865  70.144  1.00  0.00    -0.520 NA 
HETATM    9  H   UNL     1     -11.749  11.398  69.254  1.00  0.00     0.000 HD 
BRANCH   8  10
HETATM   10  C   UNL     1     -12.299  13.135  70.212  1.00  0.00    -0.249 C  
BRANCH  10  11
HETATM   11  C   UNL     1     -11.778  14.104  69.175  1.00  0.00    -0.368 A  
HETATM   12  C   UNL     1     -11.129  15.279  69.583  1.00  0.00    -0.284 A  
HETATM   13  C   UNL     1     -10.639  16.185  68.646  1.00  0.00    -0.283 A  
HETATM   14  C   UNL     1     -10.741  15.909  67.284  1.00  0.00    -0.306 A  
HETATM   15  C   UNL     1     -11.905  13.846  67.804  1.00  0.00    -0.415 A  
HETATM   16  C   UNL     1     -11.391  14.747  66.865  1.00  0.00    -0.358 A  
BRANCH  14  17
HETATM   17  O   UNL     1     -10.238  16.707  66.290  1.00  0.00    -0.308 OA 
BRANCH  17  18
HETATM   18  C   UNL     1      -8.810  16.771  66.248  1.00  0.00    -0.299 C  
BRANCH  18  19
HETATM   19  C   UNL     1      -8.312  18.183  66.430  1.00  0.00    -0.272 A  
HETATM   20  C   UNL     1      -7.018  18.561  66.051  1.00  0.00    -0.310 A  
HETATM   21  C   UNL     1      -6.565  19.848  66.319  1.00  0.00    -0.211 A  
HETATM   22  F   UNL     1      -5.325  20.198  65.960  1.00  0.00    -0.169 F  
HETATM   23  C   UNL     1      -7.374  20.771  66.973  1.00  0.00    -0.354 A  
HETATM   24  C   UNL     1      -8.660  20.405  67.362  1.00  0.00    -0.403 A  
HETATM   25  C   UNL     1      -9.125  19.116  67.096  1.00  0.00    -0.324 A  
ENDBRANCH  18  19
ENDBRANCH  17  18
ENDBRANCH  14  17
ENDBRANCH  10  11
ENDBRANCH   8  10
ENDBRANCH   2   8
TORSDOF 7
ENDMDL
MODEL      124
REMARK 921   NORMALIZED FREE ENERGY PREDICTED BY IDOCK:   -4.61 KCAL/MOL
REMARK 922        TOTAL FREE ENERGY PREDICTED BY IDOCK:   -7.29 KCAL/MOL
REMARK 923 INTER-LIGAND FREE ENERGY PREDICTED BY IDOCK:   -6.51 KCAL/MOL
REMARK 924 INTRA-LIGAND FREE ENERGY PREDICTED BY IDOCK:   -0.77 KCAL/MOL
REMARK 927      BINDING AFFINITY PREDICTED BY RF-SCORE:    0.00 PKD
ROOT
HETATM    1  C   UNL     1     -11.574  14.901  66.503  1.00  0.00    -0.254 C  
HETATM    2  C   UNL     1     -10.445  15.109  65.495  1.00  0.00    -0.379 C  
ENDROOT
BRANCH   2   3
HETATM    3  C   UNL     1      -9.533  16.269  65.962  1.00  0.00    -0.334 C  
HETATM    4  H2  UNL     1      -8.132  14.882  66.700  1.00  0.00     0.000 HD 
HETATM    5  H1  UNL     1      -7.773  16.628  66.876  1.00  0.00     0.000 HD 
HETATM    6  O   UNL     1      -9.788  17.461  65.825  1.00  0.00    -0.536 OA 
HETATM    7  N   UNL     1      -8.374  15.864  66.568  1.00  0.00    -0.289 N  
ENDBRANCH   2   3
BRANCH   2   8
HETATM    8  N   UNL     1      -9.582  13.921  65.311  1.00  0.00    -0.546 NA 
HETATM    9  H   UNL     1      -8.907  13.844  66.071  1.00  0.00     0.000 HD 
BRANCH   8  10
HETATM   10  C   UNL     1     -10.331  12.675  65.153  1.00  0.00    -0.292 C  
BRANCH  10  11
HETATM   11  C   UNL     1      -9.957  11.685  66.233  1.00  0.00    -0.247 A  
HETATM   12  C   UNL     1     -10.399  10.356  66.145  1.00  0.00    -0.269 A  
HETATM   13  C   UNL     1     -10.064   9.427  67.126  1.00  0.00    -0.292 A  
HETATM   14  C   UNL     1      -9.239   9.794  68.188  1.00  0.00    -0.128 A  
HETATM   15  C   UNL     1      -9.152  12.056  67.319  1.00  0.00    -0.178 A  
HETATM   16  C   UNL     1      -8.799  11.114  68.291  1.00  0.00    -0.155 A  
BRANCH  14  17
HETATM   17  O   UNL     1      -8.806   8.939  69.167  1.00  0.00    -0.133 OA 
BRANCH  17  18
HETATM   18  C   UNL     1      -9.167   9.327  70.495  1.00  0.00    -0.261 C  
BRANCH  18  19
HETATM   19  C   UNL     1     -10.050   8.298  71.155  1.00  0.00    -0.237 A  
HETATM   20  C   UNL     1      -9.993   8.056  72.533  1.00  0.00    -0.338 A  
HETATM   21  C   UNL     1     -10.756   7.035  73.089  1.00  0.00    -0.326 A  
HETATM   22  F   UNL     1     -10.690   6.806  74.406  1.00  0.00    -0.316 F  
HETATM   23  C   UNL     1     -11.572   6.236  72.297  1.00  0.00    -0.355 A  
HETATM   24  C   UNL     1     -11.632   6.462  70.923  1.00  0.00    -0.393 A  
HETATM   25  C   UNL     1     -10.870   7.485  70.355  1.00  0.00    -0.255 A  
ENDBRANCH  18  19
ENDBRANCH  17  18
ENDBRANCH  14  17
ENDBRANCH  10  11
ENDBRANCH   8  10
ENDBRANCH   2   8
TORSDOF 7
ENDMDL
MODEL      125
REMARK 921   NORMALIZED FREE ENERGY PREDICTED BY IDOCK:   -4.60 KCAL/MOL
REMARK 922        TOTAL FREE ENERGY PREDICTED BY IDOCK:   -7.28 KCAL/MOL
REMARK 923 INTER-LIGAND FREE ENERGY PREDICTED BY IDOCK:   -6.78 KCAL/MOL
REMARK 924 INTRA-LIGAND FREE ENERGY PREDICTED BY IDOCK:   -0.50 KCAL/MOL
REMARK 927      BINDING AFFINITY PREDICTED BY RF-SCORE:    0.00 PKD
ROOT
HETATM    1  C   UNL     1     -10.623  19.649  66.611  1.00  0.00    -0.599 C  
HETATM    2  C   UNL     1      -9.753  18.397  66.697  1.00  0.00    -0.337 C  
ENDROOT
BRANCH   2   3
HETATM    3  C   UNL     1      -8.768  18.523  67.884  1.00  0.00    -0.284 C  
HETATM    4  H2  UNL     1      -8.946  16.461  68.263  1.00  0.00     0.000 HD 
HETATM    5  H1  UNL     1      -7.870  17.429  69.319  1.00  0.00     0.000 HD 
HETATM    6  O   UNL     1      -8.236  19.568  68.246  1.00  0.00    -0.321 OA 
HETATM    7  N   UNL     1      -8.519  17.346  68.536  1.00  0.00    -0.269 N  
ENDBRANCH   2   3
BRANCH   2   8
HETATM    8  N   UNL     1     -10.521  17.148  66.898  1.00  0.00    -0.305 NA 
HETATM    9  H   UNL     1     -11.499  17.354  67.098  1.00  0.00     0.000 HD 
BRANCH   8  10
HETATM   10  C   UNL     1     -10.406  16.207  65.784  1.00  0.00    -0.378 C  
BRANCH  10  11
HETATM   11  C   UNL     1     -10.634  14.788  66.254  1.00  0.00    -0.306 A  
HETATM   12  C   UNL     1     -11.900  14.402  66.718  1.00  0.00    -0.431 A  
HETATM   13  C   UNL     1     -12.134  13.101  67.154  1.00  0.00    -0.343 A  
HETATM   14  C   UNL     1     -11.121  12.146  67.087  1.00  0.00    -0.291 A  
HETATM   15  C   UNL     1      -9.610  13.832  66.217  1.00  0.00    -0.265 A  
HETATM   16  C   UNL     1      -9.854  12.520  66.635  1.00  0.00    -0.245 A  
BRANCH  14  17
HETATM   17  O   UNL     1     -11.270  10.829  67.434  1.00  0.00    -0.321 OA 
BRANCH  17  18
HETATM   18  C   UNL     1     -10.070  10.196  67.885  1.00  0.00    -0.176 C  
BRANCH  18  19
HETATM   19  C   UNL     1     -10.279   8.723  68.135  1.00  0.00    -0.250 A  
HETATM   20  C   UNL     1     -10.255   8.186  69.428  1.00  0.00    -0.211 A  
HETATM   21  C   UNL     1     -10.360   6.812  69.609  1.00  0.00    -0.198 A  
HETATM   22  F   UNL     1     -10.330   6.307  70.848  1.00  0.00    -0.210 F  
HETATM   23  C   UNL     1     -10.477   5.951  68.523  1.00  0.00    -0.297 A  
HETATM   24  C   UNL     1     -10.494   6.473  67.232  1.00  0.00    -0.337 A  
HETATM   25  C   UNL     1     -10.391   7.851  67.038  1.00  0.00    -0.411 A  
ENDBRANCH  18  19
ENDBRANCH  17  18
ENDBRANCH  14  17
ENDBRANCH  10  11
ENDBRANCH   8  10
ENDBRANCH   2   8
TORSDOF 7
ENDMDL
MODEL      126
REMARK 921   NORMALIZED FREE ENERGY PREDICTED BY IDOCK:   -4.60 KCAL/MOL
REMARK 922        TOTAL FREE ENERGY PREDICTED BY IDOCK:   -7.27 KCAL/MOL
REMARK 923 INTER-LIGAND FREE ENERGY PREDICTED BY IDOCK:   -6.26 KCAL/MOL
REMARK 924 INTRA-LIGAND FREE ENERGY PREDICTED BY IDOCK:   -1.01 KCAL/MOL
REMARK 927      BINDING AFFINITY PREDICTED BY RF-SCORE:    0.00 PKD
ROOT
HETATM    1  C   UNL     1     -10.135   9.753  66.722  1.00  0.00    -0.295 C  
HETATM    2  C   UNL     1     -10.395  11.041  65.943  1.00  0.00    -0.257 C  
ENDROOT
BRANCH   2   3
HETATM    3  C   UNL     1     -11.496  11.869  66.649  1.00  0.00    -0.314 C  
HETATM    4  H2  UNL     1     -11.020  10.953  68.484  1.00  0.00     0.000 HD 
HETATM    5  H1  UNL     1     -12.336  12.169  68.457  1.00  0.00     0.000 HD 
HETATM    6  O   UNL     1     -12.228  12.681  66.094  1.00  0.00    -0.568 OA 
HETATM    7  N   UNL     1     -11.610  11.624  67.991  1.00  0.00    -0.315 N  
ENDBRANCH   2   3
BRANCH   2   8
HETATM    8  N   UNL     1      -9.206  11.914  65.817  1.00  0.00    -0.398 NA 
HETATM    9  H   UNL     1      -9.484  12.879  65.644  1.00  0.00     0.000 HD 
BRANCH   8  10
HETATM   10  C   UNL     1      -8.299  11.832  66.961  1.00  0.00    -0.172 C  
BRANCH  10  11
HETATM   11  C   UNL     1      -7.986  13.211  67.497  1.00  0.00    -0.179 A  
HETATM   12  C   UNL     1      -8.928  13.882  68.290  1.00  0.00    -0.187 A  
HETATM   13  C   UNL     1      -8.660  15.151  68.796  1.00  0.00    -0.182 A  
HETATM   14  C   UNL     1      -7.425  15.753  68.561  1.00  0.00    -0.129 A  
HETATM   15  C   UNL     1      -6.757  13.834  67.238  1.00  0.00     0.195 A  
HETATM   16  C   UNL     1      -6.482  15.100  67.766  1.00  0.00    -0.182 A  
BRANCH  14  17
HETATM   17  O   UNL     1      -7.046  16.969  69.065  1.00  0.00    -0.220 OA 
BRANCH  17  18
HETATM   18  C   UNL     1      -7.014  18.026  68.101  1.00  0.00    -0.224 C  
BRANCH  18  19
HETATM   19  C   UNL     1      -8.397  18.550  67.805  1.00  0.00    -0.273 A  
HETATM   20  C   UNL     1      -9.018  18.331  66.569  1.00  0.00    -0.285 A  
HETATM   21  C   UNL     1     -10.253  18.909  66.302  1.00  0.00    -0.438 A  
HETATM   22  F   UNL     1     -10.836  18.700  65.116  1.00  0.00    -0.392 F  
HETATM   23  C   UNL     1     -10.886  19.716  67.241  1.00  0.00    -0.519 A  
HETATM   24  C   UNL     1     -10.276  19.948  68.472  1.00  0.00    -0.529 A  
HETATM   25  C   UNL     1      -9.035  19.372  68.751  1.00  0.00    -0.396 A  
ENDBRANCH  18  19
ENDBRANCH  17  18
ENDBRANCH  14  17
ENDBRANCH  10  11
ENDBRANCH   8  10
ENDBRANCH   2   8
TORSDOF 7
ENDMDL
MODEL      127
REMARK 921   NORMALIZED FREE ENERGY PREDICTED BY IDOCK:   -4.59 KCAL/MOL
REMARK 922        TOTAL FREE ENERGY PREDICTED BY IDOCK:   -7.27 KCAL/MOL
REMARK 923 INTER-LIGAND FREE ENERGY PREDICTED BY IDOCK:   -6.60 KCAL/MOL
REMARK 924 INTRA-LIGAND FREE ENERGY PREDICTED BY IDOCK:   -0.66 KCAL/MOL
REMARK 927      BINDING AFFINITY PREDICTED BY RF-SCORE:    0.00 PKD
ROOT
HETATM    1  C   UNL     1     -10.561  19.861  65.962  1.00  0.00    -0.527 C  
HETATM    2  C   UNL     1      -9.310  19.139  66.458  1.00  0.00    -0.348 C  
ENDROOT
BRANCH   2   3
HETATM    3  C   UNL     1      -9.216  19.252  67.999  1.00  0.00    -0.321 C  
HETATM    4  H2  UNL     1      -7.329  18.320  67.961  1.00  0.00     0.000 HD 
HETATM    5  H1  UNL     1      -8.002  18.814  69.547  1.00  0.00     0.000 HD 
HETATM    6  O   UNL     1     -10.077  19.745  68.720  1.00  0.00    -0.450 OA 
HETATM    7  N   UNL     1      -8.064  18.740  68.531  1.00  0.00    -0.337 N  
ENDBRANCH   2   3
BRANCH   2   8
HETATM    8  N   UNL     1      -9.280  17.697  66.123  1.00  0.00    -0.487 NA 
HETATM    9  H   UNL     1      -8.459  17.249  66.530  1.00  0.00     0.000 HD 
BRANCH   8  10
HETATM   10  C   UNL     1     -10.500  16.985  66.502  1.00  0.00    -0.250 C  
BRANCH  10  11
HETATM   11  C   UNL     1     -10.385  15.513  66.175  1.00  0.00    -0.327 A  
HETATM   12  C   UNL     1     -10.952  15.015  64.992  1.00  0.00    -0.436 A  
HETATM   13  C   UNL     1     -10.856  13.665  64.669  1.00  0.00    -0.416 A  
HETATM   14  C   UNL     1     -10.148  12.794  65.496  1.00  0.00    -0.264 A  
HETATM   15  C   UNL     1      -9.700  14.628  67.018  1.00  0.00    -0.247 A  
HETATM   16  C   UNL     1      -9.587  13.276  66.679  1.00  0.00    -0.262 A  
BRANCH  14  17
HETATM   17  O   UNL     1      -9.947  11.465  65.233  1.00  0.00    -0.235 OA 
BRANCH  17  18
HETATM   18  C   UNL     1      -8.685  10.957  65.675  1.00  0.00    -0.183 C  
BRANCH  18  19
HETATM   19  C   UNL     1      -8.815   9.571  66.255  1.00  0.00    -0.172 A  
HETATM   20  C   UNL     1     -10.052   8.918  66.328  1.00  0.00    -0.284 A  
HETATM   21  C   UNL     1     -10.145   7.679  66.952  1.00  0.00    -0.278 A  
HETATM   22  F   UNL     1     -11.332   7.066  67.025  1.00  0.00    -0.443 F  
HETATM   23  C   UNL     1      -9.028   7.076  67.521  1.00  0.00    -0.117 A  
HETATM   24  C   UNL     1      -7.794   7.719  67.460  1.00  0.00    -0.122 A  
HETATM   25  C   UNL     1      -7.689   8.963  66.835  1.00  0.00    -0.098 A  
ENDBRANCH  18  19
ENDBRANCH  17  18
ENDBRANCH  14  17
ENDBRANCH  10  11
ENDBRANCH   8  10
ENDBRANCH   2   8
TORSDOF 7
ENDMDL
MODEL      128
REMARK 921   NORMALIZED FREE ENERGY PREDICTED BY IDOCK:   -4.58 KCAL/MOL
REMARK 922        TOTAL FREE ENERGY PREDICTED BY IDOCK:   -7.24 KCAL/MOL
REMARK 923 INTER-LIGAND FREE ENERGY PREDICTED BY IDOCK:   -6.47 KCAL/MOL
REMARK 924 INTRA-LIGAND FREE ENERGY PREDICTED BY IDOCK:   -0.77 KCAL/MOL
REMARK 927      BINDING AFFINITY PREDICTED BY RF-SCORE:    0.00 PKD
ROOT
HETATM    1  C   UNL     1     -10.949  19.443  67.209  1.00  0.00    -0.454 C  
HETATM    2  C   UNL     1     -10.066  18.698  66.211  1.00  0.00    -0.400 C  
ENDROOT
BRANCH   2   3
HETATM    3  C   UNL     1      -8.626  19.264  66.260  1.00  0.00    -0.325 C  
HETATM    4  H2  UNL     1      -9.044  20.193  68.102  1.00  0.00     0.000 HD 
HETATM    5  H1  UNL     1      -7.407  20.393  67.402  1.00  0.00     0.000 HD 
HETATM    6  O   UNL     1      -7.771  19.081  65.400  1.00  0.00    -0.362 OA 
HETATM    7  N   UNL     1      -8.356  20.019  67.369  1.00  0.00    -0.324 N  
ENDBRANCH   2   3
BRANCH   2   8
HETATM    8  N   UNL     1      -9.971  17.243  66.466  1.00  0.00    -0.292 NA 
HETATM    9  H   UNL     1     -10.255  17.024  67.421  1.00  0.00     0.000 HD 
BRANCH   8  10
HETATM   10  C   UNL     1     -10.720  16.433  65.505  1.00  0.00    -0.287 C  
BRANCH  10  11
HETATM   11  C   UNL     1     -11.074  15.088  66.099  1.00  0.00    -0.329 A  
HETATM   12  C   UNL     1     -11.040  14.909  67.490  1.00  0.00    -0.319 A  
HETATM   13  C   UNL     1     -11.365  13.681  68.059  1.00  0.00    -0.316 A  
HETATM   14  C   UNL     1     -11.781  12.622  67.253  1.00  0.00    -0.370 A  
HETATM   15  C   UNL     1     -11.464  14.011  65.291  1.00  0.00    -0.322 A  
HETATM   16  C   UNL     1     -11.811  12.785  65.867  1.00  0.00    -0.490 A  
BRANCH  14  17
HETATM   17  O   UNL     1     -12.178  11.398  67.722  1.00  0.00    -0.537 OA 
BRANCH  17  18
HETATM   18  C   UNL     1     -11.581  11.017  68.965  1.00  0.00    -0.323 C  
BRANCH  18  19
HETATM   19  C   UNL     1     -10.310  10.233  68.754  1.00  0.00    -0.211 A  
HETATM   20  C   UNL     1      -9.053  10.850  68.773  1.00  0.00    -0.174 A  
HETATM   21  C   UNL     1      -7.913  10.110  68.483  1.00  0.00    -0.104 A  
HETATM   22  F   UNL     1      -6.717  10.709  68.496  1.00  0.00    -0.054 F  
HETATM   23  C   UNL     1      -7.997   8.759  68.161  1.00  0.00    -0.106 A  
HETATM   24  C   UNL     1      -9.243   8.136  68.131  1.00  0.00    -0.136 A  
HETATM   25  C   UNL     1     -10.394   8.870  68.422  1.00  0.00    -0.237 A  
ENDBRANCH  18  19
ENDBRANCH  17  18
ENDBRANCH  14  17
ENDBRANCH  10  11
ENDBRANCH   8  10
ENDBRANCH   2   8
TORSDOF 7
ENDMDL
MODEL      129
REMARK 921   NORMALIZED FREE ENERGY PREDICTED BY IDOCK:   -4.58 KCAL/MOL
REMARK 922        TOTAL FREE ENERGY PREDICTED BY IDOCK:   -7.24 KCAL/MOL
REMARK 923 INTER-LIGAND FREE ENERGY PREDICTED BY IDOCK:   -6.58 KCAL/MOL
REMARK 924 INTRA-LIGAND FREE ENERGY PREDICTED BY IDOCK:   -0.66 KCAL/MOL
REMARK 927      BINDING AFFINITY PREDICTED BY RF-SCORE:    0.00 PKD
ROOT
HETATM    1  C   UNL     1      -9.901   5.169  67.632  1.00  0.00    -0.197 C  
HETATM    2  C   UNL     1      -9.043   5.459  66.402  1.00  0.00    -0.141 C  
ENDROOT
BRANCH   2   3
HETATM    3  C   UNL     1      -9.371   4.441  65.282  1.00  0.00    -0.164 C  
HETATM    4  H2  UNL     1      -7.521   3.487  65.596  1.00  0.00     0.000 HD 
HETATM    5  H1  UNL     1      -8.608   2.839  64.327  1.00  0.00     0.000 HD 
HETATM    6  O   UNL     1     -10.403   4.436  64.619  1.00  0.00    -0.123 OA 
HETATM    7  N   UNL     1      -8.392   3.510  65.065  1.00  0.00    -0.097 N  
ENDBRANCH   2   3
BRANCH   2   8
HETATM    8  N   UNL     1      -9.246   6.812  65.836  1.00  0.00    -0.368 NA 
HETATM    9  H   UNL     1     -10.240   7.028  65.767  1.00  0.00     0.000 HD 
BRANCH   8  10
HETATM   10  C   UNL     1      -8.536   7.862  66.566  1.00  0.00    -0.142 C  
BRANCH  10  11
HETATM   11  C   UNL     1      -9.512   8.797  67.243  1.00  0.00    -0.200 A  
HETATM   12  C   UNL     1     -10.174   9.778  66.490  1.00  0.00    -0.289 A  
HETATM   13  C   UNL     1     -11.079  10.649  67.091  1.00  0.00    -0.267 A  
HETATM   14  C   UNL     1     -11.378  10.523  68.446  1.00  0.00    -0.262 A  
HETATM   15  C   UNL     1      -9.794   8.695  68.612  1.00  0.00    -0.180 A  
HETATM   16  C   UNL     1     -10.720   9.557  69.208  1.00  0.00    -0.240 A  
BRANCH  14  17
HETATM   17  O   UNL     1     -12.296  11.291  69.113  1.00  0.00    -0.403 OA 
BRANCH  17  18
HETATM   18  C   UNL     1     -12.030  11.455  70.509  1.00  0.00    -0.356 C  
BRANCH  18  19
HETATM   19  C   UNL     1     -12.507  12.795  71.012  1.00  0.00    -0.369 A  
HETATM   20  C   UNL     1     -11.926  13.993  70.576  1.00  0.00    -0.390 A  
HETATM   21  C   UNL     1     -12.331  15.200  71.132  1.00  0.00    -0.341 A  
HETATM   22  F   UNL     1     -11.766  16.340  70.716  1.00  0.00    -0.380 F  
HETATM   23  C   UNL     1     -13.300  15.243  72.129  1.00  0.00    -0.519 A  
HETATM   24  C   UNL     1     -13.879  14.058  72.576  1.00  0.00    -0.610 A  
HETATM   25  C   UNL     1     -13.481  12.839  72.024  1.00  0.00    -0.540 A  
ENDBRANCH  18  19
ENDBRANCH  17  18
ENDBRANCH  14  17
ENDBRANCH  10  11
ENDBRANCH   8  10
ENDBRANCH   2   8
TORSDOF 7
ENDMDL
MODEL      130
REMARK 921   NORMALIZED FREE ENERGY PREDICTED BY IDOCK:   -4.58 KCAL/MOL
REMARK 922        TOTAL FREE ENERGY PREDICTED BY IDOCK:   -7.24 KCAL/MOL
REMARK 923 INTER-LIGAND FREE ENERGY PREDICTED BY IDOCK:   -6.53 KCAL/MOL
REMARK 924 INTRA-LIGAND FREE ENERGY PREDICTED BY IDOCK:   -0.71 KCAL/MOL
REMARK 927      BINDING AFFINITY PREDICTED BY RF-SCORE:    0.00 PKD
ROOT
HETATM    1  C   UNL     1      -8.412   3.670  65.663  1.00  0.00    -0.110 C  
HETATM    2  C   UNL     1      -9.303   4.527  64.765  1.00  0.00    -0.138 C  
ENDROOT
BRANCH   2   3
HETATM    3  C   UNL     1      -9.858   3.668  63.603  1.00  0.00    -0.166 C  
HETATM    4  H2  UNL     1      -8.058   3.924  62.543  1.00  0.00     0.000 HD 
HETATM    5  H1  UNL     1      -9.356   2.945  61.790  1.00  0.00     0.000 HD 
HETATM    6  O   UNL     1     -10.972   3.156  63.579  1.00  0.00    -0.237 OA 
HETATM    7  N   UNL     1      -8.990   3.511  62.556  1.00  0.00    -0.088 N  
ENDBRANCH   2   3
BRANCH   2   8
HETATM    8  N   UNL     1     -10.467   5.117  65.466  1.00  0.00    -0.452 NA 
HETATM    9  H   UNL     1     -11.338   4.841  65.013  1.00  0.00     0.000 HD 
BRANCH   8  10
HETATM   10  C   UNL     1     -10.505   4.808  66.895  1.00  0.00    -0.080 C  
BRANCH  10  11
HETATM   11  C   UNL     1     -10.565   6.076  67.716  1.00  0.00    -0.337 A  
HETATM   12  C   UNL     1     -10.793   6.002  69.098  1.00  0.00    -0.422 A  
HETATM   13  C   UNL     1     -10.850   7.156  69.874  1.00  0.00    -0.276 A  
HETATM   14  C   UNL     1     -10.630   8.404  69.293  1.00  0.00    -0.182 A  
HETATM   15  C   UNL     1     -10.374   7.335  67.131  1.00  0.00    -0.367 A  
HETATM   16  C   UNL     1     -10.410   8.492  67.917  1.00  0.00    -0.281 A  
BRANCH  14  17
HETATM   17  O   UNL     1     -10.606   9.588  69.981  1.00  0.00    -0.211 OA 
BRANCH  17  18
HETATM   18  C   UNL     1     -11.117  10.708  69.253  1.00  0.00    -0.252 C  
BRANCH  18  19
HETATM   19  C   UNL     1     -11.929  11.622  70.136  1.00  0.00    -0.441 A  
HETATM   20  C   UNL     1     -11.965  13.006  69.926  1.00  0.00    -0.381 A  
HETATM   21  C   UNL     1     -12.650  13.824  70.817  1.00  0.00    -0.340 A  
HETATM   22  F   UNL     1     -12.673  15.147  70.613  1.00  0.00    -0.344 F  
HETATM   23  C   UNL     1     -13.297  13.293  71.927  1.00  0.00    -0.540 A  
HETATM   24  C   UNL     1     -13.263  11.919  72.151  1.00  0.00    -0.366 A  
HETATM   25  C   UNL     1     -12.578  11.088  71.262  1.00  0.00    -0.517 A  
ENDBRANCH  18  19
ENDBRANCH  17  18
ENDBRANCH  14  17
ENDBRANCH  10  11
ENDBRANCH   8  10
ENDBRANCH   2   8
TORSDOF 7
ENDMDL
MODEL      131
REMARK 921   NORMALIZED FREE ENERGY PREDICTED BY IDOCK:   -4.58 KCAL/MOL
REMARK 922        TOTAL FREE ENERGY PREDICTED BY IDOCK:   -7.24 KCAL/MOL
REMARK 923 INTER-LIGAND FREE ENERGY PREDICTED BY IDOCK:   -6.32 KCAL/MOL
REMARK 924 INTRA-LIGAND FREE ENERGY PREDICTED BY IDOCK:   -0.92 KCAL/MOL
REMARK 927      BINDING AFFINITY PREDICTED BY RF-SCORE:    0.00 PKD
ROOT
HETATM    1  C   UNL     1      -7.730   7.407  67.181  1.00  0.00    -0.115 C  
HETATM    2  C   UNL     1      -8.845   6.946  66.244  1.00  0.00    -0.148 C  
ENDROOT
BRANCH   2   3
HETATM    3  C   UNL     1     -10.213   7.065  66.957  1.00  0.00    -0.260 C  
HETATM    4  H2  UNL     1     -10.270   4.977  67.217  1.00  0.00     0.000 HD 
HETATM    5  H1  UNL     1     -11.641   5.949  67.838  1.00  0.00     0.000 HD 
HETATM    6  O   UNL     1     -10.811   8.118  67.156  1.00  0.00    -0.261 OA 
HETATM    7  N   UNL     1     -10.739   5.871  67.368  1.00  0.00    -0.279 N  
ENDBRANCH   2   3
BRANCH   2   8
HETATM    8  N   UNL     1      -8.935   7.731  64.992  1.00  0.00    -0.334 NA 
HETATM    9  H   UNL     1      -9.905   7.972  64.786  1.00  0.00     0.000 HD 
BRANCH   8  10
HETATM   10  C   UNL     1      -8.093   8.928  64.991  1.00  0.00    -0.137 C  
BRANCH  10  11
HETATM   11  C   UNL     1      -8.940  10.179  65.039  1.00  0.00    -0.227 A  
HETATM   12  C   UNL     1      -8.829  11.055  66.129  1.00  0.00    -0.197 A  
HETATM   13  C   UNL     1      -9.597  12.214  66.194  1.00  0.00    -0.250 A  
HETATM   14  C   UNL     1     -10.453  12.548  65.146  1.00  0.00    -0.293 A  
HETATM   15  C   UNL     1      -9.825  10.504  64.002  1.00  0.00    -0.387 A  
HETATM   16  C   UNL     1     -10.579  11.681  64.059  1.00  0.00    -0.426 A  
BRANCH  14  17
HETATM   17  O   UNL     1     -11.203  13.693  65.089  1.00  0.00    -0.298 OA 
BRANCH  17  18
HETATM   18  C   UNL     1     -12.232  13.778  66.079  1.00  0.00    -0.457 C  
BRANCH  18  19
HETATM   19  C   UNL     1     -11.773  14.543  67.295  1.00  0.00    -0.429 A  
HETATM   20  C   UNL     1     -11.003  15.707  67.184  1.00  0.00    -0.270 A  
HETATM   21  C   UNL     1     -10.523  16.332  68.329  1.00  0.00    -0.284 A  
HETATM   22  F   UNL     1      -9.782  17.440  68.213  1.00  0.00    -0.256 F  
HETATM   23  C   UNL     1     -10.782  15.812  69.592  1.00  0.00    -0.292 A  
HETATM   24  C   UNL     1     -11.539  14.650  69.716  1.00  0.00    -0.341 A  
HETATM   25  C   UNL     1     -12.028  14.015  68.572  1.00  0.00    -0.383 A  
ENDBRANCH  18  19
ENDBRANCH  17  18
ENDBRANCH  14  17
ENDBRANCH  10  11
ENDBRANCH   8  10
ENDBRANCH   2   8
TORSDOF 7
ENDMDL
MODEL      132
REMARK 921   NORMALIZED FREE ENERGY PREDICTED BY IDOCK:   -4.57 KCAL/MOL
REMARK 922        TOTAL FREE ENERGY PREDICTED BY IDOCK:   -7.24 KCAL/MOL
REMARK 923 INTER-LIGAND FREE ENERGY PREDICTED BY IDOCK:   -6.51 KCAL/MOL
REMARK 924 INTRA-LIGAND FREE ENERGY PREDICTED BY IDOCK:   -0.73 KCAL/MOL
REMARK 927      BINDING AFFINITY PREDICTED BY RF-SCORE:    0.00 PKD
ROOT
HETATM    1  C   UNL     1      -9.897   5.135  67.626  1.00  0.00    -0.197 C  
HETATM    2  C   UNL     1      -9.031   5.272  66.376  1.00  0.00    -0.128 C  
ENDROOT
BRANCH   2   3
HETATM    3  C   UNL     1      -9.380   4.149  65.370  1.00  0.00    -0.163 C  
HETATM    4  H2  UNL     1     -11.384   4.791  65.334  1.00  0.00     0.000 HD 
HETATM    5  H1  UNL     1     -10.924   3.385  64.324  1.00  0.00     0.000 HD 
HETATM    6  O   UNL     1      -8.581   3.327  64.931  1.00  0.00    -0.100 OA 
HETATM    7  N   UNL     1     -10.693   4.125  64.987  1.00  0.00    -0.184 N  
ENDBRANCH   2   3
BRANCH   2   8
HETATM    8  N   UNL     1      -9.201   6.561  65.668  1.00  0.00    -0.373 NA 
HETATM    9  H   UNL     1     -10.190   6.794  65.577  1.00  0.00     0.000 HD 
BRANCH   8  10
HETATM   10  C   UNL     1      -8.462   7.665  66.280  1.00  0.00    -0.139 C  
BRANCH  10  11
HETATM   11  C   UNL     1      -9.411   8.714  66.813  1.00  0.00    -0.250 A  
HETATM   12  C   UNL     1     -10.010   9.626  65.931  1.00  0.00    -0.351 A  
HETATM   13  C   UNL     1     -10.888  10.599  66.399  1.00  0.00    -0.132 A  
HETATM   14  C   UNL     1     -11.226  10.648  67.751  1.00  0.00    -0.313 A  
HETATM   15  C   UNL     1      -9.731   8.787  68.176  1.00  0.00    -0.177 A  
HETATM   16  C   UNL     1     -10.632   9.751  68.640  1.00  0.00    -0.249 A  
BRANCH  14  17
HETATM   17  O   UNL     1     -12.125  11.527  68.295  1.00  0.00    -0.580 OA 
BRANCH  17  18
HETATM   18  C   UNL     1     -12.118  11.572  69.725  1.00  0.00    -0.306 C  
BRANCH  18  19
HETATM   19  C   UNL     1     -12.225  12.987  70.237  1.00  0.00    -0.368 A  
HETATM   20  C   UNL     1     -12.954  13.297  71.392  1.00  0.00    -0.398 A  
HETATM   21  C   UNL     1     -13.106  14.623  71.779  1.00  0.00    -0.341 A  
HETATM   22  F   UNL     1     -13.809  14.912  72.881  1.00  0.00    -0.505 F  
HETATM   23  C   UNL     1     -12.554  15.658  71.031  1.00  0.00    -0.515 A  
HETATM   24  C   UNL     1     -11.834  15.362  69.876  1.00  0.00    -0.373 A  
HETATM   25  C   UNL     1     -11.674  14.033  69.478  1.00  0.00    -0.367 A  
ENDBRANCH  18  19
ENDBRANCH  17  18
ENDBRANCH  14  17
ENDBRANCH  10  11
ENDBRANCH   8  10
ENDBRANCH   2   8
TORSDOF 7
ENDMDL
MODEL      133
REMARK 921   NORMALIZED FREE ENERGY PREDICTED BY IDOCK:   -4.57 KCAL/MOL
REMARK 922        TOTAL FREE ENERGY PREDICTED BY IDOCK:   -7.23 KCAL/MOL
REMARK 923 INTER-LIGAND FREE ENERGY PREDICTED BY IDOCK:   -6.29 KCAL/MOL
REMARK 924 INTRA-LIGAND FREE ENERGY PREDICTED BY IDOCK:   -0.95 KCAL/MOL
REMARK 927      BINDING AFFINITY PREDICTED BY RF-SCORE:    0.00 PKD
ROOT
HETATM    1  C   UNL     1     -14.299   8.218  72.499  1.00  0.00    -0.230 C  
HETATM    2  C   UNL     1     -13.137   9.195  72.335  1.00  0.00    -0.423 C  
ENDROOT
BRANCH   2   3
HETATM    3  C   UNL     1     -11.844   8.418  71.985  1.00  0.00    -0.353 C  
HETATM    4  H2  UNL     1     -12.979   6.981  70.946  1.00  0.00     0.000 HD 
HETATM    5  H1  UNL     1     -11.200   6.774  71.013  1.00  0.00     0.000 HD 
HETATM    6  O   UNL     1     -10.713   8.748  72.326  1.00  0.00    -0.344 OA 
HETATM    7  N   UNL     1     -12.052   7.287  71.243  1.00  0.00    -0.322 N  
ENDBRANCH   2   3
BRANCH   2   8
HETATM    8  N   UNL     1     -13.345  10.198  71.266  1.00  0.00    -0.348 NA 
HETATM    9  H   UNL     1     -14.340  10.351  71.104  1.00  0.00     0.000 HD 
BRANCH   8  10
HETATM   10  C   UNL     1     -12.659  11.466  71.516  1.00  0.00    -0.288 C  
BRANCH  10  11
HETATM   11  C   UNL     1     -12.321  12.158  70.215  1.00  0.00    -0.269 A  
HETATM   12  C   UNL     1     -12.329  13.559  70.146  1.00  0.00    -0.345 A  
HETATM   13  C   UNL     1     -12.018  14.217  68.960  1.00  0.00    -0.376 A  
HETATM   14  C   UNL     1     -11.643  13.489  67.832  1.00  0.00    -0.342 A  
HETATM   15  C   UNL     1     -11.973  11.430  69.069  1.00  0.00    -0.387 A  
HETATM   16  C   UNL     1     -11.639  12.095  67.884  1.00  0.00    -0.413 A  
BRANCH  14  17
HETATM   17  O   UNL     1     -11.262  14.046  66.639  1.00  0.00    -0.310 OA 
BRANCH  17  18
HETATM   18  C   UNL     1      -9.899  13.805  66.281  1.00  0.00    -0.303 C  
BRANCH  18  19
HETATM   19  C   UNL     1      -8.948  14.594  67.147  1.00  0.00    -0.240 A  
HETATM   20  C   UNL     1      -8.112  13.969  68.080  1.00  0.00    -0.152 A  
HETATM   21  C   UNL     1      -7.318  14.738  68.922  1.00  0.00    -0.130 A  
HETATM   22  F   UNL     1      -6.527  14.132  69.816  1.00  0.00    -0.117 F  
HETATM   23  C   UNL     1      -7.346  16.127  68.866  1.00  0.00    -0.186 A  
HETATM   24  C   UNL     1      -8.180  16.761  67.947  1.00  0.00    -0.189 A  
HETATM   25  C   UNL     1      -8.981  15.998  67.095  1.00  0.00    -0.220 A  
ENDBRANCH  18  19
ENDBRANCH  17  18
ENDBRANCH  14  17
ENDBRANCH  10  11
ENDBRANCH   8  10
ENDBRANCH   2   8
TORSDOF 7
ENDMDL
MODEL      134
REMARK 921   NORMALIZED FREE ENERGY PREDICTED BY IDOCK:   -4.56 KCAL/MOL
REMARK 922        TOTAL FREE ENERGY PREDICTED BY IDOCK:   -7.23 KCAL/MOL
REMARK 923 INTER-LIGAND FREE ENERGY PREDICTED BY IDOCK:   -6.28 KCAL/MOL
REMARK 924 INTRA-LIGAND FREE ENERGY PREDICTED BY IDOCK:   -0.95 KCAL/MOL
REMARK 927      BINDING AFFINITY PREDICTED BY RF-SCORE:    0.00 PKD
ROOT
HETATM    1  C   UNL     1      -8.018   6.227  67.287  1.00  0.00    -0.109 C  
HETATM    2  C   UNL     1      -8.929   6.204  66.061  1.00  0.00    -0.145 C  
ENDROOT
BRANCH   2   3
HETATM    3  C   UNL     1     -10.363   5.798  66.479  1.00  0.00    -0.209 C  
HETATM    4  H2  UNL     1     -10.204   4.033  65.343  1.00  0.00     0.000 HD 
HETATM    5  H1  UNL     1     -11.730   4.338  66.232  1.00  0.00     0.000 HD 
HETATM    6  O   UNL     1     -11.094   6.458  67.211  1.00  0.00    -0.368 OA 
HETATM    7  N   UNL     1     -10.785   4.606  65.957  1.00  0.00    -0.225 N  
ENDBRANCH   2   3
BRANCH   2   8
HETATM    8  N   UNL     1      -9.030   7.508  65.367  1.00  0.00    -0.379 NA 
HETATM    9  H   UNL     1      -9.981   7.871  65.417  1.00  0.00     0.000 HD 
BRANCH   8  10
HETATM   10  C   UNL     1      -8.070   8.501  65.849  1.00  0.00    -0.116 C  
BRANCH  10  11
HETATM   11  C   UNL     1      -8.714   9.865  65.949  1.00  0.00    -0.154 A  
HETATM   12  C   UNL     1      -8.096  10.875  66.701  1.00  0.00    -0.147 A  
HETATM   13  C   UNL     1      -8.669  12.139  66.805  1.00  0.00    -0.183 A  
HETATM   14  C   UNL     1      -9.846  12.434  66.119  1.00  0.00    -0.252 A  
HETATM   15  C   UNL     1      -9.913  10.158  65.286  1.00  0.00    -0.381 A  
HETATM   16  C   UNL     1     -10.475  11.436  65.374  1.00  0.00    -0.336 A  
BRANCH  14  17
HETATM   17  O   UNL     1     -10.453  13.662  66.111  1.00  0.00    -0.286 OA 
BRANCH  17  18
HETATM   18  C   UNL     1     -11.791  13.665  66.616  1.00  0.00    -0.409 C  
BRANCH  18  19
HETATM   19  C   UNL     1     -11.819  13.812  68.117  1.00  0.00    -0.411 A  
HETATM   20  C   UNL     1     -12.030  12.713  68.959  1.00  0.00    -0.282 A  
HETATM   21  C   UNL     1     -12.140  12.903  70.331  1.00  0.00    -0.306 A  
HETATM   22  F   UNL     1     -12.349  11.849  71.128  1.00  0.00    -0.434 F  
HETATM   23  C   UNL     1     -12.056  14.175  70.889  1.00  0.00    -0.416 A  
HETATM   24  C   UNL     1     -11.853  15.276  70.061  1.00  0.00    -0.365 A  
HETATM   25  C   UNL     1     -11.740  15.096  68.681  1.00  0.00    -0.364 A  
ENDBRANCH  18  19
ENDBRANCH  17  18
ENDBRANCH  14  17
ENDBRANCH  10  11
ENDBRANCH   8  10
ENDBRANCH   2   8
TORSDOF 7
ENDMDL
MODEL      135
REMARK 921   NORMALIZED FREE ENERGY PREDICTED BY IDOCK:   -4.54 KCAL/MOL
REMARK 922        TOTAL FREE ENERGY PREDICTED BY IDOCK:   -7.18 KCAL/MOL
REMARK 923 INTER-LIGAND FREE ENERGY PREDICTED BY IDOCK:   -6.61 KCAL/MOL
REMARK 924 INTRA-LIGAND FREE ENERGY PREDICTED BY IDOCK:   -0.58 KCAL/MOL
REMARK 927      BINDING AFFINITY PREDICTED BY RF-SCORE:    0.00 PKD
ROOT
HETATM    1  C   UNL     1      -9.806  19.120  68.392  1.00  0.00    -0.473 C  
HETATM    2  C   UNL     1     -10.615  18.194  67.486  1.00  0.00    -0.401 C  
ENDROOT
BRANCH   2   3
HETATM    3  C   UNL     1     -10.589  18.727  66.033  1.00  0.00    -0.386 C  
HETATM    4  H2  UNL     1      -9.987  20.620  66.729  1.00  0.00     0.000 HD 
HETATM    5  H1  UNL     1     -10.206  20.394  64.966  1.00  0.00     0.000 HD 
HETATM    6  O   UNL     1     -10.868  18.067  65.038  1.00  0.00    -0.738 OA 
HETATM    7  N   UNL     1     -10.223  20.041  65.923  1.00  0.00    -0.476 N  
ENDBRANCH   2   3
BRANCH   2   8
HETATM    8  N   UNL     1     -10.111  16.802  67.449  1.00  0.00    -0.270 NA 
HETATM    9  H   UNL     1      -9.283  16.703  68.035  1.00  0.00     0.000 HD 
BRANCH   8  10
HETATM   10  C   UNL     1     -11.122  15.807  67.806  1.00  0.00    -0.313 C  
BRANCH  10  11
HETATM   11  C   UNL     1     -10.544  14.411  67.748  1.00  0.00    -0.246 A  
HETATM   12  C   UNL     1     -11.229  13.346  68.351  1.00  0.00    -0.311 A  
HETATM   13  C   UNL     1     -10.717  12.053  68.308  1.00  0.00    -0.252 A  
HETATM   14  C   UNL     1      -9.535  11.789  67.617  1.00  0.00    -0.180 A  
HETATM   15  C   UNL     1      -9.340  14.145  67.080  1.00  0.00    -0.241 A  
HETATM   16  C   UNL     1      -8.840  12.841  67.020  1.00  0.00    -0.213 A  
BRANCH  14  17
HETATM   17  O   UNL     1      -8.985  10.543  67.467  1.00  0.00    -0.135 OA 
BRANCH  17  18
HETATM   18  C   UNL     1      -9.218   9.941  66.191  1.00  0.00    -0.168 C  
BRANCH  18  19
HETATM   19  C   UNL     1      -9.463   8.458  66.312  1.00  0.00    -0.292 A  
HETATM   20  C   UNL     1     -10.434   7.942  67.179  1.00  0.00    -0.414 A  
HETATM   21  C   UNL     1     -10.566   6.566  67.330  1.00  0.00    -0.298 A  
HETATM   22  F   UNL     1     -11.492   6.081  68.166  1.00  0.00    -0.345 F  
HETATM   23  C   UNL     1      -9.739   5.685  66.642  1.00  0.00    -0.176 A  
HETATM   24  C   UNL     1      -8.764   6.187  65.783  1.00  0.00    -0.151 A  
HETATM   25  C   UNL     1      -8.624   7.567  65.622  1.00  0.00    -0.131 A  
ENDBRANCH  18  19
ENDBRANCH  17  18
ENDBRANCH  14  17
ENDBRANCH  10  11
ENDBRANCH   8  10
ENDBRANCH   2   8
TORSDOF 7
ENDMDL
MODEL      136
REMARK 921   NORMALIZED FREE ENERGY PREDICTED BY IDOCK:   -4.53 KCAL/MOL
REMARK 922        TOTAL FREE ENERGY PREDICTED BY IDOCK:   -7.18 KCAL/MOL
REMARK 923 INTER-LIGAND FREE ENERGY PREDICTED BY IDOCK:   -6.47 KCAL/MOL
REMARK 924 INTRA-LIGAND FREE ENERGY PREDICTED BY IDOCK:   -0.71 KCAL/MOL
REMARK 927      BINDING AFFINITY PREDICTED BY RF-SCORE:    0.00 PKD
ROOT
HETATM    1  C   UNL     1     -11.782  14.496  64.460  1.00  0.00    -0.421 C  
HETATM    2  C   UNL     1     -10.337  14.292  64.911  1.00  0.00    -0.401 C  
ENDROOT
BRANCH   2   3
HETATM    3  C   UNL     1     -10.039  15.189  66.137  1.00  0.00    -0.295 C  
HETATM    4  H2  UNL     1      -7.972  14.928  65.838  1.00  0.00     0.000 HD 
HETATM    5  H1  UNL     1      -8.510  15.948  67.209  1.00  0.00     0.000 HD 
HETATM    6  O   UNL     1     -10.892  15.721  66.841  1.00  0.00    -0.319 OA 
HETATM    7  N   UNL     1      -8.707  15.357  66.401  1.00  0.00    -0.302 N  
ENDBRANCH   2   3
BRANCH   2   8
HETATM    8  N   UNL     1     -10.023  12.900  65.303  1.00  0.00    -0.452 NA 
HETATM    9  H   UNL     1      -9.315  12.882  66.036  1.00  0.00     0.000 HD 
BRANCH   8  10
HETATM   10  C   UNL     1     -11.200  12.126  65.699  1.00  0.00    -0.335 C  
BRANCH  10  11
HETATM   11  C   UNL     1     -11.008  11.526  67.073  1.00  0.00    -0.347 A  
HETATM   12  C   UNL     1     -11.736  12.029  68.162  1.00  0.00    -0.398 A  
HETATM   13  C   UNL     1     -11.578  11.490  69.436  1.00  0.00    -0.388 A  
HETATM   14  C   UNL     1     -10.728  10.404  69.637  1.00  0.00    -0.265 A  
HETATM   15  C   UNL     1     -10.132  10.453  67.288  1.00  0.00    -0.244 A  
HETATM   16  C   UNL     1      -9.992   9.900  68.564  1.00  0.00    -0.175 A  
BRANCH  14  17
HETATM   17  O   UNL     1     -10.552   9.768  70.838  1.00  0.00    -0.313 OA 
BRANCH  17  18
HETATM   18  C   UNL     1      -9.366   8.973  70.919  1.00  0.00    -0.264 C  
BRANCH  18  19
HETATM   19  C   UNL     1      -9.286   8.225  72.227  1.00  0.00    -0.297 A  
HETATM   20  C   UNL     1      -8.057   7.850  72.785  1.00  0.00    -0.183 A  
HETATM   21  C   UNL     1      -8.029   7.083  73.944  1.00  0.00    -0.107 A  
HETATM   22  F   UNL     1      -6.851   6.723  74.467  1.00  0.00    -0.091 F  
HETATM   23  C   UNL     1      -9.205   6.667  74.559  1.00  0.00    -0.236 A  
HETATM   24  C   UNL     1     -10.433   7.027  74.008  1.00  0.00    -0.222 A  
HETATM   25  C   UNL     1     -10.473   7.799  72.845  1.00  0.00    -0.412 A  
ENDBRANCH  18  19
ENDBRANCH  17  18
ENDBRANCH  14  17
ENDBRANCH  10  11
ENDBRANCH   8  10
ENDBRANCH   2   8
TORSDOF 7
ENDMDL
MODEL      137
REMARK 921   NORMALIZED FREE ENERGY PREDICTED BY IDOCK:   -4.53 KCAL/MOL
REMARK 922        TOTAL FREE ENERGY PREDICTED BY IDOCK:   -7.18 KCAL/MOL
REMARK 923 INTER-LIGAND FREE ENERGY PREDICTED BY IDOCK:   -6.50 KCAL/MOL
REMARK 924 INTRA-LIGAND FREE ENERGY PREDICTED BY IDOCK:   -0.68 KCAL/MOL
REMARK 927      BINDING AFFINITY PREDICTED BY RF-SCORE:    0.00 PKD
ROOT
HETATM    1  C   UNL     1     -10.630  17.881  67.808  1.00  0.00    -0.399 C  
HETATM    2  C   UNL     1     -10.441  16.369  67.926  1.00  0.00    -0.307 C  
ENDROOT
BRANCH   2   3
HETATM    3  C   UNL     1     -10.170  15.988  69.402  1.00  0.00    -0.270 C  
HETATM    4  H2  UNL     1     -12.025  16.809  69.964  1.00  0.00     0.000 HD 
HETATM    5  H1  UNL     1     -10.994  16.087  71.239  1.00  0.00     0.000 HD 
HETATM    6  O   UNL     1      -9.158  15.425  69.806  1.00  0.00    -0.243 OA 
HETATM    7  N   UNL     1     -11.172  16.337  70.266  1.00  0.00    -0.374 N  
ENDBRANCH   2   3
BRANCH   2   8
HETATM    8  N   UNL     1     -11.615  15.584  67.481  1.00  0.00    -0.188 NA 
HETATM    9  H   UNL     1     -12.302  16.186  67.028  1.00  0.00     0.000 HD 
BRANCH   8  10
HETATM   10  C   UNL     1     -11.267  14.455  66.618  1.00  0.00    -0.339 C  
BRANCH  10  11
HETATM   11  C   UNL     1     -11.364  13.151  67.377  1.00  0.00    -0.344 A  
HETATM   12  C   UNL     1     -10.878  11.969  66.799  1.00  0.00    -0.307 A  
HETATM   13  C   UNL     1     -10.954  10.758  67.480  1.00  0.00    -0.372 A  
HETATM   14  C   UNL     1     -11.470  10.712  68.774  1.00  0.00    -0.262 A  
HETATM   15  C   UNL     1     -11.909  13.094  68.667  1.00  0.00    -0.363 A  
HETATM   16  C   UNL     1     -11.964  11.879  69.358  1.00  0.00    -0.350 A  
BRANCH  14  17
HETATM   17  O   UNL     1     -11.531   9.582  69.546  1.00  0.00    -0.069 OA 
BRANCH  17  18
HETATM   18  C   UNL     1     -11.629   9.829  70.952  1.00  0.00    -0.361 C  
BRANCH  18  19
HETATM   19  C   UNL     1     -10.794   8.856  71.747  1.00  0.00    -0.436 A  
HETATM   20  C   UNL     1      -9.403   8.788  71.598  1.00  0.00    -0.345 A  
HETATM   21  C   UNL     1      -8.680   7.816  72.280  1.00  0.00    -0.133 A  
HETATM   22  F   UNL     1      -7.352   7.754  72.127  1.00  0.00    -0.064 F  
HETATM   23  C   UNL     1      -9.316   6.895  73.104  1.00  0.00    -0.167 A  
HETATM   24  C   UNL     1     -10.701   6.947  73.255  1.00  0.00    -0.349 A  
HETATM   25  C   UNL     1     -11.436   7.920  72.575  1.00  0.00    -0.455 A  
ENDBRANCH  18  19
ENDBRANCH  17  18
ENDBRANCH  14  17
ENDBRANCH  10  11
ENDBRANCH   8  10
ENDBRANCH   2   8
TORSDOF 7
ENDMDL
MODEL      138
REMARK 921   NORMALIZED FREE ENERGY PREDICTED BY IDOCK:   -4.51 KCAL/MOL
REMARK 922        TOTAL FREE ENERGY PREDICTED BY IDOCK:   -7.15 KCAL/MOL
REMARK 923 INTER-LIGAND FREE ENERGY PREDICTED BY IDOCK:   -6.27 KCAL/MOL
REMARK 924 INTRA-LIGAND FREE ENERGY PREDICTED BY IDOCK:   -0.88 KCAL/MOL
REMARK 927      BINDING AFFINITY PREDICTED BY RF-SCORE:    0.00 PKD
ROOT
HETATM    1  C   UNL     1     -10.141   8.392  66.625  1.00  0.00    -0.358 C  
HETATM    2  C   UNL     1      -9.128   7.263  66.442  1.00  0.00    -0.158 C  
ENDROOT
BRANCH   2   3
HETATM    3  C   UNL     1      -8.055   7.684  65.409  1.00  0.00    -0.128 C  
HETATM    4  H2  UNL     1      -9.407   9.048  64.547  1.00  0.00     0.000 HD 
HETATM    5  H1  UNL     1      -7.764   8.921  63.845  1.00  0.00     0.000 HD 
HETATM    6  O   UNL     1      -6.921   7.221  65.348  1.00  0.00    -0.057 OA 
HETATM    7  N   UNL     1      -8.470   8.644  64.526  1.00  0.00    -0.146 N  
ENDBRANCH   2   3
BRANCH   2   8
HETATM    8  N   UNL     1      -8.415   6.893  67.686  1.00  0.00    -0.122 NA 
HETATM    9  H   UNL     1      -8.180   7.723  68.228  1.00  0.00     0.000 HD 
BRANCH   8  10
HETATM   10  C   UNL     1      -9.142   5.925  68.508  1.00  0.00    -0.111 C  
BRANCH  10  11
HETATM   11  C   UNL     1      -9.954   6.630  69.572  1.00  0.00    -0.178 A  
HETATM   12  C   UNL     1      -9.376   7.668  70.317  1.00  0.00    -0.157 A  
HETATM   13  C   UNL     1     -10.105   8.332  71.299  1.00  0.00    -0.249 A  
HETATM   14  C   UNL     1     -11.442   8.007  71.521  1.00  0.00    -0.264 A  
HETATM   15  C   UNL     1     -11.290   6.286  69.820  1.00  0.00    -0.506 A  
HETATM   16  C   UNL     1     -12.026   6.970  70.792  1.00  0.00    -0.392 A  
BRANCH  14  17
HETATM   17  O   UNL     1     -12.257   8.642  72.421  1.00  0.00    -0.374 OA 
BRANCH  17  18
HETATM   18  C   UNL     1     -13.392   9.288  71.839  1.00  0.00    -0.429 C  
BRANCH  18  19
HETATM   19  C   UNL     1     -13.033  10.639  71.272  1.00  0.00    -0.513 A  
HETATM   20  C   UNL     1     -12.406  10.772  70.028  1.00  0.00    -0.371 A  
HETATM   21  C   UNL     1     -12.009  12.027  69.582  1.00  0.00    -0.293 A  
HETATM   22  F   UNL     1     -11.403  12.144  68.395  1.00  0.00    -0.237 F  
HETATM   23  C   UNL     1     -12.213  13.162  70.359  1.00  0.00    -0.389 A  
HETATM   24  C   UNL     1     -12.829  13.042  71.603  1.00  0.00    -0.376 A  
HETATM   25  C   UNL     1     -13.233  11.786  72.059  1.00  0.00    -0.460 A  
ENDBRANCH  18  19
ENDBRANCH  17  18
ENDBRANCH  14  17
ENDBRANCH  10  11
ENDBRANCH   8  10
ENDBRANCH   2   8
TORSDOF 7
ENDMDL
MODEL      139
REMARK 921   NORMALIZED FREE ENERGY PREDICTED BY IDOCK:   -4.46 KCAL/MOL
REMARK 922        TOTAL FREE ENERGY PREDICTED BY IDOCK:   -7.08 KCAL/MOL
REMARK 923 INTER-LIGAND FREE ENERGY PREDICTED BY IDOCK:   -6.24 KCAL/MOL
REMARK 924 INTRA-LIGAND FREE ENERGY PREDICTED BY IDOCK:   -0.84 KCAL/MOL
REMARK 927      BINDING AFFINITY PREDICTED BY RF-SCORE:    0.00 PKD
ROOT
HETATM    1  C   UNL     1     -10.278   8.455  72.110  1.00  0.00    -0.390 C  
HETATM    2  C   UNL     1     -10.199   7.788  70.739  1.00  0.00    -0.197 C  
ENDROOT
BRANCH   2   3
HETATM    3  C   UNL     1     -11.446   6.900  70.514  1.00  0.00    -0.342 C  
HETATM    4  H2  UNL     1     -10.588   6.123  68.756  1.00  0.00     0.000 HD 
HETATM    5  H1  UNL     1     -12.208   5.534  69.243  1.00  0.00     0.000 HD 
HETATM    6  O   UNL     1     -12.427   6.869  71.251  1.00  0.00    -0.367 OA 
HETATM    7  N   UNL     1     -11.386   6.120  69.391  1.00  0.00    -0.412 N  
ENDBRANCH   2   3
BRANCH   2   8
HETATM    8  N   UNL     1     -10.136   8.745  69.611  1.00  0.00    -0.198 NA 
HETATM    9  H   UNL     1     -10.303   8.270  68.724  1.00  0.00     0.000 HD 
BRANCH   8  10
HETATM   10  C   UNL     1     -11.037   9.887  69.765  1.00  0.00    -0.254 C  
BRANCH  10  11
HETATM   11  C   UNL     1     -10.820  10.894  68.658  1.00  0.00    -0.258 A  
HETATM   12  C   UNL     1     -11.855  11.771  68.300  1.00  0.00    -0.340 A  
HETATM   13  C   UNL     1     -11.676  12.709  67.287  1.00  0.00    -0.435 A  
HETATM   14  C   UNL     1     -10.444  12.822  66.645  1.00  0.00    -0.257 A  
HETATM   15  C   UNL     1      -9.593  10.993  67.989  1.00  0.00    -0.175 A  
HETATM   16  C   UNL     1      -9.410  11.950  66.986  1.00  0.00    -0.188 A  
BRANCH  14  17
HETATM   17  O   UNL     1     -10.154  13.750  65.680  1.00  0.00    -0.302 OA 
BRANCH  17  18
HETATM   18  C   UNL     1     -10.957  14.932  65.733  1.00  0.00    -0.345 C  
BRANCH  18  19
HETATM   19  C   UNL     1     -10.274  16.035  66.503  1.00  0.00    -0.301 A  
HETATM   20  C   UNL     1      -8.901  16.281  66.373  1.00  0.00    -0.346 A  
HETATM   21  C   UNL     1      -8.292  17.245  67.168  1.00  0.00    -0.201 A  
HETATM   22  F   UNL     1      -6.979  17.468  67.043  1.00  0.00    -0.166 F  
HETATM   23  C   UNL     1      -9.022  17.968  68.106  1.00  0.00    -0.287 A  
HETATM   24  C   UNL     1     -10.387  17.727  68.249  1.00  0.00    -0.387 A  
HETATM   25  C   UNL     1     -11.008  16.762  67.455  1.00  0.00    -0.092 A  
ENDBRANCH  18  19
ENDBRANCH  17  18
ENDBRANCH  14  17
ENDBRANCH  10  11
ENDBRANCH   8  10
ENDBRANCH   2   8
TORSDOF 7
ENDMDL
MODEL      140
REMARK 921   NORMALIZED FREE ENERGY PREDICTED BY IDOCK:   -4.46 KCAL/MOL
REMARK 922        TOTAL FREE ENERGY PREDICTED BY IDOCK:   -7.08 KCAL/MOL
REMARK 923 INTER-LIGAND FREE ENERGY PREDICTED BY IDOCK:   -6.43 KCAL/MOL
REMARK 924 INTRA-LIGAND FREE ENERGY PREDICTED BY IDOCK:   -0.65 KCAL/MOL
REMARK 927      BINDING AFFINITY PREDICTED BY RF-SCORE:    0.00 PKD
ROOT
HETATM    1  C   UNL     1      -9.990  13.151  65.623  1.00  0.00    -0.237 C  
HETATM    2  C   UNL     1      -9.871  14.004  66.885  1.00  0.00    -0.267 C  
ENDROOT
BRANCH   2   3
HETATM    3  C   UNL     1     -11.129  14.893  67.038  1.00  0.00    -0.338 C  
HETATM    4  H2  UNL     1     -12.312  13.181  67.352  1.00  0.00     0.000 HD 
HETATM    5  H1  UNL     1     -13.112  14.784  67.379  1.00  0.00     0.000 HD 
HETATM    6  O   UNL     1     -11.137  16.117  66.954  1.00  0.00    -0.164 OA 
HETATM    7  N   UNL     1     -12.283  14.199  67.279  1.00  0.00    -0.359 N  
ENDBRANCH   2   3
BRANCH   2   8
HETATM    8  N   UNL     1      -9.741  13.214  68.131  1.00  0.00    -0.224 NA 
HETATM    9  H   UNL     1     -10.534  13.382  68.749  1.00  0.00     0.000 HD 
BRANCH   8  10
HETATM   10  C   UNL     1      -9.561  11.781  67.896  1.00  0.00    -0.187 C  
BRANCH  10  11
HETATM   11  C   UNL     1     -10.064  10.978  69.074  1.00  0.00    -0.197 A  
HETATM   12  C   UNL     1     -11.376  11.164  69.535  1.00  0.00    -0.359 A  
HETATM   13  C   UNL     1     -11.861  10.433  70.616  1.00  0.00    -0.445 A  
HETATM   14  C   UNL     1     -11.063   9.467  71.225  1.00  0.00    -0.376 A  
HETATM   15  C   UNL     1      -9.255  10.027  69.709  1.00  0.00    -0.227 A  
HETATM   16  C   UNL     1      -9.753   9.279  70.781  1.00  0.00    -0.348 A  
BRANCH  14  17
HETATM   17  O   UNL     1     -11.470   8.658  72.253  1.00  0.00    -0.365 OA 
BRANCH  17  18
HETATM   18  C   UNL     1     -12.290   7.557  71.853  1.00  0.00    -0.310 C  
BRANCH  18  19
HETATM   19  C   UNL     1     -11.484   6.486  71.161  1.00  0.00    -0.380 A  
HETATM   20  C   UNL     1     -10.706   5.571  71.881  1.00  0.00    -0.292 A  
HETATM   21  C   UNL     1      -9.906   4.659  71.203  1.00  0.00    -0.191 A  
HETATM   22  F   UNL     1      -9.160   3.793  71.899  1.00  0.00    -0.122 F  
HETATM   23  C   UNL     1      -9.853   4.643  69.813  1.00  0.00    -0.296 A  
HETATM   24  C   UNL     1     -10.617   5.554  69.086  1.00  0.00    -0.300 A  
HETATM   25  C   UNL     1     -11.425   6.474  69.757  1.00  0.00    -0.443 A  
ENDBRANCH  18  19
ENDBRANCH  17  18
ENDBRANCH  14  17
ENDBRANCH  10  11
ENDBRANCH   8  10
ENDBRANCH   2   8
TORSDOF 7
ENDMDL
MODEL      141
REMARK 921   NORMALIZED FREE ENERGY PREDICTED BY IDOCK:   -4.46 KCAL/MOL
REMARK 922        TOTAL FREE ENERGY PREDICTED BY IDOCK:   -7.07 KCAL/MOL
REMARK 923 INTER-LIGAND FREE ENERGY PREDICTED BY IDOCK:   -6.38 KCAL/MOL
REMARK 924 INTRA-LIGAND FREE ENERGY PREDICTED BY IDOCK:   -0.69 KCAL/MOL
REMARK 927      BINDING AFFINITY PREDICTED BY RF-SCORE:    0.00 PKD
ROOT
HETATM    1  C   UNL     1     -12.324  15.039  64.475  1.00  0.00    -0.276 C  
HETATM    2  C   UNL     1     -10.816  15.212  64.646  1.00  0.00    -0.263 C  
ENDROOT
BRANCH   2   3
HETATM    3  C   UNL     1     -10.528  16.161  65.835  1.00  0.00    -0.352 C  
HETATM    4  H2  UNL     1     -10.628  14.536  67.168  1.00  0.00     0.000 HD 
HETATM    5  H1  UNL     1     -10.294  16.165  67.836  1.00  0.00     0.000 HD 
HETATM    6  O   UNL     1     -10.352  17.371  65.739  1.00  0.00    -0.543 OA 
HETATM    7  N   UNL     1     -10.483  15.539  67.053  1.00  0.00    -0.298 N  
ENDBRANCH   2   3
BRANCH   2   8
HETATM    8  N   UNL     1     -10.095  13.947  64.913  1.00  0.00    -0.606 NA 
HETATM    9  H   UNL     1      -9.855  13.870  65.901  1.00  0.00     0.000 HD 
BRANCH   8  10
HETATM   10  C   UNL     1     -10.818  12.758  64.461  1.00  0.00    -0.347 C  
BRANCH  10  11
HETATM   11  C   UNL     1     -10.652  11.623  65.446  1.00  0.00    -0.331 A  
HETATM   12  C   UNL     1     -11.211  11.724  66.728  1.00  0.00    -0.388 A  
HETATM   13  C   UNL     1     -11.073  10.691  67.651  1.00  0.00    -0.385 A  
HETATM   14  C   UNL     1     -10.417   9.514  67.293  1.00  0.00    -0.262 A  
HETATM   15  C   UNL     1      -9.967  10.450  65.101  1.00  0.00    -0.390 A  
HETATM   16  C   UNL     1      -9.849   9.404  66.023  1.00  0.00    -0.366 A  
BRANCH  14  17
HETATM   17  O   UNL     1     -10.282   8.421  68.107  1.00  0.00    -0.194 OA 
BRANCH  17  18
HETATM   18  C   UNL     1     -10.037   7.193  67.416  1.00  0.00    -0.202 C  
BRANCH  18  19
HETATM   19  C   UNL     1      -9.964   6.025  68.367  1.00  0.00    -0.173 A  
HETATM   20  C   UNL     1      -9.727   4.721  67.914  1.00  0.00    -0.200 A  
HETATM   21  C   UNL     1      -9.758   3.660  68.811  1.00  0.00     0.016 A  
HETATM   22  F   UNL     1      -9.537   2.416  68.368  1.00  0.00    -0.241 F  
HETATM   23  C   UNL     1     -10.035   3.865  70.158  1.00  0.00    -0.019 A  
HETATM   24  C   UNL     1     -10.280   5.157  70.620  1.00  0.00    -0.326 A  
HETATM   25  C   UNL     1     -10.250   6.230  69.728  1.00  0.00    -0.234 A  
ENDBRANCH  18  19
ENDBRANCH  17  18
ENDBRANCH  14  17
ENDBRANCH  10  11
ENDBRANCH   8  10
ENDBRANCH   2   8
TORSDOF 7
ENDMDL
MODEL      142
REMARK 921   NORMALIZED FREE ENERGY PREDICTED BY IDOCK:   -4.45 KCAL/MOL
REMARK 922        TOTAL FREE ENERGY PREDICTED BY IDOCK:   -7.06 KCAL/MOL
REMARK 923 INTER-LIGAND FREE ENERGY PREDICTED BY IDOCK:   -6.27 KCAL/MOL
REMARK 924 INTRA-LIGAND FREE ENERGY PREDICTED BY IDOCK:   -0.79 KCAL/MOL
REMARK 927      BINDING AFFINITY PREDICTED BY RF-SCORE:    0.00 PKD
ROOT
HETATM    1  C   UNL     1      -7.569   7.181  66.958  1.00  0.00    -0.099 C  
HETATM    2  C   UNL     1      -8.657   6.489  66.140  1.00  0.00    -0.145 C  
ENDROOT
BRANCH   2   3
HETATM    3  C   UNL     1      -8.967   5.099  66.748  1.00  0.00    -0.113 C  
HETATM    4  H2  UNL     1     -10.856   5.104  65.819  1.00  0.00     0.000 HD 
HETATM    5  H1  UNL     1     -10.403   3.687  66.817  1.00  0.00     0.000 HD 
HETATM    6  O   UNL     1      -8.207   4.465  67.472  1.00  0.00    -0.099 OA 
HETATM    7  N   UNL     1     -10.198   4.602  66.416  1.00  0.00    -0.263 N  
ENDBRANCH   2   3
BRANCH   2   8
HETATM    8  N   UNL     1      -9.934   7.237  66.089  1.00  0.00    -0.428 NA 
HETATM    9  H   UNL     1     -10.725   6.597  66.034  1.00  0.00     0.000 HD 
BRANCH   8  10
HETATM   10  C   UNL     1     -10.103   8.177  67.196  1.00  0.00    -0.264 C  
BRANCH  10  11
HETATM   11  C   UNL     1     -10.420   9.562  66.680  1.00  0.00    -0.241 A  
HETATM   12  C   UNL     1     -11.121  10.466  67.492  1.00  0.00    -0.336 A  
HETATM   13  C   UNL     1     -11.421  11.748  67.038  1.00  0.00    -0.368 A  
HETATM   14  C   UNL     1     -10.982  12.169  65.784  1.00  0.00    -0.297 A  
HETATM   15  C   UNL     1     -10.007   9.981  65.407  1.00  0.00    -0.364 A  
HETATM   16  C   UNL     1     -10.291  11.276  64.963  1.00  0.00    -0.359 A  
BRANCH  14  17
HETATM   17  O   UNL     1     -11.175  13.426  65.275  1.00  0.00    -0.287 OA 
BRANCH  17  18
HETATM   18  C   UNL     1     -12.032  14.259  66.061  1.00  0.00    -0.400 C  
BRANCH  18  19
HETATM   19  C   UNL     1     -11.253  15.326  66.790  1.00  0.00    -0.241 A  
HETATM   20  C   UNL     1     -11.362  15.498  68.175  1.00  0.00    -0.348 A  
HETATM   21  C   UNL     1     -10.699  16.551  68.796  1.00  0.00    -0.339 A  
HETATM   22  F   UNL     1     -10.814  16.713  70.120  1.00  0.00    -0.333 F  
HETATM   23  C   UNL     1      -9.934  17.451  68.062  1.00  0.00    -0.302 A  
HETATM   24  C   UNL     1      -9.824  17.294  66.682  1.00  0.00    -0.299 A  
HETATM   25  C   UNL     1     -10.485  16.239  66.049  1.00  0.00    -0.342 A  
ENDBRANCH  18  19
ENDBRANCH  17  18
ENDBRANCH  14  17
ENDBRANCH  10  11
ENDBRANCH   8  10
ENDBRANCH   2   8
TORSDOF 7
ENDMDL
MODEL      143
REMARK 921   NORMALIZED FREE ENERGY PREDICTED BY IDOCK:   -4.42 KCAL/MOL
REMARK 922        TOTAL FREE ENERGY PREDICTED BY IDOCK:   -7.03 KCAL/MOL
REMARK 923 INTER-LIGAND FREE ENERGY PREDICTED BY IDOCK:   -6.22 KCAL/MOL
REMARK 924 INTRA-LIGAND FREE ENERGY PREDICTED BY IDOCK:   -0.80 KCAL/MOL
REMARK 927      BINDING AFFINITY PREDICTED BY RF-SCORE:    0.00 PKD
ROOT
HETATM    1  C   UNL     1     -10.171  14.863  66.145  1.00  0.00    -0.314 C  
HETATM    2  C   UNL     1     -11.497  14.454  65.507  1.00  0.00    -0.340 C  
ENDROOT
BRANCH   2   3
HETATM    3  C   UNL     1     -11.234  13.510  64.309  1.00  0.00    -0.360 C  
HETATM    4  H2  UNL     1     -13.157  13.914  63.555  1.00  0.00     0.000 HD 
HETATM    5  H1  UNL     1     -12.106  12.788  62.641  1.00  0.00     0.000 HD 
HETATM    6  O   UNL     1     -10.195  12.883  64.125  1.00  0.00    -0.391 OA 
HETATM    7  N   UNL     1     -12.279  13.410  63.431  1.00  0.00    -0.467 N  
ENDBRANCH   2   3
BRANCH   2   8
HETATM    8  N   UNL     1     -12.411  13.743  66.430  1.00  0.00    -0.401 NA 
HETATM    9  H   UNL     1     -12.507  12.765  66.160  1.00  0.00     0.000 HD 
BRANCH   8  10
HETATM   10  C   UNL     1     -12.024  13.858  67.836  1.00  0.00    -0.358 C  
BRANCH  10  11
HETATM   11  C   UNL     1     -11.679  12.502  68.409  1.00  0.00    -0.375 A  
HETATM   12  C   UNL     1     -11.923  12.235  69.764  1.00  0.00    -0.365 A  
HETATM   13  C   UNL     1     -11.616  10.993  70.313  1.00  0.00    -0.414 A  
HETATM   14  C   UNL     1     -11.107   9.976  69.507  1.00  0.00    -0.238 A  
HETATM   15  C   UNL     1     -11.139  11.486  67.609  1.00  0.00    -0.324 A  
HETATM   16  C   UNL     1     -10.852  10.232  68.158  1.00  0.00    -0.312 A  
BRANCH  14  17
HETATM   17  O   UNL     1     -10.831   8.706  69.939  1.00  0.00    -0.236 OA 
BRANCH  17  18
HETATM   18  C   UNL     1      -9.605   8.163  69.441  1.00  0.00    -0.167 C  
BRANCH  18  19
HETATM   19  C   UNL     1      -9.777   6.740  68.971  1.00  0.00    -0.145 A  
HETATM   20  C   UNL     1      -9.599   5.654  69.835  1.00  0.00    -0.208 A  
HETATM   21  C   UNL     1      -9.677   4.356  69.342  1.00  0.00    -0.197 A  
HETATM   22  F   UNL     1      -9.498   3.324  70.174  1.00  0.00    -0.204 F  
HETATM   23  C   UNL     1      -9.918   4.114  67.994  1.00  0.00    -0.006 A  
HETATM   24  C   UNL     1     -10.090   5.187  67.123  1.00  0.00    -0.244 A  
HETATM   25  C   UNL     1     -10.015   6.494  67.608  1.00  0.00    -0.157 A  
ENDBRANCH  18  19
ENDBRANCH  17  18
ENDBRANCH  14  17
ENDBRANCH  10  11
ENDBRANCH   8  10
ENDBRANCH   2   8
TORSDOF 7
ENDMDL
MODEL      144
REMARK 921   NORMALIZED FREE ENERGY PREDICTED BY IDOCK:   -4.40 KCAL/MOL
REMARK 922        TOTAL FREE ENERGY PREDICTED BY IDOCK:   -7.00 KCAL/MOL
REMARK 923 INTER-LIGAND FREE ENERGY PREDICTED BY IDOCK:   -6.63 KCAL/MOL
REMARK 924 INTRA-LIGAND FREE ENERGY PREDICTED BY IDOCK:   -0.36 KCAL/MOL
REMARK 927      BINDING AFFINITY PREDICTED BY RF-SCORE:    0.00 PKD
ROOT
HETATM    1  C   UNL     1      -9.522  15.203  68.217  1.00  0.00    -0.201 C  
HETATM    2  C   UNL     1     -10.527  16.159  68.856  1.00  0.00    -0.258 C  
ENDROOT
BRANCH   2   3
HETATM    3  C   UNL     1     -10.555  17.493  68.072  1.00  0.00    -0.384 C  
HETATM    4  H2  UNL     1     -10.074  18.546  69.830  1.00  0.00     0.000 HD 
HETATM    5  H1  UNL     1     -10.298  19.477  68.316  1.00  0.00     0.000 HD 
HETATM    6  O   UNL     1     -10.800  17.598  66.875  1.00  0.00    -0.203 OA 
HETATM    7  N   UNL     1     -10.280  18.598  68.832  1.00  0.00    -0.315 N  
ENDBRANCH   2   3
BRANCH   2   8
HETATM    8  N   UNL     1     -11.913  15.639  68.882  1.00  0.00    -0.560 NA 
HETATM    9  H   UNL     1     -12.000  14.812  68.291  1.00  0.00     0.000 HD 
BRANCH   8  10
HETATM   10  C   UNL     1     -12.409  15.367  70.231  1.00  0.00    -0.388 C  
BRANCH  10  11
HETATM   11  C   UNL     1     -12.479  13.878  70.486  1.00  0.00    -0.422 A  
HETATM   12  C   UNL     1     -13.143  13.396  71.623  1.00  0.00    -0.463 A  
HETATM   13  C   UNL     1     -13.223  12.029  71.877  1.00  0.00    -0.469 A  
HETATM   14  C   UNL     1     -12.685  11.116  70.972  1.00  0.00    -0.378 A  
HETATM   15  C   UNL     1     -11.914  12.956  69.595  1.00  0.00    -0.358 A  
HETATM   16  C   UNL     1     -12.015  11.583  69.841  1.00  0.00    -0.426 A  
BRANCH  14  17
HETATM   17  O   UNL     1     -12.765   9.754  71.103  1.00  0.00    -0.320 OA 
BRANCH  17  18
HETATM   18  C   UNL     1     -11.571   9.134  71.586  1.00  0.00    -0.379 C  
BRANCH  18  19
HETATM   19  C   UNL     1     -10.631   8.783  70.459  1.00  0.00    -0.252 A  
HETATM   20  C   UNL     1     -11.106   8.419  69.193  1.00  0.00     0.188 A  
HETATM   21  C   UNL     1     -10.211   8.014  68.209  1.00  0.00    -0.205 A  
HETATM   22  F   UNL     1     -10.674   7.661  67.004  1.00  0.00    -0.363 F  
HETATM   23  C   UNL     1      -8.845   7.951  68.462  1.00  0.00    -0.134 A  
HETATM   24  C   UNL     1      -8.362   8.303  69.720  1.00  0.00    -0.123 A  
HETATM   25  C   UNL     1      -9.251   8.713  70.715  1.00  0.00    -0.223 A  
ENDBRANCH  18  19
ENDBRANCH  17  18
ENDBRANCH  14  17
ENDBRANCH  10  11
ENDBRANCH   8  10
ENDBRANCH   2   8
TORSDOF 7
ENDMDL
MODEL      145
REMARK 921   NORMALIZED FREE ENERGY PREDICTED BY IDOCK:   -4.40 KCAL/MOL
REMARK 922        TOTAL FREE ENERGY PREDICTED BY IDOCK:   -7.00 KCAL/MOL
REMARK 923 INTER-LIGAND FREE ENERGY PREDICTED BY IDOCK:   -6.37 KCAL/MOL
REMARK 924 INTRA-LIGAND FREE ENERGY PREDICTED BY IDOCK:   -0.62 KCAL/MOL
REMARK 927      BINDING AFFINITY PREDICTED BY RF-SCORE:    0.00 PKD
ROOT
HETATM    1  C   UNL     1     -11.528   4.816  73.328  1.00  0.00    -0.361 C  
HETATM    2  C   UNL     1     -10.690   6.093  73.340  1.00  0.00    -0.259 C  
ENDROOT
BRANCH   2   3
HETATM    3  C   UNL     1      -9.202   5.741  73.584  1.00  0.00    -0.130 C  
HETATM    4  H2  UNL     1      -8.708   7.787  73.582  1.00  0.00     0.000 HD 
HETATM    5  H1  UNL     1      -7.394   6.595  73.831  1.00  0.00     0.000 HD 
HETATM    6  O   UNL     1      -8.759   4.602  73.693  1.00  0.00    -0.106 OA 
HETATM    7  N   UNL     1      -8.374   6.827  73.670  1.00  0.00    -0.115 N  
ENDBRANCH   2   3
BRANCH   2   8
HETATM    8  N   UNL     1     -10.755   6.863  72.077  1.00  0.00    -0.213 NA 
HETATM    9  H   UNL     1     -10.851   6.237  71.278  1.00  0.00     0.000 HD 
BRANCH   8  10
HETATM   10  C   UNL     1     -11.805   7.881  72.069  1.00  0.00    -0.318 C  
BRANCH  10  11
HETATM   11  C   UNL     1     -11.565   8.889  70.968  1.00  0.00    -0.347 A  
HETATM   12  C   UNL     1     -12.145  10.164  71.051  1.00  0.00    -0.476 A  
HETATM   13  C   UNL     1     -11.936  11.109  70.051  1.00  0.00    -0.447 A  
HETATM   14  C   UNL     1     -11.101  10.818  68.974  1.00  0.00    -0.253 A  
HETATM   15  C   UNL     1     -10.751   8.591  69.868  1.00  0.00    -0.224 A  
HETATM   16  C   UNL     1     -10.524   9.550  68.875  1.00  0.00    -0.235 A  
BRANCH  14  17
HETATM   17  O   UNL     1     -10.786  11.700  67.974  1.00  0.00    -0.195 OA 
BRANCH  17  18
HETATM   18  C   UNL     1     -11.883  12.497  67.520  1.00  0.00    -0.323 C  
BRANCH  18  19
HETATM   19  C   UNL     1     -11.592  13.971  67.653  1.00  0.00    -0.385 A  
HETATM   20  C   UNL     1     -10.962  14.691  66.631  1.00  0.00    -0.323 A  
HETATM   21  C   UNL     1     -10.628  16.026  66.829  1.00  0.00    -0.297 A  
HETATM   22  F   UNL     1     -10.020  16.705  65.849  1.00  0.00    -0.303 F  
HETATM   23  C   UNL     1     -10.899  16.663  68.035  1.00  0.00    -0.337 A  
HETATM   24  C   UNL     1     -11.519  15.955  69.062  1.00  0.00    -0.380 A  
HETATM   25  C   UNL     1     -11.859  14.614  68.874  1.00  0.00    -0.344 A  
ENDBRANCH  18  19
ENDBRANCH  17  18
ENDBRANCH  14  17
ENDBRANCH  10  11
ENDBRANCH   8  10
ENDBRANCH   2   8
TORSDOF 7
ENDMDL
MODEL      146
REMARK 921   NORMALIZED FREE ENERGY PREDICTED BY IDOCK:   -4.38 KCAL/MOL
REMARK 922        TOTAL FREE ENERGY PREDICTED BY IDOCK:   -6.97 KCAL/MOL
REMARK 923 INTER-LIGAND FREE ENERGY PREDICTED BY IDOCK:   -6.14 KCAL/MOL
REMARK 924 INTRA-LIGAND FREE ENERGY PREDICTED BY IDOCK:   -0.82 KCAL/MOL
REMARK 927      BINDING AFFINITY PREDICTED BY RF-SCORE:    0.00 PKD
ROOT
HETATM    1  C   UNL     1     -10.864  15.106  66.965  1.00  0.00    -0.314 C  
HETATM    2  C   UNL     1     -11.818  14.335  66.055  1.00  0.00    -0.391 C  
ENDROOT
BRANCH   2   3
HETATM    3  C   UNL     1     -11.053  13.815  64.813  1.00  0.00    -0.377 C  
HETATM    4  H2  UNL     1     -12.878  13.371  63.864  1.00  0.00     0.000 HD 
HETATM    5  H1  UNL     1     -11.356  13.022  62.985  1.00  0.00     0.000 HD 
HETATM    6  O   UNL     1      -9.832  13.788  64.703  1.00  0.00    -0.156 OA 
HETATM    7  N   UNL     1     -11.860  13.365  63.804  1.00  0.00    -0.446 N  
ENDBRANCH   2   3
BRANCH   2   8
HETATM    8  N   UNL     1     -12.446  13.162  66.703  1.00  0.00    -0.293 NA 
HETATM    9  H   UNL     1     -12.285  12.317  66.155  1.00  0.00     0.000 HD 
BRANCH   8  10
HETATM   10  C   UNL     1     -12.025  12.968  68.091  1.00  0.00    -0.280 C  
BRANCH  10  11
HETATM   11  C   UNL     1     -11.429  11.592  68.282  1.00  0.00    -0.368 A  
HETATM   12  C   UNL     1     -11.278  11.071  69.576  1.00  0.00    -0.343 A  
HETATM   13  C   UNL     1     -10.734   9.805  69.776  1.00  0.00    -0.283 A  
HETATM   14  C   UNL     1     -10.377   9.015  68.686  1.00  0.00    -0.209 A  
HETATM   15  C   UNL     1     -11.040  10.804  67.190  1.00  0.00    -0.297 A  
HETATM   16  C   UNL     1     -10.514   9.524  67.394  1.00  0.00    -0.336 A  
BRANCH  14  17
HETATM   17  O   UNL     1      -9.891   7.737  68.778  1.00  0.00    -0.161 OA 
BRANCH  17  18
HETATM   18  C   UNL     1     -10.898   6.726  68.880  1.00  0.00    -0.243 C  
BRANCH  18  19
HETATM   19  C   UNL     1     -10.727   5.895  70.128  1.00  0.00    -0.389 A  
HETATM   20  C   UNL     1     -10.905   6.442  71.405  1.00  0.00    -0.301 A  
HETATM   21  C   UNL     1     -10.649   5.668  72.531  1.00  0.00    -0.224 A  
HETATM   22  F   UNL     1     -10.814   6.201  73.748  1.00  0.00    -0.256 F  
HETATM   23  C   UNL     1     -10.205   4.356  72.415  1.00  0.00    -0.255 A  
HETATM   24  C   UNL     1     -10.017   3.803  71.150  1.00  0.00    -0.144 A  
HETATM   25  C   UNL     1     -10.273   4.571  70.012  1.00  0.00    -0.080 A  
ENDBRANCH  18  19
ENDBRANCH  17  18
ENDBRANCH  14  17
ENDBRANCH  10  11
ENDBRANCH   8  10
ENDBRANCH   2   8
TORSDOF 7
ENDMDL
MODEL      147
REMARK 921   NORMALIZED FREE ENERGY PREDICTED BY IDOCK:   -4.36 KCAL/MOL
REMARK 922        TOTAL FREE ENERGY PREDICTED BY IDOCK:   -6.93 KCAL/MOL
REMARK 923 INTER-LIGAND FREE ENERGY PREDICTED BY IDOCK:   -6.00 KCAL/MOL
REMARK 924 INTRA-LIGAND FREE ENERGY PREDICTED BY IDOCK:   -0.93 KCAL/MOL
REMARK 927      BINDING AFFINITY PREDICTED BY RF-SCORE:    0.00 PKD
ROOT
HETATM    1  C   UNL     1     -10.080   8.456  70.332  1.00  0.00    -0.202 C  
HETATM    2  C   UNL     1      -9.049   9.360  69.658  1.00  0.00    -0.181 C  
ENDROOT
BRANCH   2   3
HETATM    3  C   UNL     1      -8.832   8.907  68.194  1.00  0.00    -0.134 C  
HETATM    4  H2  UNL     1     -10.230   7.356  68.457  1.00  0.00     0.000 HD 
HETATM    5  H1  UNL     1      -9.439   7.525  66.858  1.00  0.00     0.000 HD 
HETATM    6  O   UNL     1      -8.062   9.440  67.402  1.00  0.00    -0.109 OA 
HETATM    7  N   UNL     1      -9.582   7.824  67.823  1.00  0.00    -0.143 N  
ENDBRANCH   2   3
BRANCH   2   8
HETATM    8  N   UNL     1      -9.439  10.787  69.620  1.00  0.00    -0.403 NA 
HETATM    9  H   UNL     1      -8.700  11.352  69.202  1.00  0.00     0.000 HD 
BRANCH   8  10
HETATM   10  C   UNL     1     -10.717  11.025  68.949  1.00  0.00    -0.211 C  
BRANCH  10  11
HETATM   11  C   UNL     1     -10.581  12.114  67.909  1.00  0.00    -0.230 A  
HETATM   12  C   UNL     1     -11.720  12.585  67.240  1.00  0.00    -0.431 A  
HETATM   13  C   UNL     1     -11.620  13.589  66.280  1.00  0.00    -0.374 A  
HETATM   14  C   UNL     1     -10.386  14.176  66.007  1.00  0.00    -0.309 A  
HETATM   15  C   UNL     1      -9.338  12.688  67.608  1.00  0.00    -0.190 A  
HETATM   16  C   UNL     1      -9.244  13.711  66.659  1.00  0.00    -0.225 A  
BRANCH  14  17
HETATM   17  O   UNL     1     -10.195  15.208  65.126  1.00  0.00    -0.372 OA 
BRANCH  17  18
HETATM   18  C   UNL     1     -10.799  16.444  65.520  1.00  0.00    -0.215 C  
BRANCH  18  19
HETATM   19  C   UNL     1      -9.897  17.238  66.431  1.00  0.00    -0.310 A  
HETATM   20  C   UNL     1     -10.402  17.960  67.519  1.00  0.00    -0.383 A  
HETATM   21  C   UNL     1      -9.550  18.753  68.280  1.00  0.00    -0.353 A  
HETATM   22  F   UNL     1     -10.043  19.445  69.313  1.00  0.00    -0.460 F  
HETATM   23  C   UNL     1      -8.198  18.854  67.972  1.00  0.00    -0.323 A  
HETATM   24  C   UNL     1      -7.685  18.146  66.888  1.00  0.00    -0.244 A  
HETATM   25  C   UNL     1      -8.531  17.345  66.118  1.00  0.00    -0.198 A  
ENDBRANCH  18  19
ENDBRANCH  17  18
ENDBRANCH  14  17
ENDBRANCH  10  11
ENDBRANCH   8  10
ENDBRANCH   2   8
TORSDOF 7
ENDMDL
MODEL      148
REMARK 921   NORMALIZED FREE ENERGY PREDICTED BY IDOCK:   -4.34 KCAL/MOL
REMARK 922        TOTAL FREE ENERGY PREDICTED BY IDOCK:   -6.92 KCAL/MOL
REMARK 923 INTER-LIGAND FREE ENERGY PREDICTED BY IDOCK:   -6.95 KCAL/MOL
REMARK 924 INTRA-LIGAND FREE ENERGY PREDICTED BY IDOCK:    0.04 KCAL/MOL
REMARK 927      BINDING AFFINITY PREDICTED BY RF-SCORE:    0.00 PKD
ROOT
HETATM    1  C   UNL     1      -9.328  19.551  68.430  1.00  0.00    -0.431 C  
HETATM    2  C   UNL     1      -9.759  18.288  67.688  1.00  0.00    -0.300 C  
ENDROOT
BRANCH   2   3
HETATM    3  C   UNL     1     -10.455  18.671  66.360  1.00  0.00    -0.418 C  
HETATM    4  H2  UNL     1     -10.080  20.707  66.741  1.00  0.00     0.000 HD 
HETATM    5  H1  UNL     1     -10.942  20.269  65.232  1.00  0.00     0.000 HD 
HETATM    6  O   UNL     1     -10.955  17.873  65.574  1.00  0.00    -0.310 OA 
HETATM    7  N   UNL     1     -10.483  20.016  66.108  1.00  0.00    -0.443 N  
ENDBRANCH   2   3
BRANCH   2   8
HETATM    8  N   UNL     1      -8.639  17.382  67.348  1.00  0.00    -0.212 NA 
HETATM    9  H   UNL     1      -7.744  17.810  67.584  1.00  0.00     0.000 HD 
BRANCH   8  10
HETATM   10  C   UNL     1      -8.756  16.056  67.957  1.00  0.00    -0.171 C  
BRANCH  10  11
HETATM   11  C   UNL     1      -9.724  15.194  67.179  1.00  0.00    -0.230 A  
HETATM   12  C   UNL     1     -10.894  14.726  67.797  1.00  0.00    -0.278 A  
HETATM   13  C   UNL     1     -11.801  13.933  67.100  1.00  0.00    -0.445 A  
HETATM   14  C   UNL     1     -11.582  13.633  65.757  1.00  0.00    -0.333 A  
HETATM   15  C   UNL     1      -9.495  14.864  65.837  1.00  0.00    -0.290 A  
HETATM   16  C   UNL     1     -10.419  14.085  65.133  1.00  0.00    -0.415 A  
BRANCH  14  17
HETATM   17  O   UNL     1     -12.444  12.913  64.972  1.00  0.00    -0.463 OA 
BRANCH  17  18
HETATM   18  C   UNL     1     -11.833  12.290  63.838  1.00  0.00    -0.464 C  
BRANCH  18  19
HETATM   19  C   UNL     1     -10.766  11.307  64.251  1.00  0.00    -0.416 A  
HETATM   20  C   UNL     1      -9.754  10.907  63.370  1.00  0.00    -0.392 A  
HETATM   21  C   UNL     1      -8.844   9.930  63.758  1.00  0.00    -0.232 A  
HETATM   22  F   UNL     1      -7.885   9.548  62.907  1.00  0.00    -0.116 F  
HETATM   23  C   UNL     1      -8.926   9.329  65.009  1.00  0.00    -0.245 A  
HETATM   24  C   UNL     1      -9.933   9.714  65.892  1.00  0.00    -0.351 A  
HETATM   25  C   UNL     1     -10.851  10.695  65.513  1.00  0.00     0.000 A  
ENDBRANCH  18  19
ENDBRANCH  17  18
ENDBRANCH  14  17
ENDBRANCH  10  11
ENDBRANCH   8  10
ENDBRANCH   2   8
TORSDOF 7
ENDMDL
MODEL      149
REMARK 921   NORMALIZED FREE ENERGY PREDICTED BY IDOCK:   -4.34 KCAL/MOL
REMARK 922        TOTAL FREE ENERGY PREDICTED BY IDOCK:   -6.91 KCAL/MOL
REMARK 923 INTER-LIGAND FREE ENERGY PREDICTED BY IDOCK:   -6.21 KCAL/MOL
REMARK 924 INTRA-LIGAND FREE ENERGY PREDICTED BY IDOCK:   -0.70 KCAL/MOL
REMARK 927      BINDING AFFINITY PREDICTED BY RF-SCORE:    0.00 PKD
ROOT
HETATM    1  C   UNL     1     -10.736  13.174  66.250  1.00  0.00    -0.295 C  
HETATM    2  C   UNL     1     -11.385  12.109  65.369  1.00  0.00    -0.338 C  
ENDROOT
BRANCH   2   3
HETATM    3  C   UNL     1     -12.243  12.787  64.272  1.00  0.00    -0.425 C  
HETATM    4  H2  UNL     1     -11.561  14.678  64.896  1.00  0.00     0.000 HD 
HETATM    5  H1  UNL     1     -12.712  14.599  63.526  1.00  0.00     0.000 HD 
HETATM    6  O   UNL     1     -12.962  12.192  63.477  1.00  0.00    -0.794 OA 
HETATM    7  N   UNL     1     -12.147  14.152  64.248  1.00  0.00    -0.467 N  
ENDBRANCH   2   3
BRANCH   2   8
HETATM    8  N   UNL     1     -10.414  11.228  64.681  1.00  0.00    -0.308 NA 
HETATM    9  H   UNL     1     -10.281  11.524  63.714  1.00  0.00     0.000 HD 
BRANCH   8  10
HETATM   10  C   UNL     1      -9.129  11.125  65.373  1.00  0.00    -0.177 C  
BRANCH  10  11
HETATM   11  C   UNL     1      -9.089   9.892  66.247  1.00  0.00    -0.187 A  
HETATM   12  C   UNL     1      -8.786  10.013  67.611  1.00  0.00    -0.121 A  
HETATM   13  C   UNL     1      -8.746   8.892  68.435  1.00  0.00    -0.134 A  
HETATM   14  C   UNL     1      -9.059   7.634  67.924  1.00  0.00    -0.134 A  
HETATM   15  C   UNL     1      -9.374   8.620  65.731  1.00  0.00    -0.227 A  
HETATM   16  C   UNL     1      -9.355   7.499  66.566  1.00  0.00    -0.231 A  
BRANCH  14  17
HETATM   17  O   UNL     1      -9.106   6.483  68.666  1.00  0.00    -0.130 OA 
BRANCH  17  18
HETATM   18  C   UNL     1      -8.719   6.643  70.033  1.00  0.00    -0.141 C  
BRANCH  18  19
HETATM   19  C   UNL     1      -9.910   6.901  70.922  1.00  0.00    -0.193 A  
HETATM   20  C   UNL     1     -11.221   6.699  70.472  1.00  0.00    -0.388 A  
HETATM   21  C   UNL     1     -12.293   7.036  71.289  1.00  0.00    -0.383 A  
HETATM   22  F   UNL     1     -13.542   6.846  70.849  1.00  0.00    -0.352 F  
HETATM   23  C   UNL     1     -12.090   7.585  72.551  1.00  0.00    -0.158 A  
HETATM   24  C   UNL     1     -10.791   7.798  73.007  1.00  0.00    -0.451 A  
HETATM   25  C   UNL     1      -9.706   7.462  72.194  1.00  0.00    -0.182 A  
ENDBRANCH  18  19
ENDBRANCH  17  18
ENDBRANCH  14  17
ENDBRANCH  10  11
ENDBRANCH   8  10
ENDBRANCH   2   8
TORSDOF 7
ENDMDL
MODEL      150
REMARK 921   NORMALIZED FREE ENERGY PREDICTED BY IDOCK:   -4.32 KCAL/MOL
REMARK 922        TOTAL FREE ENERGY PREDICTED BY IDOCK:   -6.88 KCAL/MOL
REMARK 923 INTER-LIGAND FREE ENERGY PREDICTED BY IDOCK:   -6.19 KCAL/MOL
REMARK 924 INTRA-LIGAND FREE ENERGY PREDICTED BY IDOCK:   -0.69 KCAL/MOL
REMARK 927      BINDING AFFINITY PREDICTED BY RF-SCORE:    0.00 PKD
ROOT
HETATM    1  C   UNL     1     -12.159  13.526  67.099  1.00  0.00    -0.386 C  
HETATM    2  C   UNL     1     -11.452  13.144  65.800  1.00  0.00    -0.325 C  
ENDROOT
BRANCH   2   3
HETATM    3  C   UNL     1     -11.222  14.408  64.937  1.00  0.00    -0.389 C  
HETATM    4  H2  UNL     1     -13.218  14.330  64.273  1.00  0.00     0.000 HD 
HETATM    5  H1  UNL     1     -12.170  15.649  63.663  1.00  0.00     0.000 HD 
HETATM    6  O   UNL     1     -10.161  15.020  64.859  1.00  0.00    -0.357 OA 
HETATM    7  N   UNL     1     -12.322  14.816  64.233  1.00  0.00    -0.451 N  
ENDBRANCH   2   3
BRANCH   2   8
HETATM    8  N   UNL     1     -10.132  12.507  66.004  1.00  0.00    -0.249 NA 
HETATM    9  H   UNL     1      -9.809  12.642  66.961  1.00  0.00     0.000 HD 
BRANCH   8  10
HETATM   10  C   UNL     1     -10.107  11.089  65.643  1.00  0.00    -0.256 C  
BRANCH  10  11
HETATM   11  C   UNL     1     -10.110  10.222  66.882  1.00  0.00    -0.274 A  
HETATM   12  C   UNL     1     -10.373   8.849  66.771  1.00  0.00    -0.317 A  
HETATM   13  C   UNL     1     -10.378   8.030  67.897  1.00  0.00    -0.282 A  
HETATM   14  C   UNL     1     -10.070   8.558  69.149  1.00  0.00    -0.203 A  
HETATM   15  C   UNL     1      -9.830  10.753  68.148  1.00  0.00    -0.171 A  
HETATM   16  C   UNL     1      -9.815   9.924  69.274  1.00  0.00    -0.217 A  
BRANCH  14  17
HETATM   17  O   UNL     1      -9.991   7.824  70.303  1.00  0.00    -0.187 OA 
BRANCH  17  18
HETATM   18  C   UNL     1     -11.174   7.083  70.617  1.00  0.00    -0.288 C  
BRANCH  18  19
HETATM   19  C   UNL     1     -10.853   5.820  71.376  1.00  0.00    -0.316 A  
HETATM   20  C   UNL     1     -10.091   4.793  70.805  1.00  0.00    -0.286 A  
HETATM   21  C   UNL     1      -9.895   3.607  71.502  1.00  0.00    -0.157 A  
HETATM   22  F   UNL     1      -9.171   2.628  70.946  1.00  0.00    -0.145 F  
HETATM   23  C   UNL     1     -10.455   3.412  72.760  1.00  0.00    -0.211 A  
HETATM   24  C   UNL     1     -11.222   4.423  73.335  1.00  0.00    -0.386 A  
HETATM   25  C   UNL     1     -11.424   5.619  72.644  1.00  0.00    -0.339 A  
ENDBRANCH  18  19
ENDBRANCH  17  18
ENDBRANCH  14  17
ENDBRANCH  10  11
ENDBRANCH   8  10
ENDBRANCH   2   8
TORSDOF 7
ENDMDL
MODEL      151
REMARK 921   NORMALIZED FREE ENERGY PREDICTED BY IDOCK:   -4.32 KCAL/MOL
REMARK 922        TOTAL FREE ENERGY PREDICTED BY IDOCK:   -6.88 KCAL/MOL
REMARK 923 INTER-LIGAND FREE ENERGY PREDICTED BY IDOCK:   -5.93 KCAL/MOL
REMARK 924 INTRA-LIGAND FREE ENERGY PREDICTED BY IDOCK:   -0.95 KCAL/MOL
REMARK 927      BINDING AFFINITY PREDICTED BY RF-SCORE:    0.00 PKD
ROOT
HETATM    1  C   UNL     1      -7.041   9.911  63.094  1.00  0.00    -0.126 C  
HETATM    2  C   UNL     1      -7.378   9.877  64.584  1.00  0.00    -0.140 C  
ENDROOT
BRANCH   2   3
HETATM    3  C   UNL     1      -6.115  10.208  65.415  1.00  0.00    -0.103 C  
HETATM    4  H2  UNL     1      -6.654   8.746  66.831  1.00  0.00     0.000 HD 
HETATM    5  H1  UNL     1      -5.148   9.678  67.102  1.00  0.00     0.000 HD 
HETATM    6  O   UNL     1      -5.284  11.060  65.120  1.00  0.00    -0.203 OA 
HETATM    7  N   UNL     1      -5.980   9.460  66.554  1.00  0.00    -0.058 N  
ENDBRANCH   2   3
BRANCH   2   8
HETATM    8  N   UNL     1      -8.428  10.843  64.981  1.00  0.00    -0.359 NA 
HETATM    9  H   UNL     1      -8.490  11.606  64.308  1.00  0.00     0.000 HD 
BRANCH   8  10
HETATM   10  C   UNL     1      -9.739  10.226  65.189  1.00  0.00    -0.300 C  
BRANCH  10  11
HETATM   11  C   UNL     1      -9.736   9.368  66.434  1.00  0.00    -0.315 A  
HETATM   12  C   UNL     1      -9.361   9.927  67.664  1.00  0.00    -0.156 A  
HETATM   13  C   UNL     1      -9.354   9.157  68.824  1.00  0.00    -0.139 A  
HETATM   14  C   UNL     1      -9.772   7.828  68.786  1.00  0.00    -0.157 A  
HETATM   15  C   UNL     1     -10.127   8.023  66.396  1.00  0.00    -0.174 A  
HETATM   16  C   UNL     1     -10.140   7.258  67.567  1.00  0.00    -0.250 A  
BRANCH  14  17
HETATM   17  O   UNL     1      -9.857   7.009  69.882  1.00  0.00    -0.169 OA 
BRANCH  17  18
HETATM   18  C   UNL     1     -10.051   7.695  71.121  1.00  0.00    -0.184 C  
BRANCH  18  19
HETATM   19  C   UNL     1     -11.497   8.075  71.326  1.00  0.00    -0.299 A  
HETATM   20  C   UNL     1     -11.869   9.366  71.721  1.00  0.00    -0.452 A  
HETATM   21  C   UNL     1     -13.203   9.651  71.988  1.00  0.00    -0.453 A  
HETATM   22  F   UNL     1     -13.549  10.885  72.372  1.00  0.00    -0.466 F  
HETATM   23  C   UNL     1     -14.182   8.669  71.881  1.00  0.00    -0.507 A  
HETATM   24  C   UNL     1     -13.823   7.379  71.496  1.00  0.00    -0.483 A  
HETATM   25  C   UNL     1     -12.487   7.083  71.225  1.00  0.00    -0.430 A  
ENDBRANCH  18  19
ENDBRANCH  17  18
ENDBRANCH  14  17
ENDBRANCH  10  11
ENDBRANCH   8  10
ENDBRANCH   2   8
TORSDOF 7
ENDMDL
MODEL      152
REMARK 921   NORMALIZED FREE ENERGY PREDICTED BY IDOCK:   -4.32 KCAL/MOL
REMARK 922        TOTAL FREE ENERGY PREDICTED BY IDOCK:   -6.88 KCAL/MOL
REMARK 923 INTER-LIGAND FREE ENERGY PREDICTED BY IDOCK:   -6.13 KCAL/MOL
REMARK 924 INTRA-LIGAND FREE ENERGY PREDICTED BY IDOCK:   -0.74 KCAL/MOL
REMARK 927      BINDING AFFINITY PREDICTED BY RF-SCORE:    0.00 PKD
ROOT
HETATM    1  C   UNL     1      -9.122   5.425  70.984  1.00  0.00    -0.167 C  
HETATM    2  C   UNL     1     -10.645   5.348  71.079  1.00  0.00    -0.205 C  
ENDROOT
BRANCH   2   3
HETATM    3  C   UNL     1     -11.115   5.910  72.442  1.00  0.00    -0.280 C  
HETATM    4  H2  UNL     1     -11.647   7.726  71.520  1.00  0.00     0.000 HD 
HETATM    5  H1  UNL     1     -11.909   7.560  73.285  1.00  0.00     0.000 HD 
HETATM    6  O   UNL     1     -11.072   5.300  73.506  1.00  0.00    -0.302 OA 
HETATM    7  N   UNL     1     -11.599   7.189  72.387  1.00  0.00    -0.271 N  
ENDBRANCH   2   3
BRANCH   2   8
HETATM    8  N   UNL     1     -11.350   6.112  70.025  1.00  0.00    -0.404 NA 
HETATM    9  H   UNL     1     -11.657   7.017  70.380  1.00  0.00     0.000 HD 
BRANCH   8  10
HETATM   10  C   UNL     1     -10.567   6.274  68.800  1.00  0.00    -0.262 C  
BRANCH  10  11
HETATM   11  C   UNL     1     -10.544   7.722  68.366  1.00  0.00    -0.157 A  
HETATM   12  C   UNL     1     -10.322   8.043  67.018  1.00  0.00    -0.414 A  
HETATM   13  C   UNL     1     -10.300   9.369  66.595  1.00  0.00    -0.284 A  
HETATM   14  C   UNL     1     -10.550  10.398  67.501  1.00  0.00    -0.262 A  
HETATM   15  C   UNL     1     -10.765   8.763  69.278  1.00  0.00    -0.166 A  
HETATM   16  C   UNL     1     -10.764  10.093  68.846  1.00  0.00    -0.249 A  
BRANCH  14  17
HETATM   17  O   UNL     1     -10.609  11.726  67.170  1.00  0.00    -0.217 OA 
BRANCH  17  18
HETATM   18  C   UNL     1      -9.875  12.588  68.044  1.00  0.00    -0.214 C  
BRANCH  18  19
HETATM   19  C   UNL     1     -10.751  13.674  68.618  1.00  0.00    -0.272 A  
HETATM   20  C   UNL     1     -10.592  15.016  68.253  1.00  0.00    -0.247 A  
HETATM   21  C   UNL     1     -11.357  15.998  68.873  1.00  0.00    -0.370 A  
HETATM   22  F   UNL     1     -11.193  17.279  68.523  1.00  0.00    -0.274 F  
HETATM   23  C   UNL     1     -12.276  15.673  69.865  1.00  0.00    -0.317 A  
HETATM   24  C   UNL     1     -12.437  14.341  70.242  1.00  0.00    -0.422 A  
HETATM   25  C   UNL     1     -11.675  13.348  69.625  1.00  0.00    -0.375 A  
ENDBRANCH  18  19
ENDBRANCH  17  18
ENDBRANCH  14  17
ENDBRANCH  10  11
ENDBRANCH   8  10
ENDBRANCH   2   8
TORSDOF 7
ENDMDL
MODEL      153
REMARK 921   NORMALIZED FREE ENERGY PREDICTED BY IDOCK:   -4.31 KCAL/MOL
REMARK 922        TOTAL FREE ENERGY PREDICTED BY IDOCK:   -6.87 KCAL/MOL
REMARK 923 INTER-LIGAND FREE ENERGY PREDICTED BY IDOCK:   -5.62 KCAL/MOL
REMARK 924 INTRA-LIGAND FREE ENERGY PREDICTED BY IDOCK:   -1.25 KCAL/MOL
REMARK 927      BINDING AFFINITY PREDICTED BY RF-SCORE:    0.00 PKD
ROOT
HETATM    1  C   UNL     1     -10.895   7.862  72.713  1.00  0.00    -0.451 C  
HETATM    2  C   UNL     1     -12.200   8.107  71.959  1.00  0.00    -0.339 C  
ENDROOT
BRANCH   2   3
HETATM    3  C   UNL     1     -12.223   9.553  71.407  1.00  0.00    -0.371 C  
HETATM    4  H2  UNL     1     -13.970   9.956  72.511  1.00  0.00     0.000 HD 
HETATM    5  H1  UNL     1     -13.282  11.266  71.499  1.00  0.00     0.000 HD 
HETATM    6  O   UNL     1     -11.400  10.019  70.625  1.00  0.00    -0.297 OA 
HETATM    7  N   UNL     1     -13.267  10.313  71.863  1.00  0.00    -0.455 N  
ENDBRANCH   2   3
BRANCH   2   8
HETATM    8  N   UNL     1     -12.407   7.198  70.809  1.00  0.00    -0.567 NA 
HETATM    9  H   UNL     1     -12.594   7.728  69.959  1.00  0.00     0.000 HD 
BRANCH   8  10
HETATM   10  C   UNL     1     -11.304   6.259  70.603  1.00  0.00    -0.343 C  
BRANCH  10  11
HETATM   11  C   UNL     1     -10.498   6.640  69.382  1.00  0.00    -0.254 A  
HETATM   12  C   UNL     1     -11.093   6.598  68.112  1.00  0.00    -0.287 A  
HETATM   13  C   UNL     1     -10.370   6.947  66.975  1.00  0.00    -0.348 A  
HETATM   14  C   UNL     1      -9.055   7.393  67.088  1.00  0.00    -0.130 A  
HETATM   15  C   UNL     1      -9.165   7.060  69.487  1.00  0.00    -0.149 A  
HETATM   16  C   UNL     1      -8.449   7.431  68.345  1.00  0.00    -0.125 A  
BRANCH  14  17
HETATM   17  O   UNL     1      -8.284   7.814  66.037  1.00  0.00    -0.110 OA 
BRANCH  17  18
HETATM   18  C   UNL     1      -8.894   8.816  65.218  1.00  0.00    -0.162 C  
BRANCH  18  19
HETATM   19  C   UNL     1      -8.798  10.183  65.848  1.00  0.00    -0.167 A  
HETATM   20  C   UNL     1      -7.592  10.670  66.367  1.00  0.00    -0.138 A  
HETATM   21  C   UNL     1      -7.565  11.896  67.022  1.00  0.00    -0.134 A  
HETATM   22  F   UNL     1      -6.410  12.351  67.521  1.00  0.00    -0.085 F  
HETATM   23  C   UNL     1      -8.723  12.649  67.184  1.00  0.00    -0.201 A  
HETATM   24  C   UNL     1      -9.930  12.172  66.679  1.00  0.00    -0.222 A  
HETATM   25  C   UNL     1      -9.968  10.942  66.018  1.00  0.00    -0.290 A  
ENDBRANCH  18  19
ENDBRANCH  17  18
ENDBRANCH  14  17
ENDBRANCH  10  11
ENDBRANCH   8  10
ENDBRANCH   2   8
TORSDOF 7
ENDMDL
MODEL      154
REMARK 921   NORMALIZED FREE ENERGY PREDICTED BY IDOCK:   -4.30 KCAL/MOL
REMARK 922        TOTAL FREE ENERGY PREDICTED BY IDOCK:   -6.85 KCAL/MOL
REMARK 923 INTER-LIGAND FREE ENERGY PREDICTED BY IDOCK:   -6.35 KCAL/MOL
REMARK 924 INTRA-LIGAND FREE ENERGY PREDICTED BY IDOCK:   -0.50 KCAL/MOL
REMARK 927      BINDING AFFINITY PREDICTED BY RF-SCORE:    0.00 PKD
ROOT
HETATM    1  C   UNL     1     -10.441  19.254  67.774  1.00  0.00    -0.539 C  
HETATM    2  C   UNL     1      -9.062  18.711  67.402  1.00  0.00    -0.279 C  
ENDROOT
BRANCH   2   3
HETATM    3  C   UNL     1      -8.115  19.883  67.046  1.00  0.00    -0.309 C  
HETATM    4  H2  UNL     1      -7.769  19.040  65.149  1.00  0.00     0.000 HD 
HETATM    5  H1  UNL     1      -6.945  20.577  65.559  1.00  0.00     0.000 HD 
HETATM    6  O   UNL     1      -7.847  20.819  67.793  1.00  0.00    -0.196 OA 
HETATM    7  N   UNL     1      -7.570  19.805  65.794  1.00  0.00    -0.327 N  
ENDBRANCH   2   3
BRANCH   2   8
HETATM    8  N   UNL     1      -8.412  17.937  68.483  1.00  0.00    -0.302 NA 
HETATM    9  H   UNL     1      -9.110  17.493  69.079  1.00  0.00     0.000 HD 
BRANCH   8  10
HETATM   10  C   UNL     1      -7.446  16.952  67.995  1.00  0.00    -0.173 C  
BRANCH  10  11
HETATM   11  C   UNL     1      -8.147  15.689  67.551  1.00  0.00    -0.181 A  
HETATM   12  C   UNL     1      -9.083  15.740  66.507  1.00  0.00    -0.327 A  
HETATM   13  C   UNL     1      -9.738  14.589  66.079  1.00  0.00    -0.331 A  
HETATM   14  C   UNL     1      -9.434  13.355  66.651  1.00  0.00    -0.260 A  
HETATM   15  C   UNL     1      -7.867  14.450  68.143  1.00  0.00    -0.138 A  
HETATM   16  C   UNL     1      -8.511  13.292  67.696  1.00  0.00    -0.191 A  
BRANCH  14  17
HETATM   17  O   UNL     1      -9.980  12.162  66.259  1.00  0.00    -0.219 OA 
BRANCH  17  18
HETATM   18  C   UNL     1     -11.359  11.998  66.604  1.00  0.00    -0.340 C  
BRANCH  18  19
HETATM   19  C   UNL     1     -11.532  11.687  68.069  1.00  0.00    -0.385 A  
HETATM   20  C   UNL     1     -11.342  10.395  68.574  1.00  0.00    -0.283 A  
HETATM   21  C   UNL     1     -11.601  10.130  69.914  1.00  0.00    -0.223 A  
HETATM   22  F   UNL     1     -11.424   8.890  70.386  1.00  0.00    -0.265 F  
HETATM   23  C   UNL     1     -12.060  11.127  70.768  1.00  0.00    -0.458 A  
HETATM   24  C   UNL     1     -12.260  12.415  70.276  1.00  0.00    -0.345 A  
HETATM   25  C   UNL     1     -12.001  12.692  68.932  1.00  0.00    -0.284 A  
ENDBRANCH  18  19
ENDBRANCH  17  18
ENDBRANCH  14  17
ENDBRANCH  10  11
ENDBRANCH   8  10
ENDBRANCH   2   8
TORSDOF 7
ENDMDL
MODEL      155
REMARK 921   NORMALIZED FREE ENERGY PREDICTED BY IDOCK:   -4.27 KCAL/MOL
REMARK 922        TOTAL FREE ENERGY PREDICTED BY IDOCK:   -6.80 KCAL/MOL
REMARK 923 INTER-LIGAND FREE ENERGY PREDICTED BY IDOCK:   -6.07 KCAL/MOL
REMARK 924 INTRA-LIGAND FREE ENERGY PREDICTED BY IDOCK:   -0.73 KCAL/MOL
REMARK 927      BINDING AFFINITY PREDICTED BY RF-SCORE:    0.00 PKD
ROOT
HETATM    1  C   UNL     1      -7.351   9.790  64.804  1.00  0.00    -0.130 C  
HETATM    2  C   UNL     1      -8.810  10.152  64.535  1.00  0.00    -0.204 C  
ENDROOT
BRANCH   2   3
HETATM    3  C   UNL     1      -9.158   9.861  63.055  1.00  0.00    -0.269 C  
HETATM    4  H2  UNL     1      -8.094   8.048  63.151  1.00  0.00     0.000 HD 
HETATM    5  H1  UNL     1      -8.881   8.490  61.604  1.00  0.00     0.000 HD 
HETATM    6  O   UNL     1      -9.823  10.597  62.333  1.00  0.00    -0.150 OA 
HETATM    7  N   UNL     1      -8.653   8.682  62.579  1.00  0.00    -0.181 N  
ENDBRANCH   2   3
BRANCH   2   8
HETATM    8  N   UNL     1      -9.776   9.399  65.366  1.00  0.00    -0.439 NA 
HETATM    9  H   UNL     1      -9.826   8.425  65.069  1.00  0.00     0.000 HD 
BRANCH   8  10
HETATM   10  C   UNL     1      -9.505   9.489  66.801  1.00  0.00    -0.167 C  
BRANCH  10  11
HETATM   11  C   UNL     1      -9.854  10.863  67.326  1.00  0.00    -0.202 A  
HETATM   12  C   UNL     1      -8.832  11.757  67.678  1.00  0.00    -0.162 A  
HETATM   13  C   UNL     1      -9.129  13.028  68.161  1.00  0.00    -0.204 A  
HETATM   14  C   UNL     1     -10.454  13.450  68.254  1.00  0.00    -0.250 A  
HETATM   15  C   UNL     1     -11.186  11.282  67.450  1.00  0.00    -0.370 A  
HETATM   16  C   UNL     1     -11.482  12.568  67.915  1.00  0.00    -0.369 A  
BRANCH  14  17
HETATM   17  O   UNL     1     -10.845  14.699  68.659  1.00  0.00    -0.240 OA 
BRANCH  17  18
HETATM   18  C   UNL     1     -11.027  15.638  67.596  1.00  0.00    -0.315 C  
BRANCH  18  19
HETATM   19  C   UNL     1     -10.251  16.908  67.836  1.00  0.00    -0.308 A  
HETATM   20  C   UNL     1     -10.630  18.123  67.253  1.00  0.00    -0.384 A  
HETATM   21  C   UNL     1      -9.837  19.252  67.425  1.00  0.00    -0.336 A  
HETATM   22  F   UNL     1     -10.203  20.407  66.858  1.00  0.00    -0.549 F  
HETATM   23  C   UNL     1      -8.658  19.196  68.161  1.00  0.00    -0.359 A  
HETATM   24  C   UNL     1      -8.266  17.991  68.740  1.00  0.00    -0.229 A  
HETATM   25  C   UNL     1      -9.056  16.852  68.575  1.00  0.00    -0.257 A  
ENDBRANCH  18  19
ENDBRANCH  17  18
ENDBRANCH  14  17
ENDBRANCH  10  11
ENDBRANCH   8  10
ENDBRANCH   2   8
TORSDOF 7
ENDMDL
MODEL      156
REMARK 921   NORMALIZED FREE ENERGY PREDICTED BY IDOCK:   -4.24 KCAL/MOL
REMARK 922        TOTAL FREE ENERGY PREDICTED BY IDOCK:   -6.77 KCAL/MOL
REMARK 923 INTER-LIGAND FREE ENERGY PREDICTED BY IDOCK:   -6.19 KCAL/MOL
REMARK 924 INTRA-LIGAND FREE ENERGY PREDICTED BY IDOCK:   -0.58 KCAL/MOL
REMARK 927      BINDING AFFINITY PREDICTED BY RF-SCORE:    0.00 PKD
ROOT
HETATM    1  C   UNL     1     -11.985  14.313  65.936  1.00  0.00    -0.400 C  
HETATM    2  C   UNL     1     -10.920  14.771  64.941  1.00  0.00    -0.412 C  
ENDROOT
BRANCH   2   3
HETATM    3  C   UNL     1      -9.969  15.785  65.620  1.00  0.00    -0.345 C  
HETATM    4  H2  UNL     1     -11.372  17.323  65.310  1.00  0.00     0.000 HD 
HETATM    5  H1  UNL     1      -9.831  17.731  66.127  1.00  0.00     0.000 HD 
HETATM    6  O   UNL     1      -8.862  15.513  66.074  1.00  0.00    -0.308 OA 
HETATM    7  N   UNL     1     -10.458  17.062  65.680  1.00  0.00    -0.290 N  
ENDBRANCH   2   3
BRANCH   2   8
HETATM    8  N   UNL     1     -10.081  13.670  64.414  1.00  0.00    -0.748 NA 
HETATM    9  H   UNL     1      -9.336  13.439  65.071  1.00  0.00     0.000 HD 
BRANCH   8  10
HETATM   10  C   UNL     1     -10.845  12.475  64.056  1.00  0.00    -0.406 C  
BRANCH  10  11
HETATM   11  C   UNL     1     -10.393  11.285  64.872  1.00  0.00    -0.362 A  
HETATM   12  C   UNL     1      -9.577  10.307  64.285  1.00  0.00    -0.375 A  
HETATM   13  C   UNL     1      -9.146   9.204  65.018  1.00  0.00    -0.215 A  
HETATM   14  C   UNL     1      -9.480   9.084  66.366  1.00  0.00    -0.226 A  
HETATM   15  C   UNL     1     -10.750  11.144  66.220  1.00  0.00    -0.298 A  
HETATM   16  C   UNL     1     -10.297  10.047  66.959  1.00  0.00    -0.305 A  
BRANCH  14  17
HETATM   17  O   UNL     1      -9.055   8.070  67.184  1.00  0.00    -0.131 OA 
BRANCH  17  18
HETATM   18  C   UNL     1     -10.104   7.243  67.695  1.00  0.00    -0.181 C  
BRANCH  18  19
HETATM   19  C   UNL     1      -9.853   5.784  67.404  1.00  0.00    -0.154 A  
HETATM   20  C   UNL     1      -9.764   4.835  68.429  1.00  0.00    -0.209 A  
HETATM   21  C   UNL     1      -9.441   3.517  68.126  1.00  0.00    -0.155 A  
HETATM   22  F   UNL     1      -9.350   2.617  69.113  1.00  0.00    -0.172 F  
HETATM   23  C   UNL     1      -9.191   3.122  66.817  1.00  0.00    -0.175 A  
HETATM   24  C   UNL     1      -9.270   4.059  65.789  1.00  0.00    -0.151 A  
HETATM   25  C   UNL     1      -9.595   5.385  66.082  1.00  0.00    -0.169 A  
ENDBRANCH  18  19
ENDBRANCH  17  18
ENDBRANCH  14  17
ENDBRANCH  10  11
ENDBRANCH   8  10
ENDBRANCH   2   8
TORSDOF 7
ENDMDL
MODEL      157
REMARK 921   NORMALIZED FREE ENERGY PREDICTED BY IDOCK:   -4.23 KCAL/MOL
REMARK 922        TOTAL FREE ENERGY PREDICTED BY IDOCK:   -6.76 KCAL/MOL
REMARK 923 INTER-LIGAND FREE ENERGY PREDICTED BY IDOCK:   -6.10 KCAL/MOL
REMARK 924 INTRA-LIGAND FREE ENERGY PREDICTED BY IDOCK:   -0.66 KCAL/MOL
REMARK 927      BINDING AFFINITY PREDICTED BY RF-SCORE:    0.00 PKD
ROOT
HETATM    1  C   UNL     1      -8.335   2.313  65.642  1.00  0.00    -0.093 C  
HETATM    2  C   UNL     1      -9.185   3.177  64.713  1.00  0.00    -0.145 C  
ENDROOT
BRANCH   2   3
HETATM    3  C   UNL     1      -9.747   2.311  63.559  1.00  0.00    -0.119 C  
HETATM    4  H2  UNL     1     -11.654   3.156  63.840  1.00  0.00     0.000 HD 
HETATM    5  H1  UNL     1     -11.450   1.929  62.551  1.00  0.00     0.000 HD 
HETATM    6  O   UNL     1      -9.092   1.509  62.901  1.00  0.00    -0.084 OA 
HETATM    7  N   UNL     1     -11.079   2.500  63.311  1.00  0.00    -0.221 N  
ENDBRANCH   2   3
BRANCH   2   8
HETATM    8  N   UNL     1     -10.341   3.816  65.381  1.00  0.00    -0.437 NA 
HETATM    9  H   UNL     1     -11.123   3.165  65.451  1.00  0.00     0.000 HD 
BRANCH   8  10
HETATM   10  C   UNL     1     -10.018   4.380  66.691  1.00  0.00    -0.210 C  
BRANCH  10  11
HETATM   11  C   UNL     1      -9.873   5.883  66.606  1.00  0.00    -0.197 A  
HETATM   12  C   UNL     1     -10.883   6.711  67.117  1.00  0.00    -0.471 A  
HETATM   13  C   UNL     1     -10.771   8.097  67.052  1.00  0.00    -0.247 A  
HETATM   14  C   UNL     1      -9.622   8.683  66.522  1.00  0.00    -0.237 A  
HETATM   15  C   UNL     1      -8.734   6.478  66.047  1.00  0.00    -0.155 A  
HETATM   16  C   UNL     1      -8.613   7.870  66.003  1.00  0.00    -0.166 A  
BRANCH  14  17
HETATM   17  O   UNL     1      -9.393  10.033  66.469  1.00  0.00    -0.153 OA 
BRANCH  17  18
HETATM   18  C   UNL     1     -10.496  10.839  66.892  1.00  0.00    -0.252 C  
BRANCH  18  19
HETATM   19  C   UNL     1     -10.993  11.728  65.779  1.00  0.00    -0.353 A  
HETATM   20  C   UNL     1     -11.711  12.901  66.042  1.00  0.00    -0.456 A  
HETATM   21  C   UNL     1     -12.231  13.645  64.988  1.00  0.00    -0.421 A  
HETATM   22  F   UNL     1     -12.923  14.761  65.248  1.00  0.00    -0.270 F  
HETATM   23  C   UNL     1     -12.061  13.238  63.669  1.00  0.00    -0.551 A  
HETATM   24  C   UNL     1     -11.355  12.068  63.396  1.00  0.00    -0.484 A  
HETATM   25  C   UNL     1     -10.827  11.315  64.447  1.00  0.00    -0.373 A  
ENDBRANCH  18  19
ENDBRANCH  17  18
ENDBRANCH  14  17
ENDBRANCH  10  11
ENDBRANCH   8  10
ENDBRANCH   2   8
TORSDOF 7
ENDMDL
MODEL      158
REMARK 921   NORMALIZED FREE ENERGY PREDICTED BY IDOCK:   -4.23 KCAL/MOL
REMARK 922        TOTAL FREE ENERGY PREDICTED BY IDOCK:   -6.75 KCAL/MOL
REMARK 923 INTER-LIGAND FREE ENERGY PREDICTED BY IDOCK:   -5.95 KCAL/MOL
REMARK 924 INTRA-LIGAND FREE ENERGY PREDICTED BY IDOCK:   -0.80 KCAL/MOL
REMARK 927      BINDING AFFINITY PREDICTED BY RF-SCORE:    0.00 PKD
ROOT
HETATM    1  C   UNL     1     -10.808   7.935  67.207  1.00  0.00    -0.189 C  
HETATM    2  C   UNL     1      -9.358   8.268  66.859  1.00  0.00    -0.176 C  
ENDROOT
BRANCH   2   3
HETATM    3  C   UNL     1      -8.476   7.007  67.023  1.00  0.00    -0.121 C  
HETATM    4  H2  UNL     1      -6.951   8.174  67.885  1.00  0.00     0.000 HD 
HETATM    5  H1  UNL     1      -6.673   6.414  67.701  1.00  0.00     0.000 HD 
HETATM    6  O   UNL     1      -8.801   5.874  66.682  1.00  0.00    -0.118 OA 
HETATM    7  N   UNL     1      -7.255   7.245  67.593  1.00  0.00    -0.088 N  
ENDBRANCH   2   3
BRANCH   2   8
HETATM    8  N   UNL     1      -9.172   8.754  65.473  1.00  0.00    -0.388 NA 
HETATM    9  H   UNL     1     -10.073   8.930  65.029  1.00  0.00     0.000 HD 
BRANCH   8  10
HETATM   10  C   UNL     1      -8.308   9.931  65.379  1.00  0.00    -0.146 C  
BRANCH  10  11
HETATM   11  C   UNL     1      -9.095  11.195  65.637  1.00  0.00    -0.221 A  
HETATM   12  C   UNL     1     -10.260  11.455  64.899  1.00  0.00    -0.330 A  
HETATM   13  C   UNL     1     -11.002  12.612  65.122  1.00  0.00    -0.324 A  
HETATM   14  C   UNL     1     -10.623  13.506  66.121  1.00  0.00    -0.290 A  
HETATM   15  C   UNL     1      -8.702  12.113  66.620  1.00  0.00    -0.153 A  
HETATM   16  C   UNL     1      -9.462  13.263  66.857  1.00  0.00    -0.249 A  
BRANCH  14  17
HETATM   17  O   UNL     1     -11.320  14.638  66.456  1.00  0.00    -0.341 OA 
BRANCH  17  18
HETATM   18  C   UNL     1     -10.934  15.808  65.729  1.00  0.00    -0.214 C  
BRANCH  18  19
HETATM   19  C   UNL     1     -10.634  16.962  66.653  1.00  0.00    -0.189 A  
HETATM   20  C   UNL     1     -10.383  18.250  66.163  1.00  0.00    -0.414 A  
HETATM   21  C   UNL     1     -10.020  19.266  67.040  1.00  0.00    -0.357 A  
HETATM   22  F   UNL     1      -9.775  20.492  66.562  1.00  0.00    -0.502 F  
HETATM   23  C   UNL     1      -9.889  19.025  68.403  1.00  0.00    -0.454 A  
HETATM   24  C   UNL     1     -10.128  17.746  68.902  1.00  0.00    -0.350 A  
HETATM   25  C   UNL     1     -10.494  16.719  68.030  1.00  0.00    -0.333 A  
ENDBRANCH  18  19
ENDBRANCH  17  18
ENDBRANCH  14  17
ENDBRANCH  10  11
ENDBRANCH   8  10
ENDBRANCH   2   8
TORSDOF 7
ENDMDL
MODEL      159
REMARK 921   NORMALIZED FREE ENERGY PREDICTED BY IDOCK:   -4.23 KCAL/MOL
REMARK 922        TOTAL FREE ENERGY PREDICTED BY IDOCK:   -6.75 KCAL/MOL
REMARK 923 INTER-LIGAND FREE ENERGY PREDICTED BY IDOCK:   -6.21 KCAL/MOL
REMARK 924 INTRA-LIGAND FREE ENERGY PREDICTED BY IDOCK:   -0.54 KCAL/MOL
REMARK 927      BINDING AFFINITY PREDICTED BY RF-SCORE:    0.00 PKD
ROOT
HETATM    1  C   UNL     1     -10.453  11.439  63.346  1.00  0.00    -0.452 C  
HETATM    2  C   UNL     1     -10.773  12.742  64.076  1.00  0.00    -0.426 C  
ENDROOT
BRANCH   2   3
HETATM    3  C   UNL     1     -12.291  12.823  64.363  1.00  0.00    -0.424 C  
HETATM    4  H2  UNL     1     -11.940  14.253  65.867  1.00  0.00     0.000 HD 
HETATM    5  H1  UNL     1     -13.631  13.753  65.548  1.00  0.00     0.000 HD 
HETATM    6  O   UNL     1     -13.152  12.174  63.777  1.00  0.00    -0.774 OA 
HETATM    7  N   UNL     1     -12.630  13.700  65.358  1.00  0.00    -0.495 N  
ENDBRANCH   2   3
BRANCH   2   8
HETATM    8  N   UNL     1     -10.074  12.888  65.373  1.00  0.00    -0.370 NA 
HETATM    9  H   UNL     1     -10.737  13.100  66.118  1.00  0.00     0.000 HD 
BRANCH   8  10
HETATM   10  C   UNL     1      -9.251  11.731  65.725  1.00  0.00    -0.139 C  
BRANCH  10  11
HETATM   11  C   UNL     1      -9.627  11.202  67.090  1.00  0.00    -0.192 A  
HETATM   12  C   UNL     1      -8.622  10.846  68.001  1.00  0.00    -0.131 A  
HETATM   13  C   UNL     1      -8.945  10.358  69.265  1.00  0.00    -0.176 A  
HETATM   14  C   UNL     1     -10.278  10.265  69.661  1.00  0.00    -0.235 A  
HETATM   15  C   UNL     1     -10.967  11.078  67.483  1.00  0.00    -0.338 A  
HETATM   16  C   UNL     1     -11.287  10.609  68.761  1.00  0.00    -0.339 A  
BRANCH  14  17
HETATM   17  O   UNL     1     -10.692   9.856  70.901  1.00  0.00    -0.311 OA 
BRANCH  17  18
HETATM   18  C   UNL     1      -9.749   9.043  71.604  1.00  0.00    -0.276 C  
BRANCH  18  19
HETATM   19  C   UNL     1      -9.648   7.663  71.003  1.00  0.00    -0.169 A  
HETATM   20  C   UNL     1     -10.648   7.150  70.167  1.00  0.00    -0.247 A  
HETATM   21  C   UNL     1     -10.563   5.841  69.708  1.00  0.00    -0.318 A  
HETATM   22  F   UNL     1     -11.527   5.357  68.916  1.00  0.00     0.080 F  
HETATM   23  C   UNL     1      -9.502   5.019  70.074  1.00  0.00    -0.231 A  
HETATM   24  C   UNL     1      -8.505   5.515  70.911  1.00  0.00    -0.123 A  
HETATM   25  C   UNL     1      -8.580   6.829  71.377  1.00  0.00    -0.124 A  
ENDBRANCH  18  19
ENDBRANCH  17  18
ENDBRANCH  14  17
ENDBRANCH  10  11
ENDBRANCH   8  10
ENDBRANCH   2   8
TORSDOF 7
ENDMDL
MODEL      160
REMARK 921   NORMALIZED FREE ENERGY PREDICTED BY IDOCK:   -4.22 KCAL/MOL
REMARK 922        TOTAL FREE ENERGY PREDICTED BY IDOCK:   -6.74 KCAL/MOL
REMARK 923 INTER-LIGAND FREE ENERGY PREDICTED BY IDOCK:   -5.80 KCAL/MOL
REMARK 924 INTRA-LIGAND FREE ENERGY PREDICTED BY IDOCK:   -0.94 KCAL/MOL
REMARK 927      BINDING AFFINITY PREDICTED BY RF-SCORE:    0.00 PKD
ROOT
HETATM    1  C   UNL     1      -9.889  20.669  67.889  1.00  0.00    -0.276 C  
HETATM    2  C   UNL     1      -9.483  19.199  67.803  1.00  0.00    -0.303 C  
ENDROOT
BRANCH   2   3
HETATM    3  C   UNL     1     -10.333  18.482  66.727  1.00  0.00    -0.401 C  
HETATM    4  H2  UNL     1     -10.487  20.277  65.638  1.00  0.00     0.000 HD 
HETATM    5  H1  UNL     1     -11.291  18.815  64.985  1.00  0.00     0.000 HD 
HETATM    6  O   UNL     1     -10.650  17.297  66.758  1.00  0.00    -0.286 OA 
HETATM    7  N   UNL     1     -10.730  19.288  65.694  1.00  0.00    -0.385 N  
ENDBRANCH   2   3
BRANCH   2   8
HETATM    8  N   UNL     1      -8.061  18.992  67.446  1.00  0.00    -0.264 NA 
HETATM    9  H   UNL     1      -7.623  19.874  67.180  1.00  0.00     0.000 HD 
BRANCH   8  10
HETATM   10  C   UNL     1      -7.288  18.325  68.493  1.00  0.00    -0.286 C  
BRANCH  10  11
HETATM   11  C   UNL     1      -7.441  16.824  68.399  1.00  0.00    -0.202 A  
HETATM   12  C   UNL     1      -8.445  16.177  69.134  1.00  0.00    -0.239 A  
HETATM   13  C   UNL     1      -8.606  14.797  69.060  1.00  0.00    -0.137 A  
HETATM   14  C   UNL     1      -7.800  14.041  68.210  1.00  0.00    -0.140 A  
HETATM   15  C   UNL     1      -6.613  16.055  67.569  1.00  0.00    -0.207 A  
HETATM   16  C   UNL     1      -6.792  14.671  67.480  1.00  0.00    -0.174 A  
BRANCH  14  17
HETATM   17  O   UNL     1      -7.921  12.689  68.024  1.00  0.00    -0.132 OA 
BRANCH  17  18
HETATM   18  C   UNL     1      -8.363  12.308  66.718  1.00  0.00    -0.087 C  
BRANCH  18  19
HETATM   19  C   UNL     1      -9.795  12.713  66.475  1.00  0.00    -0.258 A  
HETATM   20  C   UNL     1     -10.184  13.370  65.300  1.00  0.00    -0.312 A  
HETATM   21  C   UNL     1     -11.495  13.809  65.154  1.00  0.00    -0.321 A  
HETATM   22  F   UNL     1     -11.856  14.441  64.031  1.00  0.00    -0.401 F  
HETATM   23  C   UNL     1     -12.432  13.619  66.163  1.00  0.00    -0.449 A  
HETATM   24  C   UNL     1     -12.056  12.974  67.339  1.00  0.00    -0.290 A  
HETATM   25  C   UNL     1     -10.742  12.528  67.496  1.00  0.00    -0.250 A  
ENDBRANCH  18  19
ENDBRANCH  17  18
ENDBRANCH  14  17
ENDBRANCH  10  11
ENDBRANCH   8  10
ENDBRANCH   2   8
TORSDOF 7
ENDMDL
MODEL      161
REMARK 921   NORMALIZED FREE ENERGY PREDICTED BY IDOCK:   -4.21 KCAL/MOL
REMARK 922        TOTAL FREE ENERGY PREDICTED BY IDOCK:   -6.73 KCAL/MOL
REMARK 923 INTER-LIGAND FREE ENERGY PREDICTED BY IDOCK:   -5.89 KCAL/MOL
REMARK 924 INTRA-LIGAND FREE ENERGY PREDICTED BY IDOCK:   -0.84 KCAL/MOL
REMARK 927      BINDING AFFINITY PREDICTED BY RF-SCORE:    0.00 PKD
ROOT
HETATM    1  C   UNL     1      -6.572   9.900  64.640  1.00  0.00    -0.119 C  
HETATM    2  C   UNL     1      -8.086   9.726  64.532  1.00  0.00    -0.146 C  
ENDROOT
BRANCH   2   3
HETATM    3  C   UNL     1      -8.493   9.583  63.046  1.00  0.00    -0.198 C  
HETATM    4  H2  UNL     1      -9.418  11.472  63.107  1.00  0.00     0.000 HD 
HETATM    5  H1  UNL     1      -9.457  10.556  61.568  1.00  0.00     0.000 HD 
HETATM    6  O   UNL     1      -8.239   8.612  62.340  1.00  0.00    -0.161 OA 
HETATM    7  N   UNL     1      -9.188  10.651  62.547  1.00  0.00    -0.283 N  
ENDBRANCH   2   3
BRANCH   2   8
HETATM    8  N   UNL     1      -8.603   8.535  65.244  1.00  0.00    -0.218 NA 
HETATM    9  H   UNL     1      -8.681   7.741  64.609  1.00  0.00     0.000 HD 
BRANCH   8  10
HETATM   10  C   UNL     1      -7.820   8.178  66.427  1.00  0.00    -0.093 C  
BRANCH  10  11
HETATM   11  C   UNL     1      -8.538   8.596  67.690  1.00  0.00    -0.136 A  
HETATM   12  C   UNL     1      -7.874   9.384  68.642  1.00  0.00    -0.088 A  
HETATM   13  C   UNL     1      -8.516   9.783  69.811  1.00  0.00    -0.206 A  
HETATM   14  C   UNL     1      -9.850   9.445  70.029  1.00  0.00    -0.221 A  
HETATM   15  C   UNL     1      -9.870   8.233  67.929  1.00  0.00    -0.207 A  
HETATM   16  C   UNL     1     -10.520   8.654  69.094  1.00  0.00    -0.223 A  
BRANCH  14  17
HETATM   17  O   UNL     1     -10.584   9.840  71.116  1.00  0.00    -0.297 OA 
BRANCH  17  18
HETATM   18  C   UNL     1     -11.983   9.993  70.863  1.00  0.00    -0.361 C  
BRANCH  18  19
HETATM   19  C   UNL     1     -12.397  11.444  70.886  1.00  0.00    -0.483 A  
HETATM   20  C   UNL     1     -11.922  12.359  69.938  1.00  0.00    -0.369 A  
HETATM   21  C   UNL     1     -12.254  13.704  70.047  1.00  0.00    -0.329 A  
HETATM   22  F   UNL     1     -11.790  14.573  69.141  1.00  0.00    -0.290 F  
HETATM   23  C   UNL     1     -13.043  14.166  71.095  1.00  0.00    -0.398 A  
HETATM   24  C   UNL     1     -13.515  13.267  72.049  1.00  0.00    -0.596 A  
HETATM   25  C   UNL     1     -13.189  11.913  71.947  1.00  0.00    -0.467 A  
ENDBRANCH  18  19
ENDBRANCH  17  18
ENDBRANCH  14  17
ENDBRANCH  10  11
ENDBRANCH   8  10
ENDBRANCH   2   8
TORSDOF 7
ENDMDL
MODEL      162
REMARK 921   NORMALIZED FREE ENERGY PREDICTED BY IDOCK:   -4.21 KCAL/MOL
REMARK 922        TOTAL FREE ENERGY PREDICTED BY IDOCK:   -6.72 KCAL/MOL
REMARK 923 INTER-LIGAND FREE ENERGY PREDICTED BY IDOCK:   -5.92 KCAL/MOL
REMARK 924 INTRA-LIGAND FREE ENERGY PREDICTED BY IDOCK:   -0.80 KCAL/MOL
REMARK 927      BINDING AFFINITY PREDICTED BY RF-SCORE:    0.00 PKD
ROOT
HETATM    1  C   UNL     1     -10.570   4.838  66.072  1.00  0.00    -0.300 C  
HETATM    2  C   UNL     1      -9.057   5.000  65.931  1.00  0.00    -0.150 C  
ENDROOT
BRANCH   2   3
HETATM    3  C   UNL     1      -8.584   4.364  64.601  1.00  0.00    -0.134 C  
HETATM    4  H2  UNL     1      -9.129   2.458  65.308  1.00  0.00     0.000 HD 
HETATM    5  H1  UNL     1      -8.424   2.586  63.666  1.00  0.00     0.000 HD 
HETATM    6  O   UNL     1      -8.104   4.985  63.659  1.00  0.00    -0.092 OA 
HETATM    7  N   UNL     1      -8.736   3.005  64.542  1.00  0.00    -0.098 N  
ENDBRANCH   2   3
BRANCH   2   8
HETATM    8  N   UNL     1      -8.604   6.409  65.927  1.00  0.00    -0.146 NA 
HETATM    9  H   UNL     1      -9.207   6.980  65.335  1.00  0.00     0.000 HD 
BRANCH   8  10
HETATM   10  C   UNL     1      -8.492   6.989  67.265  1.00  0.00    -0.121 C  
BRANCH  10  11
HETATM   11  C   UNL     1      -9.439   8.157  67.424  1.00  0.00    -0.191 A  
HETATM   12  C   UNL     1      -9.885   8.524  68.702  1.00  0.00    -0.180 A  
HETATM   13  C   UNL     1     -10.755   9.598  68.873  1.00  0.00    -0.230 A  
HETATM   14  C   UNL     1     -11.157  10.356  67.776  1.00  0.00    -0.299 A  
HETATM   15  C   UNL     1      -9.870   8.905  66.320  1.00  0.00    -0.355 A  
HETATM   16  C   UNL     1     -10.727   9.996  66.497  1.00  0.00    -0.094 A  
BRANCH  14  17
HETATM   17  O   UNL     1     -11.960  11.464  67.849  1.00  0.00    -0.626 OA 
BRANCH  17  18
HETATM   18  C   UNL     1     -11.265  12.683  68.124  1.00  0.00    -0.269 C  
BRANCH  18  19
HETATM   19  C   UNL     1     -11.213  13.580  66.912  1.00  0.00    -0.329 A  
HETATM   20  C   UNL     1     -10.274  14.612  66.801  1.00  0.00    -0.268 A  
HETATM   21  C   UNL     1     -10.318  15.473  65.711  1.00  0.00    -0.363 A  
HETATM   22  F   UNL     1      -9.420  16.462  65.616  1.00  0.00    -0.323 F  
HETATM   23  C   UNL     1     -11.291  15.338  64.727  1.00  0.00    -0.396 A  
HETATM   24  C   UNL     1     -12.236  14.319  64.831  1.00  0.00    -0.449 A  
HETATM   25  C   UNL     1     -12.200  13.447  65.920  1.00  0.00    -0.502 A  
ENDBRANCH  18  19
ENDBRANCH  17  18
ENDBRANCH  14  17
ENDBRANCH  10  11
ENDBRANCH   8  10
ENDBRANCH   2   8
TORSDOF 7
ENDMDL
MODEL      163
REMARK 921   NORMALIZED FREE ENERGY PREDICTED BY IDOCK:   -4.17 KCAL/MOL
REMARK 922        TOTAL FREE ENERGY PREDICTED BY IDOCK:   -6.66 KCAL/MOL
REMARK 923 INTER-LIGAND FREE ENERGY PREDICTED BY IDOCK:   -5.90 KCAL/MOL
REMARK 924 INTRA-LIGAND FREE ENERGY PREDICTED BY IDOCK:   -0.76 KCAL/MOL
REMARK 927      BINDING AFFINITY PREDICTED BY RF-SCORE:    0.00 PKD
ROOT
HETATM    1  C   UNL     1      -7.523  10.206  64.180  1.00  0.00    -0.114 C  
HETATM    2  C   UNL     1      -8.762  10.078  65.063  1.00  0.00    -0.173 C  
ENDROOT
BRANCH   2   3
HETATM    3  C   UNL     1      -8.384   9.402  66.404  1.00  0.00    -0.115 C  
HETATM    4  H2  UNL     1      -9.479   7.689  65.859  1.00  0.00     0.000 HD 
HETATM    5  H1  UNL     1      -8.648   7.698  67.446  1.00  0.00     0.000 HD 
HETATM    6  O   UNL     1      -7.691   9.915  67.277  1.00  0.00    -0.095 OA 
HETATM    7  N   UNL     1      -8.897   8.144  66.563  1.00  0.00    -0.141 N  
ENDBRANCH   2   3
BRANCH   2   8
HETATM    8  N   UNL     1      -9.398  11.374  65.392  1.00  0.00    -0.276 NA 
HETATM    9  H   UNL     1      -9.571  11.917  64.547  1.00  0.00     0.000 HD 
BRANCH   8  10
HETATM   10  C   UNL     1     -10.623  11.239  66.181  1.00  0.00    -0.258 C  
BRANCH  10  11
HETATM   11  C   UNL     1     -10.892  12.498  66.973  1.00  0.00    -0.287 A  
HETATM   12  C   UNL     1     -10.564  12.548  68.336  1.00  0.00    -0.256 A  
HETATM   13  C   UNL     1     -10.801  13.698  69.084  1.00  0.00    -0.189 A  
HETATM   14  C   UNL     1     -11.322  14.837  68.474  1.00  0.00    -0.290 A  
HETATM   15  C   UNL     1     -11.444  13.637  66.371  1.00  0.00    -0.358 A  
HETATM   16  C   UNL     1     -11.660  14.798  67.121  1.00  0.00    -0.373 A  
BRANCH  14  17
HETATM   17  O   UNL     1     -11.533  16.032  69.111  1.00  0.00    -0.339 OA 
BRANCH  17  18
HETATM   18  C   UNL     1     -10.339  16.701  69.527  1.00  0.00    -0.245 C  
BRANCH  18  19
HETATM   19  C   UNL     1      -9.863  17.686  68.488  1.00  0.00    -0.346 A  
HETATM   20  C   UNL     1      -8.983  17.309  67.466  1.00  0.00    -0.222 A  
HETATM   21  C   UNL     1      -8.496  18.266  66.584  1.00  0.00    -0.265 A  
HETATM   22  F   UNL     1      -7.650  17.899  65.615  1.00  0.00    -0.251 F  
HETATM   23  C   UNL     1      -8.858  19.604  66.703  1.00  0.00    -0.403 A  
HETATM   24  C   UNL     1      -9.727  19.992  67.721  1.00  0.00    -0.528 A  
HETATM   25  C   UNL     1     -10.224  19.039  68.612  1.00  0.00    -0.379 A  
ENDBRANCH  18  19
ENDBRANCH  17  18
ENDBRANCH  14  17
ENDBRANCH  10  11
ENDBRANCH   8  10
ENDBRANCH   2   8
TORSDOF 7
ENDMDL
MODEL      164
REMARK 921   NORMALIZED FREE ENERGY PREDICTED BY IDOCK:   -4.15 KCAL/MOL
REMARK 922        TOTAL FREE ENERGY PREDICTED BY IDOCK:   -6.64 KCAL/MOL
REMARK 923 INTER-LIGAND FREE ENERGY PREDICTED BY IDOCK:   -5.80 KCAL/MOL
REMARK 924 INTRA-LIGAND FREE ENERGY PREDICTED BY IDOCK:   -0.84 KCAL/MOL
REMARK 927      BINDING AFFINITY PREDICTED BY RF-SCORE:    0.00 PKD
ROOT
HETATM    1  C   UNL     1     -10.317  14.081  67.043  1.00  0.00    -0.267 C  
HETATM    2  C   UNL     1      -9.794  12.845  66.314  1.00  0.00    -0.273 C  
ENDROOT
BRANCH   2   3
HETATM    3  C   UNL     1      -8.406  12.453  66.876  1.00  0.00    -0.117 C  
HETATM    4  H2  UNL     1      -8.597  10.533  66.035  1.00  0.00     0.000 HD 
HETATM    5  H1  UNL     1      -7.105  10.914  66.950  1.00  0.00     0.000 HD 
HETATM    6  O   UNL     1      -7.682  13.191  67.537  1.00  0.00    -0.148 OA 
HETATM    7  N   UNL     1      -8.020  11.173  66.580  1.00  0.00    -0.158 N  
ENDBRANCH   2   3
BRANCH   2   8
HETATM    8  N   UNL     1     -10.669  11.658  66.445  1.00  0.00    -0.262 NA 
HETATM    9  H   UNL     1     -10.118  10.823  66.640  1.00  0.00     0.000 HD 
BRANCH   8  10
HETATM   10  C   UNL     1     -11.730  11.823  67.439  1.00  0.00    -0.230 C  
BRANCH  10  11
HETATM   11  C   UNL     1     -11.519  10.887  68.607  1.00  0.00    -0.380 A  
HETATM   12  C   UNL     1     -10.720   9.745  68.451  1.00  0.00    -0.262 A  
HETATM   13  C   UNL     1     -10.510   8.871  69.514  1.00  0.00    -0.229 A  
HETATM   14  C   UNL     1     -11.052   9.148  70.768  1.00  0.00    -0.275 A  
HETATM   15  C   UNL     1     -12.086  11.146  69.863  1.00  0.00    -0.418 A  
HETATM   16  C   UNL     1     -11.855  10.277  70.934  1.00  0.00    -0.473 A  
BRANCH  14  17
HETATM   17  O   UNL     1     -10.853   8.383  71.887  1.00  0.00    -0.257 OA 
BRANCH  17  18
HETATM   18  C   UNL     1     -11.817   7.343  72.074  1.00  0.00    -0.298 C  
BRANCH  18  19
HETATM   19  C   UNL     1     -11.165   5.984  72.133  1.00  0.00    -0.341 A  
HETATM   20  C   UNL     1     -11.574   5.012  73.053  1.00  0.00    -0.299 A  
HETATM   21  C   UNL     1     -10.888   3.806  73.138  1.00  0.00    -0.161 A  
HETATM   22  F   UNL     1     -11.281   2.885  74.026  1.00  0.00    -0.257 F  
HETATM   23  C   UNL     1      -9.786   3.548  72.328  1.00  0.00    -0.233 A  
HETATM   24  C   UNL     1      -9.365   4.511  71.414  1.00  0.00    -0.206 A  
HETATM   25  C   UNL     1     -10.048   5.725  71.320  1.00  0.00    -0.253 A  
ENDBRANCH  18  19
ENDBRANCH  17  18
ENDBRANCH  14  17
ENDBRANCH  10  11
ENDBRANCH   8  10
ENDBRANCH   2   8
TORSDOF 7
ENDMDL
MODEL      165
REMARK 921   NORMALIZED FREE ENERGY PREDICTED BY IDOCK:   -4.12 KCAL/MOL
REMARK 922        TOTAL FREE ENERGY PREDICTED BY IDOCK:   -6.60 KCAL/MOL
REMARK 923 INTER-LIGAND FREE ENERGY PREDICTED BY IDOCK:   -5.91 KCAL/MOL
REMARK 924 INTRA-LIGAND FREE ENERGY PREDICTED BY IDOCK:   -0.68 KCAL/MOL
REMARK 927      BINDING AFFINITY PREDICTED BY RF-SCORE:    0.00 PKD
ROOT
HETATM    1  C   UNL     1     -10.102   4.054  65.061  1.00  0.00    -0.203 C  
HETATM    2  C   UNL     1      -9.325   5.186  65.730  1.00  0.00    -0.154 C  
ENDROOT
BRANCH   2   3
HETATM    3  C   UNL     1      -8.158   5.632  64.816  1.00  0.00    -0.128 C  
HETATM    4  H2  UNL     1      -6.850   4.340  65.842  1.00  0.00     0.000 HD 
HETATM    5  H1  UNL     1      -6.193   5.320  64.494  1.00  0.00     0.000 HD 
HETATM    6  O   UNL     1      -8.250   6.456  63.912  1.00  0.00    -0.078 OA 
HETATM    7  N   UNL     1      -6.963   5.027  65.096  1.00  0.00    -0.060 N  
ENDBRANCH   2   3
BRANCH   2   8
HETATM    8  N   UNL     1     -10.143   6.388  66.011  1.00  0.00    -0.369 NA 
HETATM    9  H   UNL     1     -11.061   6.125  66.366  1.00  0.00     0.000 HD 
BRANCH   8  10
HETATM   10  C   UNL     1      -9.491   7.339  66.912  1.00  0.00    -0.164 C  
BRANCH  10  11
HETATM   11  C   UNL     1      -9.983   8.745  66.655  1.00  0.00    -0.355 A  
HETATM   12  C   UNL     1     -10.633   9.454  67.675  1.00  0.00    -0.333 A  
HETATM   13  C   UNL     1     -11.092  10.751  67.462  1.00  0.00    -0.374 A  
HETATM   14  C   UNL     1     -10.866  11.383  66.241  1.00  0.00    -0.263 A  
HETATM   15  C   UNL     1      -9.785   9.374  65.418  1.00  0.00    -0.248 A  
HETATM   16  C   UNL     1     -10.228  10.685  65.214  1.00  0.00    -0.351 A  
BRANCH  14  17
HETATM   17  O   UNL     1     -11.225  12.674  65.956  1.00  0.00    -0.283 OA 
BRANCH  17  18
HETATM   18  C   UNL     1     -11.660  13.432  67.088  1.00  0.00    -0.358 C  
BRANCH  18  19
HETATM   19  C   UNL     1     -10.945  14.757  67.178  1.00  0.00    -0.320 A  
HETATM   20  C   UNL     1      -9.814  15.037  66.401  1.00  0.00    -0.290 A  
HETATM   21  C   UNL     1      -9.130  16.234  66.580  1.00  0.00    -0.269 A  
HETATM   22  F   UNL     1      -8.046  16.490  65.838  1.00  0.00    -0.341 F  
HETATM   23  C   UNL     1      -9.543  17.162  67.530  1.00  0.00    -0.254 A  
HETATM   24  C   UNL     1     -10.662  16.891  68.315  1.00  0.00    -0.377 A  
HETATM   25  C   UNL     1     -11.357  15.693  68.142  1.00  0.00    -0.340 A  
ENDBRANCH  18  19
ENDBRANCH  17  18
ENDBRANCH  14  17
ENDBRANCH  10  11
ENDBRANCH   8  10
ENDBRANCH   2   8
TORSDOF 7
ENDMDL
MODEL      166
REMARK 921   NORMALIZED FREE ENERGY PREDICTED BY IDOCK:   -4.12 KCAL/MOL
REMARK 922        TOTAL FREE ENERGY PREDICTED BY IDOCK:   -6.59 KCAL/MOL
REMARK 923 INTER-LIGAND FREE ENERGY PREDICTED BY IDOCK:   -5.86 KCAL/MOL
REMARK 924 INTRA-LIGAND FREE ENERGY PREDICTED BY IDOCK:   -0.74 KCAL/MOL
REMARK 927      BINDING AFFINITY PREDICTED BY RF-SCORE:    0.00 PKD
ROOT
HETATM    1  C   UNL     1      -6.493   5.160  70.318  1.00  0.00    -0.034 C  
HETATM    2  C   UNL     1      -7.922   4.687  70.578  1.00  0.00    -0.061 C  
ENDROOT
BRANCH   2   3
HETATM    3  C   UNL     1      -8.244   4.799  72.088  1.00  0.00    -0.111 C  
HETATM    4  H2  UNL     1      -6.799   6.315  72.294  1.00  0.00     0.000 HD 
HETATM    5  H1  UNL     1      -7.715   5.811  73.749  1.00  0.00     0.000 HD 
HETATM    6  O   UNL     1      -9.080   4.123  72.679  1.00  0.00    -0.108 OA 
HETATM    7  N   UNL     1      -7.503   5.738  72.753  1.00  0.00    -0.095 N  
ENDBRANCH   2   3
BRANCH   2   8
HETATM    8  N   UNL     1      -8.952   5.465  69.853  1.00  0.00    -0.123 NA 
HETATM    9  H   UNL     1      -9.719   5.715  70.475  1.00  0.00     0.000 HD 
BRANCH   8  10
HETATM   10  C   UNL     1      -8.420   6.651  69.182  1.00  0.00    -0.124 C  
BRANCH  10  11
HETATM   11  C   UNL     1      -9.384   7.810  69.299  1.00  0.00    -0.148 A  
HETATM   12  C   UNL     1      -9.632   8.626  68.185  1.00  0.00    -0.162 A  
HETATM   13  C   UNL     1     -10.517   9.697  68.269  1.00  0.00    -0.259 A  
HETATM   14  C   UNL     1     -11.212   9.942  69.452  1.00  0.00    -0.153 A  
HETATM   15  C   UNL     1     -10.063   8.079  70.495  1.00  0.00    -0.195 A  
HETATM   16  C   UNL     1     -10.969   9.142  70.569  1.00  0.00    -0.307 A  
BRANCH  14  17
HETATM   17  O   UNL     1     -12.146  10.931  69.614  1.00  0.00    -0.319 OA 
BRANCH  17  18
HETATM   18  C   UNL     1     -12.453  11.240  70.977  1.00  0.00    -0.400 C  
BRANCH  18  19
HETATM   19  C   UNL     1     -12.798  12.697  71.153  1.00  0.00    -0.311 A  
HETATM   20  C   UNL     1     -12.355  13.672  70.250  1.00  0.00    -0.392 A  
HETATM   21  C   UNL     1     -12.616  15.015  70.497  1.00  0.00    -0.369 A  
HETATM   22  F   UNL     1     -12.183  15.940  69.633  1.00  0.00    -0.354 F  
HETATM   23  C   UNL     1     -13.305  15.414  71.638  1.00  0.00    -0.578 A  
HETATM   24  C   UNL     1     -13.744  14.454  72.547  1.00  0.00    -0.589 A  
HETATM   25  C   UNL     1     -13.488  13.103  72.308  1.00  0.00    -0.665 A  
ENDBRANCH  18  19
ENDBRANCH  17  18
ENDBRANCH  14  17
ENDBRANCH  10  11
ENDBRANCH   8  10
ENDBRANCH   2   8
TORSDOF 7
ENDMDL
MODEL      167
REMARK 921   NORMALIZED FREE ENERGY PREDICTED BY IDOCK:   -4.11 KCAL/MOL
REMARK 922        TOTAL FREE ENERGY PREDICTED BY IDOCK:   -6.59 KCAL/MOL
REMARK 923 INTER-LIGAND FREE ENERGY PREDICTED BY IDOCK:   -5.98 KCAL/MOL
REMARK 924 INTRA-LIGAND FREE ENERGY PREDICTED BY IDOCK:   -0.60 KCAL/MOL
REMARK 927      BINDING AFFINITY PREDICTED BY RF-SCORE:    0.00 PKD
ROOT
HETATM    1  C   UNL     1      -9.748  20.714  67.540  1.00  0.00    -0.509 C  
HETATM    2  C   UNL     1      -9.922  19.204  67.395  1.00  0.00    -0.351 C  
ENDROOT
BRANCH   2   3
HETATM    3  C   UNL     1     -10.554  18.878  66.020  1.00  0.00    -0.403 C  
HETATM    4  H2  UNL     1     -11.089  20.899  65.777  1.00  0.00     0.000 HD 
HETATM    5  H1  UNL     1     -11.515  19.744  64.475  1.00  0.00     0.000 HD 
HETATM    6  O   UNL     1     -10.589  17.762  65.511  1.00  0.00    -0.632 OA 
HETATM    7  N   UNL     1     -11.098  19.958  65.381  1.00  0.00    -0.033 N  
ENDBRANCH   2   3
BRANCH   2   8
HETATM    8  N   UNL     1      -8.654  18.445  67.484  1.00  0.00    -0.256 NA 
HETATM    9  H   UNL     1      -7.865  19.075  67.627  1.00  0.00     0.000 HD 
BRANCH   8  10
HETATM   10  C   UNL     1      -8.672  17.397  68.504  1.00  0.00    -0.277 C  
BRANCH  10  11
HETATM   11  C   UNL     1      -9.397  16.170  67.999  1.00  0.00    -0.203 A  
HETATM   12  C   UNL     1     -10.572  15.743  68.635  1.00  0.00    -0.250 A  
HETATM   13  C   UNL     1     -11.258  14.618  68.186  1.00  0.00    -0.304 A  
HETATM   14  C   UNL     1     -10.811  13.927  67.061  1.00  0.00    -0.285 A  
HETATM   15  C   UNL     1      -8.935  15.453  66.887  1.00  0.00    -0.273 A  
HETATM   16  C   UNL     1      -9.639  14.336  66.425  1.00  0.00    -0.317 A  
BRANCH  14  17
HETATM   17  O   UNL     1     -11.449  12.847  66.509  1.00  0.00    -0.307 OA 
BRANCH  17  18
HETATM   18  C   UNL     1     -10.573  11.822  66.031  1.00  0.00    -0.260 C  
BRANCH  18  19
HETATM   19  C   UNL     1     -10.274  10.803  67.103  1.00  0.00    -0.255 A  
HETATM   20  C   UNL     1      -9.116  10.017  67.067  1.00  0.00    -0.159 A  
HETATM   21  C   UNL     1      -8.922   9.026  68.022  1.00  0.00    -0.132 A  
HETATM   22  F   UNL     1      -7.816   8.274  67.977  1.00  0.00    -0.108 F  
HETATM   23  C   UNL     1      -9.869   8.788  69.013  1.00  0.00    -0.183 A  
HETATM   24  C   UNL     1     -11.029   9.559  69.055  1.00  0.00    -0.127 A  
HETATM   25  C   UNL     1     -11.233  10.558  68.101  1.00  0.00    -0.357 A  
ENDBRANCH  18  19
ENDBRANCH  17  18
ENDBRANCH  14  17
ENDBRANCH  10  11
ENDBRANCH   8  10
ENDBRANCH   2   8
TORSDOF 7
ENDMDL
MODEL      168
REMARK 921   NORMALIZED FREE ENERGY PREDICTED BY IDOCK:   -4.10 KCAL/MOL
REMARK 922        TOTAL FREE ENERGY PREDICTED BY IDOCK:   -6.57 KCAL/MOL
REMARK 923 INTER-LIGAND FREE ENERGY PREDICTED BY IDOCK:   -5.70 KCAL/MOL
REMARK 924 INTRA-LIGAND FREE ENERGY PREDICTED BY IDOCK:   -0.86 KCAL/MOL
REMARK 927      BINDING AFFINITY PREDICTED BY RF-SCORE:    0.00 PKD
ROOT
HETATM    1  C   UNL     1     -10.973  17.246  67.856  1.00  0.00    -0.179 C  
HETATM    2  C   UNL     1     -10.301  15.895  67.616  1.00  0.00    -0.281 C  
ENDROOT
BRANCH   2   3
HETATM    3  C   UNL     1     -10.033  15.194  68.970  1.00  0.00    -0.239 C  
HETATM    4  H2  UNL     1     -11.909  14.245  68.861  1.00  0.00     0.000 HD 
HETATM    5  H1  UNL     1     -10.873  13.918  70.285  1.00  0.00     0.000 HD 
HETATM    6  O   UNL     1      -9.016  15.331  69.641  1.00  0.00    -0.232 OA 
HETATM    7  N   UNL     1     -11.049  14.380  69.393  1.00  0.00    -0.265 N  
ENDBRANCH   2   3
BRANCH   2   8
HETATM    8  N   UNL     1     -11.108  14.964  66.795  1.00  0.00    -0.331 NA 
HETATM    9  H   UNL     1     -11.956  15.420  66.459  1.00  0.00     0.000 HD 
BRANCH   8  10
HETATM   10  C   UNL     1     -10.363  14.372  65.684  1.00  0.00    -0.342 C  
BRANCH  10  11
HETATM   11  C   UNL     1     -10.013  12.931  65.980  1.00  0.00    -0.275 A  
HETATM   12  C   UNL     1      -8.855  12.631  66.712  1.00  0.00    -0.168 A  
HETATM   13  C   UNL     1      -8.515  11.312  66.999  1.00  0.00    -0.150 A  
HETATM   14  C   UNL     1      -9.352  10.270  66.605  1.00  0.00    -0.161 A  
HETATM   15  C   UNL     1     -10.836  11.877  65.560  1.00  0.00    -0.343 A  
HETATM   16  C   UNL     1     -10.503  10.555  65.869  1.00  0.00    -0.224 A  
BRANCH  14  17
HETATM   17  O   UNL     1      -9.135   8.948  66.892  1.00  0.00    -0.127 OA 
BRANCH  17  18
HETATM   18  C   UNL     1     -10.321   8.151  66.949  1.00  0.00    -0.331 C  
BRANCH  18  19
HETATM   19  C   UNL     1     -10.645   7.738  68.363  1.00  0.00    -0.157 A  
HETATM   20  C   UNL     1     -10.637   8.659  69.418  1.00  0.00    -0.207 A  
HETATM   21  C   UNL     1     -10.851   8.222  70.720  1.00  0.00    -0.227 A  
HETATM   22  F   UNL     1     -10.835   9.107  71.723  1.00  0.00    -0.369 F  
HETATM   23  C   UNL     1     -11.064   6.876  71.000  1.00  0.00    -0.305 A  
HETATM   24  C   UNL     1     -11.067   5.950  69.960  1.00  0.00    -0.411 A  
HETATM   25  C   UNL     1     -10.854   6.378  68.648  1.00  0.00    -0.379 A  
ENDBRANCH  18  19
ENDBRANCH  17  18
ENDBRANCH  14  17
ENDBRANCH  10  11
ENDBRANCH   8  10
ENDBRANCH   2   8
TORSDOF 7
ENDMDL
MODEL      169
REMARK 921   NORMALIZED FREE ENERGY PREDICTED BY IDOCK:   -4.09 KCAL/MOL
REMARK 922        TOTAL FREE ENERGY PREDICTED BY IDOCK:   -6.55 KCAL/MOL
REMARK 923 INTER-LIGAND FREE ENERGY PREDICTED BY IDOCK:   -5.85 KCAL/MOL
REMARK 924 INTRA-LIGAND FREE ENERGY PREDICTED BY IDOCK:   -0.70 KCAL/MOL
REMARK 927      BINDING AFFINITY PREDICTED BY RF-SCORE:    0.00 PKD
ROOT
HETATM    1  C   UNL     1     -11.482  16.038  68.500  1.00  0.00    -0.357 C  
HETATM    2  C   UNL     1     -10.415  16.050  67.407  1.00  0.00    -0.308 C  
ENDROOT
BRANCH   2   3
HETATM    3  C   UNL     1     -10.272  17.479  66.829  1.00  0.00    -0.327 C  
HETATM    4  H2  UNL     1      -9.776  18.212  68.738  1.00  0.00     0.000 HD 
HETATM    5  H1  UNL     1      -9.833  19.369  67.371  1.00  0.00     0.000 HD 
HETATM    6  O   UNL     1     -10.448  17.780  65.652  1.00  0.00    -0.613 OA 
HETATM    7  N   UNL     1      -9.927  18.428  67.752  1.00  0.00    -0.330 N  
ENDBRANCH   2   3
BRANCH   2   8
HETATM    8  N   UNL     1      -9.074  15.634  67.877  1.00  0.00    -0.184 NA 
HETATM    9  H   UNL     1      -9.118  15.285  68.834  1.00  0.00     0.000 HD 
BRANCH   8  10
HETATM   10  C   UNL     1      -8.426  14.659  66.999  1.00  0.00    -0.210 C  
BRANCH  10  11
HETATM   11  C   UNL     1      -8.452  13.280  67.619  1.00  0.00    -0.191 A  
HETATM   12  C   UNL     1      -9.650  12.550  67.647  1.00  0.00    -0.190 A  
HETATM   13  C   UNL     1      -9.697  11.278  68.210  1.00  0.00    -0.199 A  
HETATM   14  C   UNL     1      -8.537  10.689  68.710  1.00  0.00    -0.150 A  
HETATM   15  C   UNL     1      -7.295  12.694  68.150  1.00  0.00    -0.112 A  
HETATM   16  C   UNL     1      -7.341  11.407  68.695  1.00  0.00    -0.104 A  
BRANCH  14  17
HETATM   17  O   UNL     1      -8.471   9.422  69.227  1.00  0.00    -0.127 OA 
BRANCH  17  18
HETATM   18  C   UNL     1      -8.462   9.365  70.656  1.00  0.00    -0.193 C  
BRANCH  18  19
HETATM   19  C   UNL     1      -9.534   8.444  71.183  1.00  0.00    -0.227 A  
HETATM   20  C   UNL     1     -10.441   7.807  70.327  1.00  0.00    -0.225 A  
HETATM   21  C   UNL     1     -11.472   7.039  70.857  1.00  0.00    -0.308 A  
HETATM   22  F   UNL     1     -12.338   6.439  70.032  1.00  0.00    -0.368 F  
HETATM   23  C   UNL     1     -11.629   6.899  72.232  1.00  0.00    -0.309 A  
HETATM   24  C   UNL     1     -10.737   7.535  73.094  1.00  0.00    -0.452 A  
HETATM   25  C   UNL     1      -9.698   8.307  72.572  1.00  0.00    -0.368 A  
ENDBRANCH  18  19
ENDBRANCH  17  18
ENDBRANCH  14  17
ENDBRANCH  10  11
ENDBRANCH   8  10
ENDBRANCH   2   8
TORSDOF 7
ENDMDL
MODEL      170
REMARK 921   NORMALIZED FREE ENERGY PREDICTED BY IDOCK:   -4.08 KCAL/MOL
REMARK 922        TOTAL FREE ENERGY PREDICTED BY IDOCK:   -6.54 KCAL/MOL
REMARK 923 INTER-LIGAND FREE ENERGY PREDICTED BY IDOCK:   -5.61 KCAL/MOL
REMARK 924 INTRA-LIGAND FREE ENERGY PREDICTED BY IDOCK:   -0.93 KCAL/MOL
REMARK 927      BINDING AFFINITY PREDICTED BY RF-SCORE:    0.00 PKD
ROOT
HETATM    1  C   UNL     1      -8.148  16.524  67.528  1.00  0.00    -0.171 C  
HETATM    2  C   UNL     1      -9.096  17.345  68.399  1.00  0.00    -0.274 C  
ENDROOT
BRANCH   2   3
HETATM    3  C   UNL     1      -9.105  18.818  67.922  1.00  0.00    -0.291 C  
HETATM    4  H2  UNL     1      -7.901  18.300  66.275  1.00  0.00     0.000 HD 
HETATM    5  H1  UNL     1      -8.399  20.011  66.459  1.00  0.00     0.000 HD 
HETATM    6  O   UNL     1      -9.681  19.738  68.494  1.00  0.00    -0.371 OA 
HETATM    7  N   UNL     1      -8.394  19.041  66.774  1.00  0.00    -0.278 N  
ENDBRANCH   2   3
BRANCH   2   8
HETATM    8  N   UNL     1     -10.498  16.870  68.371  1.00  0.00    -0.334 NA 
HETATM    9  H   UNL     1     -10.598  16.078  67.736  1.00  0.00     0.000 HD 
BRANCH   8  10
HETATM   10  C   UNL     1     -11.030  16.543  69.694  1.00  0.00    -0.287 C  
BRANCH  10  11
HETATM   11  C   UNL     1     -11.432  15.087  69.765  1.00  0.00    -0.324 A  
HETATM   12  C   UNL     1     -12.012  14.580  70.938  1.00  0.00    -0.389 A  
HETATM   13  C   UNL     1     -12.393  13.244  71.025  1.00  0.00    -0.379 A  
HETATM   14  C   UNL     1     -12.250  12.401  69.925  1.00  0.00    -0.157 A  
HETATM   15  C   UNL     1     -11.263  14.227  68.672  1.00  0.00    -0.287 A  
HETATM   16  C   UNL     1     -11.667  12.891  68.755  1.00  0.00    -0.363 A  
BRANCH  14  17
HETATM   17  O   UNL     1     -12.649  11.091  69.893  1.00  0.00    -0.261 OA 
BRANCH  17  18
HETATM   18  C   UNL     1     -11.834  10.204  70.664  1.00  0.00    -0.342 C  
BRANCH  18  19
HETATM   19  C   UNL     1     -10.727   9.603  69.834  1.00  0.00    -0.283 A  
HETATM   20  C   UNL     1      -9.386   9.682  70.230  1.00  0.00    -0.292 A  
HETATM   21  C   UNL     1      -8.387   9.198  69.393  1.00  0.00    -0.124 A  
HETATM   22  F   UNL     1      -7.108   9.284  69.777  1.00  0.00    -0.051 F  
HETATM   23  C   UNL     1      -8.694   8.643  68.156  1.00  0.00    -0.142 A  
HETATM   24  C   UNL     1     -10.023   8.566  67.747  1.00  0.00    -0.241 A  
HETATM   25  C   UNL     1     -11.034   9.048  68.580  1.00  0.00     0.034 A  
ENDBRANCH  18  19
ENDBRANCH  17  18
ENDBRANCH  14  17
ENDBRANCH  10  11
ENDBRANCH   8  10
ENDBRANCH   2   8
TORSDOF 7
ENDMDL
MODEL      171
REMARK 921   NORMALIZED FREE ENERGY PREDICTED BY IDOCK:   -4.06 KCAL/MOL
REMARK 922        TOTAL FREE ENERGY PREDICTED BY IDOCK:   -6.52 KCAL/MOL
REMARK 923 INTER-LIGAND FREE ENERGY PREDICTED BY IDOCK:   -5.93 KCAL/MOL
REMARK 924 INTRA-LIGAND FREE ENERGY PREDICTED BY IDOCK:   -0.59 KCAL/MOL
REMARK 927      BINDING AFFINITY PREDICTED BY RF-SCORE:    0.00 PKD
ROOT
HETATM    1  C   UNL     1     -10.380  17.559  67.732  1.00  0.00    -0.367 C  
HETATM    2  C   UNL     1     -10.242  16.047  67.895  1.00  0.00    -0.258 C  
ENDROOT
BRANCH   2   3
HETATM    3  C   UNL     1      -8.809  15.699  68.366  1.00  0.00    -0.184 C  
HETATM    4  H2  UNL     1      -9.172  13.659  67.992  1.00  0.00     0.000 HD 
HETATM    5  H1  UNL     1      -7.565  14.134  68.625  1.00  0.00     0.000 HD 
HETATM    6  O   UNL     1      -7.984  16.514  68.763  1.00  0.00    -0.213 OA 
HETATM    7  N   UNL     1      -8.509  14.364  68.314  1.00  0.00    -0.157 N  
ENDBRANCH   2   3
BRANCH   2   8
HETATM    8  N   UNL     1     -11.180  15.464  68.881  1.00  0.00    -0.272 NA 
HETATM    9  H   UNL     1     -11.673  16.198  69.388  1.00  0.00     0.000 HD 
BRANCH   8  10
HETATM   10  C   UNL     1     -12.125  14.514  68.295  1.00  0.00    -0.199 C  
BRANCH  10  11
HETATM   11  C   UNL     1     -11.997  13.157  68.950  1.00  0.00    -0.317 A  
HETATM   12  C   UNL     1     -12.357  12.995  70.296  1.00  0.00    -0.311 A  
HETATM   13  C   UNL     1     -12.250  11.755  70.919  1.00  0.00    -0.378 A  
HETATM   14  C   UNL     1     -11.830  10.641  70.195  1.00  0.00    -0.337 A  
HETATM   15  C   UNL     1     -11.546  12.040  68.234  1.00  0.00    -0.394 A  
HETATM   16  C   UNL     1     -11.461  10.790  68.857  1.00  0.00    -0.362 A  
BRANCH  14  17
HETATM   17  O   UNL     1     -11.749   9.370  70.701  1.00  0.00    -0.268 OA 
BRANCH  17  18
HETATM   18  C   UNL     1     -10.586   9.121  71.496  1.00  0.00    -0.358 C  
BRANCH  18  19
HETATM   19  C   UNL     1     -10.449   7.658  71.837  1.00  0.00    -0.256 A  
HETATM   20  C   UNL     1      -9.311   6.924  71.481  1.00  0.00    -0.155 A  
HETATM   21  C   UNL     1      -9.262   5.558  71.732  1.00  0.00    -0.142 A  
HETATM   22  F   UNL     1      -8.174   4.862  71.382  1.00  0.00    -0.100 F  
HETATM   23  C   UNL     1     -10.334   4.898  72.324  1.00  0.00    -0.267 A  
HETATM   24  C   UNL     1     -11.474   5.616  72.676  1.00  0.00    -0.339 A  
HETATM   25  C   UNL     1     -11.534   6.989  72.429  1.00  0.00    -0.300 A  
ENDBRANCH  18  19
ENDBRANCH  17  18
ENDBRANCH  14  17
ENDBRANCH  10  11
ENDBRANCH   8  10
ENDBRANCH   2   8
TORSDOF 7
ENDMDL
MODEL      172
REMARK 921   NORMALIZED FREE ENERGY PREDICTED BY IDOCK:   -4.05 KCAL/MOL
REMARK 922        TOTAL FREE ENERGY PREDICTED BY IDOCK:   -6.50 KCAL/MOL
REMARK 923 INTER-LIGAND FREE ENERGY PREDICTED BY IDOCK:   -5.65 KCAL/MOL
REMARK 924 INTRA-LIGAND FREE ENERGY PREDICTED BY IDOCK:   -0.85 KCAL/MOL
REMARK 927      BINDING AFFINITY PREDICTED BY RF-SCORE:    0.00 PKD
ROOT
HETATM    1  C   UNL     1     -11.542  11.627  63.517  1.00  0.00    -0.408 C  
HETATM    2  C   UNL     1     -10.493  12.630  63.993  1.00  0.00    -0.416 C  
ENDROOT
BRANCH   2   3
HETATM    3  C   UNL     1     -11.115  13.582  65.043  1.00  0.00    -0.328 C  
HETATM    4  H2  UNL     1     -12.598  12.150  65.474  1.00  0.00     0.000 HD 
HETATM    5  H1  UNL     1     -12.629  13.702  66.369  1.00  0.00     0.000 HD 
HETATM    6  O   UNL     1     -10.693  14.701  65.314  1.00  0.00    -0.329 OA 
HETATM    7  N   UNL     1     -12.218  13.076  65.677  1.00  0.00    -0.452 N  
ENDBRANCH   2   3
BRANCH   2   8
HETATM    8  N   UNL     1      -9.307  12.004  64.620  1.00  0.00    -0.417 NA 
HETATM    9  H   UNL     1      -9.364  12.061  65.636  1.00  0.00     0.000 HD 
BRANCH   8  10
HETATM   10  C   UNL     1      -9.081  10.624  64.190  1.00  0.00    -0.222 C  
BRANCH  10  11
HETATM   11  C   UNL     1      -8.669   9.759  65.359  1.00  0.00    -0.176 A  
HETATM   12  C   UNL     1      -9.442   8.640  65.705  1.00  0.00    -0.192 A  
HETATM   13  C   UNL     1      -9.080   7.828  66.777  1.00  0.00    -0.185 A  
HETATM   14  C   UNL     1      -7.912   8.087  67.490  1.00  0.00    -0.122 A  
HETATM   15  C   UNL     1      -7.511  10.033  66.099  1.00  0.00    -0.109 A  
HETATM   16  C   UNL     1      -7.139   9.202  67.161  1.00  0.00    -0.082 A  
BRANCH  14  17
HETATM   17  O   UNL     1      -7.441   7.313  68.519  1.00  0.00    -0.100 OA 
BRANCH  17  18
HETATM   18  C   UNL     1      -7.527   7.925  69.808  1.00  0.00    -0.088 C  
BRANCH  18  19
HETATM   19  C   UNL     1      -8.955   8.024  70.284  1.00  0.00    -0.147 A  
HETATM   20  C   UNL     1      -9.858   6.966  70.123  1.00  0.00    -0.185 A  
HETATM   21  C   UNL     1     -11.188   7.129  70.491  1.00  0.00    -0.290 A  
HETATM   22  F   UNL     1     -12.046   6.115  70.328  1.00  0.00    -0.353 F  
HETATM   23  C   UNL     1     -11.648   8.336  71.008  1.00  0.00    -0.301 A  
HETATM   24  C   UNL     1     -10.761   9.398  71.165  1.00  0.00    -0.417 A  
HETATM   25  C   UNL     1      -9.422   9.245  70.800  1.00  0.00    -0.336 A  
ENDBRANCH  18  19
ENDBRANCH  17  18
ENDBRANCH  14  17
ENDBRANCH  10  11
ENDBRANCH   8  10
ENDBRANCH   2   8
TORSDOF 7
ENDMDL
MODEL      173
REMARK 921   NORMALIZED FREE ENERGY PREDICTED BY IDOCK:   -4.04 KCAL/MOL
REMARK 922        TOTAL FREE ENERGY PREDICTED BY IDOCK:   -6.48 KCAL/MOL
REMARK 923 INTER-LIGAND FREE ENERGY PREDICTED BY IDOCK:   -5.70 KCAL/MOL
REMARK 924 INTRA-LIGAND FREE ENERGY PREDICTED BY IDOCK:   -0.78 KCAL/MOL
REMARK 927      BINDING AFFINITY PREDICTED BY RF-SCORE:    0.00 PKD
ROOT
HETATM    1  C   UNL     1      -8.168   6.906  65.269  1.00  0.00    -0.129 C  
HETATM    2  C   UNL     1      -7.754   8.116  64.434  1.00  0.00    -0.126 C  
ENDROOT
BRANCH   2   3
HETATM    3  C   UNL     1      -7.174   7.645  63.078  1.00  0.00    -0.087 C  
HETATM    4  H2  UNL     1      -6.564   9.612  62.645  1.00  0.00     0.000 HD 
HETATM    5  H1  UNL     1      -6.222   8.331  61.440  1.00  0.00     0.000 HD 
HETATM    6  O   UNL     1      -7.204   6.490  62.666  1.00  0.00    -0.045 OA 
HETATM    7  N   UNL     1      -6.604   8.642  62.333  1.00  0.00    -0.095 N  
ENDBRANCH   2   3
BRANCH   2   8
HETATM    8  N   UNL     1      -8.868   9.044  64.133  1.00  0.00    -0.416 NA 
HETATM    9  H   UNL     1      -9.746   8.688  64.510  1.00  0.00     0.000 HD 
BRANCH   8  10
HETATM   10  C   UNL     1      -8.626  10.413  64.588  1.00  0.00    -0.185 C  
BRANCH  10  11
HETATM   11  C   UNL     1      -9.250  10.645  65.945  1.00  0.00    -0.209 A  
HETATM   12  C   UNL     1     -10.403   9.936  66.313  1.00  0.00    -0.233 A  
HETATM   13  C   UNL     1     -10.994  10.132  67.558  1.00  0.00    -0.319 A  
HETATM   14  C   UNL     1     -10.415  11.001  68.480  1.00  0.00    -0.189 A  
HETATM   15  C   UNL     1      -8.689  11.541  66.865  1.00  0.00    -0.181 A  
HETATM   16  C   UNL     1      -9.272  11.719  68.124  1.00  0.00    -0.186 A  
BRANCH  14  17
HETATM   17  O   UNL     1     -10.886  11.215  69.749  1.00  0.00    -0.204 OA 
BRANCH  17  18
HETATM   18  C   UNL     1     -12.236  11.683  69.809  1.00  0.00    -0.219 C  
BRANCH  18  19
HETATM   19  C   UNL     1     -12.318  13.068  70.401  1.00  0.00    -0.351 A  
HETATM   20  C   UNL     1     -12.946  13.306  71.630  1.00  0.00    -0.441 A  
HETATM   21  C   UNL     1     -13.082  14.608  72.098  1.00  0.00    -0.347 A  
HETATM   22  F   UNL     1     -13.690  14.827  73.270  1.00  0.00    -0.463 F  
HETATM   23  C   UNL     1     -12.614  15.689  71.359  1.00  0.00    -0.519 A  
HETATM   24  C   UNL     1     -11.993  15.465  70.131  1.00  0.00    -0.378 A  
HETATM   25  C   UNL     1     -11.851  14.162  69.653  1.00  0.00    -0.379 A  
ENDBRANCH  18  19
ENDBRANCH  17  18
ENDBRANCH  14  17
ENDBRANCH  10  11
ENDBRANCH   8  10
ENDBRANCH   2   8
TORSDOF 7
ENDMDL
MODEL      174
REMARK 921   NORMALIZED FREE ENERGY PREDICTED BY IDOCK:   -4.04 KCAL/MOL
REMARK 922        TOTAL FREE ENERGY PREDICTED BY IDOCK:   -6.48 KCAL/MOL
REMARK 923 INTER-LIGAND FREE ENERGY PREDICTED BY IDOCK:   -5.68 KCAL/MOL
REMARK 924 INTRA-LIGAND FREE ENERGY PREDICTED BY IDOCK:   -0.80 KCAL/MOL
REMARK 927      BINDING AFFINITY PREDICTED BY RF-SCORE:    0.00 PKD
ROOT
HETATM    1  C   UNL     1     -10.228   7.957  73.118  1.00  0.00    -0.358 C  
HETATM    2  C   UNL     1     -11.721   8.054  72.810  1.00  0.00    -0.290 C  
ENDROOT
BRANCH   2   3
HETATM    3  C   UNL     1     -11.982   9.234  71.843  1.00  0.00    -0.363 C  
HETATM    4  H2  UNL     1     -13.832   9.602  72.775  1.00  0.00     0.000 HD 
HETATM    5  H1  UNL     1     -13.345  10.654  71.410  1.00  0.00     0.000 HD 
HETATM    6  O   UNL     1     -11.217   9.594  70.954  1.00  0.00    -0.293 OA 
HETATM    7  N   UNL     1     -13.173   9.877  72.047  1.00  0.00    -0.451 N  
ENDBRANCH   2   3
BRANCH   2   8
HETATM    8  N   UNL     1     -12.282   6.839  72.177  1.00  0.00    -0.483 NA 
HETATM    9  H   UNL     1     -12.716   7.065  71.283  1.00  0.00     0.000 HD 
BRANCH   8  10
HETATM   10  C   UNL     1     -11.305   5.760  72.021  1.00  0.00    -0.228 C  
BRANCH  10  11
HETATM   11  C   UNL     1     -10.566   5.893  70.708  1.00  0.00    -0.330 A  
HETATM   12  C   UNL     1     -11.283   6.115  69.523  1.00  0.00    -0.482 A  
HETATM   13  C   UNL     1     -10.624   6.243  68.304  1.00  0.00    -0.318 A  
HETATM   14  C   UNL     1      -9.232   6.202  68.252  1.00  0.00    -0.114 A  
HETATM   15  C   UNL     1      -9.168   5.822  70.646  1.00  0.00    -0.172 A  
HETATM   16  C   UNL     1      -8.507   5.973  69.423  1.00  0.00    -0.115 A  
BRANCH  14  17
HETATM   17  O   UNL     1      -8.492   6.378  67.113  1.00  0.00    -0.112 OA 
BRANCH  17  18
HETATM   18  C   UNL     1      -9.131   7.166  66.106  1.00  0.00    -0.119 C  
BRANCH  18  19
HETATM   19  C   UNL     1      -9.084   8.637  66.438  1.00  0.00    -0.218 A  
HETATM   20  C   UNL     1     -10.240   9.427  66.441  1.00  0.00    -0.300 A  
HETATM   21  C   UNL     1     -10.143  10.796  66.663  1.00  0.00    -0.218 A  
HETATM   22  F   UNL     1     -11.252  11.545  66.657  1.00  0.00    -0.318 F  
HETATM   23  C   UNL     1      -8.909  11.404  66.871  1.00  0.00    -0.173 A  
HETATM   24  C   UNL     1      -7.751  10.629  66.862  1.00  0.00    -0.122 A  
HETATM   25  C   UNL     1      -7.838   9.253  66.642  1.00  0.00    -0.104 A  
ENDBRANCH  18  19
ENDBRANCH  17  18
ENDBRANCH  14  17
ENDBRANCH  10  11
ENDBRANCH   8  10
ENDBRANCH   2   8
TORSDOF 7
ENDMDL
MODEL      175
REMARK 921   NORMALIZED FREE ENERGY PREDICTED BY IDOCK:   -4.04 KCAL/MOL
REMARK 922        TOTAL FREE ENERGY PREDICTED BY IDOCK:   -6.48 KCAL/MOL
REMARK 923 INTER-LIGAND FREE ENERGY PREDICTED BY IDOCK:   -5.85 KCAL/MOL
REMARK 924 INTRA-LIGAND FREE ENERGY PREDICTED BY IDOCK:   -0.63 KCAL/MOL
REMARK 927      BINDING AFFINITY PREDICTED BY RF-SCORE:    0.00 PKD
ROOT
HETATM    1  C   UNL     1     -11.433  14.715  67.245  1.00  0.00    -0.386 C  
HETATM    2  C   UNL     1     -12.365  13.656  66.659  1.00  0.00    -0.331 C  
ENDROOT
BRANCH   2   3
HETATM    3  C   UNL     1     -12.029  13.431  65.165  1.00  0.00    -0.378 C  
HETATM    4  H2  UNL     1     -11.991  15.512  64.850  1.00  0.00     0.000 HD 
HETATM    5  H1  UNL     1     -11.665  14.436  63.456  1.00  0.00     0.000 HD 
HETATM    6  O   UNL     1     -11.898  12.333  64.633  1.00  0.00    -0.363 OA 
HETATM    7  N   UNL     1     -11.886  14.584  64.440  1.00  0.00    -0.423 N  
ENDBRANCH   2   3
BRANCH   2   8
HETATM    8  N   UNL     1     -12.273  12.340  67.330  1.00  0.00    -0.388 NA 
HETATM    9  H   UNL     1     -11.579  11.750  66.873  1.00  0.00     0.000 HD 
BRANCH   8  10
HETATM   10  C   UNL     1     -12.009  12.436  68.766  1.00  0.00    -0.229 C  
BRANCH  10  11
HETATM   11  C   UNL     1     -11.650  11.082  69.336  1.00  0.00    -0.383 A  
HETATM   12  C   UNL     1     -10.651  10.310  68.724  1.00  0.00    -0.231 A  
HETATM   13  C   UNL     1     -10.302   9.062  69.233  1.00  0.00    -0.227 A  
HETATM   14  C   UNL     1     -10.909   8.583  70.393  1.00  0.00    -0.234 A  
HETATM   15  C   UNL     1     -12.279  10.582  70.484  1.00  0.00    -0.435 A  
HETATM   16  C   UNL     1     -11.910   9.337  71.006  1.00  0.00    -0.376 A  
BRANCH  14  17
HETATM   17  O   UNL     1     -10.592   7.398  71.002  1.00  0.00    -0.222 OA 
BRANCH  17  18
HETATM   18  C   UNL     1     -10.933   6.233  70.246  1.00  0.00    -0.337 C  
BRANCH  18  19
HETATM   19  C   UNL     1      -9.729   5.357  70.001  1.00  0.00    -0.248 A  
HETATM   20  C   UNL     1      -8.604   5.830  69.315  1.00  0.00    -0.111 A  
HETATM   21  C   UNL     1      -7.553   4.966  69.029  1.00  0.00    -0.068 A  
HETATM   22  F   UNL     1      -6.484   5.424  68.367  1.00  0.00    -0.033 F  
HETATM   23  C   UNL     1      -7.602   3.627  69.403  1.00  0.00    -0.052 A  
HETATM   24  C   UNL     1      -8.720   3.143  70.080  1.00  0.00    -0.131 A  
HETATM   25  C   UNL     1      -9.780   4.003  70.373  1.00  0.00    -0.263 A  
ENDBRANCH  18  19
ENDBRANCH  17  18
ENDBRANCH  14  17
ENDBRANCH  10  11
ENDBRANCH   8  10
ENDBRANCH   2   8
TORSDOF 7
ENDMDL
MODEL      176
REMARK 921   NORMALIZED FREE ENERGY PREDICTED BY IDOCK:   -4.03 KCAL/MOL
REMARK 922        TOTAL FREE ENERGY PREDICTED BY IDOCK:   -6.47 KCAL/MOL
REMARK 923 INTER-LIGAND FREE ENERGY PREDICTED BY IDOCK:   -5.93 KCAL/MOL
REMARK 924 INTRA-LIGAND FREE ENERGY PREDICTED BY IDOCK:   -0.54 KCAL/MOL
REMARK 927      BINDING AFFINITY PREDICTED BY RF-SCORE:    0.00 PKD
ROOT
HETATM    1  C   UNL     1     -13.953   8.761  71.887  1.00  0.00    -0.493 C  
HETATM    2  C   UNL     1     -12.662   9.378  71.352  1.00  0.00    -0.345 C  
ENDROOT
BRANCH   2   3
HETATM    3  C   UNL     1     -12.801  10.919  71.296  1.00  0.00    -0.433 C  
HETATM    4  H2  UNL     1     -11.840  10.947  69.424  1.00  0.00     0.000 HD 
HETATM    5  H1  UNL     1     -12.372  12.505  70.130  1.00  0.00     0.000 HD 
HETATM    6  O   UNL     1     -13.320  11.608  72.168  1.00  0.00    -0.491 OA 
HETATM    7  N   UNL     1     -12.281  11.490  70.166  1.00  0.00    -0.319 N  
ENDBRANCH   2   3
BRANCH   2   8
HETATM    8  N   UNL     1     -11.469   9.077  72.176  1.00  0.00    -0.325 NA 
HETATM    9  H   UNL     1     -11.623   8.243  72.742  1.00  0.00     0.000 HD 
BRANCH   8  10
HETATM   10  C   UNL     1     -10.238   8.953  71.395  1.00  0.00    -0.305 C  
BRANCH  10  11
HETATM   11  C   UNL     1     -10.474   8.131  70.149  1.00  0.00    -0.225 A  
HETATM   12  C   UNL     1     -10.325   8.721  68.885  1.00  0.00    -0.229 A  
HETATM   13  C   UNL     1     -10.534   7.983  67.724  1.00  0.00    -0.280 A  
HETATM   14  C   UNL     1     -10.847   6.627  67.802  1.00  0.00    -0.294 A  
HETATM   15  C   UNL     1     -10.819   6.775  70.222  1.00  0.00    -0.314 A  
HETATM   16  C   UNL     1     -11.007   6.030  69.053  1.00  0.00    -0.409 A  
BRANCH  14  17
HETATM   17  O   UNL     1     -11.012   5.804  66.718  1.00  0.00    -0.280 OA 
BRANCH  17  18
HETATM   18  C   UNL     1     -10.106   4.699  66.669  1.00  0.00    -0.234 C  
BRANCH  18  19
HETATM   19  C   UNL     1      -9.694   4.380  65.254  1.00  0.00    -0.199 A  
HETATM   20  C   UNL     1      -8.388   4.600  64.801  1.00  0.00    -0.127 A  
HETATM   21  C   UNL     1      -8.071   4.380  63.465  1.00  0.00    -0.094 A  
HETATM   22  F   UNL     1      -6.822   4.600  63.039  1.00  0.00    -0.034 F  
HETATM   23  C   UNL     1      -9.037   3.954  62.559  1.00  0.00    -0.100 A  
HETATM   24  C   UNL     1     -10.342   3.739  62.996  1.00  0.00    -0.203 A  
HETATM   25  C   UNL     1     -10.670   3.955  64.336  1.00  0.00    -0.200 A  
ENDBRANCH  18  19
ENDBRANCH  17  18
ENDBRANCH  14  17
ENDBRANCH  10  11
ENDBRANCH   8  10
ENDBRANCH   2   8
TORSDOF 7
ENDMDL
MODEL      177
REMARK 921   NORMALIZED FREE ENERGY PREDICTED BY IDOCK:   -4.03 KCAL/MOL
REMARK 922        TOTAL FREE ENERGY PREDICTED BY IDOCK:   -6.47 KCAL/MOL
REMARK 923 INTER-LIGAND FREE ENERGY PREDICTED BY IDOCK:   -5.85 KCAL/MOL
REMARK 924 INTRA-LIGAND FREE ENERGY PREDICTED BY IDOCK:   -0.62 KCAL/MOL
REMARK 927      BINDING AFFINITY PREDICTED BY RF-SCORE:    0.00 PKD
ROOT
HETATM    1  C   UNL     1      -8.677  16.259  67.220  1.00  0.00    -0.200 C  
HETATM    2  C   UNL     1      -8.502  15.046  68.132  1.00  0.00    -0.151 C  
ENDROOT
BRANCH   2   3
HETATM    3  C   UNL     1      -7.314  15.280  69.095  1.00  0.00    -0.172 C  
HETATM    4  H2  UNL     1      -7.052  13.201  69.293  1.00  0.00     0.000 HD 
HETATM    5  H1  UNL     1      -5.948  14.286  70.195  1.00  0.00     0.000 HD 
HETATM    6  O   UNL     1      -6.900  16.381  69.443  1.00  0.00    -0.210 OA 
HETATM    7  N   UNL     1      -6.731  14.132  69.560  1.00  0.00    -0.126 N  
ENDBRANCH   2   3
BRANCH   2   8
HETATM    8  N   UNL     1      -9.689  14.749  68.966  1.00  0.00    -0.288 NA 
HETATM    9  H   UNL     1     -10.043  15.598  69.405  1.00  0.00     0.000 HD 
BRANCH   8  10
HETATM   10  C   UNL     1     -10.754  14.059  68.239  1.00  0.00    -0.254 C  
BRANCH  10  11
HETATM   11  C   UNL     1     -11.220  12.839  69.001  1.00  0.00    -0.317 A  
HETATM   12  C   UNL     1     -10.625  11.593  68.755  1.00  0.00    -0.241 A  
HETATM   13  C   UNL     1     -11.035  10.457  69.447  1.00  0.00    -0.296 A  
HETATM   14  C   UNL     1     -12.013  10.553  70.435  1.00  0.00    -0.335 A  
HETATM   15  C   UNL     1     -12.224  12.924  69.975  1.00  0.00    -0.292 A  
HETATM   16  C   UNL     1     -12.619  11.785  70.684  1.00  0.00    -0.289 A  
BRANCH  14  17
HETATM   17  O   UNL     1     -12.440   9.507  71.210  1.00  0.00    -0.315 OA 
BRANCH  17  18
HETATM   18  C   UNL     1     -11.980   8.223  70.778  1.00  0.00    -0.109 C  
BRANCH  18  19
HETATM   19  C   UNL     1     -11.318   7.464  71.901  1.00  0.00    -0.294 A  
HETATM   20  C   UNL     1     -11.724   6.171  72.253  1.00  0.00    -0.352 A  
HETATM   21  C   UNL     1     -11.151   5.540  73.351  1.00  0.00    -0.228 A  
HETATM   22  F   UNL     1     -11.550   4.307  73.686  1.00  0.00    -0.335 F  
HETATM   23  C   UNL     1     -10.184   6.177  74.121  1.00  0.00    -0.320 A  
HETATM   24  C   UNL     1      -9.777   7.467  73.785  1.00  0.00    -0.330 A  
HETATM   25  C   UNL     1     -10.345   8.108  72.683  1.00  0.00    -0.398 A  
ENDBRANCH  18  19
ENDBRANCH  17  18
ENDBRANCH  14  17
ENDBRANCH  10  11
ENDBRANCH   8  10
ENDBRANCH   2   8
TORSDOF 7
ENDMDL
MODEL      178
REMARK 921   NORMALIZED FREE ENERGY PREDICTED BY IDOCK:   -4.03 KCAL/MOL
REMARK 922        TOTAL FREE ENERGY PREDICTED BY IDOCK:   -6.47 KCAL/MOL
REMARK 923 INTER-LIGAND FREE ENERGY PREDICTED BY IDOCK:   -5.65 KCAL/MOL
REMARK 924 INTRA-LIGAND FREE ENERGY PREDICTED BY IDOCK:   -0.81 KCAL/MOL
REMARK 927      BINDING AFFINITY PREDICTED BY RF-SCORE:    0.00 PKD
ROOT
HETATM    1  C   UNL     1     -10.943  13.864  68.530  1.00  0.00    -0.277 C  
HETATM    2  C   UNL     1     -11.956  13.046  67.730  1.00  0.00    -0.295 C  
ENDROOT
BRANCH   2   3
HETATM    3  C   UNL     1     -11.462  12.880  66.273  1.00  0.00    -0.348 C  
HETATM    4  H2  UNL     1     -10.818  10.923  66.704  1.00  0.00     0.000 HD 
HETATM    5  H1  UNL     1     -10.577  11.551  65.043  1.00  0.00     0.000 HD 
HETATM    6  O   UNL     1     -11.542  13.741  65.402  1.00  0.00    -0.309 OA 
HETATM    7  N   UNL     1     -10.903  11.660  66.004  1.00  0.00    -0.285 N  
ENDBRANCH   2   3
BRANCH   2   8
HETATM    8  N   UNL     1     -12.187  11.687  68.270  1.00  0.00    -0.452 NA 
HETATM    9  H   UNL     1     -11.641  10.997  67.757  1.00  0.00     0.000 HD 
BRANCH   8  10
HETATM   10  C   UNL     1     -11.938  11.581  69.708  1.00  0.00    -0.346 C  
BRANCH  10  11
HETATM   11  C   UNL     1     -11.158  10.325  70.025  1.00  0.00    -0.373 A  
HETATM   12  C   UNL     1     -11.711   9.357  70.876  1.00  0.00    -0.378 A  
HETATM   13  C   UNL     1     -11.013   8.192  71.180  1.00  0.00    -0.271 A  
HETATM   14  C   UNL     1      -9.770   7.947  70.599  1.00  0.00    -0.173 A  
HETATM   15  C   UNL     1      -9.895  10.088  69.467  1.00  0.00    -0.249 A  
HETATM   16  C   UNL     1      -9.205   8.906  69.757  1.00  0.00    -0.167 A  
BRANCH  14  17
HETATM   17  O   UNL     1      -9.035   6.807  70.788  1.00  0.00    -0.149 OA 
BRANCH  17  18
HETATM   18  C   UNL     1      -8.739   6.512  72.156  1.00  0.00    -0.131 C  
BRANCH  18  19
HETATM   19  C   UNL     1      -9.393   5.227  72.601  1.00  0.00    -0.150 A  
HETATM   20  C   UNL     1      -9.176   4.020  71.927  1.00  0.00    -0.179 A  
HETATM   21  C   UNL     1      -9.867   2.877  72.312  1.00  0.00    -0.164 A  
HETATM   22  F   UNL     1      -9.659   1.729  71.657  1.00  0.00    -0.144 F  
HETATM   23  C   UNL     1     -10.787   2.912  73.354  1.00  0.00    -0.300 A  
HETATM   24  C   UNL     1     -11.017   4.109  74.029  1.00  0.00    -0.248 A  
HETATM   25  C   UNL     1     -10.327   5.262  73.651  1.00  0.00    -0.264 A  
ENDBRANCH  18  19
ENDBRANCH  17  18
ENDBRANCH  14  17
ENDBRANCH  10  11
ENDBRANCH   8  10
ENDBRANCH   2   8
TORSDOF 7
ENDMDL
MODEL      179
REMARK 921   NORMALIZED FREE ENERGY PREDICTED BY IDOCK:   -4.01 KCAL/MOL
REMARK 922        TOTAL FREE ENERGY PREDICTED BY IDOCK:   -6.45 KCAL/MOL
REMARK 923 INTER-LIGAND FREE ENERGY PREDICTED BY IDOCK:   -5.52 KCAL/MOL
REMARK 924 INTRA-LIGAND FREE ENERGY PREDICTED BY IDOCK:   -0.93 KCAL/MOL
REMARK 927      BINDING AFFINITY PREDICTED BY RF-SCORE:    0.00 PKD
ROOT
HETATM    1  C   UNL     1      -8.139   3.412  65.880  1.00  0.00    -0.093 C  
HETATM    2  C   UNL     1      -8.487   4.567  64.942  1.00  0.00    -0.130 C  
ENDROOT
BRANCH   2   3
HETATM    3  C   UNL     1      -9.278   4.033  63.723  1.00  0.00    -0.138 C  
HETATM    4  H2  UNL     1      -8.460   5.549  62.515  1.00  0.00     0.000 HD 
HETATM    5  H1  UNL     1      -9.599   4.388  61.765  1.00  0.00     0.000 HD 
HETATM    6  O   UNL     1     -10.033   3.066  63.746  1.00  0.00    -0.143 OA 
HETATM    7  N   UNL     1      -9.078   4.740  62.569  1.00  0.00    -0.120 N  
ENDBRANCH   2   3
BRANCH   2   8
HETATM    8  N   UNL     1      -9.315   5.620  65.572  1.00  0.00    -0.357 NA 
HETATM    9  H   UNL     1      -9.803   6.167  64.863  1.00  0.00     0.000 HD 
BRANCH   8  10
HETATM   10  C   UNL     1     -10.254   5.106  66.569  1.00  0.00    -0.264 C  
BRANCH  10  11
HETATM   11  C   UNL     1      -9.920   5.637  67.944  1.00  0.00    -0.174 A  
HETATM   12  C   UNL     1      -9.029   6.712  68.079  1.00  0.00    -0.117 A  
HETATM   13  C   UNL     1      -8.708   7.220  69.335  1.00  0.00    -0.137 A  
HETATM   14  C   UNL     1      -9.311   6.696  70.477  1.00  0.00    -0.166 A  
HETATM   15  C   UNL     1     -10.500   5.095  69.099  1.00  0.00    -0.170 A  
HETATM   16  C   UNL     1     -10.193   5.621  70.357  1.00  0.00    -0.302 A  
BRANCH  14  17
HETATM   17  O   UNL     1      -9.107   7.166  71.748  1.00  0.00    -0.139 OA 
BRANCH  17  18
HETATM   18  C   UNL     1      -9.288   8.578  71.894  1.00  0.00    -0.267 C  
BRANCH  18  19
HETATM   19  C   UNL     1     -10.728   8.978  71.688  1.00  0.00    -0.441 A  
HETATM   20  C   UNL     1     -11.084  10.029  70.833  1.00  0.00    -0.385 A  
HETATM   21  C   UNL     1     -12.412  10.426  70.741  1.00  0.00    -0.368 A  
HETATM   22  F   UNL     1     -12.742  11.436  69.927  1.00  0.00    -0.241 F  
HETATM   23  C   UNL     1     -13.402   9.806  71.495  1.00  0.00    -0.468 A  
HETATM   24  C   UNL     1     -13.059   8.764  72.355  1.00  0.00    -0.444 A  
HETATM   25  C   UNL     1     -11.728   8.355  72.454  1.00  0.00    -0.452 A  
ENDBRANCH  18  19
ENDBRANCH  17  18
ENDBRANCH  14  17
ENDBRANCH  10  11
ENDBRANCH   8  10
ENDBRANCH   2   8
TORSDOF 7
ENDMDL
MODEL      180
REMARK 921   NORMALIZED FREE ENERGY PREDICTED BY IDOCK:   -3.98 KCAL/MOL
REMARK 922        TOTAL FREE ENERGY PREDICTED BY IDOCK:   -6.41 KCAL/MOL
REMARK 923 INTER-LIGAND FREE ENERGY PREDICTED BY IDOCK:   -5.53 KCAL/MOL
REMARK 924 INTRA-LIGAND FREE ENERGY PREDICTED BY IDOCK:   -0.88 KCAL/MOL
REMARK 927      BINDING AFFINITY PREDICTED BY RF-SCORE:    0.00 PKD
ROOT
HETATM    1  C   UNL     1     -12.153  12.596  65.389  1.00  0.00    -0.516 C  
HETATM    2  C   UNL     1     -10.646  12.797  65.242  1.00  0.00    -0.290 C  
ENDROOT
BRANCH   2   3
HETATM    3  C   UNL     1     -10.221  14.111  65.942  1.00  0.00    -0.319 C  
HETATM    4  H2  UNL     1     -11.177  13.488  67.711  1.00  0.00     0.000 HD 
HETATM    5  H1  UNL     1     -10.356  15.081  67.704  1.00  0.00     0.000 HD 
HETATM    6  O   UNL     1      -9.574  15.009  65.414  1.00  0.00    -0.267 OA 
HETATM    7  N   UNL     1     -10.635  14.215  67.242  1.00  0.00    -0.275 N  
ENDBRANCH   2   3
BRANCH   2   8
HETATM    8  N   UNL     1      -9.836  11.707  65.833  1.00  0.00    -0.226 NA 
HETATM    9  H   UNL     1      -9.306  12.045  66.635  1.00  0.00     0.000 HD 
BRANCH   8  10
HETATM   10  C   UNL     1     -10.622  10.526  66.190  1.00  0.00    -0.112 C  
BRANCH  10  11
HETATM   11  C   UNL     1     -10.563  10.274  67.680  1.00  0.00    -0.312 A  
HETATM   12  C   UNL     1     -11.625  10.683  68.499  1.00  0.00    -0.279 A  
HETATM   13  C   UNL     1     -11.593  10.459  69.873  1.00  0.00    -0.358 A  
HETATM   14  C   UNL     1     -10.523   9.776  70.448  1.00  0.00    -0.297 A  
HETATM   15  C   UNL     1      -9.475   9.614  68.267  1.00  0.00    -0.145 A  
HETATM   16  C   UNL     1      -9.456   9.370  69.644  1.00  0.00    -0.200 A  
BRANCH  14  17
HETATM   17  O   UNL     1     -10.429   9.455  71.776  1.00  0.00    -0.282 OA 
BRANCH  17  18
HETATM   18  C   UNL     1     -11.130   8.266  72.150  1.00  0.00    -0.328 C  
BRANCH  18  19
HETATM   19  C   UNL     1     -10.226   7.059  72.135  1.00  0.00    -0.206 A  
HETATM   20  C   UNL     1     -10.579   5.884  71.459  1.00  0.00    -0.300 A  
HETATM   21  C   UNL     1      -9.761   4.764  71.545  1.00  0.00    -0.172 A  
HETATM   22  F   UNL     1     -10.109   3.643  70.903  1.00  0.00    -0.248 F  
HETATM   23  C   UNL     1      -8.596   4.781  72.304  1.00  0.00    -0.121 A  
HETATM   24  C   UNL     1      -8.238   5.942  72.987  1.00  0.00    -0.117 A  
HETATM   25  C   UNL     1      -9.051   7.074  72.906  1.00  0.00    -0.157 A  
ENDBRANCH  18  19
ENDBRANCH  17  18
ENDBRANCH  14  17
ENDBRANCH  10  11
ENDBRANCH   8  10
ENDBRANCH   2   8
TORSDOF 7
ENDMDL
MODEL      181
REMARK 921   NORMALIZED FREE ENERGY PREDICTED BY IDOCK:   -3.98 KCAL/MOL
REMARK 922        TOTAL FREE ENERGY PREDICTED BY IDOCK:   -6.41 KCAL/MOL
REMARK 923 INTER-LIGAND FREE ENERGY PREDICTED BY IDOCK:   -5.86 KCAL/MOL
REMARK 924 INTRA-LIGAND FREE ENERGY PREDICTED BY IDOCK:   -0.55 KCAL/MOL
REMARK 927      BINDING AFFINITY PREDICTED BY RF-SCORE:    0.00 PKD
ROOT
HETATM    1  C   UNL     1     -10.798  16.794  67.519  1.00  0.00    -0.216 C  
HETATM    2  C   UNL     1     -10.779  15.267  67.467  1.00  0.00    -0.285 C  
ENDROOT
BRANCH   2   3
HETATM    3  C   UNL     1     -10.149  14.706  68.764  1.00  0.00    -0.235 C  
HETATM    4  H2  UNL     1      -8.528  13.944  67.658  1.00  0.00     0.000 HD 
HETATM    5  H1  UNL     1      -8.545  13.682  69.430  1.00  0.00     0.000 HD 
HETATM    6  O   UNL     1     -10.638  14.811  69.884  1.00  0.00    -0.176 OA 
HETATM    7  N   UNL     1      -8.961  14.052  68.575  1.00  0.00    -0.185 N  
ENDBRANCH   2   3
BRANCH   2   8
HETATM    8  N   UNL     1     -12.121  14.657  67.334  1.00  0.00    -0.552 NA 
HETATM    9  H   UNL     1     -12.833  15.375  67.204  1.00  0.00     0.000 HD 
BRANCH   8  10
HETATM   10  C   UNL     1     -12.201  13.649  66.276  1.00  0.00    -0.436 C  
BRANCH  10  11
HETATM   11  C   UNL     1     -11.579  12.348  66.728  1.00  0.00    -0.444 A  
HETATM   12  C   UNL     1     -11.865  11.844  68.005  1.00  0.00    -0.323 A  
HETATM   13  C   UNL     1     -11.306  10.646  68.441  1.00  0.00    -0.348 A  
HETATM   14  C   UNL     1     -10.491   9.902  67.590  1.00  0.00    -0.244 A  
HETATM   15  C   UNL     1     -10.735  11.610  65.887  1.00  0.00    -0.328 A  
HETATM   16  C   UNL     1     -10.192  10.396  66.320  1.00  0.00    -0.286 A  
BRANCH  14  17
HETATM   17  O   UNL     1      -9.944   8.686  67.906  1.00  0.00    -0.170 OA 
BRANCH  17  18
HETATM   18  C   UNL     1     -10.736   7.893  68.795  1.00  0.00    -0.051 C  
BRANCH  18  19
HETATM   19  C   UNL     1     -10.420   6.424  68.660  1.00  0.00    -0.260 A  
HETATM   20  C   UNL     1     -10.112   5.633  69.773  1.00  0.00    -0.286 A  
HETATM   21  C   UNL     1      -9.737   4.306  69.597  1.00  0.00    -0.214 A  
HETATM   22  F   UNL     1      -9.437   3.559  70.666  1.00  0.00    -0.188 F  
HETATM   23  C   UNL     1      -9.650   3.746  68.327  1.00  0.00    -0.171 A  
HETATM   24  C   UNL     1      -9.947   4.525  67.211  1.00  0.00    -0.187 A  
HETATM   25  C   UNL     1     -10.326   5.859  67.376  1.00  0.00    -0.274 A  
ENDBRANCH  18  19
ENDBRANCH  17  18
ENDBRANCH  14  17
ENDBRANCH  10  11
ENDBRANCH   8  10
ENDBRANCH   2   8
TORSDOF 7
ENDMDL
MODEL      182
REMARK 921   NORMALIZED FREE ENERGY PREDICTED BY IDOCK:   -3.97 KCAL/MOL
REMARK 922        TOTAL FREE ENERGY PREDICTED BY IDOCK:   -6.39 KCAL/MOL
REMARK 923 INTER-LIGAND FREE ENERGY PREDICTED BY IDOCK:   -5.60 KCAL/MOL
REMARK 924 INTRA-LIGAND FREE ENERGY PREDICTED BY IDOCK:   -0.79 KCAL/MOL
REMARK 927      BINDING AFFINITY PREDICTED BY RF-SCORE:    0.00 PKD
ROOT
HETATM    1  C   UNL     1     -10.523  18.040  67.748  1.00  0.00    -0.421 C  
HETATM    2  C   UNL     1     -10.337  16.525  67.811  1.00  0.00    -0.291 C  
ENDROOT
BRANCH   2   3
HETATM    3  C   UNL     1      -8.920  16.191  68.336  1.00  0.00    -0.196 C  
HETATM    4  H2  UNL     1      -9.300  14.136  68.082  1.00  0.00     0.000 HD 
HETATM    5  H1  UNL     1      -7.701  14.633  68.721  1.00  0.00     0.000 HD 
HETATM    6  O   UNL     1      -8.094  17.021  68.701  1.00  0.00    -0.237 OA 
HETATM    7  N   UNL     1      -8.635  14.853  68.375  1.00  0.00    -0.153 N  
ENDBRANCH   2   3
BRANCH   2   8
HETATM    8  N   UNL     1     -11.305  15.840  68.698  1.00  0.00    -0.350 NA 
HETATM    9  H   UNL     1     -11.899  16.518  69.174  1.00  0.00     0.000 HD 
BRANCH   8  10
HETATM   10  C   UNL     1     -12.113  14.832  68.012  1.00  0.00    -0.128 C  
BRANCH  10  11
HETATM   11  C   UNL     1     -12.034  13.504  68.730  1.00  0.00    -0.374 A  
HETATM   12  C   UNL     1     -12.327  13.432  70.100  1.00  0.00    -0.322 A  
HETATM   13  C   UNL     1     -12.264  12.219  70.780  1.00  0.00    -0.354 A  
HETATM   14  C   UNL     1     -11.957  11.046  70.094  1.00  0.00    -0.360 A  
HETATM   15  C   UNL     1     -11.697  12.325  68.051  1.00  0.00    -0.417 A  
HETATM   16  C   UNL     1     -11.656  11.104  68.733  1.00  0.00    -0.389 A  
BRANCH  14  17
HETATM   17  O   UNL     1     -11.929   9.799  70.662  1.00  0.00    -0.277 OA 
BRANCH  17  18
HETATM   18  C   UNL     1     -10.797   9.555  71.501  1.00  0.00    -0.251 C  
BRANCH  18  19
HETATM   19  C   UNL     1      -9.735   8.759  70.783  1.00  0.00    -0.257 A  
HETATM   20  C   UNL     1      -8.736   9.382  70.025  1.00  0.00    -0.227 A  
HETATM   21  C   UNL     1      -7.831   8.611  69.305  1.00  0.00    -0.101 A  
HETATM   22  F   UNL     1      -6.884   9.214  68.577  1.00  0.00    -0.059 F  
HETATM   23  C   UNL     1      -7.906   7.222  69.311  1.00  0.00    -0.116 A  
HETATM   24  C   UNL     1      -8.901   6.591  70.055  1.00  0.00    -0.144 A  
HETATM   25  C   UNL     1      -9.814   7.356  70.784  1.00  0.00    -0.178 A  
ENDBRANCH  18  19
ENDBRANCH  17  18
ENDBRANCH  14  17
ENDBRANCH  10  11
ENDBRANCH   8  10
ENDBRANCH   2   8
TORSDOF 7
ENDMDL
MODEL      183
REMARK 921   NORMALIZED FREE ENERGY PREDICTED BY IDOCK:   -3.95 KCAL/MOL
REMARK 922        TOTAL FREE ENERGY PREDICTED BY IDOCK:   -6.36 KCAL/MOL
REMARK 923 INTER-LIGAND FREE ENERGY PREDICTED BY IDOCK:   -5.44 KCAL/MOL
REMARK 924 INTRA-LIGAND FREE ENERGY PREDICTED BY IDOCK:   -0.93 KCAL/MOL
REMARK 927      BINDING AFFINITY PREDICTED BY RF-SCORE:    0.00 PKD
ROOT
HETATM    1  C   UNL     1     -13.953   8.761  71.887  1.00  0.00    -0.493 C  
HETATM    2  C   UNL     1     -12.662   9.378  71.352  1.00  0.00    -0.345 C  
ENDROOT
BRANCH   2   3
HETATM    3  C   UNL     1     -12.801  10.919  71.296  1.00  0.00    -0.433 C  
HETATM    4  H2  UNL     1     -11.840  10.947  69.424  1.00  0.00     0.000 HD 
HETATM    5  H1  UNL     1     -12.372  12.505  70.130  1.00  0.00     0.000 HD 
HETATM    6  O   UNL     1     -13.320  11.608  72.168  1.00  0.00    -0.491 OA 
HETATM    7  N   UNL     1     -12.281  11.490  70.166  1.00  0.00    -0.319 N  
ENDBRANCH   2   3
BRANCH   2   8
HETATM    8  N   UNL     1     -11.469   9.077  72.176  1.00  0.00    -0.325 NA 
HETATM    9  H   UNL     1     -11.623   8.243  72.742  1.00  0.00     0.000 HD 
BRANCH   8  10
HETATM   10  C   UNL     1     -10.238   8.953  71.395  1.00  0.00    -0.305 C  
BRANCH  10  11
HETATM   11  C   UNL     1     -10.474   8.131  70.149  1.00  0.00    -0.225 A  
HETATM   12  C   UNL     1     -10.325   8.721  68.885  1.00  0.00    -0.229 A  
HETATM   13  C   UNL     1     -10.534   7.983  67.724  1.00  0.00    -0.280 A  
HETATM   14  C   UNL     1     -10.847   6.627  67.802  1.00  0.00    -0.294 A  
HETATM   15  C   UNL     1     -10.819   6.775  70.222  1.00  0.00    -0.314 A  
HETATM   16  C   UNL     1     -11.007   6.030  69.053  1.00  0.00    -0.409 A  
BRANCH  14  17
HETATM   17  O   UNL     1     -11.012   5.804  66.718  1.00  0.00    -0.280 OA 
BRANCH  17  18
HETATM   18  C   UNL     1     -10.106   4.699  66.669  1.00  0.00    -0.234 C  
BRANCH  18  19
HETATM   19  C   UNL     1      -8.725   5.131  66.241  1.00  0.00    -0.119 A  
HETATM   20  C   UNL     1      -7.641   5.110  67.126  1.00  0.00    -0.092 A  
HETATM   21  C   UNL     1      -6.406   5.602  66.720  1.00  0.00    -0.035 A  
HETATM   22  F   UNL     1      -5.376   5.585  67.575  1.00  0.00    -0.004 F  
HETATM   23  C   UNL     1      -6.227   6.131  65.446  1.00  0.00    -0.037 A  
HETATM   24  C   UNL     1      -7.301   6.164  64.559  1.00  0.00    -0.069 A  
HETATM   25  C   UNL     1      -8.545   5.671  64.956  1.00  0.00    -0.108 A  
ENDBRANCH  18  19
ENDBRANCH  17  18
ENDBRANCH  14  17
ENDBRANCH  10  11
ENDBRANCH   8  10
ENDBRANCH   2   8
TORSDOF 7
ENDMDL
MODEL      184
REMARK 921   NORMALIZED FREE ENERGY PREDICTED BY IDOCK:   -3.93 KCAL/MOL
REMARK 922        TOTAL FREE ENERGY PREDICTED BY IDOCK:   -6.34 KCAL/MOL
REMARK 923 INTER-LIGAND FREE ENERGY PREDICTED BY IDOCK:   -5.54 KCAL/MOL
REMARK 924 INTRA-LIGAND FREE ENERGY PREDICTED BY IDOCK:   -0.79 KCAL/MOL
REMARK 927      BINDING AFFINITY PREDICTED BY RF-SCORE:    0.00 PKD
ROOT
HETATM    1  C   UNL     1      -7.800  11.623  66.541  1.00  0.00    -0.025 C  
HETATM    2  C   UNL     1      -8.696  12.534  67.378  1.00  0.00    -0.189 C  
ENDROOT
BRANCH   2   3
HETATM    3  C   UNL     1     -10.049  12.746  66.655  1.00  0.00    -0.243 C  
HETATM    4  H2  UNL     1     -10.988  11.437  68.009  1.00  0.00     0.000 HD 
HETATM    5  H1  UNL     1     -11.984  12.185  66.722  1.00  0.00     0.000 HD 
HETATM    6  O   UNL     1     -10.216  13.466  65.676  1.00  0.00    -0.285 OA 
HETATM    7  N   UNL     1     -11.092  12.046  67.198  1.00  0.00    -0.272 N  
ENDBRANCH   2   3
BRANCH   2   8
HETATM    8  N   UNL     1      -9.000  12.001  68.725  1.00  0.00    -0.386 NA 
HETATM    9  H   UNL     1     -10.003  11.861  68.840  1.00  0.00     0.000 HD 
BRANCH   8  10
HETATM   10  C   UNL     1      -8.265  10.778  69.047  1.00  0.00    -0.138 C  
BRANCH  10  11
HETATM   11  C   UNL     1      -9.026   9.946  70.054  1.00  0.00    -0.206 A  
HETATM   12  C   UNL     1      -8.326   9.124  70.950  1.00  0.00    -0.231 A  
HETATM   13  C   UNL     1      -9.006   8.351  71.888  1.00  0.00    -0.280 A  
HETATM   14  C   UNL     1     -10.394   8.422  71.982  1.00  0.00    -0.304 A  
HETATM   15  C   UNL     1     -10.424   9.991  70.133  1.00  0.00    -0.338 A  
HETATM   16  C   UNL     1     -11.102   9.229  71.091  1.00  0.00    -0.411 A  
BRANCH  14  17
HETATM   17  O   UNL     1     -11.146   7.748  72.908  1.00  0.00    -0.368 OA 
BRANCH  17  18
HETATM   18  C   UNL     1     -11.935   6.683  72.370  1.00  0.00    -0.146 C  
BRANCH  18  19
HETATM   19  C   UNL     1     -11.153   5.396  72.291  1.00  0.00    -0.259 A  
HETATM   20  C   UNL     1     -10.403   5.059  71.157  1.00  0.00    -0.254 A  
HETATM   21  C   UNL     1      -9.771   3.823  71.086  1.00  0.00    -0.175 A  
HETATM   22  F   UNL     1      -9.063   3.507  69.996  1.00  0.00    -0.131 F  
HETATM   23  C   UNL     1      -9.879   2.902  72.122  1.00  0.00    -0.239 A  
HETATM   24  C   UNL     1     -10.628   3.222  73.252  1.00  0.00    -0.275 A  
HETATM   25  C   UNL     1     -11.266   4.461  73.334  1.00  0.00    -0.386 A  
ENDBRANCH  18  19
ENDBRANCH  17  18
ENDBRANCH  14  17
ENDBRANCH  10  11
ENDBRANCH   8  10
ENDBRANCH   2   8
TORSDOF 7
ENDMDL
MODEL      185
REMARK 921   NORMALIZED FREE ENERGY PREDICTED BY IDOCK:   -3.92 KCAL/MOL
REMARK 922        TOTAL FREE ENERGY PREDICTED BY IDOCK:   -6.32 KCAL/MOL
REMARK 923 INTER-LIGAND FREE ENERGY PREDICTED BY IDOCK:   -5.54 KCAL/MOL
REMARK 924 INTRA-LIGAND FREE ENERGY PREDICTED BY IDOCK:   -0.78 KCAL/MOL
REMARK 927      BINDING AFFINITY PREDICTED BY RF-SCORE:    0.00 PKD
ROOT
HETATM    1  C   UNL     1      -6.855  18.372  69.293  1.00  0.00    -0.221 C  
HETATM    2  C   UNL     1      -6.774  17.107  68.440  1.00  0.00    -0.170 C  
ENDROOT
BRANCH   2   3
HETATM    3  C   UNL     1      -6.498  15.881  69.344  1.00  0.00    -0.167 C  
HETATM    4  H2  UNL     1      -5.734  14.824  67.692  1.00  0.00     0.000 HD 
HETATM    5  H1  UNL     1      -5.764  14.005  69.285  1.00  0.00     0.000 HD 
HETATM    6  O   UNL     1      -6.741  15.827  70.545  1.00  0.00     0.248 OA 
HETATM    7  N   UNL     1      -5.946  14.813  68.690  1.00  0.00    -0.085 N  
ENDBRANCH   2   3
BRANCH   2   8
HETATM    8  N   UNL     1      -8.012  16.819  67.680  1.00  0.00    -0.173 NA 
HETATM    9  H   UNL     1      -8.020  15.852  67.356  1.00  0.00     0.000 HD 
BRANCH   8  10
HETATM   10  C   UNL     1      -9.236  17.128  68.420  1.00  0.00    -0.266 C  
BRANCH  10  11
HETATM   11  C   UNL     1     -10.013  15.867  68.720  1.00  0.00    -0.220 A  
HETATM   12  C   UNL     1      -9.732  14.689  68.012  1.00  0.00    -0.216 A  
HETATM   13  C   UNL     1     -10.433  13.515  68.273  1.00  0.00    -0.258 A  
HETATM   14  C   UNL     1     -11.394  13.482  69.282  1.00  0.00    -0.262 A  
HETATM   15  C   UNL     1     -11.001  15.836  69.713  1.00  0.00    -0.316 A  
HETATM   16  C   UNL     1     -11.689  14.649  69.988  1.00  0.00    -0.348 A  
BRANCH  14  17
HETATM   17  O   UNL     1     -12.092  12.363  69.654  1.00  0.00    -0.276 OA 
BRANCH  17  18
HETATM   18  C   UNL     1     -11.317  11.161  69.678  1.00  0.00    -0.294 C  
BRANCH  18  19
HETATM   19  C   UNL     1     -11.887  10.151  70.643  1.00  0.00    -0.431 A  
HETATM   20  C   UNL     1     -11.535   8.798  70.583  1.00  0.00    -0.263 A  
HETATM   21  C   UNL     1     -12.152   7.884  71.430  1.00  0.00    -0.307 A  
HETATM   22  F   UNL     1     -11.814   6.590  71.361  1.00  0.00    -0.330 F  
HETATM   23  C   UNL     1     -13.128   8.288  72.334  1.00  0.00    -0.200 A  
HETATM   24  C   UNL     1     -13.492   9.631  72.397  1.00  0.00    -0.421 A  
HETATM   25  C   UNL     1     -12.878  10.557  71.552  1.00  0.00    -0.568 A  
ENDBRANCH  18  19
ENDBRANCH  17  18
ENDBRANCH  14  17
ENDBRANCH  10  11
ENDBRANCH   8  10
ENDBRANCH   2   8
TORSDOF 7
ENDMDL
MODEL      186
REMARK 921   NORMALIZED FREE ENERGY PREDICTED BY IDOCK:   -3.90 KCAL/MOL
REMARK 922        TOTAL FREE ENERGY PREDICTED BY IDOCK:   -6.29 KCAL/MOL
REMARK 923 INTER-LIGAND FREE ENERGY PREDICTED BY IDOCK:   -5.65 KCAL/MOL
REMARK 924 INTRA-LIGAND FREE ENERGY PREDICTED BY IDOCK:   -0.64 KCAL/MOL
REMARK 927      BINDING AFFINITY PREDICTED BY RF-SCORE:    0.00 PKD
ROOT
HETATM    1  C   UNL     1      -7.250   9.233  63.379  1.00  0.00    -0.096 C  
HETATM    2  C   UNL     1      -7.825   9.871  64.642  1.00  0.00    -0.142 C  
ENDROOT
BRANCH   2   3
HETATM    3  C   UNL     1      -6.679  10.453  65.504  1.00  0.00    -0.121 C  
HETATM    4  H2  UNL     1      -5.279   9.296  64.440  1.00  0.00     0.000 HD 
HETATM    5  H1  UNL     1      -4.681  10.360  65.752  1.00  0.00     0.000 HD 
HETATM    6  O   UNL     1      -6.826  11.270  66.408  1.00  0.00    -0.124 OA 
HETATM    7  N   UNL     1      -5.436   9.977  65.184  1.00  0.00    -0.064 N  
ENDBRANCH   2   3
BRANCH   2   8
HETATM    8  N   UNL     1      -8.775  10.975  64.375  1.00  0.00    -0.375 NA 
HETATM    9  H   UNL     1      -8.665  11.322  63.422  1.00  0.00     0.000 HD 
BRANCH   8  10
HETATM   10  C   UNL     1     -10.169  10.621  64.641  1.00  0.00    -0.334 C  
BRANCH  10  11
HETATM   11  C   UNL     1     -10.433  10.565  66.128  1.00  0.00    -0.237 A  
HETATM   12  C   UNL     1     -10.256   9.360  66.823  1.00  0.00    -0.320 A  
HETATM   13  C   UNL     1     -10.490   9.286  68.194  1.00  0.00    -0.263 A  
HETATM   14  C   UNL     1     -10.857  10.427  68.905  1.00  0.00    -0.236 A  
HETATM   15  C   UNL     1     -10.831  11.703  66.844  1.00  0.00    -0.322 A  
HETATM   16  C   UNL     1     -11.044  11.630  68.224  1.00  0.00    -0.287 A  
BRANCH  14  17
HETATM   17  O   UNL     1     -11.050  10.467  70.261  1.00  0.00    -0.298 OA 
BRANCH  17  18
HETATM   18  C   UNL     1     -11.998   9.516  70.753  1.00  0.00    -0.252 C  
BRANCH  18  19
HETATM   19  C   UNL     1     -11.332   8.440  71.574  1.00  0.00    -0.334 A  
HETATM   20  C   UNL     1     -11.990   7.247  71.896  1.00  0.00    -0.342 A  
HETATM   21  C   UNL     1     -11.376   6.321  72.731  1.00  0.00    -0.201 A  
HETATM   22  F   UNL     1     -12.015   5.187  73.040  1.00  0.00    -0.379 F  
HETATM   23  C   UNL     1     -10.115   6.562  73.266  1.00  0.00    -0.221 A  
HETATM   24  C   UNL     1      -9.453   7.748  72.959  1.00  0.00    -0.311 A  
HETATM   25  C   UNL     1     -10.060   8.685  72.120  1.00  0.00    -0.388 A  
ENDBRANCH  18  19
ENDBRANCH  17  18
ENDBRANCH  14  17
ENDBRANCH  10  11
ENDBRANCH   8  10
ENDBRANCH   2   8
TORSDOF 7
ENDMDL
MODEL      187
REMARK 921   NORMALIZED FREE ENERGY PREDICTED BY IDOCK:   -3.89 KCAL/MOL
REMARK 922        TOTAL FREE ENERGY PREDICTED BY IDOCK:   -6.27 KCAL/MOL
REMARK 923 INTER-LIGAND FREE ENERGY PREDICTED BY IDOCK:   -5.47 KCAL/MOL
REMARK 924 INTRA-LIGAND FREE ENERGY PREDICTED BY IDOCK:   -0.80 KCAL/MOL
REMARK 927      BINDING AFFINITY PREDICTED BY RF-SCORE:    0.00 PKD
ROOT
HETATM    1  C   UNL     1      -8.966  17.450  68.723  1.00  0.00    -0.219 C  
HETATM    2  C   UNL     1     -10.296  17.706  68.016  1.00  0.00    -0.375 C  
ENDROOT
BRANCH   2   3
HETATM    3  C   UNL     1     -10.036  18.223  66.580  1.00  0.00    -0.375 C  
HETATM    4  H2  UNL     1      -9.064  19.921  67.357  1.00  0.00     0.000 HD 
HETATM    5  H1  UNL     1      -9.195  19.756  65.578  1.00  0.00     0.000 HD 
HETATM    6  O   UNL     1     -10.385  17.648  65.554  1.00  0.00    -0.627 OA 
HETATM    7  N   UNL     1      -9.367  19.415  66.524  1.00  0.00    -0.343 N  
ENDBRANCH   2   3
BRANCH   2   8
HETATM    8  N   UNL     1     -11.152  16.504  67.899  1.00  0.00    -0.283 NA 
HETATM    9  H   UNL     1     -11.260  16.231  66.923  1.00  0.00     0.000 HD 
BRANCH   8  10
HETATM   10  C   UNL     1     -10.686  15.376  68.704  1.00  0.00    -0.246 C  
BRANCH  10  11
HETATM   11  C   UNL     1     -10.710  14.096  67.899  1.00  0.00    -0.245 A  
HETATM   12  C   UNL     1     -10.239  14.094  66.578  1.00  0.00    -0.278 A  
HETATM   13  C   UNL     1     -10.249  12.928  65.819  1.00  0.00    -0.298 A  
HETATM   14  C   UNL     1     -10.684  11.729  66.381  1.00  0.00    -0.266 A  
HETATM   15  C   UNL     1     -11.175  12.894  68.450  1.00  0.00    -0.305 A  
HETATM   16  C   UNL     1     -11.163  11.719  67.692  1.00  0.00    -0.345 A  
BRANCH  14  17
HETATM   17  O   UNL     1     -10.676  10.520  65.736  1.00  0.00    -0.122 OA 
BRANCH  17  18
HETATM   18  C   UNL     1      -9.960   9.488  66.420  1.00  0.00    -0.269 C  
BRANCH  18  19
HETATM   19  C   UNL     1      -8.687   9.122  65.698  1.00  0.00    -0.203 A  
HETATM   20  C   UNL     1      -7.925  10.081  65.019  1.00  0.00    -0.143 A  
HETATM   21  C   UNL     1      -6.809   9.688  64.289  1.00  0.00    -0.112 A  
HETATM   22  F   UNL     1      -6.091  10.610  63.637  1.00  0.00    -0.141 F  
HETATM   23  C   UNL     1      -6.437   8.351  64.209  1.00  0.00    -0.067 A  
HETATM   24  C   UNL     1      -7.191   7.387  64.874  1.00  0.00    -0.067 A  
HETATM   25  C   UNL     1      -8.314   7.770  65.611  1.00  0.00    -0.143 A  
ENDBRANCH  18  19
ENDBRANCH  17  18
ENDBRANCH  14  17
ENDBRANCH  10  11
ENDBRANCH   8  10
ENDBRANCH   2   8
TORSDOF 7
ENDMDL
MODEL      188
REMARK 921   NORMALIZED FREE ENERGY PREDICTED BY IDOCK:   -3.87 KCAL/MOL
REMARK 922        TOTAL FREE ENERGY PREDICTED BY IDOCK:   -6.25 KCAL/MOL
REMARK 923 INTER-LIGAND FREE ENERGY PREDICTED BY IDOCK:   -5.38 KCAL/MOL
REMARK 924 INTRA-LIGAND FREE ENERGY PREDICTED BY IDOCK:   -0.87 KCAL/MOL
REMARK 927      BINDING AFFINITY PREDICTED BY RF-SCORE:    0.00 PKD
ROOT
HETATM    1  C   UNL     1     -12.127  13.027  66.112  1.00  0.00    -0.473 C  
HETATM    2  C   UNL     1     -11.049  13.711  66.951  1.00  0.00    -0.304 C  
ENDROOT
BRANCH   2   3
HETATM    3  C   UNL     1     -11.693  14.374  68.193  1.00  0.00    -0.342 C  
HETATM    4  H2  UNL     1     -11.969  12.482  69.072  1.00  0.00     0.000 HD 
HETATM    5  H1  UNL     1     -12.513  13.928  69.979  1.00  0.00     0.000 HD 
HETATM    6  O   UNL     1     -11.858  15.581  68.337  1.00  0.00    -0.351 OA 
HETATM    7  N   UNL     1     -12.089  13.491  69.161  1.00  0.00    -0.320 N  
ENDBRANCH   2   3
BRANCH   2   8
HETATM    8  N   UNL     1     -10.000  12.790  67.443  1.00  0.00    -0.210 NA 
HETATM    9  H   UNL     1     -10.304  12.318  68.294  1.00  0.00     0.000 HD 
BRANCH   8  10
HETATM   10  C   UNL     1      -9.560  11.819  66.441  1.00  0.00    -0.218 C  
BRANCH  10  11
HETATM   11  C   UNL     1      -9.835  10.407  66.906  1.00  0.00    -0.236 A  
HETATM   12  C   UNL     1     -10.206  10.172  68.238  1.00  0.00    -0.192 A  
HETATM   13  C   UNL     1     -10.467   8.880  68.688  1.00  0.00    -0.223 A  
HETATM   14  C   UNL     1     -10.412   7.805  67.804  1.00  0.00    -0.211 A  
HETATM   15  C   UNL     1      -9.752   9.318  66.028  1.00  0.00    -0.359 A  
HETATM   16  C   UNL     1     -10.036   8.025  66.478  1.00  0.00    -0.270 A  
BRANCH  14  17
HETATM   17  O   UNL     1     -10.709   6.509  68.136  1.00  0.00    -0.225 OA 
BRANCH  17  18
HETATM   18  C   UNL     1      -9.583   5.729  68.546  1.00  0.00    -0.126 C  
BRANCH  18  19
HETATM   19  C   UNL     1      -9.529   5.576  70.046  1.00  0.00    -0.205 A  
HETATM   20  C   UNL     1     -10.648   5.172  70.785  1.00  0.00    -0.205 A  
HETATM   21  C   UNL     1     -10.584   5.132  72.172  1.00  0.00    -0.211 A  
HETATM   22  F   UNL     1     -11.661   4.752  72.871  1.00  0.00    -0.306 F  
HETATM   23  C   UNL     1      -9.426   5.499  72.849  1.00  0.00    -0.150 A  
HETATM   24  C   UNL     1      -8.308   5.910  72.126  1.00  0.00    -0.118 A  
HETATM   25  C   UNL     1      -8.361   5.952  70.731  1.00  0.00    -0.125 A  
ENDBRANCH  18  19
ENDBRANCH  17  18
ENDBRANCH  14  17
ENDBRANCH  10  11
ENDBRANCH   8  10
ENDBRANCH   2   8
TORSDOF 7
ENDMDL
MODEL      189
REMARK 921   NORMALIZED FREE ENERGY PREDICTED BY IDOCK:   -3.87 KCAL/MOL
REMARK 922        TOTAL FREE ENERGY PREDICTED BY IDOCK:   -6.25 KCAL/MOL
REMARK 923 INTER-LIGAND FREE ENERGY PREDICTED BY IDOCK:   -5.50 KCAL/MOL
REMARK 924 INTRA-LIGAND FREE ENERGY PREDICTED BY IDOCK:   -0.75 KCAL/MOL
REMARK 927      BINDING AFFINITY PREDICTED BY RF-SCORE:    0.00 PKD
ROOT
HETATM    1  C   UNL     1     -10.732  11.824  64.707  1.00  0.00    -0.355 C  
HETATM    2  C   UNL     1     -10.322  12.749  65.851  1.00  0.00    -0.283 C  
ENDROOT
BRANCH   2   3
HETATM    3  C   UNL     1     -11.180  12.446  67.104  1.00  0.00    -0.298 C  
HETATM    4  H2  UNL     1     -10.463  14.195  68.029  1.00  0.00     0.000 HD 
HETATM    5  H1  UNL     1     -11.628  13.174  68.929  1.00  0.00     0.000 HD 
HETATM    6  O   UNL     1     -11.911  11.470  67.233  1.00  0.00    -0.605 OA 
HETATM    7  N   UNL     1     -11.064  13.374  68.103  1.00  0.00    -0.247 N  
ENDBRANCH   2   3
BRANCH   2   8
HETATM    8  N   UNL     1      -8.903  12.613  66.251  1.00  0.00    -0.428 NA 
HETATM    9  H   UNL     1      -8.794  12.771  67.252  1.00  0.00     0.000 HD 
BRANCH   8  10
HETATM   10  C   UNL     1      -8.307  11.336  65.858  1.00  0.00    -0.023 C  
BRANCH  10  11
HETATM   11  C   UNL     1      -8.076  10.459  67.067  1.00  0.00    -0.116 A  
HETATM   12  C   UNL     1      -7.931   9.073  66.905  1.00  0.00    -0.105 A  
HETATM   13  C   UNL     1      -7.715   8.245  68.004  1.00  0.00    -0.107 A  
HETATM   14  C   UNL     1      -7.589   8.792  69.279  1.00  0.00    -0.093 A  
HETATM   15  C   UNL     1      -7.979  11.000  68.356  1.00  0.00    -0.131 A  
HETATM   16  C   UNL     1      -7.740  10.168  69.455  1.00  0.00    -0.138 A  
BRANCH  14  17
HETATM   17  O   UNL     1      -7.317   8.069  70.411  1.00  0.00    -0.061 OA 
BRANCH  17  18
HETATM   18  C   UNL     1      -8.071   8.461  71.561  1.00  0.00    -0.137 C  
BRANCH  18  19
HETATM   19  C   UNL     1      -9.470   7.898  71.527  1.00  0.00    -0.184 A  
HETATM   20  C   UNL     1      -9.907   7.077  70.481  1.00  0.00    -0.184 A  
HETATM   21  C   UNL     1     -11.230   6.653  70.439  1.00  0.00    -0.344 A  
HETATM   22  F   UNL     1     -11.641   5.874  69.431  1.00  0.00    -0.443 F  
HETATM   23  C   UNL     1     -12.139   7.040  71.417  1.00  0.00    -0.396 A  
HETATM   24  C   UNL     1     -11.718   7.863  72.460  1.00  0.00    -0.423 A  
HETATM   25  C   UNL     1     -10.391   8.293  72.512  1.00  0.00    -0.401 A  
ENDBRANCH  18  19
ENDBRANCH  17  18
ENDBRANCH  14  17
ENDBRANCH  10  11
ENDBRANCH   8  10
ENDBRANCH   2   8
TORSDOF 7
ENDMDL
MODEL      190
REMARK 921   NORMALIZED FREE ENERGY PREDICTED BY IDOCK:   -3.87 KCAL/MOL
REMARK 922        TOTAL FREE ENERGY PREDICTED BY IDOCK:   -6.25 KCAL/MOL
REMARK 923 INTER-LIGAND FREE ENERGY PREDICTED BY IDOCK:   -5.54 KCAL/MOL
REMARK 924 INTRA-LIGAND FREE ENERGY PREDICTED BY IDOCK:   -0.71 KCAL/MOL
REMARK 927      BINDING AFFINITY PREDICTED BY RF-SCORE:    0.00 PKD
ROOT
HETATM    1  C   UNL     1     -10.035  20.811  67.916  1.00  0.00    -0.147 C  
HETATM    2  C   UNL     1      -9.321  19.786  67.037  1.00  0.00    -0.355 C  
ENDROOT
BRANCH   2   3
HETATM    3  C   UNL     1     -10.297  19.244  65.964  1.00  0.00    -0.475 C  
HETATM    4  H2  UNL     1     -11.030  21.190  65.636  1.00  0.00     0.000 HD 
HETATM    5  H1  UNL     1     -11.727  19.846  64.677  1.00  0.00     0.000 HD 
HETATM    6  O   UNL     1     -10.395  18.067  65.635  1.00  0.00    -0.611 OA 
HETATM    7  N   UNL     1     -11.083  20.203  65.384  1.00  0.00     0.052 N  
ENDBRANCH   2   3
BRANCH   2   8
HETATM    8  N   UNL     1      -8.144  20.328  66.321  1.00  0.00    -0.520 NA 
HETATM    9  H   UNL     1      -8.167  21.347  66.309  1.00  0.00     0.000 HD 
BRANCH   8  10
HETATM   10  C   UNL     1      -6.868  19.844  66.848  1.00  0.00    -0.212 C  
BRANCH  10  11
HETATM   11  C   UNL     1      -6.973  18.393  67.257  1.00  0.00    -0.208 A  
HETATM   12  C   UNL     1      -7.061  18.055  68.615  1.00  0.00    -0.269 A  
HETATM   13  C   UNL     1      -7.161  16.725  69.015  1.00  0.00    -0.221 A  
HETATM   14  C   UNL     1      -7.227  15.710  68.062  1.00  0.00    -0.129 A  
HETATM   15  C   UNL     1      -7.009  17.365  66.304  1.00  0.00    -0.319 A  
HETATM   16  C   UNL     1      -7.132  16.032  66.707  1.00  0.00    -0.091 A  
BRANCH  14  17
HETATM   17  O   UNL     1      -7.386  14.380  68.353  1.00  0.00    -0.101 OA 
BRANCH  17  18
HETATM   18  C   UNL     1      -8.079  13.632  67.350  1.00  0.00    -0.175 C  
BRANCH  18  19
HETATM   19  C   UNL     1      -9.575  13.740  67.510  1.00  0.00    -0.219 A  
HETATM   20  C   UNL     1     -10.277  12.934  68.415  1.00  0.00    -0.238 A  
HETATM   21  C   UNL     1     -11.664  12.998  68.468  1.00  0.00    -0.342 A  
HETATM   22  F   UNL     1     -12.328  12.220  69.330  1.00  0.00    -0.262 F  
HETATM   23  C   UNL     1     -12.376  13.845  67.624  1.00  0.00    -0.069 A  
HETATM   24  C   UNL     1     -11.689  14.646  66.715  1.00  0.00    -0.355 A  
HETATM   25  C   UNL     1     -10.296  14.590  66.655  1.00  0.00    -0.274 A  
ENDBRANCH  18  19
ENDBRANCH  17  18
ENDBRANCH  14  17
ENDBRANCH  10  11
ENDBRANCH   8  10
ENDBRANCH   2   8
TORSDOF 7
ENDMDL
MODEL      191
REMARK 921   NORMALIZED FREE ENERGY PREDICTED BY IDOCK:   -3.87 KCAL/MOL
REMARK 922        TOTAL FREE ENERGY PREDICTED BY IDOCK:   -6.24 KCAL/MOL
REMARK 923 INTER-LIGAND FREE ENERGY PREDICTED BY IDOCK:   -5.44 KCAL/MOL
REMARK 924 INTRA-LIGAND FREE ENERGY PREDICTED BY IDOCK:   -0.80 KCAL/MOL
REMARK 927      BINDING AFFINITY PREDICTED BY RF-SCORE:    0.00 PKD
ROOT
HETATM    1  C   UNL     1     -11.539   5.314  72.929  1.00  0.00    -0.292 C  
HETATM    2  C   UNL     1     -10.050   5.345  72.590  1.00  0.00    -0.176 C  
ENDROOT
BRANCH   2   3
HETATM    3  C   UNL     1      -9.797   4.583  71.267  1.00  0.00    -0.190 C  
HETATM    4  H2  UNL     1     -11.062   5.920  70.245  1.00  0.00     0.000 HD 
HETATM    5  H1  UNL     1     -10.289   4.599  69.312  1.00  0.00     0.000 HD 
HETATM    6  O   UNL     1      -9.080   3.594  71.153  1.00  0.00    -0.093 OA 
HETATM    7  N   UNL     1     -10.456   5.101  70.185  1.00  0.00    -0.275 N  
ENDBRANCH   2   3
BRANCH   2   8
HETATM    8  N   UNL     1      -9.504   6.710  72.419  1.00  0.00    -0.149 NA 
HETATM    9  H   UNL     1      -9.234   6.872  71.449  1.00  0.00     0.000 HD 
BRANCH   8  10
HETATM   10  C   UNL     1     -10.406   7.762  72.888  1.00  0.00    -0.334 C  
BRANCH  10  11
HETATM   11  C   UNL     1     -10.574   8.833  71.835  1.00  0.00    -0.425 A  
HETATM   12  C   UNL     1      -9.534   9.091  70.929  1.00  0.00    -0.331 A  
HETATM   13  C   UNL     1      -9.668  10.070  69.949  1.00  0.00    -0.245 A  
HETATM   14  C   UNL     1     -10.862  10.777  69.822  1.00  0.00    -0.226 A  
HETATM   15  C   UNL     1     -11.762   9.568  71.721  1.00  0.00    -0.411 A  
HETATM   16  C   UNL     1     -11.901  10.536  70.721  1.00  0.00    -0.465 A  
BRANCH  14  17
HETATM   17  O   UNL     1     -11.110  11.715  68.855  1.00  0.00    -0.203 OA 
BRANCH  17  18
HETATM   18  C   UNL     1     -11.409  11.172  67.565  1.00  0.00    -0.278 C  
BRANCH  18  19
HETATM   19  C   UNL     1     -10.156  10.766  66.830  1.00  0.00    -0.267 A  
HETATM   20  C   UNL     1     -10.028   9.503  66.238  1.00  0.00    -0.344 A  
HETATM   21  C   UNL     1      -8.825   9.133  65.649  1.00  0.00    -0.185 A  
HETATM   22  F   UNL     1      -8.708   7.922  65.092  1.00  0.00    -0.157 F  
HETATM   23  C   UNL     1      -7.732   9.994  65.646  1.00  0.00    -0.136 A  
HETATM   24  C   UNL     1      -7.845  11.250  66.238  1.00  0.00    -0.069 A  
HETATM   25  C   UNL     1      -9.050  11.632  66.831  1.00  0.00    -0.188 A  
ENDBRANCH  18  19
ENDBRANCH  17  18
ENDBRANCH  14  17
ENDBRANCH  10  11
ENDBRANCH   8  10
ENDBRANCH   2   8
TORSDOF 7
ENDMDL
MODEL      192
REMARK 921   NORMALIZED FREE ENERGY PREDICTED BY IDOCK:   -3.85 KCAL/MOL
REMARK 922        TOTAL FREE ENERGY PREDICTED BY IDOCK:   -6.21 KCAL/MOL
REMARK 923 INTER-LIGAND FREE ENERGY PREDICTED BY IDOCK:   -5.43 KCAL/MOL
REMARK 924 INTRA-LIGAND FREE ENERGY PREDICTED BY IDOCK:   -0.78 KCAL/MOL
REMARK 927      BINDING AFFINITY PREDICTED BY RF-SCORE:    0.00 PKD
ROOT
HETATM    1  C   UNL     1     -11.969  12.666  66.077  1.00  0.00    -0.478 C  
HETATM    2  C   UNL     1     -10.819  13.446  66.711  1.00  0.00    -0.282 C  
ENDROOT
BRANCH   2   3
HETATM    3  C   UNL     1     -11.369  14.399  67.800  1.00  0.00    -0.312 C  
HETATM    4  H2  UNL     1     -12.104  12.752  68.884  1.00  0.00     0.000 HD 
HETATM    5  H1  UNL     1     -12.366  14.394  69.551  1.00  0.00     0.000 HD 
HETATM    6  O   UNL     1     -11.271  15.622  67.776  1.00  0.00    -0.329 OA 
HETATM    7  N   UNL     1     -12.003  13.766  68.834  1.00  0.00    -0.353 N  
ENDBRANCH   2   3
BRANCH   2   8
HETATM    8  N   UNL     1      -9.799  12.589  67.356  1.00  0.00    -0.199 NA 
HETATM    9  H   UNL     1      -9.996  12.479  68.351  1.00  0.00     0.000 HD 
BRANCH   8  10
HETATM   10  C   UNL     1      -9.642  11.285  66.712  1.00  0.00    -0.193 C  
BRANCH  10  11
HETATM   11  C   UNL     1      -9.940  10.167  67.686  1.00  0.00    -0.216 A  
HETATM   12  C   UNL     1      -9.826  10.395  69.065  1.00  0.00    -0.222 A  
HETATM   13  C   UNL     1     -10.099   9.381  69.980  1.00  0.00    -0.259 A  
HETATM   14  C   UNL     1     -10.539   8.136  69.537  1.00  0.00    -0.213 A  
HETATM   15  C   UNL     1     -10.354   8.903  67.244  1.00  0.00    -0.350 A  
HETATM   16  C   UNL     1     -10.648   7.894  68.167  1.00  0.00    -0.179 A  
BRANCH  14  17
HETATM   17  O   UNL     1     -10.889   7.098  70.359  1.00  0.00    -0.232 OA 
BRANCH  17  18
HETATM   18  C   UNL     1      -9.824   6.604  71.177  1.00  0.00    -0.181 C  
BRANCH  18  19
HETATM   19  C   UNL     1      -9.546   5.146  70.908  1.00  0.00    -0.235 A  
HETATM   20  C   UNL     1      -9.700   4.592  69.632  1.00  0.00    -0.288 A  
HETATM   21  C   UNL     1      -9.523   3.226  69.444  1.00  0.00    -0.133 A  
HETATM   22  F   UNL     1      -9.680   2.703  68.222  1.00  0.00    -0.258 F  
HETATM   23  C   UNL     1      -9.204   2.390  70.509  1.00  0.00    -0.194 A  
HETATM   24  C   UNL     1      -9.055   2.929  71.785  1.00  0.00    -0.157 A  
HETATM   25  C   UNL     1      -9.230   4.300  71.984  1.00  0.00    -0.169 A  
ENDBRANCH  18  19
ENDBRANCH  17  18
ENDBRANCH  14  17
ENDBRANCH  10  11
ENDBRANCH   8  10
ENDBRANCH   2   8
TORSDOF 7
ENDMDL
MODEL      193
REMARK 921   NORMALIZED FREE ENERGY PREDICTED BY IDOCK:   -3.84 KCAL/MOL
REMARK 922        TOTAL FREE ENERGY PREDICTED BY IDOCK:   -6.21 KCAL/MOL
REMARK 923 INTER-LIGAND FREE ENERGY PREDICTED BY IDOCK:   -5.29 KCAL/MOL
REMARK 924 INTRA-LIGAND FREE ENERGY PREDICTED BY IDOCK:   -0.92 KCAL/MOL
REMARK 927      BINDING AFFINITY PREDICTED BY RF-SCORE:    0.00 PKD
ROOT
HETATM    1  C   UNL     1      -9.978   9.618  66.072  1.00  0.00    -0.344 C  
HETATM    2  C   UNL     1     -10.495  10.831  66.843  1.00  0.00    -0.252 C  
ENDROOT
BRANCH   2   3
HETATM    3  C   UNL     1     -11.102  11.859  65.858  1.00  0.00    -0.316 C  
HETATM    4  H2  UNL     1     -12.197  12.732  67.430  1.00  0.00     0.000 HD 
HETATM    5  H1  UNL     1     -12.371  13.424  65.786  1.00  0.00     0.000 HD 
HETATM    6  O   UNL     1     -10.858  11.909  64.657  1.00  0.00    -0.287 OA 
HETATM    7  N   UNL     1     -11.970  12.747  66.435  1.00  0.00    -0.407 N  
ENDBRANCH   2   3
BRANCH   2   8
HETATM    8  N   UNL     1     -11.544  10.506  67.836  1.00  0.00    -0.701 NA 
HETATM    9  H   UNL     1     -11.974   9.606  67.625  1.00  0.00     0.000 HD 
BRANCH   8  10
HETATM   10  C   UNL     1     -11.068  10.541  69.219  1.00  0.00    -0.246 C  
BRANCH  10  11
HETATM   11  C   UNL     1     -10.156   9.369  69.502  1.00  0.00    -0.214 A  
HETATM   12  C   UNL     1      -8.920   9.582  70.129  1.00  0.00    -0.269 A  
HETATM   13  C   UNL     1      -8.065   8.517  70.402  1.00  0.00    -0.108 A  
HETATM   14  C   UNL     1      -8.452   7.213  70.100  1.00  0.00    -0.139 A  
HETATM   15  C   UNL     1     -10.527   8.058  69.172  1.00  0.00    -0.217 A  
HETATM   16  C   UNL     1      -9.676   6.988  69.468  1.00  0.00    -0.160 A  
BRANCH  14  17
HETATM   17  O   UNL     1      -7.709   6.097  70.383  1.00  0.00    -0.093 OA 
BRANCH  17  18
HETATM   18  C   UNL     1      -7.494   5.866  71.778  1.00  0.00    -0.095 C  
BRANCH  18  19
HETATM   19  C   UNL     1      -8.716   5.281  72.440  1.00  0.00    -0.125 A  
HETATM   20  C   UNL     1      -9.189   4.004  72.113  1.00  0.00    -0.168 A  
HETATM   21  C   UNL     1     -10.371   3.538  72.678  1.00  0.00    -0.145 A  
HETATM   22  F   UNL     1     -10.819   2.319  72.354  1.00  0.00    -0.202 F  
HETATM   23  C   UNL     1     -11.105   4.324  73.558  1.00  0.00    -0.377 A  
HETATM   24  C   UNL     1     -10.649   5.599  73.886  1.00  0.00    -0.285 A  
HETATM   25  C   UNL     1      -9.463   6.077  73.325  1.00  0.00    -0.142 A  
ENDBRANCH  18  19
ENDBRANCH  17  18
ENDBRANCH  14  17
ENDBRANCH  10  11
ENDBRANCH   8  10
ENDBRANCH   2   8
TORSDOF 7
ENDMDL
MODEL      194
REMARK 921   NORMALIZED FREE ENERGY PREDICTED BY IDOCK:   -3.84 KCAL/MOL
REMARK 922        TOTAL FREE ENERGY PREDICTED BY IDOCK:   -6.21 KCAL/MOL
REMARK 923 INTER-LIGAND FREE ENERGY PREDICTED BY IDOCK:   -5.34 KCAL/MOL
REMARK 924 INTRA-LIGAND FREE ENERGY PREDICTED BY IDOCK:   -0.86 KCAL/MOL
REMARK 927      BINDING AFFINITY PREDICTED BY RF-SCORE:    0.00 PKD
ROOT
HETATM    1  C   UNL     1     -11.337  16.076  69.402  1.00  0.00    -0.355 C  
HETATM    2  C   UNL     1     -11.281  15.376  68.046  1.00  0.00    -0.325 C  
ENDROOT
BRANCH   2   3
HETATM    3  C   UNL     1     -10.554  16.278  67.020  1.00  0.00    -0.284 C  
HETATM    4  H2  UNL     1      -9.867  14.574  65.994  1.00  0.00     0.000 HD 
HETATM    5  H1  UNL     1      -9.406  16.187  65.366  1.00  0.00     0.000 HD 
HETATM    6  O   UNL     1     -10.549  17.505  67.044  1.00  0.00    -0.321 OA 
HETATM    7  N   UNL     1      -9.885  15.593  66.042  1.00  0.00    -0.306 N  
ENDBRANCH   2   3
BRANCH   2   8
HETATM    8  N   UNL     1     -10.566  14.080  68.071  1.00  0.00    -0.243 NA 
HETATM    9  H   UNL     1      -9.930  14.034  68.867  1.00  0.00     0.000 HD 
BRANCH   8  10
HETATM   10  C   UNL     1     -11.458  12.921  68.053  1.00  0.00    -0.319 C  
BRANCH  10  11
HETATM   11  C   UNL     1     -10.671  11.641  67.890  1.00  0.00    -0.241 A  
HETATM   12  C   UNL     1     -10.983  10.758  66.846  1.00  0.00    -0.255 A  
HETATM   13  C   UNL     1     -10.269   9.575  66.676  1.00  0.00    -0.310 A  
HETATM   14  C   UNL     1      -9.197   9.275  67.514  1.00  0.00    -0.124 A  
HETATM   15  C   UNL     1      -9.611  11.320  68.749  1.00  0.00    -0.160 A  
HETATM   16  C   UNL     1      -8.882  10.141  68.562  1.00  0.00    -0.127 A  
BRANCH  14  17
HETATM   17  O   UNL     1      -8.399   8.168  67.390  1.00  0.00    -0.120 OA 
BRANCH  17  18
HETATM   18  C   UNL     1      -9.101   6.923  67.435  1.00  0.00    -0.122 C  
BRANCH  18  19
HETATM   19  C   UNL     1      -9.543   6.585  68.837  1.00  0.00    -0.128 A  
HETATM   20  C   UNL     1     -10.887   6.660  69.222  1.00  0.00    -0.335 A  
HETATM   21  C   UNL     1     -11.242   6.430  70.546  1.00  0.00    -0.352 A  
HETATM   22  F   UNL     1     -12.528   6.511  70.907  1.00  0.00    -0.396 F  
HETATM   23  C   UNL     1     -10.280   6.136  71.507  1.00  0.00    -0.243 A  
HETATM   24  C   UNL     1      -8.939   6.066  71.138  1.00  0.00    -0.142 A  
HETATM   25  C   UNL     1      -8.572   6.294  69.810  1.00  0.00    -0.137 A  
ENDBRANCH  18  19
ENDBRANCH  17  18
ENDBRANCH  14  17
ENDBRANCH  10  11
ENDBRANCH   8  10
ENDBRANCH   2   8
TORSDOF 7
ENDMDL
MODEL      195
REMARK 921   NORMALIZED FREE ENERGY PREDICTED BY IDOCK:   -3.84 KCAL/MOL
REMARK 922        TOTAL FREE ENERGY PREDICTED BY IDOCK:   -6.20 KCAL/MOL
REMARK 923 INTER-LIGAND FREE ENERGY PREDICTED BY IDOCK:   -5.28 KCAL/MOL
REMARK 924 INTRA-LIGAND FREE ENERGY PREDICTED BY IDOCK:   -0.93 KCAL/MOL
REMARK 927      BINDING AFFINITY PREDICTED BY RF-SCORE:    0.00 PKD
ROOT
HETATM    1  C   UNL     1      -7.069   5.264  67.828  1.00  0.00    -0.067 C  
HETATM    2  C   UNL     1      -8.042   6.382  67.460  1.00  0.00    -0.117 C  
ENDROOT
BRANCH   2   3
HETATM    3  C   UNL     1      -8.928   5.936  66.271  1.00  0.00    -0.148 C  
HETATM    4  H2  UNL     1     -10.484   5.447  67.601  1.00  0.00     0.000 HD 
HETATM    5  H1  UNL     1     -10.753   5.192  65.849  1.00  0.00     0.000 HD 
HETATM    6  O   UNL     1      -8.586   5.964  65.093  1.00  0.00    -0.149 OA 
HETATM    7  N   UNL     1     -10.169   5.486  66.632  1.00  0.00    -0.210 N  
ENDBRANCH   2   3
BRANCH   2   8
HETATM    8  N   UNL     1      -8.953   6.768  68.562  1.00  0.00    -0.122 NA 
HETATM    9  H   UNL     1      -9.009   6.028  69.260  1.00  0.00     0.000 HD 
BRANCH   8  10
HETATM   10  C   UNL     1      -8.604   8.044  69.186  1.00  0.00    -0.137 C  
BRANCH  10  11
HETATM   11  C   UNL     1      -9.110   9.202  68.356  1.00  0.00    -0.132 A  
HETATM   12  C   UNL     1     -10.465   9.266  68.001  1.00  0.00    -0.275 A  
HETATM   13  C   UNL     1     -10.954  10.325  67.240  1.00  0.00    -0.277 A  
HETATM   14  C   UNL     1     -10.108  11.366  66.862  1.00  0.00    -0.214 A  
HETATM   15  C   UNL     1      -8.257  10.237  67.948  1.00  0.00    -0.109 A  
HETATM   16  C   UNL     1      -8.756  11.311  67.203  1.00  0.00    -0.151 A  
BRANCH  14  17
HETATM   17  O   UNL     1     -10.507  12.477  66.167  1.00  0.00    -0.242 OA 
BRANCH  17  18
HETATM   18  C   UNL     1     -11.819  12.942  66.493  1.00  0.00    -0.407 C  
BRANCH  18  19
HETATM   19  C   UNL     1     -11.791  13.941  67.623  1.00  0.00    -0.422 A  
HETATM   20  C   UNL     1     -11.420  15.275  67.415  1.00  0.00    -0.246 A  
HETATM   21  C   UNL     1     -11.318  16.141  68.497  1.00  0.00    -0.359 A  
HETATM   22  F   UNL     1     -10.956  17.413  68.291  1.00  0.00    -0.362 F  
HETATM   23  C   UNL     1     -11.566  15.704  69.794  1.00  0.00    -0.360 A  
HETATM   24  C   UNL     1     -11.929  14.377  70.014  1.00  0.00    -0.394 A  
HETATM   25  C   UNL     1     -12.036  13.498  68.934  1.00  0.00    -0.378 A  
ENDBRANCH  18  19
ENDBRANCH  17  18
ENDBRANCH  14  17
ENDBRANCH  10  11
ENDBRANCH   8  10
ENDBRANCH   2   8
TORSDOF 7
ENDMDL
MODEL      196
REMARK 921   NORMALIZED FREE ENERGY PREDICTED BY IDOCK:   -3.81 KCAL/MOL
REMARK 922        TOTAL FREE ENERGY PREDICTED BY IDOCK:   -6.16 KCAL/MOL
REMARK 923 INTER-LIGAND FREE ENERGY PREDICTED BY IDOCK:   -5.29 KCAL/MOL
REMARK 924 INTRA-LIGAND FREE ENERGY PREDICTED BY IDOCK:   -0.87 KCAL/MOL
REMARK 927      BINDING AFFINITY PREDICTED BY RF-SCORE:    0.00 PKD
ROOT
HETATM    1  C   UNL     1      -9.081   2.417  65.375  1.00  0.00    -0.114 C  
HETATM    2  C   UNL     1      -9.059   3.509  64.307  1.00  0.00    -0.126 C  
ENDROOT
BRANCH   2   3
HETATM    3  C   UNL     1      -9.738   2.992  63.015  1.00  0.00    -0.094 C  
HETATM    4  H2  UNL     1     -11.178   4.522  63.149  1.00  0.00     0.000 HD 
HETATM    5  H1  UNL     1     -11.283   3.373  61.778  1.00  0.00     0.000 HD 
HETATM    6  O   UNL     1      -9.361   2.024  62.363  1.00  0.00    -0.086 OA 
HETATM    7  N   UNL     1     -10.836   3.713  62.630  1.00  0.00    -0.165 N  
ENDBRANCH   2   3
BRANCH   2   8
HETATM    8  N   UNL     1      -9.764   4.748  64.705  1.00  0.00    -0.366 NA 
HETATM    9  H   UNL     1     -10.554   4.928  64.086  1.00  0.00     0.000 HD 
BRANCH   8  10
HETATM   10  C   UNL     1     -10.189   4.753  66.105  1.00  0.00    -0.281 C  
BRANCH  10  11
HETATM   11  C   UNL     1      -9.787   6.044  66.782  1.00  0.00    -0.198 A  
HETATM   12  C   UNL     1     -10.654   7.146  66.753  1.00  0.00    -0.291 A  
HETATM   13  C   UNL     1     -10.307   8.343  67.372  1.00  0.00    -0.355 A  
HETATM   14  C   UNL     1      -9.109   8.447  68.076  1.00  0.00    -0.137 A  
HETATM   15  C   UNL     1      -8.570   6.163  67.466  1.00  0.00    -0.106 A  
HETATM   16  C   UNL     1      -8.233   7.360  68.105  1.00  0.00    -0.124 A  
BRANCH  14  17
HETATM   17  O   UNL     1      -8.707   9.560  68.767  1.00  0.00    -0.124 OA 
BRANCH  17  18
HETATM   18  C   UNL     1      -9.733  10.171  69.554  1.00  0.00    -0.229 C  
BRANCH  18  19
HETATM   19  C   UNL     1     -10.110   9.315  70.737  1.00  0.00    -0.358 A  
HETATM   20  C   UNL     1     -11.448   9.093  71.086  1.00  0.00    -0.388 A  
HETATM   21  C   UNL     1     -11.753   8.374  72.236  1.00  0.00    -0.385 A  
HETATM   22  F   UNL     1     -13.034   8.172  72.567  1.00  0.00    -0.281 F  
HETATM   23  C   UNL     1     -10.749   7.878  73.061  1.00  0.00    -0.408 A  
HETATM   24  C   UNL     1      -9.414   8.100  72.728  1.00  0.00    -0.349 A  
HETATM   25  C   UNL     1      -9.097   8.819  71.574  1.00  0.00    -0.322 A  
ENDBRANCH  18  19
ENDBRANCH  17  18
ENDBRANCH  14  17
ENDBRANCH  10  11
ENDBRANCH   8  10
ENDBRANCH   2   8
TORSDOF 7
ENDMDL
MODEL      197
REMARK 921   NORMALIZED FREE ENERGY PREDICTED BY IDOCK:   -3.79 KCAL/MOL
REMARK 922        TOTAL FREE ENERGY PREDICTED BY IDOCK:   -6.14 KCAL/MOL
REMARK 923 INTER-LIGAND FREE ENERGY PREDICTED BY IDOCK:   -5.50 KCAL/MOL
REMARK 924 INTRA-LIGAND FREE ENERGY PREDICTED BY IDOCK:   -0.64 KCAL/MOL
REMARK 927      BINDING AFFINITY PREDICTED BY RF-SCORE:    0.00 PKD
ROOT
HETATM    1  C   UNL     1      -8.808   1.841  67.031  1.00  0.00    -0.144 C  
HETATM    2  C   UNL     1      -8.892   3.108  66.182  1.00  0.00    -0.141 C  
ENDROOT
BRANCH   2   3
HETATM    3  C   UNL     1      -9.084   2.730  64.694  1.00  0.00    -0.132 C  
HETATM    4  H2  UNL     1     -10.352   4.389  64.426  1.00  0.00     0.000 HD 
HETATM    5  H1  UNL     1     -10.031   3.328  63.018  1.00  0.00     0.000 HD 
HETATM    6  O   UNL     1      -8.567   1.763  64.143  1.00  0.00    -0.077 OA 
HETATM    7  N   UNL     1      -9.904   3.577  63.999  1.00  0.00    -0.161 N  
ENDBRANCH   2   3
BRANCH   2   8
HETATM    8  N   UNL     1     -10.012   4.003  66.553  1.00  0.00    -0.376 NA 
HETATM    9  H   UNL     1     -10.908   3.569  66.333  1.00  0.00     0.000 HD 
BRANCH   8  10
HETATM   10  C   UNL     1      -9.975   4.435  67.950  1.00  0.00    -0.023 C  
BRANCH  10  11
HETATM   11  C   UNL     1      -9.971   5.944  68.044  1.00  0.00    -0.161 A  
HETATM   12  C   UNL     1      -9.562   6.568  69.231  1.00  0.00    -0.143 A  
HETATM   13  C   UNL     1      -9.548   7.956  69.340  1.00  0.00    -0.160 A  
HETATM   14  C   UNL     1      -9.894   8.748  68.246  1.00  0.00    -0.165 A  
HETATM   15  C   UNL     1     -10.347   6.745  66.957  1.00  0.00    -0.338 A  
HETATM   16  C   UNL     1     -10.311   8.140  67.062  1.00  0.00    -0.403 A  
BRANCH  14  17
HETATM   17  O   UNL     1      -9.854  10.118  68.236  1.00  0.00    -0.142 OA 
BRANCH  17  18
HETATM   18  C   UNL     1     -11.004  10.749  68.806  1.00  0.00    -0.247 C  
BRANCH  18  19
HETATM   19  C   UNL     1     -11.473  11.912  67.967  1.00  0.00    -0.389 A  
HETATM   20  C   UNL     1     -11.593  11.814  66.576  1.00  0.00    -0.256 A  
HETATM   21  C   UNL     1     -11.940  12.934  65.830  1.00  0.00    -0.443 A  
HETATM   22  F   UNL     1     -12.045  12.833  64.499  1.00  0.00    -0.379 F  
HETATM   23  C   UNL     1     -12.160  14.164  66.441  1.00  0.00    -0.475 A  
HETATM   24  C   UNL     1     -12.036  14.276  67.824  1.00  0.00    -0.384 A  
HETATM   25  C   UNL     1     -11.690  13.156  68.583  1.00  0.00    -0.362 A  
ENDBRANCH  18  19
ENDBRANCH  17  18
ENDBRANCH  14  17
ENDBRANCH  10  11
ENDBRANCH   8  10
ENDBRANCH   2   8
TORSDOF 7
ENDMDL
MODEL      198
REMARK 921   NORMALIZED FREE ENERGY PREDICTED BY IDOCK:   -3.78 KCAL/MOL
REMARK 922        TOTAL FREE ENERGY PREDICTED BY IDOCK:   -6.12 KCAL/MOL
REMARK 923 INTER-LIGAND FREE ENERGY PREDICTED BY IDOCK:   -5.44 KCAL/MOL
REMARK 924 INTRA-LIGAND FREE ENERGY PREDICTED BY IDOCK:   -0.69 KCAL/MOL
REMARK 927      BINDING AFFINITY PREDICTED BY RF-SCORE:    0.00 PKD
ROOT
HETATM    1  C   UNL     1     -10.752  13.855  66.634  1.00  0.00    -0.281 C  
HETATM    2  C   UNL     1     -11.459  12.609  66.103  1.00  0.00    -0.365 C  
ENDROOT
BRANCH   2   3
HETATM    3  C   UNL     1     -12.435  13.003  64.968  1.00  0.00    -0.477 C  
HETATM    4  H2  UNL     1     -11.712  14.979  65.020  1.00  0.00     0.000 HD 
HETATM    5  H1  UNL     1     -13.001  14.577  63.842  1.00  0.00     0.000 HD 
HETATM    6  O   UNL     1     -13.228  12.239  64.427  1.00  0.00    -0.806 OA 
HETATM    7  N   UNL     1     -12.358  14.317  64.590  1.00  0.00    -0.436 N  
ENDBRANCH   2   3
BRANCH   2   8
HETATM    8  N   UNL     1     -10.540  11.588  65.553  1.00  0.00    -0.274 NA 
HETATM    9  H   UNL     1     -10.342  11.772  64.570  1.00  0.00     0.000 HD 
BRANCH   8  10
HETATM   10  C   UNL     1      -9.298  11.451  66.315  1.00  0.00    -0.212 C  
BRANCH  10  11
HETATM   11  C   UNL     1      -9.468  10.459  67.443  1.00  0.00    -0.170 A  
HETATM   12  C   UNL     1      -8.874  10.710  68.688  1.00  0.00    -0.151 A  
HETATM   13  C   UNL     1      -9.020   9.812  69.742  1.00  0.00    -0.239 A  
HETATM   14  C   UNL     1      -9.804   8.671  69.588  1.00  0.00    -0.186 A  
HETATM   15  C   UNL     1     -10.231   9.294  67.284  1.00  0.00    -0.315 A  
HETATM   16  C   UNL     1     -10.394   8.405  68.351  1.00  0.00    -0.239 A  
BRANCH  14  17
HETATM   17  O   UNL     1     -10.056   7.761  70.581  1.00  0.00    -0.190 OA 
BRANCH  17  18
HETATM   18  C   UNL     1      -9.015   7.642  71.554  1.00  0.00    -0.131 C  
BRANCH  18  19
HETATM   19  C   UNL     1      -8.764   6.203  71.927  1.00  0.00    -0.137 A  
HETATM   20  C   UNL     1      -9.692   5.195  71.636  1.00  0.00    -0.217 A  
HETATM   21  C   UNL     1      -9.466   3.897  72.077  1.00  0.00    -0.136 A  
HETATM   22  F   UNL     1     -10.362   2.942  71.801  1.00  0.00    -0.218 F  
HETATM   23  C   UNL     1      -8.334   3.577  72.818  1.00  0.00    -0.082 A  
HETATM   24  C   UNL     1      -7.407   4.572  73.121  1.00  0.00    -0.081 A  
HETATM   25  C   UNL     1      -7.623   5.879  72.681  1.00  0.00    -0.097 A  
ENDBRANCH  18  19
ENDBRANCH  17  18
ENDBRANCH  14  17
ENDBRANCH  10  11
ENDBRANCH   8  10
ENDBRANCH   2   8
TORSDOF 7
ENDMDL
MODEL      199
REMARK 921   NORMALIZED FREE ENERGY PREDICTED BY IDOCK:   -3.78 KCAL/MOL
REMARK 922        TOTAL FREE ENERGY PREDICTED BY IDOCK:   -6.11 KCAL/MOL
REMARK 923 INTER-LIGAND FREE ENERGY PREDICTED BY IDOCK:   -5.04 KCAL/MOL
REMARK 924 INTRA-LIGAND FREE ENERGY PREDICTED BY IDOCK:   -1.07 KCAL/MOL
REMARK 927      BINDING AFFINITY PREDICTED BY RF-SCORE:    0.00 PKD
ROOT
HETATM    1  C   UNL     1     -10.913  13.980  68.418  1.00  0.00    -0.269 C  
HETATM    2  C   UNL     1     -11.906  13.179  67.578  1.00  0.00    -0.360 C  
ENDROOT
BRANCH   2   3
HETATM    3  C   UNL     1     -11.392  13.071  66.121  1.00  0.00    -0.314 C  
HETATM    4  H2  UNL     1     -10.663  11.135  66.514  1.00  0.00     0.000 HD 
HETATM    5  H1  UNL     1     -10.436  11.812  64.870  1.00  0.00     0.000 HD 
HETATM    6  O   UNL     1     -11.503  13.948  65.271  1.00  0.00    -0.303 OA 
HETATM    7  N   UNL     1     -10.775  11.884  65.830  1.00  0.00    -0.274 N  
ENDBRANCH   2   3
BRANCH   2   8
HETATM    8  N   UNL     1     -12.127  11.800  68.067  1.00  0.00    -0.542 NA 
HETATM    9  H   UNL     1     -11.645  11.125  67.474  1.00  0.00     0.000 HD 
BRANCH   8  10
HETATM   10  C   UNL     1     -11.759  11.613  69.470  1.00  0.00    -0.344 C  
BRANCH  10  11
HETATM   11  C   UNL     1     -10.894  10.385  69.638  1.00  0.00    -0.320 A  
HETATM   12  C   UNL     1     -11.381   9.280  70.351  1.00  0.00    -0.283 A  
HETATM   13  C   UNL     1     -10.603   8.137  70.516  1.00  0.00    -0.228 A  
HETATM   14  C   UNL     1      -9.342   8.057  69.928  1.00  0.00    -0.156 A  
HETATM   15  C   UNL     1      -9.613  10.310  69.075  1.00  0.00    -0.210 A  
HETATM   16  C   UNL     1      -8.842   9.153  69.223  1.00  0.00    -0.144 A  
BRANCH  14  17
HETATM   17  O   UNL     1      -8.528   6.956  69.983  1.00  0.00    -0.136 OA 
BRANCH  17  18
HETATM   18  C   UNL     1      -9.206   5.709  69.812  1.00  0.00    -0.138 C  
BRANCH  18  19
HETATM   19  C   UNL     1      -9.380   5.366  68.353  1.00  0.00    -0.138 A  
HETATM   20  C   UNL     1      -8.295   4.986  67.553  1.00  0.00    -0.105 A  
HETATM   21  C   UNL     1      -8.481   4.768  66.193  1.00  0.00    -0.114 A  
HETATM   22  F   UNL     1      -7.437   4.412  65.434  1.00  0.00    -0.074 F  
HETATM   23  C   UNL     1      -9.729   4.932  65.603  1.00  0.00    -0.161 A  
HETATM   24  C   UNL     1     -10.815   5.317  66.387  1.00  0.00    -0.198 A  
HETATM   25  C   UNL     1     -10.640   5.538  67.754  1.00  0.00    -0.229 A  
ENDBRANCH  18  19
ENDBRANCH  17  18
ENDBRANCH  14  17
ENDBRANCH  10  11
ENDBRANCH   8  10
ENDBRANCH   2   8
TORSDOF 7
ENDMDL
MODEL      200
REMARK 921   NORMALIZED FREE ENERGY PREDICTED BY IDOCK:   -3.76 KCAL/MOL
REMARK 922        TOTAL FREE ENERGY PREDICTED BY IDOCK:   -6.09 KCAL/MOL
REMARK 923 INTER-LIGAND FREE ENERGY PREDICTED BY IDOCK:   -5.53 KCAL/MOL
REMARK 924 INTRA-LIGAND FREE ENERGY PREDICTED BY IDOCK:   -0.56 KCAL/MOL
REMARK 927      BINDING AFFINITY PREDICTED BY RF-SCORE:    0.00 PKD
ROOT
HETATM    1  C   UNL     1      -9.502   3.120  68.473  1.00  0.00    -0.207 C  
HETATM    2  C   UNL     1      -9.320   4.351  67.587  1.00  0.00    -0.154 C  
ENDROOT
BRANCH   2   3
HETATM    3  C   UNL     1      -9.064   3.912  66.125  1.00  0.00    -0.146 C  
HETATM    4  H2  UNL     1     -10.819   4.900  65.512  1.00  0.00     0.000 HD 
HETATM    5  H1  UNL     1      -9.845   4.050  64.272  1.00  0.00     0.000 HD 
HETATM    6  O   UNL     1      -8.111   3.236  65.752  1.00  0.00    -0.091 OA 
HETATM    7  N   UNL     1     -10.012   4.339  65.236  1.00  0.00    -0.209 N  
ENDBRANCH   2   3
BRANCH   2   8
HETATM    8  N   UNL     1     -10.491   5.256  67.573  1.00  0.00    -0.165 NA 
HETATM    9  H   UNL     1     -11.321   4.767  67.239  1.00  0.00     0.000 HD 
BRANCH   8  10
HETATM   10  C   UNL     1     -10.750   5.895  68.864  1.00  0.00    -0.300 C  
BRANCH  10  11
HETATM   11  C   UNL     1     -10.694   7.400  68.737  1.00  0.00    -0.145 A  
HETATM   12  C   UNL     1     -10.866   8.203  69.875  1.00  0.00    -0.215 A  
HETATM   13  C   UNL     1     -10.815   9.591  69.783  1.00  0.00    -0.264 A  
HETATM   14  C   UNL     1     -10.542  10.203  68.561  1.00  0.00    -0.216 A  
HETATM   15  C   UNL     1     -10.449   8.022  67.505  1.00  0.00    -0.331 A  
HETATM   16  C   UNL     1     -10.377   9.416  67.420  1.00  0.00    -0.325 A  
BRANCH  14  17
HETATM   17  O   UNL     1     -10.413  11.555  68.381  1.00  0.00    -0.191 OA 
BRANCH  17  18
HETATM   18  C   UNL     1     -11.653  12.260  68.273  1.00  0.00    -0.331 C  
BRANCH  18  19
HETATM   19  C   UNL     1     -11.548  13.658  68.828  1.00  0.00    -0.359 A  
HETATM   20  C   UNL     1     -10.733  14.627  68.230  1.00  0.00    -0.240 A  
HETATM   21  C   UNL     1     -10.592  15.876  68.824  1.00  0.00    -0.245 A  
HETATM   22  F   UNL     1      -9.805  16.794  68.250  1.00  0.00    -0.230 F  
HETATM   23  C   UNL     1     -11.240  16.181  70.016  1.00  0.00    -0.359 A  
HETATM   24  C   UNL     1     -12.048  15.223  70.624  1.00  0.00    -0.399 A  
HETATM   25  C   UNL     1     -12.197  13.966  70.035  1.00  0.00    -0.408 A  
ENDBRANCH  18  19
ENDBRANCH  17  18
ENDBRANCH  14  17
ENDBRANCH  10  11
ENDBRANCH   8  10
ENDBRANCH   2   8
TORSDOF 7
ENDMDL
MODEL      201
REMARK 921   NORMALIZED FREE ENERGY PREDICTED BY IDOCK:   -3.75 KCAL/MOL
REMARK 922        TOTAL FREE ENERGY PREDICTED BY IDOCK:   -6.08 KCAL/MOL
REMARK 923 INTER-LIGAND FREE ENERGY PREDICTED BY IDOCK:   -5.25 KCAL/MOL
REMARK 924 INTRA-LIGAND FREE ENERGY PREDICTED BY IDOCK:   -0.83 KCAL/MOL
REMARK 927      BINDING AFFINITY PREDICTED BY RF-SCORE:    0.00 PKD
ROOT
HETATM    1  C   UNL     1      -7.064   3.946  68.295  1.00  0.00    -0.051 C  
HETATM    2  C   UNL     1      -8.488   3.468  68.576  1.00  0.00    -0.083 C  
ENDROOT
BRANCH   2   3
HETATM    3  C   UNL     1      -9.013   4.120  69.878  1.00  0.00    -0.099 C  
HETATM    4  H2  UNL     1      -7.036   4.447  70.522  1.00  0.00     0.000 HD 
HETATM    5  H1  UNL     1      -8.375   4.978  71.587  1.00  0.00     0.000 HD 
HETATM    6  O   UNL     1     -10.197   4.259  70.165  1.00  0.00    -0.125 OA 
HETATM    7  N   UNL     1      -8.030   4.549  70.728  1.00  0.00    -0.067 N  
ENDBRANCH   2   3
BRANCH   2   8
HETATM    8  N   UNL     1      -9.452   3.799  67.503  1.00  0.00    -0.197 NA 
HETATM    9  H   UNL     1     -10.286   4.240  67.890  1.00  0.00     0.000 HD 
BRANCH   8  10
HETATM   10  C   UNL     1      -8.879   4.619  66.436  1.00  0.00    -0.112 C  
BRANCH  10  11
HETATM   11  C   UNL     1      -9.350   6.051  66.549  1.00  0.00    -0.166 A  
HETATM   12  C   UNL     1     -10.566   6.337  67.187  1.00  0.00    -0.380 A  
HETATM   13  C   UNL     1     -11.019   7.648  67.306  1.00  0.00    -0.122 A  
HETATM   14  C   UNL     1     -10.240   8.704  66.835  1.00  0.00    -0.296 A  
HETATM   15  C   UNL     1      -8.585   7.115  66.050  1.00  0.00    -0.158 A  
HETATM   16  C   UNL     1      -9.032   8.432  66.191  1.00  0.00    -0.218 A  
BRANCH  14  17
HETATM   17  O   UNL     1     -10.570  10.028  66.958  1.00  0.00    -0.240 OA 
BRANCH  17  18
HETATM   18  C   UNL     1      -9.750  10.917  66.195  1.00  0.00    -0.210 C  
BRANCH  18  19
HETATM   19  C   UNL     1     -10.578  11.920  65.432  1.00  0.00    -0.315 A  
HETATM   20  C   UNL     1     -11.396  12.849  66.087  1.00  0.00    -0.356 A  
HETATM   21  C   UNL     1     -12.213  13.695  65.346  1.00  0.00    -0.444 A  
HETATM   22  F   UNL     1     -12.997  14.575  65.981  1.00  0.00    -0.378 F  
HETATM   23  C   UNL     1     -12.244  13.630  63.958  1.00  0.00    -0.443 A  
HETATM   24  C   UNL     1     -11.441  12.705  63.295  1.00  0.00    -0.368 A  
HETATM   25  C   UNL     1     -10.615  11.851  64.029  1.00  0.00    -0.422 A  
ENDBRANCH  18  19
ENDBRANCH  17  18
ENDBRANCH  14  17
ENDBRANCH  10  11
ENDBRANCH   8  10
ENDBRANCH   2   8
TORSDOF 7
ENDMDL
MODEL      202
REMARK 921   NORMALIZED FREE ENERGY PREDICTED BY IDOCK:   -3.75 KCAL/MOL
REMARK 922        TOTAL FREE ENERGY PREDICTED BY IDOCK:   -6.07 KCAL/MOL
REMARK 923 INTER-LIGAND FREE ENERGY PREDICTED BY IDOCK:   -5.00 KCAL/MOL
REMARK 924 INTRA-LIGAND FREE ENERGY PREDICTED BY IDOCK:   -1.07 KCAL/MOL
REMARK 927      BINDING AFFINITY PREDICTED BY RF-SCORE:    0.00 PKD
ROOT
HETATM    1  C   UNL     1     -13.182  11.971  71.951  1.00  0.00    -0.469 C  
HETATM    2  C   UNL     1     -13.005  11.563  70.490  1.00  0.00     0.119 C  
ENDROOT
BRANCH   2   3
HETATM    3  C   UNL     1     -11.878  12.404  69.843  1.00  0.00    -0.305 C  
HETATM    4  H2  UNL     1     -12.633  14.140  70.762  1.00  0.00     0.000 HD 
HETATM    5  H1  UNL     1     -11.178  14.290  69.729  1.00  0.00     0.000 HD 
HETATM    6  O   UNL     1     -11.004  11.958  69.106  1.00  0.00    -0.234 OA 
HETATM    7  N   UNL     1     -11.920  13.736  70.155  1.00  0.00    -0.325 N  
ENDBRANCH   2   3
BRANCH   2   8
HETATM    8  N   UNL     1     -12.646  10.138  70.306  1.00  0.00    -0.530 NA 
HETATM    9  H   UNL     1     -11.702  10.049  69.933  1.00  0.00     0.000 HD 
BRANCH   8  10
HETATM   10  C   UNL     1     -12.803   9.337  71.520  1.00  0.00    -0.354 C  
BRANCH  10  11
HETATM   11  C   UNL     1     -11.477   8.752  71.951  1.00  0.00    -0.428 A  
HETATM   12  C   UNL     1     -11.447   7.687  72.863  1.00  0.00    -0.342 A  
HETATM   13  C   UNL     1     -10.238   7.131  73.271  1.00  0.00    -0.342 A  
HETATM   14  C   UNL     1      -9.037   7.594  72.737  1.00  0.00    -0.165 A  
HETATM   15  C   UNL     1     -10.264   9.234  71.439  1.00  0.00    -0.371 A  
HETATM   16  C   UNL     1      -9.052   8.658  71.834  1.00  0.00    -0.326 A  
BRANCH  14  17
HETATM   17  O   UNL     1      -7.805   7.072  73.030  1.00  0.00    -0.093 OA 
BRANCH  17  18
HETATM   18  C   UNL     1      -7.688   5.664  72.807  1.00  0.00    -0.098 C  
BRANCH  18  19
HETATM   19  C   UNL     1      -7.724   5.329  71.337  1.00  0.00    -0.106 A  
HETATM   20  C   UNL     1      -8.818   4.673  70.759  1.00  0.00    -0.155 A  
HETATM   21  C   UNL     1      -8.774   4.300  69.421  1.00  0.00    -0.087 A  
HETATM   22  F   UNL     1      -9.821   3.667  68.878  1.00  0.00    -0.234 F  
HETATM   23  C   UNL     1      -7.651   4.556  68.640  1.00  0.00    -0.064 A  
HETATM   24  C   UNL     1      -6.554   5.201  69.206  1.00  0.00    -0.047 A  
HETATM   25  C   UNL     1      -6.588   5.581  70.549  1.00  0.00    -0.040 A  
ENDBRANCH  18  19
ENDBRANCH  17  18
ENDBRANCH  14  17
ENDBRANCH  10  11
ENDBRANCH   8  10
ENDBRANCH   2   8
TORSDOF 7
ENDMDL
MODEL      203
REMARK 921   NORMALIZED FREE ENERGY PREDICTED BY IDOCK:   -3.74 KCAL/MOL
REMARK 922        TOTAL FREE ENERGY PREDICTED BY IDOCK:   -6.07 KCAL/MOL
REMARK 923 INTER-LIGAND FREE ENERGY PREDICTED BY IDOCK:   -5.40 KCAL/MOL
REMARK 924 INTRA-LIGAND FREE ENERGY PREDICTED BY IDOCK:   -0.66 KCAL/MOL
REMARK 927      BINDING AFFINITY PREDICTED BY RF-SCORE:    0.00 PKD
ROOT
HETATM    1  C   UNL     1     -10.042   5.725  74.255  1.00  0.00    -0.283 C  
HETATM    2  C   UNL     1      -9.668   5.531  72.786  1.00  0.00    -0.149 C  
ENDROOT
BRANCH   2   3
HETATM    3  C   UNL     1      -8.845   4.230  72.622  1.00  0.00    -0.104 C  
HETATM    4  H2  UNL     1      -7.165   5.175  73.467  1.00  0.00     0.000 HD 
HETATM    5  H1  UNL     1      -7.011   3.465  72.955  1.00  0.00     0.000 HD 
HETATM    6  O   UNL     1      -9.272   3.186  72.140  1.00  0.00    -0.097 OA 
HETATM    7  N   UNL     1      -7.553   4.322  73.064  1.00  0.00    -0.079 N  
ENDBRANCH   2   3
BRANCH   2   8
HETATM    8  N   UNL     1     -10.835   5.427  71.881  1.00  0.00    -0.217 NA 
HETATM    9  H   UNL     1     -11.299   4.526  71.992  1.00  0.00     0.000 HD 
BRANCH   8  10
HETATM   10  C   UNL     1     -11.790   6.524  72.033  1.00  0.00    -0.329 C  
BRANCH  10  11
HETATM   11  C   UNL     1     -11.428   7.679  71.126  1.00  0.00    -0.296 A  
HETATM   12  C   UNL     1     -10.857   7.427  69.870  1.00  0.00    -0.259 A  
HETATM   13  C   UNL     1     -10.518   8.473  69.017  1.00  0.00    -0.216 A  
HETATM   14  C   UNL     1     -10.791   9.791  69.382  1.00  0.00    -0.232 A  
HETATM   15  C   UNL     1     -11.672   9.007  71.500  1.00  0.00    -0.415 A  
HETATM   16  C   UNL     1     -11.351  10.056  70.632  1.00  0.00    -0.425 A  
BRANCH  14  17
HETATM   17  O   UNL     1     -10.550  10.882  68.588  1.00  0.00    -0.174 OA 
BRANCH  17  18
HETATM   18  C   UNL     1     -11.303  12.047  68.938  1.00  0.00    -0.278 C  
BRANCH  18  19
HETATM   19  C   UNL     1     -10.642  13.307  68.436  1.00  0.00    -0.263 A  
HETATM   20  C   UNL     1     -11.246  14.562  68.583  1.00  0.00    -0.281 A  
HETATM   21  C   UNL     1     -10.649  15.686  68.026  1.00  0.00    -0.271 A  
HETATM   22  F   UNL     1     -11.236  16.881  68.165  1.00  0.00    -0.365 F  
HETATM   23  C   UNL     1      -9.461  15.589  67.309  1.00  0.00    -0.218 A  
HETATM   24  C   UNL     1      -8.855  14.344  67.150  1.00  0.00    -0.244 A  
HETATM   25  C   UNL     1      -9.445  13.208  67.706  1.00  0.00    -0.209 A  
ENDBRANCH  18  19
ENDBRANCH  17  18
ENDBRANCH  14  17
ENDBRANCH  10  11
ENDBRANCH   8  10
ENDBRANCH   2   8
TORSDOF 7
ENDMDL
MODEL      204
REMARK 921   NORMALIZED FREE ENERGY PREDICTED BY IDOCK:   -3.70 KCAL/MOL
REMARK 922        TOTAL FREE ENERGY PREDICTED BY IDOCK:   -6.01 KCAL/MOL
REMARK 923 INTER-LIGAND FREE ENERGY PREDICTED BY IDOCK:   -5.02 KCAL/MOL
REMARK 924 INTRA-LIGAND FREE ENERGY PREDICTED BY IDOCK:   -0.99 KCAL/MOL
REMARK 927      BINDING AFFINITY PREDICTED BY RF-SCORE:    0.00 PKD
ROOT
HETATM    1  C   UNL     1      -9.864  13.726  66.335  1.00  0.00    -0.305 C  
HETATM    2  C   UNL     1      -9.605  14.523  67.612  1.00  0.00    -0.214 C  
ENDROOT
BRANCH   2   3
HETATM    3  C   UNL     1     -10.895  15.266  68.036  1.00  0.00    -0.288 C  
HETATM    4  H2  UNL     1     -11.772  13.439  68.606  1.00  0.00     0.000 HD 
HETATM    5  H1  UNL     1     -12.729  14.940  68.806  1.00  0.00     0.000 HD 
HETATM    6  O   UNL     1     -11.065  16.478  67.955  1.00  0.00    -0.319 OA 
HETATM    7  N   UNL     1     -11.879  14.451  68.527  1.00  0.00    -0.338 N  
ENDBRANCH   2   3
BRANCH   2   8
HETATM    8  N   UNL     1      -9.183  13.690  68.761  1.00  0.00    -0.396 NA 
HETATM    9  H   UNL     1      -9.993  13.337  69.268  1.00  0.00     0.000 HD 
BRANCH   8  10
HETATM   10  C   UNL     1      -8.286  12.596  68.389  1.00  0.00    -0.129 C  
BRANCH  10  11
HETATM   11  C   UNL     1      -8.745  11.294  69.006  1.00  0.00     0.026 A  
HETATM   12  C   UNL     1     -10.116  11.017  69.109  1.00  0.00    -0.167 A  
HETATM   13  C   UNL     1     -10.562   9.823  69.670  1.00  0.00    -0.260 A  
HETATM   14  C   UNL     1      -9.647   8.862  70.093  1.00  0.00    -0.180 A  
HETATM   15  C   UNL     1      -7.829  10.336  69.460  1.00  0.00    -0.172 A  
HETATM   16  C   UNL     1      -8.280   9.129  70.003  1.00  0.00    -0.146 A  
BRANCH  14  17
HETATM   17  O   UNL     1      -9.987   7.636  70.601  1.00  0.00    -0.183 OA 
BRANCH  17  18
HETATM   18  C   UNL     1     -11.150   7.050  70.010  1.00  0.00    -0.278 C  
BRANCH  18  19
HETATM   19  C   UNL     1     -10.797   6.198  68.816  1.00  0.00    -0.402 A  
HETATM   20  C   UNL     1     -10.124   4.978  68.957  1.00  0.00    -0.238 A  
HETATM   21  C   UNL     1      -9.736   4.267  67.827  1.00  0.00    -0.123 A  
HETATM   22  F   UNL     1      -9.087   3.106  67.971  1.00  0.00    -0.132 F  
HETATM   23  C   UNL     1      -9.995   4.752  66.550  1.00  0.00    -0.262 A  
HETATM   24  C   UNL     1     -10.657   5.968  66.397  1.00  0.00    -0.142 A  
HETATM   25  C   UNL     1     -11.052   6.690  67.525  1.00  0.00    -0.374 A  
ENDBRANCH  18  19
ENDBRANCH  17  18
ENDBRANCH  14  17
ENDBRANCH  10  11
ENDBRANCH   8  10
ENDBRANCH   2   8
TORSDOF 7
ENDMDL
MODEL      205
REMARK 921   NORMALIZED FREE ENERGY PREDICTED BY IDOCK:   -3.69 KCAL/MOL
REMARK 922        TOTAL FREE ENERGY PREDICTED BY IDOCK:   -5.99 KCAL/MOL
REMARK 923 INTER-LIGAND FREE ENERGY PREDICTED BY IDOCK:   -5.29 KCAL/MOL
REMARK 924 INTRA-LIGAND FREE ENERGY PREDICTED BY IDOCK:   -0.70 KCAL/MOL
REMARK 927      BINDING AFFINITY PREDICTED BY RF-SCORE:    0.00 PKD
ROOT
HETATM    1  C   UNL     1      -7.226   9.761  64.837  1.00  0.00    -0.129 C  
HETATM    2  C   UNL     1      -8.738   9.970  64.783  1.00  0.00    -0.187 C  
ENDROOT
BRANCH   2   3
HETATM    3  C   UNL     1      -9.231   9.863  63.320  1.00  0.00    -0.238 C  
HETATM    4  H2  UNL     1      -8.051   8.143  63.039  1.00  0.00     0.000 HD 
HETATM    5  H1  UNL     1      -9.033   8.734  61.662  1.00  0.00     0.000 HD 
HETATM    6  O   UNL     1     -10.017  10.639  62.786  1.00  0.00    -0.266 OA 
HETATM    7  N   UNL     1      -8.709   8.805  62.627  1.00  0.00    -0.151 N  
ENDBRANCH   2   3
BRANCH   2   8
HETATM    8  N   UNL     1      -9.507   8.985  65.576  1.00  0.00    -0.424 NA 
HETATM    9  H   UNL     1      -9.467   8.063  65.142  1.00  0.00     0.000 HD 
BRANCH   8  10
HETATM   10  C   UNL     1      -9.096   8.916  66.978  1.00  0.00    -0.135 C  
BRANCH  10  11
HETATM   11  C   UNL     1      -9.666  10.077  67.761  1.00  0.00    -0.174 A  
HETATM   12  C   UNL     1      -8.860  11.189  68.046  1.00  0.00    -0.142 A  
HETATM   13  C   UNL     1      -9.364  12.271  68.763  1.00  0.00     0.093 A  
HETATM   14  C   UNL     1     -10.699  12.285  69.164  1.00  0.00    -0.043 A  
HETATM   15  C   UNL     1     -10.999  10.084  68.193  1.00  0.00    -0.289 A  
HETATM   16  C   UNL     1     -11.509  11.182  68.894  1.00  0.00    -0.363 A  
BRANCH  14  17
HETATM   17  O   UNL     1     -11.302  13.326  69.819  1.00  0.00    -0.183 OA 
BRANCH  17  18
HETATM   18  C   UNL     1     -12.136  14.143  68.993  1.00  0.00    -0.313 C  
BRANCH  18  19
HETATM   19  C   UNL     1     -11.441  14.528  67.711  1.00  0.00    -0.362 A  
HETATM   20  C   UNL     1     -10.323  15.371  67.704  1.00  0.00    -0.262 A  
HETATM   21  C   UNL     1      -9.768  15.776  66.496  1.00  0.00    -0.265 A  
HETATM   22  F   UNL     1      -8.704  16.588  66.499  1.00  0.00    -0.214 F  
HETATM   23  C   UNL     1     -10.312  15.368  65.283  1.00  0.00    -0.420 A  
HETATM   24  C   UNL     1     -11.429  14.535  65.276  1.00  0.00    -0.355 A  
HETATM   25  C   UNL     1     -11.994  14.122  66.484  1.00  0.00    -0.466 A  
ENDBRANCH  18  19
ENDBRANCH  17  18
ENDBRANCH  14  17
ENDBRANCH  10  11
ENDBRANCH   8  10
ENDBRANCH   2   8
TORSDOF 7
ENDMDL
MODEL      206
REMARK 921   NORMALIZED FREE ENERGY PREDICTED BY IDOCK:   -3.68 KCAL/MOL
REMARK 922        TOTAL FREE ENERGY PREDICTED BY IDOCK:   -5.98 KCAL/MOL
REMARK 923 INTER-LIGAND FREE ENERGY PREDICTED BY IDOCK:   -5.30 KCAL/MOL
REMARK 924 INTRA-LIGAND FREE ENERGY PREDICTED BY IDOCK:   -0.68 KCAL/MOL
REMARK 927      BINDING AFFINITY PREDICTED BY RF-SCORE:    0.00 PKD
ROOT
HETATM    1  C   UNL     1     -11.834  13.418  67.255  1.00  0.00    -0.422 C  
HETATM    2  C   UNL     1     -11.334  13.360  65.812  1.00  0.00    -0.305 C  
ENDROOT
BRANCH   2   3
HETATM    3  C   UNL     1     -10.931  14.778  65.340  1.00  0.00    -0.359 C  
HETATM    4  H2  UNL     1     -12.597  14.833  64.054  1.00  0.00     0.000 HD 
HETATM    5  H1  UNL     1     -11.508  16.255  64.095  1.00  0.00     0.000 HD 
HETATM    6  O   UNL     1      -9.949  15.397  65.736  1.00  0.00    -0.310 OA 
HETATM    7  N   UNL     1     -11.774  15.320  64.407  1.00  0.00    -0.353 N  
ENDBRANCH   2   3
BRANCH   2   8
HETATM    8  N   UNL     1     -10.156  12.485  65.622  1.00  0.00    -0.268 NA 
HETATM    9  H   UNL     1      -9.666  12.342  66.505  1.00  0.00     0.000 HD 
BRANCH   8  10
HETATM   10  C   UNL     1     -10.477  11.203  64.994  1.00  0.00    -0.293 C  
BRANCH  10  11
HETATM   11  C   UNL     1     -10.152  10.055  65.922  1.00  0.00    -0.319 A  
HETATM   12  C   UNL     1     -10.655  10.053  67.231  1.00  0.00    -0.319 A  
HETATM   13  C   UNL     1     -10.371   9.005  68.103  1.00  0.00    -0.262 A  
HETATM   14  C   UNL     1      -9.621   7.914  67.667  1.00  0.00    -0.150 A  
HETATM   15  C   UNL     1      -9.373   8.970  65.498  1.00  0.00    -0.255 A  
HETATM   16  C   UNL     1      -9.108   7.908  66.369  1.00  0.00    -0.221 A  
BRANCH  14  17
HETATM   17  O   UNL     1      -9.341   6.810  68.429  1.00  0.00    -0.127 OA 
BRANCH  17  18
HETATM   18  C   UNL     1      -8.765   7.102  69.705  1.00  0.00    -0.142 C  
BRANCH  18  19
HETATM   19  C   UNL     1      -9.676   6.686  70.834  1.00  0.00    -0.190 A  
HETATM   20  C   UNL     1      -9.284   6.795  72.173  1.00  0.00    -0.141 A  
HETATM   21  C   UNL     1     -10.115   6.317  73.179  1.00  0.00    -0.190 A  
HETATM   22  F   UNL     1      -9.729   6.418  74.457  1.00  0.00    -0.199 F  
HETATM   23  C   UNL     1     -11.333   5.716  72.880  1.00  0.00    -0.325 A  
HETATM   24  C   UNL     1     -11.731   5.595  71.550  1.00  0.00     0.228 A  
HETATM   25  C   UNL     1     -10.904   6.074  70.532  1.00  0.00    -0.382 A  
ENDBRANCH  18  19
ENDBRANCH  17  18
ENDBRANCH  14  17
ENDBRANCH  10  11
ENDBRANCH   8  10
ENDBRANCH   2   8
TORSDOF 7
ENDMDL
MODEL      207
REMARK 921   NORMALIZED FREE ENERGY PREDICTED BY IDOCK:   -3.67 KCAL/MOL
REMARK 922        TOTAL FREE ENERGY PREDICTED BY IDOCK:   -5.97 KCAL/MOL
REMARK 923 INTER-LIGAND FREE ENERGY PREDICTED BY IDOCK:   -5.33 KCAL/MOL
REMARK 924 INTRA-LIGAND FREE ENERGY PREDICTED BY IDOCK:   -0.64 KCAL/MOL
REMARK 927      BINDING AFFINITY PREDICTED BY RF-SCORE:    0.00 PKD
ROOT
HETATM    1  C   UNL     1     -10.089   6.766  74.385  1.00  0.00    -0.282 C  
HETATM    2  C   UNL     1     -10.236   6.290  72.941  1.00  0.00    -0.190 C  
ENDROOT
BRANCH   2   3
HETATM    3  C   UNL     1     -11.614   5.612  72.749  1.00  0.00    -0.232 C  
HETATM    4  H2  UNL     1     -12.203   7.157  71.447  1.00  0.00     0.000 HD 
HETATM    5  H1  UNL     1     -13.368   5.838  71.782  1.00  0.00     0.000 HD 
HETATM    6  O   UNL     1     -11.962   4.566  73.287  1.00  0.00    -0.163 OA 
HETATM    7  N   UNL     1     -12.459   6.284  71.908  1.00  0.00    -0.198 N  
ENDBRANCH   2   3
BRANCH   2   8
HETATM    8  N   UNL     1     -10.141   7.377  71.940  1.00  0.00    -0.178 NA 
HETATM    9  H   UNL     1      -9.978   8.274  72.396  1.00  0.00     0.000 HD 
BRANCH   8  10
HETATM   10  C   UNL     1      -9.137   7.131  70.905  1.00  0.00    -0.152 C  
BRANCH  10  11
HETATM   11  C   UNL     1      -9.061   8.296  69.944  1.00  0.00    -0.147 A  
HETATM   12  C   UNL     1      -8.504   8.114  68.670  1.00  0.00    -0.127 A  
HETATM   13  C   UNL     1      -8.427   9.171  67.767  1.00  0.00    -0.117 A  
HETATM   14  C   UNL     1      -8.951  10.418  68.102  1.00  0.00    -0.132 A  
HETATM   15  C   UNL     1      -9.560   9.560  70.287  1.00  0.00    -0.314 A  
HETATM   16  C   UNL     1      -9.501  10.615  69.370  1.00  0.00    -0.101 A  
BRANCH  14  17
HETATM   17  O   UNL     1      -8.977  11.500  67.262  1.00  0.00    -0.156 OA 
BRANCH  17  18
HETATM   18  C   UNL     1     -10.189  12.258  67.308  1.00  0.00    -0.210 C  
BRANCH  18  19
HETATM   19  C   UNL     1     -10.835  12.358  65.949  1.00  0.00    -0.305 A  
HETATM   20  C   UNL     1     -10.227  11.824  64.806  1.00  0.00    -0.324 A  
HETATM   21  C   UNL     1     -10.809  12.017  63.558  1.00  0.00    -0.444 A  
HETATM   22  F   UNL     1     -10.218  11.509  62.470  1.00  0.00    -0.153 F  
HETATM   23  C   UNL     1     -11.986  12.744  63.420  1.00  0.00    -0.613 A  
HETATM   24  C   UNL     1     -12.596  13.287  64.549  1.00  0.00    -0.316 A  
HETATM   25  C   UNL     1     -12.020  13.098  65.807  1.00  0.00    -0.473 A  
ENDBRANCH  18  19
ENDBRANCH  17  18
ENDBRANCH  14  17
ENDBRANCH  10  11
ENDBRANCH   8  10
ENDBRANCH   2   8
TORSDOF 7
ENDMDL
MODEL      208
REMARK 921   NORMALIZED FREE ENERGY PREDICTED BY IDOCK:   -3.65 KCAL/MOL
REMARK 922        TOTAL FREE ENERGY PREDICTED BY IDOCK:   -5.93 KCAL/MOL
REMARK 923 INTER-LIGAND FREE ENERGY PREDICTED BY IDOCK:   -5.10 KCAL/MOL
REMARK 924 INTRA-LIGAND FREE ENERGY PREDICTED BY IDOCK:   -0.83 KCAL/MOL
REMARK 927      BINDING AFFINITY PREDICTED BY RF-SCORE:    0.00 PKD
ROOT
HETATM    1  C   UNL     1      -9.362   3.244  69.299  1.00  0.00    -0.233 C  
HETATM    2  C   UNL     1      -8.974   4.694  69.015  1.00  0.00    -0.110 C  
ENDROOT
BRANCH   2   3
HETATM    3  C   UNL     1      -8.878   4.922  67.487  1.00  0.00    -0.103 C  
HETATM    4  H2  UNL     1     -10.903   4.390  67.271  1.00  0.00     0.000 HD 
HETATM    5  H1  UNL     1      -9.981   4.838  65.802  1.00  0.00     0.000 HD 
HETATM    6  O   UNL     1      -7.865   5.276  66.894  1.00  0.00    -0.099 OA 
HETATM    7  N   UNL     1     -10.044   4.689  66.809  1.00  0.00    -0.224 N  
ENDBRANCH   2   3
BRANCH   2   8
HETATM    8  N   UNL     1      -9.939   5.685  69.545  1.00  0.00    -0.181 NA 
HETATM    9  H   UNL     1     -10.488   5.284  70.304  1.00  0.00     0.000 HD 
BRANCH   8  10
HETATM   10  C   UNL     1      -9.314   6.940  69.962  1.00  0.00    -0.158 C  
BRANCH  10  11
HETATM   11  C   UNL     1     -10.045   8.124  69.372  1.00  0.00    -0.194 A  
HETATM   12  C   UNL     1     -10.758   8.993  70.211  1.00  0.00    -0.262 A  
HETATM   13  C   UNL     1     -11.436  10.092  69.689  1.00  0.00    -0.210 A  
HETATM   14  C   UNL     1     -11.372  10.373  68.326  1.00  0.00    -0.224 A  
HETATM   15  C   UNL     1     -10.009   8.395  67.997  1.00  0.00    -0.221 A  
HETATM   16  C   UNL     1     -10.672   9.511  67.479  1.00  0.00    -0.311 A  
BRANCH  14  17
HETATM   17  O   UNL     1     -11.953  11.460  67.729  1.00  0.00    -0.637 OA 
BRANCH  17  18
HETATM   18  C   UNL     1     -11.200  12.017  66.648  1.00  0.00    -0.327 C  
BRANCH  18  19
HETATM   19  C   UNL     1     -10.503  13.292  67.055  1.00  0.00    -0.249 A  
HETATM   20  C   UNL     1      -9.500  13.302  68.032  1.00  0.00    -0.219 A  
HETATM   21  C   UNL     1      -8.948  14.509  68.444  1.00  0.00    -0.186 A  
HETATM   22  F   UNL     1      -7.995  14.510  69.384  1.00  0.00    -0.135 F  
HETATM   23  C   UNL     1      -9.382  15.717  67.910  1.00  0.00    -0.200 A  
HETATM   24  C   UNL     1     -10.385  15.720  66.943  1.00  0.00    -0.295 A  
HETATM   25  C   UNL     1     -10.946  14.514  66.520  1.00  0.00    -0.321 A  
ENDBRANCH  18  19
ENDBRANCH  17  18
ENDBRANCH  14  17
ENDBRANCH  10  11
ENDBRANCH   8  10
ENDBRANCH   2   8
TORSDOF 7
ENDMDL
MODEL      209
REMARK 921   NORMALIZED FREE ENERGY PREDICTED BY IDOCK:   -3.62 KCAL/MOL
REMARK 922        TOTAL FREE ENERGY PREDICTED BY IDOCK:   -5.90 KCAL/MOL
REMARK 923 INTER-LIGAND FREE ENERGY PREDICTED BY IDOCK:   -5.11 KCAL/MOL
REMARK 924 INTRA-LIGAND FREE ENERGY PREDICTED BY IDOCK:   -0.79 KCAL/MOL
REMARK 927      BINDING AFFINITY PREDICTED BY RF-SCORE:    0.00 PKD
ROOT
HETATM    1  C   UNL     1     -10.804  13.201  66.250  1.00  0.00    -0.292 C  
HETATM    2  C   UNL     1     -11.530  12.092  65.491  1.00  0.00    -0.343 C  
ENDROOT
BRANCH   2   3
HETATM    3  C   UNL     1     -12.318  12.697  64.304  1.00  0.00    -0.435 C  
HETATM    4  H2  UNL     1     -11.449  14.579  64.675  1.00  0.00     0.000 HD 
HETATM    5  H1  UNL     1     -12.605  14.430  63.315  1.00  0.00     0.000 HD 
HETATM    6  O   UNL     1     -13.094  12.075  63.587  1.00  0.00    -0.756 OA 
HETATM    7  N   UNL     1     -12.086  14.030  64.097  1.00  0.00    -0.460 N  
ENDBRANCH   2   3
BRANCH   2   8
HETATM    8  N   UNL     1     -10.628  11.058  64.936  1.00  0.00    -0.288 NA 
HETATM    9  H   UNL     1     -10.461  11.221  63.943  1.00  0.00     0.000 HD 
BRANCH   8  10
HETATM   10  C   UNL     1      -9.364  10.936  65.662  1.00  0.00    -0.207 C  
BRANCH  10  11
HETATM   11  C   UNL     1      -9.437   9.821  66.679  1.00  0.00    -0.220 A  
HETATM   12  C   UNL     1     -10.125   8.638  66.371  1.00  0.00    -0.294 A  
HETATM   13  C   UNL     1     -10.203   7.597  67.291  1.00  0.00    -0.342 A  
HETATM   14  C   UNL     1      -9.550   7.696  68.519  1.00  0.00    -0.148 A  
HETATM   15  C   UNL     1      -8.807   9.927  67.927  1.00  0.00    -0.129 A  
HETATM   16  C   UNL     1      -8.868   8.870  68.841  1.00  0.00    -0.137 A  
BRANCH  14  17
HETATM   17  O   UNL     1      -9.517   6.704  69.464  1.00  0.00    -0.148 OA 
BRANCH  17  18
HETATM   18  C   UNL     1     -10.128   5.477  69.056  1.00  0.00    -0.205 C  
BRANCH  18  19
HETATM   19  C   UNL     1      -9.098   4.453  68.647  1.00  0.00    -0.171 A  
HETATM   20  C   UNL     1      -7.748   4.590  68.992  1.00  0.00    -0.070 A  
HETATM   21  C   UNL     1      -6.816   3.673  68.518  1.00  0.00    -0.046 A  
HETATM   22  F   UNL     1      -5.527   3.816  68.847  1.00  0.00    -0.010 F  
HETATM   23  C   UNL     1      -7.199   2.622  67.693  1.00  0.00    -0.053 A  
HETATM   24  C   UNL     1      -8.538   2.479  67.336  1.00  0.00    -0.122 A  
HETATM   25  C   UNL     1      -9.482   3.393  67.808  1.00  0.00    -0.229 A  
ENDBRANCH  18  19
ENDBRANCH  17  18
ENDBRANCH  14  17
ENDBRANCH  10  11
ENDBRANCH   8  10
ENDBRANCH   2   8
TORSDOF 7
ENDMDL
MODEL      210
REMARK 921   NORMALIZED FREE ENERGY PREDICTED BY IDOCK:   -3.62 KCAL/MOL
REMARK 922        TOTAL FREE ENERGY PREDICTED BY IDOCK:   -5.90 KCAL/MOL
REMARK 923 INTER-LIGAND FREE ENERGY PREDICTED BY IDOCK:   -5.09 KCAL/MOL
REMARK 924 INTRA-LIGAND FREE ENERGY PREDICTED BY IDOCK:   -0.81 KCAL/MOL
REMARK 927      BINDING AFFINITY PREDICTED BY RF-SCORE:    0.00 PKD
ROOT
HETATM    1  C   UNL     1      -7.366  10.305  64.649  1.00  0.00    -0.085 C  
HETATM    2  C   UNL     1      -8.852  10.154  64.969  1.00  0.00    -0.181 C  
ENDROOT
BRANCH   2   3
HETATM    3  C   UNL     1      -9.693  10.415  63.696  1.00  0.00    -0.277 C  
HETATM    4  H2  UNL     1      -8.401   9.184  62.580  1.00  0.00     0.000 HD 
HETATM    5  H1  UNL     1      -9.783   9.951  61.737  1.00  0.00     0.000 HD 
HETATM    6  O   UNL     1     -10.692  11.124  63.649  1.00  0.00    -0.377 OA 
HETATM    7  N   UNL     1      -9.230   9.779  62.576  1.00  0.00    -0.286 N  
ENDBRANCH   2   3
BRANCH   2   8
HETATM    8  N   UNL     1      -9.222   8.810  65.469  1.00  0.00    -0.388 NA 
HETATM    9  H   UNL     1      -9.160   8.118  64.723  1.00  0.00     0.000 HD 
BRANCH   8  10
HETATM   10  C   UNL     1      -8.445   8.387  66.635  1.00  0.00    -0.111 C  
BRANCH  10  11
HETATM   11  C   UNL     1      -9.326   8.289  67.859  1.00  0.00    -0.150 A  
HETATM   12  C   UNL     1      -9.970   9.435  68.349  1.00  0.00    -0.191 A  
HETATM   13  C   UNL     1     -10.788   9.368  69.473  1.00  0.00    -0.231 A  
HETATM   14  C   UNL     1     -11.021   8.144  70.099  1.00  0.00    -0.223 A  
HETATM   15  C   UNL     1      -9.540   7.067  68.510  1.00  0.00    -0.137 A  
HETATM   16  C   UNL     1     -10.380   6.998  69.626  1.00  0.00    -0.222 A  
BRANCH  14  17
HETATM   17  O   UNL     1     -11.855   7.966  71.172  1.00  0.00    -0.288 OA 
BRANCH  17  18
HETATM   18  C   UNL     1     -11.388   8.554  72.389  1.00  0.00    -0.342 C  
BRANCH  18  19
HETATM   19  C   UNL     1     -10.523   7.598  73.172  1.00  0.00    -0.433 A  
HETATM   20  C   UNL     1      -9.215   7.929  73.547  1.00  0.00    -0.340 A  
HETATM   21  C   UNL     1      -8.418   6.986  74.186  1.00  0.00    -0.157 A  
HETATM   22  F   UNL     1      -7.167   7.309  74.535  1.00  0.00    -0.103 F  
HETATM   23  C   UNL     1      -8.894   5.707  74.454  1.00  0.00    -0.121 A  
HETATM   24  C   UNL     1     -10.191   5.364  74.079  1.00  0.00    -0.273 A  
HETATM   25  C   UNL     1     -11.000   6.303  73.437  1.00  0.00    -0.172 A  
ENDBRANCH  18  19
ENDBRANCH  17  18
ENDBRANCH  14  17
ENDBRANCH  10  11
ENDBRANCH   8  10
ENDBRANCH   2   8
TORSDOF 7
ENDMDL
MODEL      211
REMARK 921   NORMALIZED FREE ENERGY PREDICTED BY IDOCK:   -3.60 KCAL/MOL
REMARK 922        TOTAL FREE ENERGY PREDICTED BY IDOCK:   -5.87 KCAL/MOL
REMARK 923 INTER-LIGAND FREE ENERGY PREDICTED BY IDOCK:   -4.94 KCAL/MOL
REMARK 924 INTRA-LIGAND FREE ENERGY PREDICTED BY IDOCK:   -0.93 KCAL/MOL
REMARK 927      BINDING AFFINITY PREDICTED BY RF-SCORE:    0.00 PKD
ROOT
HETATM    1  C   UNL     1     -10.658  18.089  67.659  1.00  0.00    -0.413 C  
HETATM    2  C   UNL     1     -10.230  16.713  67.151  1.00  0.00    -0.290 C  
ENDROOT
BRANCH   2   3
HETATM    3  C   UNL     1      -8.878  16.315  67.790  1.00  0.00    -0.188 C  
HETATM    4  H2  UNL     1      -8.448  15.085  66.137  1.00  0.00     0.000 HD 
HETATM    5  H1  UNL     1      -7.246  15.179  67.463  1.00  0.00     0.000 HD 
HETATM    6  O   UNL     1      -8.469  16.718  68.874  1.00  0.00    -0.246 OA 
HETATM    7  N   UNL     1      -8.137  15.442  67.041  1.00  0.00    -0.216 N  
ENDBRANCH   2   3
BRANCH   2   8
HETATM    8  N   UNL     1     -11.195  15.634  67.461  1.00  0.00    -0.290 NA 
HETATM    9  H   UNL     1     -12.039  16.016  67.886  1.00  0.00     0.000 HD 
BRANCH   8  10
HETATM   10  C   UNL     1     -11.528  14.801  66.305  1.00  0.00    -0.316 C  
BRANCH  10  11
HETATM   11  C   UNL     1     -11.334  13.336  66.628  1.00  0.00    -0.353 A  
HETATM   12  C   UNL     1     -11.742  12.836  67.873  1.00  0.00    -0.408 A  
HETATM   13  C   UNL     1     -11.576  11.491  68.191  1.00  0.00    -0.378 A  
HETATM   14  C   UNL     1     -11.046  10.609  67.251  1.00  0.00    -0.243 A  
HETATM   15  C   UNL     1     -10.774  12.450  65.697  1.00  0.00    -0.299 A  
HETATM   16  C   UNL     1     -10.628  11.095  66.011  1.00  0.00    -0.298 A  
BRANCH  14  17
HETATM   17  O   UNL     1     -10.899   9.261  67.447  1.00  0.00    -0.255 OA 
BRANCH  17  18
HETATM   18  C   UNL     1      -9.981   8.909  68.486  1.00  0.00    -0.177 C  
BRANCH  18  19
HETATM   19  C   UNL     1      -8.575   8.762  67.959  1.00  0.00    -0.134 A  
HETATM   20  C   UNL     1      -7.616   9.768  68.132  1.00  0.00    -0.082 A  
HETATM   21  C   UNL     1      -6.360   9.635  67.553  1.00  0.00    -0.064 A  
HETATM   22  F   UNL     1      -5.452  10.604  67.717  1.00  0.00    -0.043 F  
HETATM   23  C   UNL     1      -6.037   8.518  66.788  1.00  0.00    -0.054 A  
HETATM   24  C   UNL     1      -6.985   7.514  66.603  1.00  0.00    -0.074 A  
HETATM   25  C   UNL     1      -8.249   7.638  67.182  1.00  0.00    -0.118 A  
ENDBRANCH  18  19
ENDBRANCH  17  18
ENDBRANCH  14  17
ENDBRANCH  10  11
ENDBRANCH   8  10
ENDBRANCH   2   8
TORSDOF 7
ENDMDL
MODEL      212
REMARK 921   NORMALIZED FREE ENERGY PREDICTED BY IDOCK:   -3.58 KCAL/MOL
REMARK 922        TOTAL FREE ENERGY PREDICTED BY IDOCK:   -5.84 KCAL/MOL
REMARK 923 INTER-LIGAND FREE ENERGY PREDICTED BY IDOCK:   -4.81 KCAL/MOL
REMARK 924 INTRA-LIGAND FREE ENERGY PREDICTED BY IDOCK:   -1.03 KCAL/MOL
REMARK 927      BINDING AFFINITY PREDICTED BY RF-SCORE:    0.00 PKD
ROOT
HETATM    1  C   UNL     1     -11.064   6.586  67.325  1.00  0.00    -0.429 C  
HETATM    2  C   UNL     1     -10.329   6.110  68.576  1.00  0.00    -0.207 C  
ENDROOT
BRANCH   2   3
HETATM    3  C   UNL     1      -9.724   4.707  68.327  1.00  0.00    -0.131 C  
HETATM    4  H2  UNL     1      -9.076   4.621  70.328  1.00  0.00     0.000 HD 
HETATM    5  H1  UNL     1      -8.722   3.227  69.259  1.00  0.00     0.000 HD 
HETATM    6  O   UNL     1      -9.754   4.110  67.255  1.00  0.00    -0.197 OA 
HETATM    7  N   UNL     1      -9.122   4.151  69.423  1.00  0.00    -0.112 N  
ENDBRANCH   2   3
BRANCH   2   8
HETATM    8  N   UNL     1      -9.219   6.997  68.992  1.00  0.00    -0.138 NA 
HETATM    9  H   UNL     1      -8.734   6.612  69.802  1.00  0.00     0.000 HD 
BRANCH   8  10
HETATM   10  C   UNL     1      -8.276   7.294  67.914  1.00  0.00    -0.119 C  
BRANCH  10  11
HETATM   11  C   UNL     1      -8.079   8.786  67.771  1.00  0.00    -0.107 A  
HETATM   12  C   UNL     1      -8.131   9.378  66.500  1.00  0.00    -0.111 A  
HETATM   13  C   UNL     1      -7.956  10.750  66.345  1.00  0.00    -0.151 A  
HETATM   14  C   UNL     1      -7.775  11.565  67.461  1.00  0.00    -0.132 A  
HETATM   15  C   UNL     1      -7.867   9.607  68.887  1.00  0.00    -0.081 A  
HETATM   16  C   UNL     1      -7.713  10.988  68.730  1.00  0.00    -0.135 A  
BRANCH  14  17
HETATM   17  O   UNL     1      -7.654  12.929  67.415  1.00  0.00    -0.157 OA 
BRANCH  17  18
HETATM   18  C   UNL     1      -8.698  13.640  68.086  1.00  0.00    -0.177 C  
BRANCH  18  19
HETATM   19  C   UNL     1      -9.914  13.802  67.208  1.00  0.00    -0.239 A  
HETATM   20  C   UNL     1      -9.922  14.682  66.118  1.00  0.00    -0.323 A  
HETATM   21  C   UNL     1     -11.090  14.871  65.389  1.00  0.00    -0.364 A  
HETATM   22  F   UNL     1     -11.091  15.719  64.354  1.00  0.00    -0.407 F  
HETATM   23  C   UNL     1     -12.264  14.208  65.730  1.00  0.00    -0.458 A  
HETATM   24  C   UNL     1     -12.271  13.336  66.816  1.00  0.00    -0.340 A  
HETATM   25  C   UNL     1     -11.103  13.137  67.554  1.00  0.00    -0.296 A  
ENDBRANCH  18  19
ENDBRANCH  17  18
ENDBRANCH  14  17
ENDBRANCH  10  11
ENDBRANCH   8  10
ENDBRANCH   2   8
TORSDOF 7
ENDMDL
MODEL      213
REMARK 921   NORMALIZED FREE ENERGY PREDICTED BY IDOCK:   -3.57 KCAL/MOL
REMARK 922        TOTAL FREE ENERGY PREDICTED BY IDOCK:   -5.82 KCAL/MOL
REMARK 923 INTER-LIGAND FREE ENERGY PREDICTED BY IDOCK:   -5.06 KCAL/MOL
REMARK 924 INTRA-LIGAND FREE ENERGY PREDICTED BY IDOCK:   -0.76 KCAL/MOL
REMARK 927      BINDING AFFINITY PREDICTED BY RF-SCORE:    0.00 PKD
ROOT
HETATM    1  C   UNL     1      -7.508   5.068  68.365  1.00  0.00    -0.074 C  
HETATM    2  C   UNL     1      -8.908   5.394  68.883  1.00  0.00    -0.100 C  
ENDROOT
BRANCH   2   3
HETATM    3  C   UNL     1      -8.807   6.143  70.233  1.00  0.00    -0.149 C  
HETATM    4  H2  UNL     1      -9.582   7.882  69.337  1.00  0.00     0.000 HD 
HETATM    5  H1  UNL     1      -9.163   7.938  71.078  1.00  0.00     0.000 HD 
HETATM    6  O   UNL     1      -8.386   5.654  71.277  1.00  0.00    -0.123 OA 
HETATM    7  N   UNL     1      -9.230   7.444  70.188  1.00  0.00    -0.152 N  
ENDBRANCH   2   3
BRANCH   2   8
HETATM    8  N   UNL     1      -9.699   6.248  67.968  1.00  0.00    -0.121 NA 
HETATM    9  H   UNL     1      -9.978   7.112  68.432  1.00  0.00     0.000 HD 
BRANCH   8  10
HETATM   10  C   UNL     1      -9.021   6.533  66.704  1.00  0.00    -0.138 C  
BRANCH  10  11
HETATM   11  C   UNL     1      -9.274   7.959  66.270  1.00  0.00    -0.231 A  
HETATM   12  C   UNL     1      -8.603   8.477  65.152  1.00  0.00    -0.179 A  
HETATM   13  C   UNL     1      -8.821   9.786  64.733  1.00  0.00    -0.239 A  
HETATM   14  C   UNL     1      -9.753  10.587  65.390  1.00  0.00    -0.257 A  
HETATM   15  C   UNL     1     -10.188   8.778  66.946  1.00  0.00    -0.357 A  
HETATM   16  C   UNL     1     -10.422  10.086  66.508  1.00  0.00    -0.223 A  
BRANCH  14  17
HETATM   17  O   UNL     1     -10.081  11.864  65.017  1.00  0.00    -0.254 OA 
BRANCH  17  18
HETATM   18  C   UNL     1     -10.999  12.521  65.895  1.00  0.00    -0.279 C  
BRANCH  18  19
HETATM   19  C   UNL     1     -10.630  13.968  66.104  1.00  0.00    -0.290 A  
HETATM   20  C   UNL     1     -11.092  14.976  65.249  1.00  0.00    -0.391 A  
HETATM   21  C   UNL     1     -10.655  16.284  65.421  1.00  0.00    -0.352 A  
HETATM   22  F   UNL     1     -11.097  17.240  64.594  1.00  0.00    -0.376 F  
HETATM   23  C   UNL     1      -9.752  16.614  66.425  1.00  0.00    -0.306 A  
HETATM   24  C   UNL     1      -9.279  15.618  67.277  1.00  0.00    -0.214 A  
HETATM   25  C   UNL     1      -9.712  14.301  67.115  1.00  0.00    -0.254 A  
ENDBRANCH  18  19
ENDBRANCH  17  18
ENDBRANCH  14  17
ENDBRANCH  10  11
ENDBRANCH   8  10
ENDBRANCH   2   8
TORSDOF 7
ENDMDL
MODEL      214
REMARK 921   NORMALIZED FREE ENERGY PREDICTED BY IDOCK:   -3.54 KCAL/MOL
REMARK 922        TOTAL FREE ENERGY PREDICTED BY IDOCK:   -5.78 KCAL/MOL
REMARK 923 INTER-LIGAND FREE ENERGY PREDICTED BY IDOCK:   -4.81 KCAL/MOL
REMARK 924 INTRA-LIGAND FREE ENERGY PREDICTED BY IDOCK:   -0.98 KCAL/MOL
REMARK 927      BINDING AFFINITY PREDICTED BY RF-SCORE:    0.00 PKD
ROOT
HETATM    1  C   UNL     1      -6.110   9.654  64.918  1.00  0.00    -0.083 C  
HETATM    2  C   UNL     1      -7.429   8.942  64.622  1.00  0.00    -0.104 C  
ENDROOT
BRANCH   2   3
HETATM    3  C   UNL     1      -7.533   8.637  63.108  1.00  0.00    -0.106 C  
HETATM    4  H2  UNL     1      -5.442   8.799  62.923  1.00  0.00     0.000 HD 
HETATM    5  H1  UNL     1      -6.399   8.422  61.456  1.00  0.00     0.000 HD 
HETATM    6  O   UNL     1      -8.580   8.423  62.506  1.00  0.00    -0.167 OA 
HETATM    7  N   UNL     1      -6.331   8.623  62.454  1.00  0.00    -0.095 N  
ENDBRANCH   2   3
BRANCH   2   8
HETATM    8  N   UNL     1      -7.589   7.657  65.339  1.00  0.00    -0.088 NA 
HETATM    9  H   UNL     1      -7.136   6.900  64.828  1.00  0.00     0.000 HD 
BRANCH   8  10
HETATM   10  C   UNL     1      -7.121   7.700  66.724  1.00  0.00    -0.083 C  
BRANCH  10  11
HETATM   11  C   UNL     1      -8.103   8.446  67.599  1.00  0.00    -0.118 A  
HETATM   12  C   UNL     1      -7.708   9.629  68.240  1.00  0.00    -0.082 A  
HETATM   13  C   UNL     1      -8.597  10.334  69.047  1.00  0.00    -0.162 A  
HETATM   14  C   UNL     1      -9.912   9.897  69.190  1.00  0.00    -0.198 A  
HETATM   15  C   UNL     1      -9.419   7.994  67.770  1.00  0.00    -0.166 A  
HETATM   16  C   UNL     1     -10.316   8.717  68.564  1.00  0.00    -0.228 A  
BRANCH  14  17
HETATM   17  O   UNL     1     -10.874  10.553  69.912  1.00  0.00    -0.269 OA 
BRANCH  17  18
HETATM   18  C   UNL     1     -11.997  10.993  69.142  1.00  0.00    -0.324 C  
BRANCH  18  19
HETATM   19  C   UNL     1     -11.691  12.265  68.391  1.00  0.00    -0.390 A  
HETATM   20  C   UNL     1     -11.890  13.525  68.968  1.00  0.00    -0.385 A  
HETATM   21  C   UNL     1     -11.683  14.673  68.212  1.00  0.00    -0.328 A  
HETATM   22  F   UNL     1     -11.883  15.874  68.770  1.00  0.00    -0.364 F  
HETATM   23  C   UNL     1     -11.292  14.596  66.880  1.00  0.00    -0.361 A  
HETATM   24  C   UNL     1     -11.098  13.347  66.293  1.00  0.00    -0.305 A  
HETATM   25  C   UNL     1     -11.301  12.188  67.043  1.00  0.00    -0.398 A  
ENDBRANCH  18  19
ENDBRANCH  17  18
ENDBRANCH  14  17
ENDBRANCH  10  11
ENDBRANCH   8  10
ENDBRANCH   2   8
TORSDOF 7
ENDMDL
MODEL      215
REMARK 921   NORMALIZED FREE ENERGY PREDICTED BY IDOCK:   -3.54 KCAL/MOL
REMARK 922        TOTAL FREE ENERGY PREDICTED BY IDOCK:   -5.78 KCAL/MOL
REMARK 923 INTER-LIGAND FREE ENERGY PREDICTED BY IDOCK:   -5.14 KCAL/MOL
REMARK 924 INTRA-LIGAND FREE ENERGY PREDICTED BY IDOCK:   -0.64 KCAL/MOL
REMARK 927      BINDING AFFINITY PREDICTED BY RF-SCORE:    0.00 PKD
ROOT
HETATM    1  C   UNL     1     -10.334  11.009  63.460  1.00  0.00    -0.402 C  
HETATM    2  C   UNL     1     -10.482  12.263  64.321  1.00  0.00    -0.346 C  
ENDROOT
BRANCH   2   3
HETATM    3  C   UNL     1     -11.982  12.589  64.519  1.00  0.00    -0.404 C  
HETATM    4  H2  UNL     1     -11.566  13.391  66.420  1.00  0.00     0.000 HD 
HETATM    5  H1  UNL     1     -13.264  13.396  65.849  1.00  0.00     0.000 HD 
HETATM    6  O   UNL     1     -12.866  12.351  63.702  1.00  0.00    -0.743 OA 
HETATM    7  N   UNL     1     -12.275  13.182  65.717  1.00  0.00    -0.448 N  
ENDBRANCH   2   3
BRANCH   2   8
HETATM    8  N   UNL     1      -9.881  12.138  65.668  1.00  0.00    -0.246 NA 
HETATM    9  H   UNL     1     -10.605  12.046  66.379  1.00  0.00     0.000 HD 
BRANCH   8  10
HETATM   10  C   UNL     1      -8.908  11.051  65.773  1.00  0.00    -0.191 C  
BRANCH  10  11
HETATM   11  C   UNL     1      -9.348  10.037  66.804  1.00  0.00    -0.193 A  
HETATM   12  C   UNL     1      -8.463   9.646  67.820  1.00  0.00    -0.125 A  
HETATM   13  C   UNL     1      -8.847   8.716  68.782  1.00  0.00    -0.139 A  
HETATM   14  C   UNL     1     -10.140   8.196  68.778  1.00  0.00    -0.199 A  
HETATM   15  C   UNL     1     -10.637   9.488  66.787  1.00  0.00    -0.208 A  
HETATM   16  C   UNL     1     -11.027   8.571  67.768  1.00  0.00     0.093 A  
BRANCH  14  17
HETATM   17  O   UNL     1     -10.629   7.325  69.715  1.00  0.00    -0.224 OA 
BRANCH  17  18
HETATM   18  C   UNL     1      -9.636   6.510  70.343  1.00  0.00    -0.162 C  
BRANCH  18  19
HETATM   19  C   UNL     1      -9.460   5.195  69.625  1.00  0.00    -0.203 A  
HETATM   20  C   UNL     1      -9.862   5.024  68.295  1.00  0.00    -0.211 A  
HETATM   21  C   UNL     1      -9.768   3.772  67.698  1.00  0.00    -0.080 A  
HETATM   22  F   UNL     1     -10.160   3.616  66.428  1.00  0.00    -0.152 F  
HETATM   23  C   UNL     1      -9.290   2.674  68.405  1.00  0.00    -0.256 A  
HETATM   24  C   UNL     1      -8.895   2.829  69.732  1.00  0.00    -0.146 A  
HETATM   25  C   UNL     1      -8.984   4.083  70.340  1.00  0.00    -0.157 A  
ENDBRANCH  18  19
ENDBRANCH  17  18
ENDBRANCH  14  17
ENDBRANCH  10  11
ENDBRANCH   8  10
ENDBRANCH   2   8
TORSDOF 7
ENDMDL
MODEL      216
REMARK 921   NORMALIZED FREE ENERGY PREDICTED BY IDOCK:   -3.53 KCAL/MOL
REMARK 922        TOTAL FREE ENERGY PREDICTED BY IDOCK:   -5.77 KCAL/MOL
REMARK 923 INTER-LIGAND FREE ENERGY PREDICTED BY IDOCK:   -4.98 KCAL/MOL
REMARK 924 INTRA-LIGAND FREE ENERGY PREDICTED BY IDOCK:   -0.80 KCAL/MOL
REMARK 927      BINDING AFFINITY PREDICTED BY RF-SCORE:    0.00 PKD
ROOT
HETATM    1  C   UNL     1      -9.661   8.477  72.414  1.00  0.00    -0.357 C  
HETATM    2  C   UNL     1     -11.163   8.614  72.171  1.00  0.00    -0.367 C  
ENDROOT
BRANCH   2   3
HETATM    3  C   UNL     1     -11.429   9.768  71.173  1.00  0.00    -0.398 C  
HETATM    4  H2  UNL     1     -13.042  10.428  72.354  1.00  0.00     0.000 HD 
HETATM    5  H1  UNL     1     -12.657  11.334  70.857  1.00  0.00     0.000 HD 
HETATM    6  O   UNL     1     -10.782   9.976  70.153  1.00  0.00    -0.268 OA 
HETATM    7  N   UNL     1     -12.481  10.574  71.514  1.00  0.00    -0.391 N  
ENDBRANCH   2   3
BRANCH   2   8
HETATM    8  N   UNL     1     -11.792   7.398  71.609  1.00  0.00    -0.278 NA 
HETATM    9  H   UNL     1     -11.950   7.503  70.607  1.00  0.00     0.000 HD 
BRANCH   8  10
HETATM   10  C   UNL     1     -11.043   6.172  71.890  1.00  0.00    -0.274 C  
BRANCH  10  11
HETATM   11  C   UNL     1     -10.521   5.559  70.610  1.00  0.00    -0.342 A  
HETATM   12  C   UNL     1     -10.916   6.086  69.372  1.00  0.00    -0.455 A  
HETATM   13  C   UNL     1     -10.445   5.539  68.181  1.00  0.00    -0.231 A  
HETATM   14  C   UNL     1      -9.531   4.488  68.205  1.00  0.00    -0.149 A  
HETATM   15  C   UNL     1      -9.625   4.482  70.628  1.00  0.00    -0.260 A  
HETATM   16  C   UNL     1      -9.137   3.949  69.431  1.00  0.00    -0.196 A  
BRANCH  14  17
HETATM   17  O   UNL     1      -8.966   3.924  67.092  1.00  0.00    -0.119 OA 
BRANCH  17  18
HETATM   18  C   UNL     1      -9.816   3.905  65.941  1.00  0.00    -0.128 C  
BRANCH  18  19
HETATM   19  C   UNL     1      -9.129   4.493  64.734  1.00  0.00    -0.152 A  
HETATM   20  C   UNL     1      -8.423   5.700  64.805  1.00  0.00    -0.102 A  
HETATM   21  C   UNL     1      -7.882   6.254  63.650  1.00  0.00    -0.113 A  
HETATM   22  F   UNL     1      -7.215   7.412  63.726  1.00  0.00    -0.061 F  
HETATM   23  C   UNL     1      -8.040   5.637  62.415  1.00  0.00    -0.099 A  
HETATM   24  C   UNL     1      -8.747   4.439  62.330  1.00  0.00    -0.103 A  
HETATM   25  C   UNL     1      -9.293   3.872  63.483  1.00  0.00    -0.131 A  
ENDBRANCH  18  19
ENDBRANCH  17  18
ENDBRANCH  14  17
ENDBRANCH  10  11
ENDBRANCH   8  10
ENDBRANCH   2   8
TORSDOF 7
ENDMDL
MODEL      217
REMARK 921   NORMALIZED FREE ENERGY PREDICTED BY IDOCK:   -3.52 KCAL/MOL
REMARK 922        TOTAL FREE ENERGY PREDICTED BY IDOCK:   -5.75 KCAL/MOL
REMARK 923 INTER-LIGAND FREE ENERGY PREDICTED BY IDOCK:   -4.90 KCAL/MOL
REMARK 924 INTRA-LIGAND FREE ENERGY PREDICTED BY IDOCK:   -0.85 KCAL/MOL
REMARK 927      BINDING AFFINITY PREDICTED BY RF-SCORE:    0.00 PKD
ROOT
HETATM    1  C   UNL     1      -8.091   6.606  65.198  1.00  0.00    -0.133 C  
HETATM    2  C   UNL     1      -7.355   7.878  64.782  1.00  0.00    -0.082 C  
ENDROOT
BRANCH   2   3
HETATM    3  C   UNL     1      -6.417   7.574  63.589  1.00  0.00    -0.053 C  
HETATM    4  H2  UNL     1      -5.003   8.939  64.342  1.00  0.00     0.000 HD 
HETATM    5  H1  UNL     1      -4.622   8.074  62.820  1.00  0.00     0.000 HD 
HETATM    6  O   UNL     1      -6.666   6.785  62.683  1.00  0.00    -0.042 OA 
HETATM    7  N   UNL     1      -5.241   8.274  63.606  1.00  0.00    -0.048 N  
ENDBRANCH   2   3
BRANCH   2   8
HETATM    8  N   UNL     1      -8.252   8.978  64.362  1.00  0.00    -0.157 NA 
HETATM    9  H   UNL     1      -9.230   8.708  64.469  1.00  0.00     0.000 HD 
BRANCH   8  10
HETATM   10  C   UNL     1      -7.985  10.242  65.048  1.00  0.00    -0.144 C  
BRANCH  10  11
HETATM   11  C   UNL     1      -8.936  10.432  66.208  1.00  0.00    -0.172 A  
HETATM   12  C   UNL     1      -8.495  11.079  67.372  1.00  0.00    -0.132 A  
HETATM   13  C   UNL     1      -9.353  11.268  68.452  1.00  0.00    -0.181 A  
HETATM   14  C   UNL     1     -10.683  10.861  68.370  1.00  0.00    -0.203 A  
HETATM   15  C   UNL     1     -10.266   9.997  66.143  1.00  0.00    -0.283 A  
HETATM   16  C   UNL     1     -11.132  10.209  67.221  1.00  0.00    -0.166 A  
BRANCH  14  17
HETATM   17  O   UNL     1     -11.617  11.056  69.353  1.00  0.00    -0.256 OA 
BRANCH  17  18
HETATM   18  C   UNL     1     -11.231  10.573  70.643  1.00  0.00    -0.198 C  
BRANCH  18  19
HETATM   19  C   UNL     1     -12.073   9.397  71.071  1.00  0.00    -0.373 A  
HETATM   20  C   UNL     1     -11.563   8.093  71.086  1.00  0.00    -0.306 A  
HETATM   21  C   UNL     1     -12.397   7.026  71.398  1.00  0.00    -0.377 A  
HETATM   22  F   UNL     1     -11.902   5.783  71.403  1.00  0.00    -0.252 F  
HETATM   23  C   UNL     1     -13.742   7.227  71.687  1.00  0.00    -0.446 A  
HETATM   24  C   UNL     1     -14.264   8.519  71.668  1.00  0.00    -0.496 A  
HETATM   25  C   UNL     1     -13.434   9.598  71.357  1.00  0.00    -0.403 A  
ENDBRANCH  18  19
ENDBRANCH  17  18
ENDBRANCH  14  17
ENDBRANCH  10  11
ENDBRANCH   8  10
ENDBRANCH   2   8
TORSDOF 7
ENDMDL
MODEL      218
REMARK 921   NORMALIZED FREE ENERGY PREDICTED BY IDOCK:   -3.52 KCAL/MOL
REMARK 922        TOTAL FREE ENERGY PREDICTED BY IDOCK:   -5.75 KCAL/MOL
REMARK 923 INTER-LIGAND FREE ENERGY PREDICTED BY IDOCK:   -5.14 KCAL/MOL
REMARK 924 INTRA-LIGAND FREE ENERGY PREDICTED BY IDOCK:   -0.61 KCAL/MOL
REMARK 927      BINDING AFFINITY PREDICTED BY RF-SCORE:    0.00 PKD
ROOT
HETATM    1  C   UNL     1     -10.582  19.070  66.943  1.00  0.00    -0.518 C  
HETATM    2  C   UNL     1      -9.874  17.747  67.232  1.00  0.00    -0.312 C  
ENDROOT
BRANCH   2   3
HETATM    3  C   UNL     1      -8.782  17.960  68.308  1.00  0.00    -0.275 C  
HETATM    4  H2  UNL     1      -9.156  20.031  68.290  1.00  0.00     0.000 HD 
HETATM    5  H1  UNL     1      -7.891  19.405  69.394  1.00  0.00     0.000 HD 
HETATM    6  O   UNL     1      -8.103  17.067  68.804  1.00  0.00    -0.252 OA 
HETATM    7  N   UNL     1      -8.611  19.264  68.685  1.00  0.00    -0.364 N  
ENDBRANCH   2   3
BRANCH   2   8
HETATM    8  N   UNL     1     -10.775  16.683  67.728  1.00  0.00    -0.340 NA 
HETATM    9  H   UNL     1     -11.670  17.074  68.020  1.00  0.00     0.000 HD 
BRANCH   8  10
HETATM   10  C   UNL     1     -10.972  15.593  66.772  1.00  0.00    -0.230 C  
BRANCH  10  11
HETATM   11  C   UNL     1     -10.755  14.252  67.436  1.00  0.00    -0.282 A  
HETATM   12  C   UNL     1     -11.854  13.527  67.920  1.00  0.00    -0.397 A  
HETATM   13  C   UNL     1     -11.678  12.289  68.532  1.00  0.00    -0.381 A  
HETATM   14  C   UNL     1     -10.406  11.728  68.626  1.00  0.00    -0.214 A  
HETATM   15  C   UNL     1      -9.474  13.697  67.561  1.00  0.00    -0.222 A  
HETATM   16  C   UNL     1      -9.303  12.443  68.157  1.00  0.00    -0.209 A  
BRANCH  14  17
HETATM   17  O   UNL     1     -10.139  10.493  69.156  1.00  0.00    -0.205 OA 
BRANCH  17  18
HETATM   18  C   UNL     1      -8.771  10.087  69.055  1.00  0.00    -0.158 C  
BRANCH  18  19
HETATM   19  C   UNL     1      -8.402   9.102  70.136  1.00  0.00    -0.174 A  
HETATM   20  C   UNL     1      -7.216   9.227  70.871  1.00  0.00    -0.113 A  
HETATM   21  C   UNL     1      -6.868   8.248  71.794  1.00  0.00    -0.080 A  
HETATM   22  F   UNL     1      -5.730   8.371  72.487  1.00  0.00    -0.040 F  
HETATM   23  C   UNL     1      -7.673   7.132  71.996  1.00  0.00    -0.091 A  
HETATM   24  C   UNL     1      -8.851   6.993  71.265  1.00  0.00    -0.133 A  
HETATM   25  C   UNL     1      -9.211   7.971  70.336  1.00  0.00    -0.155 A  
ENDBRANCH  18  19
ENDBRANCH  17  18
ENDBRANCH  14  17
ENDBRANCH  10  11
ENDBRANCH   8  10
ENDBRANCH   2   8
TORSDOF 7
ENDMDL
MODEL      219
REMARK 921   NORMALIZED FREE ENERGY PREDICTED BY IDOCK:   -3.51 KCAL/MOL
REMARK 922        TOTAL FREE ENERGY PREDICTED BY IDOCK:   -5.74 KCAL/MOL
REMARK 923 INTER-LIGAND FREE ENERGY PREDICTED BY IDOCK:   -4.91 KCAL/MOL
REMARK 924 INTRA-LIGAND FREE ENERGY PREDICTED BY IDOCK:   -0.83 KCAL/MOL
REMARK 927      BINDING AFFINITY PREDICTED BY RF-SCORE:    0.00 PKD
ROOT
HETATM    1  C   UNL     1     -10.695  14.008  68.580  1.00  0.00    -0.269 C  
HETATM    2  C   UNL     1     -11.920  13.558  67.786  1.00  0.00    -0.334 C  
ENDROOT
BRANCH   2   3
HETATM    3  C   UNL     1     -11.785  14.010  66.312  1.00  0.00    -0.387 C  
HETATM    4  H2  UNL     1     -13.609  13.068  65.847  1.00  0.00     0.000 HD 
HETATM    5  H1  UNL     1     -12.729  13.911  64.534  1.00  0.00     0.000 HD 
HETATM    6  O   UNL     1     -10.850  14.663  65.862  1.00  0.00    -0.296 OA 
HETATM    7  N   UNL     1     -12.818  13.614  65.506  1.00  0.00    -0.467 N  
ENDBRANCH   2   3
BRANCH   2   8
HETATM    8  N   UNL     1     -12.121  12.091  67.777  1.00  0.00    -0.499 NA 
HETATM    9  H   UNL     1     -11.854  11.696  66.875  1.00  0.00     0.000 HD 
BRANCH   8  10
HETATM   10  C   UNL     1     -11.433  11.401  68.868  1.00  0.00    -0.298 C  
BRANCH  10  11
HETATM   11  C   UNL     1     -10.530  10.314  68.331  1.00  0.00    -0.228 A  
HETATM   12  C   UNL     1     -10.611   9.016  68.857  1.00  0.00    -0.203 A  
HETATM   13  C   UNL     1      -9.792   7.999  68.376  1.00  0.00    -0.184 A  
HETATM   14  C   UNL     1      -8.912   8.245  67.324  1.00  0.00    -0.137 A  
HETATM   15  C   UNL     1      -9.622  10.564  67.293  1.00  0.00    -0.188 A  
HETATM   16  C   UNL     1      -8.816   9.534  66.797  1.00  0.00    -0.145 A  
BRANCH  14  17
HETATM   17  O   UNL     1      -8.111   7.298  66.743  1.00  0.00    -0.115 OA 
BRANCH  17  18
HETATM   18  C   UNL     1      -8.454   5.949  67.072  1.00  0.00    -0.107 C  
BRANCH  18  19
HETATM   19  C   UNL     1      -8.977   5.200  65.872  1.00  0.00    -0.145 A  
HETATM   20  C   UNL     1      -8.261   5.144  64.670  1.00  0.00    -0.132 A  
HETATM   21  C   UNL     1      -8.818   4.522  63.560  1.00  0.00    -0.139 A  
HETATM   22  F   UNL     1      -8.129   4.479  62.413  1.00  0.00    -0.061 F  
HETATM   23  C   UNL     1     -10.089   3.959  63.614  1.00  0.00    -0.181 A  
HETATM   24  C   UNL     1     -10.815   4.015  64.802  1.00  0.00    -0.093 A  
HETATM   25  C   UNL     1     -10.264   4.637  65.924  1.00  0.00    -0.303 A  
ENDBRANCH  18  19
ENDBRANCH  17  18
ENDBRANCH  14  17
ENDBRANCH  10  11
ENDBRANCH   8  10
ENDBRANCH   2   8
TORSDOF 7
ENDMDL
MODEL      220
REMARK 921   NORMALIZED FREE ENERGY PREDICTED BY IDOCK:   -3.46 KCAL/MOL
REMARK 922        TOTAL FREE ENERGY PREDICTED BY IDOCK:   -5.67 KCAL/MOL
REMARK 923 INTER-LIGAND FREE ENERGY PREDICTED BY IDOCK:   -5.13 KCAL/MOL
REMARK 924 INTRA-LIGAND FREE ENERGY PREDICTED BY IDOCK:   -0.54 KCAL/MOL
REMARK 927      BINDING AFFINITY PREDICTED BY RF-SCORE:    0.00 PKD
ROOT
HETATM    1  C   UNL     1     -13.614   9.445  72.756  1.00  0.00    -0.188 C  
HETATM    2  C   UNL     1     -13.373   9.412  71.248  1.00  0.00    -0.287 C  
ENDROOT
BRANCH   2   3
HETATM    3  C   UNL     1     -12.234  10.392  70.876  1.00  0.00    -0.383 C  
HETATM    4  H2  UNL     1     -13.508  12.026  71.246  1.00  0.00     0.000 HD 
HETATM    5  H1  UNL     1     -11.830  12.360  70.716  1.00  0.00     0.000 HD 
HETATM    6  O   UNL     1     -11.107  10.058  70.527  1.00  0.00    -0.287 OA 
HETATM    7  N   UNL     1     -12.580  11.713  70.962  1.00  0.00    -0.372 N  
ENDBRANCH   2   3
BRANCH   2   8
HETATM    8  N   UNL     1     -12.986   8.078  70.734  1.00  0.00    -0.387 NA 
HETATM    9  H   UNL     1     -12.415   8.167  69.894  1.00  0.00     0.000 HD 
BRANCH   8  10
HETATM   10  C   UNL     1     -12.317   7.241  71.730  1.00  0.00    -0.341 C  
BRANCH  10  11
HETATM   11  C   UNL     1     -11.341   6.296  71.067  1.00  0.00    -0.378 A  
HETATM   12  C   UNL     1     -10.583   5.413  71.850  1.00  0.00    -0.288 A  
HETATM   13  C   UNL     1      -9.680   4.533  71.261  1.00  0.00    -0.252 A  
HETATM   14  C   UNL     1      -9.553   4.482  69.874  1.00  0.00    -0.199 A  
HETATM   15  C   UNL     1     -11.187   6.262  69.674  1.00  0.00    -0.506 A  
HETATM   16  C   UNL     1     -10.295   5.361  69.084  1.00  0.00    -0.300 A  
BRANCH  14  17
HETATM   17  O   UNL     1      -8.738   3.611  69.200  1.00  0.00    -0.079 OA 
BRANCH  17  18
HETATM   18  C   UNL     1      -9.410   2.798  68.234  1.00  0.00    -0.200 C  
BRANCH  18  19
HETATM   19  C   UNL     1      -8.918   3.077  66.835  1.00  0.00    -0.178 A  
HETATM   20  C   UNL     1      -9.592   3.958  65.981  1.00  0.00    -0.189 A  
HETATM   21  C   UNL     1      -9.160   4.118  64.670  1.00  0.00    -0.146 A  
HETATM   22  F   UNL     1      -9.814   4.957  63.858  1.00  0.00     0.052 F  
HETATM   23  C   UNL     1      -8.070   3.405  64.181  1.00  0.00    -0.086 A  
HETATM   24  C   UNL     1      -7.396   2.519  65.019  1.00  0.00    -0.063 A  
HETATM   25  C   UNL     1      -7.821   2.352  66.338  1.00  0.00    -0.076 A  
ENDBRANCH  18  19
ENDBRANCH  17  18
ENDBRANCH  14  17
ENDBRANCH  10  11
ENDBRANCH   8  10
ENDBRANCH   2   8
TORSDOF 7
ENDMDL
MODEL      221
REMARK 921   NORMALIZED FREE ENERGY PREDICTED BY IDOCK:   -3.46 KCAL/MOL
REMARK 922        TOTAL FREE ENERGY PREDICTED BY IDOCK:   -5.66 KCAL/MOL
REMARK 923 INTER-LIGAND FREE ENERGY PREDICTED BY IDOCK:   -4.89 KCAL/MOL
REMARK 924 INTRA-LIGAND FREE ENERGY PREDICTED BY IDOCK:   -0.78 KCAL/MOL
REMARK 927      BINDING AFFINITY PREDICTED BY RF-SCORE:    0.00 PKD
ROOT
HETATM    1  C   UNL     1     -13.273  11.016  71.919  1.00  0.00    -0.503 C  
HETATM    2  C   UNL     1     -12.899  10.593  70.499  1.00  0.00    -0.279 C  
ENDROOT
BRANCH   2   3
HETATM    3  C   UNL     1     -11.902  11.610  69.893  1.00  0.00    -0.358 C  
HETATM    4  H2  UNL     1     -13.026  13.200  70.690  1.00  0.00     0.000 HD 
HETATM    5  H1  UNL     1     -11.553  13.589  69.749  1.00  0.00     0.000 HD 
HETATM    6  O   UNL     1     -10.911  11.313  69.234  1.00  0.00    -0.232 OA 
HETATM    7  N   UNL     1     -12.210  12.919  70.148  1.00  0.00    -0.303 N  
ENDBRANCH   2   3
BRANCH   2   8
HETATM    8  N   UNL     1     -12.264   9.258  70.421  1.00  0.00    -0.464 NA 
HETATM    9  H   UNL     1     -11.249   9.344  70.363  1.00  0.00     0.000 HD 
BRANCH   8  10
HETATM   10  C   UNL     1     -12.646   8.365  71.514  1.00  0.00    -0.308 C  
BRANCH  10  11
HETATM   11  C   UNL     1     -11.647   7.240  71.662  1.00  0.00    -0.306 A  
HETATM   12  C   UNL     1     -11.939   6.153  72.499  1.00  0.00    -0.171 A  
HETATM   13  C   UNL     1     -11.035   5.105  72.649  1.00  0.00    -0.303 A  
HETATM   14  C   UNL     1      -9.844   5.097  71.925  1.00  0.00    -0.177 A  
HETATM   15  C   UNL     1     -10.434   7.242  70.960  1.00  0.00    -0.226 A  
HETATM   16  C   UNL     1      -9.538   6.176  71.095  1.00  0.00    -0.193 A  
BRANCH  14  17
HETATM   17  O   UNL     1      -8.922   4.085  71.958  1.00  0.00    -0.113 OA 
BRANCH  17  18
HETATM   18  C   UNL     1      -9.301   2.913  71.232  1.00  0.00    -0.138 C  
BRANCH  18  19
HETATM   19  C   UNL     1      -8.668   2.877  69.864  1.00  0.00    -0.126 A  
HETATM   20  C   UNL     1      -9.376   3.250  68.715  1.00  0.00    -0.235 A  
HETATM   21  C   UNL     1      -8.787   3.116  67.464  1.00  0.00    -0.136 A  
HETATM   22  F   UNL     1      -9.474   3.469  66.371  1.00  0.00    -0.170 F  
HETATM   23  C   UNL     1      -7.502   2.602  67.327  1.00  0.00    -0.061 A  
HETATM   24  C   UNL     1      -6.790   2.220  68.461  1.00  0.00    -0.039 A  
HETATM   25  C   UNL     1      -7.372   2.352  69.723  1.00  0.00    -0.043 A  
ENDBRANCH  18  19
ENDBRANCH  17  18
ENDBRANCH  14  17
ENDBRANCH  10  11
ENDBRANCH   8  10
ENDBRANCH   2   8
TORSDOF 7
ENDMDL
MODEL      222
REMARK 921   NORMALIZED FREE ENERGY PREDICTED BY IDOCK:   -3.45 KCAL/MOL
REMARK 922        TOTAL FREE ENERGY PREDICTED BY IDOCK:   -5.65 KCAL/MOL
REMARK 923 INTER-LIGAND FREE ENERGY PREDICTED BY IDOCK:   -4.95 KCAL/MOL
REMARK 924 INTRA-LIGAND FREE ENERGY PREDICTED BY IDOCK:   -0.70 KCAL/MOL
REMARK 927      BINDING AFFINITY PREDICTED BY RF-SCORE:    0.00 PKD
ROOT
HETATM    1  C   UNL     1     -11.625  12.113  67.437  1.00  0.00    -0.410 C  
HETATM    2  C   UNL     1     -11.448  12.093  65.920  1.00  0.00    -0.363 C  
ENDROOT
BRANCH   2   3
HETATM    3  C   UNL     1     -12.593  12.888  65.247  1.00  0.00    -0.439 C  
HETATM    4  H2  UNL     1     -12.109  14.580  66.402  1.00  0.00     0.000 HD 
HETATM    5  H1  UNL     1     -13.473  14.701  65.246  1.00  0.00     0.000 HD 
HETATM    6  O   UNL     1     -13.349  12.440  64.390  1.00  0.00    -0.789 OA 
HETATM    7  N   UNL     1     -12.718  14.177  65.689  1.00  0.00    -0.502 N  
ENDBRANCH   2   3
BRANCH   2   8
HETATM    8  N   UNL     1     -10.173  12.688  65.459  1.00  0.00    -0.279 NA 
HETATM    9  H   UNL     1      -9.491  12.711  66.216  1.00  0.00     0.000 HD 
BRANCH   8  10
HETATM   10  C   UNL     1      -9.616  12.029  64.278  1.00  0.00     0.019 C  
BRANCH  10  11
HETATM   11  C   UNL     1      -8.880  10.767  64.666  1.00  0.00    -0.155 A  
HETATM   12  C   UNL     1      -8.865   9.670  63.791  1.00  0.00    -0.257 A  
HETATM   13  C   UNL     1      -8.192   8.499  64.126  1.00  0.00    -0.141 A  
HETATM   14  C   UNL     1      -7.477   8.418  65.320  1.00  0.00    -0.086 A  
HETATM   15  C   UNL     1      -8.185  10.669  65.879  1.00  0.00    -0.159 A  
HETATM   16  C   UNL     1      -7.491   9.499  66.203  1.00  0.00    -0.100 A  
BRANCH  14  17
HETATM   17  O   UNL     1      -6.736   7.334  65.710  1.00  0.00    -0.050 OA 
BRANCH  17  18
HETATM   18  C   UNL     1      -6.696   7.120  67.123  1.00  0.00    -0.067 C  
BRANCH  18  19
HETATM   19  C   UNL     1      -7.916   6.376  67.608  1.00  0.00    -0.114 A  
HETATM   20  C   UNL     1      -8.827   5.798  66.716  1.00  0.00    -0.117 A  
HETATM   21  C   UNL     1      -9.985   5.201  67.199  1.00  0.00    -0.191 A  
HETATM   22  F   UNL     1     -10.854   4.657  66.338  1.00  0.00    -0.295 F  
HETATM   23  C   UNL     1     -10.266   5.176  68.560  1.00  0.00    -0.182 A  
HETATM   24  C   UNL     1      -9.371   5.754  69.458  1.00  0.00    -0.157 A  
HETATM   25  C   UNL     1      -8.204   6.355  68.983  1.00  0.00    -0.115 A  
ENDBRANCH  18  19
ENDBRANCH  17  18
ENDBRANCH  14  17
ENDBRANCH  10  11
ENDBRANCH   8  10
ENDBRANCH   2   8
TORSDOF 7
ENDMDL
MODEL      223
REMARK 921   NORMALIZED FREE ENERGY PREDICTED BY IDOCK:   -3.36 KCAL/MOL
REMARK 922        TOTAL FREE ENERGY PREDICTED BY IDOCK:   -5.53 KCAL/MOL
REMARK 923 INTER-LIGAND FREE ENERGY PREDICTED BY IDOCK:   -4.62 KCAL/MOL
REMARK 924 INTRA-LIGAND FREE ENERGY PREDICTED BY IDOCK:   -0.92 KCAL/MOL
REMARK 927      BINDING AFFINITY PREDICTED BY RF-SCORE:    0.00 PKD
ROOT
HETATM    1  C   UNL     1      -9.992   7.996  73.124  1.00  0.00    -0.316 C  
HETATM    2  C   UNL     1     -11.446   8.097  72.667  1.00  0.00    -0.387 C  
ENDROOT
BRANCH   2   3
HETATM    3  C   UNL     1     -11.587   9.222  71.613  1.00  0.00    -0.393 C  
HETATM    4  H2  UNL     1     -13.390   9.842  72.504  1.00  0.00     0.000 HD 
HETATM    5  H1  UNL     1     -12.801  10.736  71.068  1.00  0.00     0.000 HD 
HETATM    6  O   UNL     1     -10.791   9.436  70.704  1.00  0.00    -0.236 OA 
HETATM    7  N   UNL     1     -12.707   9.995  71.762  1.00  0.00    -0.412 N  
ENDBRANCH   2   3
BRANCH   2   8
HETATM    8  N   UNL     1     -11.967   6.855  72.052  1.00  0.00    -0.331 NA 
HETATM    9  H   UNL     1     -12.361   7.046  71.132  1.00  0.00     0.000 HD 
BRANCH   8  10
HETATM   10  C   UNL     1     -10.978   5.780  71.981  1.00  0.00    -0.260 C  
BRANCH  10  11
HETATM   11  C   UNL     1     -10.498   5.587  70.560  1.00  0.00    -0.347 A  
HETATM   12  C   UNL     1     -11.239   6.120  69.495  1.00  0.00    -0.482 A  
HETATM   13  C   UNL     1     -10.815   5.957  68.179  1.00  0.00    -0.323 A  
HETATM   14  C   UNL     1      -9.616   5.303  67.905  1.00  0.00    -0.134 A  
HETATM   15  C   UNL     1      -9.308   4.904  70.277  1.00  0.00    -0.216 A  
HETATM   16  C   UNL     1      -8.873   4.761  68.955  1.00  0.00    -0.120 A  
BRANCH  14  17
HETATM   17  O   UNL     1      -9.086   5.145  66.651  1.00  0.00    -0.117 OA 
BRANCH  17  18
HETATM   18  C   UNL     1      -9.492   6.141  65.707  1.00  0.00     0.144 C  
BRANCH  18  19
HETATM   19  C   UNL     1      -8.321   6.965  65.231  1.00  0.00    -0.102 A  
HETATM   20  C   UNL     1      -8.391   8.361  65.146  1.00  0.00    -0.177 A  
HETATM   21  C   UNL     1      -7.324   9.076  64.616  1.00  0.00    -0.098 A  
HETATM   22  F   UNL     1      -7.402  10.410  64.531  1.00  0.00    -0.143 F  
HETATM   23  C   UNL     1      -6.184   8.428  64.153  1.00  0.00    -0.067 A  
HETATM   24  C   UNL     1      -6.105   7.039  64.226  1.00  0.00    -0.036 A  
HETATM   25  C   UNL     1      -7.171   6.311  64.758  1.00  0.00    -0.064 A  
ENDBRANCH  18  19
ENDBRANCH  17  18
ENDBRANCH  14  17
ENDBRANCH  10  11
ENDBRANCH   8  10
ENDBRANCH   2   8
TORSDOF 7
ENDMDL
MODEL      224
REMARK 921   NORMALIZED FREE ENERGY PREDICTED BY IDOCK:   -3.36 KCAL/MOL
REMARK 922        TOTAL FREE ENERGY PREDICTED BY IDOCK:   -5.53 KCAL/MOL
REMARK 923 INTER-LIGAND FREE ENERGY PREDICTED BY IDOCK:   -4.93 KCAL/MOL
REMARK 924 INTRA-LIGAND FREE ENERGY PREDICTED BY IDOCK:   -0.59 KCAL/MOL
REMARK 927      BINDING AFFINITY PREDICTED BY RF-SCORE:    0.00 PKD
ROOT
HETATM    1  C   UNL     1      -9.021   7.670  65.966  1.00  0.00    -0.178 C  
HETATM    2  C   UNL     1      -7.642   7.100  65.641  1.00  0.00    -0.093 C  
ENDROOT
BRANCH   2   3
HETATM    3  C   UNL     1      -6.631   8.254  65.440  1.00  0.00    -0.052 C  
HETATM    4  H2  UNL     1      -6.194   8.241  67.499  1.00  0.00     0.000 HD 
HETATM    5  H1  UNL     1      -5.342   9.424  66.457  1.00  0.00     0.000 HD 
HETATM    6  O   UNL     1      -6.381   8.789  64.365  1.00  0.00    -0.070 OA 
HETATM    7  N   UNL     1      -6.008   8.662  66.589  1.00  0.00    -0.052 N  
ENDBRANCH   2   3
BRANCH   2   8
HETATM    8  N   UNL     1      -7.095   6.218  66.697  1.00  0.00    -0.067 NA 
HETATM    9  H   UNL     1      -6.723   6.770  67.470  1.00  0.00     0.000 HD 
BRANCH   8  10
HETATM   10  C   UNL     1      -8.054   5.226  67.183  1.00  0.00    -0.101 C  
BRANCH  10  11
HETATM   11  C   UNL     1      -8.672   5.672  68.488  1.00  0.00    -0.110 A  
HETATM   12  C   UNL     1      -7.917   6.434  69.393  1.00  0.00    -0.110 A  
HETATM   13  C   UNL     1      -8.467   6.858  70.600  1.00  0.00    -0.136 A  
HETATM   14  C   UNL     1      -9.797   6.574  70.903  1.00  0.00    -0.183 A  
HETATM   15  C   UNL     1     -10.000   5.363  68.812  1.00  0.00    -0.235 A  
HETATM   16  C   UNL     1     -10.556   5.810  70.015  1.00  0.00    -0.380 A  
BRANCH  14  17
HETATM   17  O   UNL     1     -10.443   6.998  72.035  1.00  0.00    -0.206 OA 
BRANCH  17  18
HETATM   18  C   UNL     1     -11.850   7.197  71.874  1.00  0.00    -0.300 C  
BRANCH  18  19
HETATM   19  C   UNL     1     -12.174   8.636  71.555  1.00  0.00    -0.368 A  
HETATM   20  C   UNL     1     -11.403   9.381  70.655  1.00  0.00    -0.352 A  
HETATM   21  C   UNL     1     -11.679  10.729  70.458  1.00  0.00    -0.351 A  
HETATM   22  F   UNL     1     -10.932  11.436  69.601  1.00  0.00    -0.269 F  
HETATM   23  C   UNL     1     -12.706  11.361  71.151  1.00  0.00    -0.479 A  
HETATM   24  C   UNL     1     -13.476  10.631  72.054  1.00  0.00    -0.310 A  
HETATM   25  C   UNL     1     -13.208   9.276  72.259  1.00  0.00    -0.535 A  
ENDBRANCH  18  19
ENDBRANCH  17  18
ENDBRANCH  14  17
ENDBRANCH  10  11
ENDBRANCH   8  10
ENDBRANCH   2   8
TORSDOF 7
ENDMDL
MODEL      225
REMARK 921   NORMALIZED FREE ENERGY PREDICTED BY IDOCK:   -3.26 KCAL/MOL
REMARK 922        TOTAL FREE ENERGY PREDICTED BY IDOCK:   -5.39 KCAL/MOL
REMARK 923 INTER-LIGAND FREE ENERGY PREDICTED BY IDOCK:   -4.43 KCAL/MOL
REMARK 924 INTRA-LIGAND FREE ENERGY PREDICTED BY IDOCK:   -0.96 KCAL/MOL
REMARK 927      BINDING AFFINITY PREDICTED BY RF-SCORE:    0.00 PKD
ROOT
HETATM    1  C   UNL     1      -6.540  14.333  70.038  1.00  0.00    -0.088 C  
HETATM    2  C   UNL     1      -7.744  14.520  69.117  1.00  0.00    -0.082 C  
ENDROOT
BRANCH   2   3
HETATM    3  C   UNL     1      -7.962  16.027  68.837  1.00  0.00    -0.212 C  
HETATM    4  H2  UNL     1     -10.018  15.812  69.232  1.00  0.00     0.000 HD 
HETATM    5  H1  UNL     1      -9.404  17.434  68.786  1.00  0.00     0.000 HD 
HETATM    6  O   UNL     1      -7.079  16.816  68.518  1.00  0.00    -0.166 OA 
HETATM    7  N   UNL     1      -9.260  16.441  68.971  1.00  0.00    -0.257 N  
ENDBRANCH   2   3
BRANCH   2   8
HETATM    8  N   UNL     1      -7.603  13.848  67.805  1.00  0.00    -0.152 NA 
HETATM    9  H   UNL     1      -6.813  13.203  67.813  1.00  0.00     0.000 HD 
BRANCH   8  10
HETATM   10  C   UNL     1      -8.822  13.171  67.363  1.00  0.00    -0.204 C  
BRANCH  10  11
HETATM   11  C   UNL     1      -9.151  12.011  68.275  1.00  0.00    -0.190 A  
HETATM   12  C   UNL     1     -10.435  11.901  68.828  1.00  0.00    -0.207 A  
HETATM   13  C   UNL     1     -10.761  10.840  69.668  1.00  0.00    -0.261 A  
HETATM   14  C   UNL     1      -9.826   9.840  69.931  1.00  0.00    -0.243 A  
HETATM   15  C   UNL     1      -8.205  11.019  68.567  1.00  0.00    -0.146 A  
HETATM   16  C   UNL     1      -8.543   9.942  69.394  1.00  0.00    -0.180 A  
BRANCH  14  17
HETATM   17  O   UNL     1     -10.071   8.729  70.694  1.00  0.00    -0.186 OA 
BRANCH  17  18
HETATM   18  C   UNL     1     -11.106   7.880  70.190  1.00  0.00    -0.201 C  
BRANCH  18  19
HETATM   19  C   UNL     1     -10.553   6.804  69.289  1.00  0.00    -0.262 A  
HETATM   20  C   UNL     1     -10.969   6.675  67.958  1.00  0.00    -0.332 A  
HETATM   21  C   UNL     1     -10.505   5.616  67.187  1.00  0.00    -0.270 A  
HETATM   22  F   UNL     1     -10.913   5.496  65.918  1.00  0.00    -0.202 F  
HETATM   23  C   UNL     1      -9.639   4.666  67.719  1.00  0.00    -0.203 A  
HETATM   24  C   UNL     1      -9.224   4.780  69.044  1.00  0.00    -0.174 A  
HETATM   25  C   UNL     1      -9.683   5.841  69.826  1.00  0.00    -0.210 A  
ENDBRANCH  18  19
ENDBRANCH  17  18
ENDBRANCH  14  17
ENDBRANCH  10  11
ENDBRANCH   8  10
ENDBRANCH   2   8
TORSDOF 7
ENDMDL
MODEL      226
REMARK 921   NORMALIZED FREE ENERGY PREDICTED BY IDOCK:   -3.25 KCAL/MOL
REMARK 922        TOTAL FREE ENERGY PREDICTED BY IDOCK:   -5.37 KCAL/MOL
REMARK 923 INTER-LIGAND FREE ENERGY PREDICTED BY IDOCK:   -4.22 KCAL/MOL
REMARK 924 INTRA-LIGAND FREE ENERGY PREDICTED BY IDOCK:   -1.15 KCAL/MOL
REMARK 927      BINDING AFFINITY PREDICTED BY RF-SCORE:    0.00 PKD
ROOT
HETATM    1  C   UNL     1      -9.926   5.365  67.156  1.00  0.00    -0.199 C  
HETATM    2  C   UNL     1      -8.974   6.370  66.511  1.00  0.00    -0.145 C  
ENDROOT
BRANCH   2   3
HETATM    3  C   UNL     1      -8.323   5.744  65.254  1.00  0.00    -0.146 C  
HETATM    4  H2  UNL     1      -7.936   3.974  66.325  1.00  0.00     0.000 HD 
HETATM    5  H1  UNL     1      -7.430   4.057  64.608  1.00  0.00     0.000 HD 
HETATM    6  O   UNL     1      -8.208   6.307  64.170  1.00  0.00    -0.102 OA 
HETATM    7  N   UNL     1      -7.859   4.470  65.436  1.00  0.00    -0.089 N  
ENDBRANCH   2   3
BRANCH   2   8
HETATM    8  N   UNL     1      -9.630   7.627  66.084  1.00  0.00    -0.422 NA 
HETATM    9  H   UNL     1     -10.630   7.595  66.277  1.00  0.00     0.000 HD 
BRANCH   8  10
HETATM   10  C   UNL     1      -9.027   8.826  66.665  1.00  0.00    -0.139 C  
BRANCH  10  11
HETATM   11  C   UNL     1      -9.197   8.837  68.168  1.00  0.00    -0.145 A  
HETATM   12  C   UNL     1      -8.067   8.828  68.998  1.00  0.00    -0.116 A  
HETATM   13  C   UNL     1      -8.200   8.841  70.384  1.00  0.00    -0.127 A  
HETATM   14  C   UNL     1      -9.464   8.914  70.966  1.00  0.00    -0.252 A  
HETATM   15  C   UNL     1     -10.467   8.880  68.759  1.00  0.00    -0.223 A  
HETATM   16  C   UNL     1     -10.596   8.914  70.151  1.00  0.00    -0.243 A  
BRANCH  14  17
HETATM   17  O   UNL     1      -9.694   8.991  72.315  1.00  0.00    -0.260 OA 
BRANCH  17  18
HETATM   18  C   UNL     1      -8.836   8.169  73.111  1.00  0.00    -0.257 C  
BRANCH  18  19
HETATM   19  C   UNL     1      -9.273   6.725  73.091  1.00  0.00    -0.147 A  
HETATM   20  C   UNL     1      -8.405   5.700  72.698  1.00  0.00    -0.117 A  
HETATM   21  C   UNL     1      -8.874   4.394  72.606  1.00  0.00    -0.109 A  
HETATM   22  F   UNL     1      -8.039   3.421  72.222  1.00  0.00    -0.062 F  
HETATM   23  C   UNL     1     -10.200   4.085  72.886  1.00  0.00    -0.228 A  
HETATM   24  C   UNL     1     -11.075   5.099  73.271  1.00  0.00    -0.392 A  
HETATM   25  C   UNL     1     -10.615   6.413  73.369  1.00  0.00    -0.298 A  
ENDBRANCH  18  19
ENDBRANCH  17  18
ENDBRANCH  14  17
ENDBRANCH  10  11
ENDBRANCH   8  10
ENDBRANCH   2   8
TORSDOF 7
ENDMDL
MODEL      227
REMARK 921   NORMALIZED FREE ENERGY PREDICTED BY IDOCK:   -3.19 KCAL/MOL
REMARK 922        TOTAL FREE ENERGY PREDICTED BY IDOCK:   -5.29 KCAL/MOL
REMARK 923 INTER-LIGAND FREE ENERGY PREDICTED BY IDOCK:   -4.55 KCAL/MOL
REMARK 924 INTRA-LIGAND FREE ENERGY PREDICTED BY IDOCK:   -0.74 KCAL/MOL
REMARK 927      BINDING AFFINITY PREDICTED BY RF-SCORE:    0.00 PKD
ROOT
HETATM    1  C   UNL     1      -9.488   4.649  67.299  1.00  0.00    -0.173 C  
HETATM    2  C   UNL     1      -8.107   4.968  66.729  1.00  0.00    -0.108 C  
ENDROOT
BRANCH   2   3
HETATM    3  C   UNL     1      -7.662   3.837  65.770  1.00  0.00    -0.089 C  
HETATM    4  H2  UNL     1      -7.550   5.214  64.182  1.00  0.00     0.000 HD 
HETATM    5  H1  UNL     1      -7.143   3.501  63.852  1.00  0.00     0.000 HD 
HETATM    6  O   UNL     1      -7.516   2.662  66.091  1.00  0.00    -0.066 OA 
HETATM    7  N   UNL     1      -7.436   4.246  64.484  1.00  0.00    -0.071 N  
ENDBRANCH   2   3
BRANCH   2   8
HETATM    8  N   UNL     1      -8.053   6.234  65.964  1.00  0.00    -0.114 NA 
HETATM    9  H   UNL     1      -8.984   6.505  65.649  1.00  0.00     0.000 HD 
BRANCH   8  10
HETATM   10  C   UNL     1      -7.414   7.329  66.694  1.00  0.00    -0.088 C  
BRANCH  10  11
HETATM   11  C   UNL     1      -8.452   8.266  67.270  1.00  0.00    -0.124 A  
HETATM   12  C   UNL     1      -8.045   9.394  67.999  1.00  0.00    -0.106 A  
HETATM   13  C   UNL     1      -8.983  10.272  68.535  1.00  0.00    -0.134 A  
HETATM   14  C   UNL     1     -10.343  10.069  68.311  1.00  0.00    -0.193 A  
HETATM   15  C   UNL     1      -9.822   8.050  67.073  1.00  0.00    -0.295 A  
HETATM   16  C   UNL     1     -10.761   8.947  67.595  1.00  0.00    -0.221 A  
BRANCH  14  17
HETATM   17  O   UNL     1     -11.336  10.908  68.746  1.00  0.00    -0.248 OA 
BRANCH  17  18
HETATM   18  C   UNL     1     -11.302  11.190  70.147  1.00  0.00    -0.209 C  
BRANCH  18  19
HETATM   19  C   UNL     1     -11.935  10.083  70.953  1.00  0.00    -0.453 A  
HETATM   20  C   UNL     1     -11.211   8.947  71.338  1.00  0.00    -0.382 A  
HETATM   21  C   UNL     1     -11.854   7.908  71.999  1.00  0.00    -0.318 A  
HETATM   22  F   UNL     1     -11.157   6.823  72.357  1.00  0.00    -0.238 F  
HETATM   23  C   UNL     1     -13.215   7.967  72.279  1.00  0.00    -0.082 A  
HETATM   24  C   UNL     1     -13.948   9.088  71.894  1.00  0.00    -0.445 A  
HETATM   25  C   UNL     1     -13.312  10.138  71.230  1.00  0.00    -0.394 A  
ENDBRANCH  18  19
ENDBRANCH  17  18
ENDBRANCH  14  17
ENDBRANCH  10  11
ENDBRANCH   8  10
ENDBRANCH   2   8
TORSDOF 7
ENDMDL
MODEL      228
REMARK 921   NORMALIZED FREE ENERGY PREDICTED BY IDOCK:   -3.16 KCAL/MOL
REMARK 922        TOTAL FREE ENERGY PREDICTED BY IDOCK:   -5.25 KCAL/MOL
REMARK 923 INTER-LIGAND FREE ENERGY PREDICTED BY IDOCK:   -4.34 KCAL/MOL
REMARK 924 INTRA-LIGAND FREE ENERGY PREDICTED BY IDOCK:   -0.91 KCAL/MOL
REMARK 927      BINDING AFFINITY PREDICTED BY RF-SCORE:    0.00 PKD
ROOT
HETATM    1  C   UNL     1      -7.311  19.163  68.141  1.00  0.00    -0.304 C  
HETATM    2  C   UNL     1      -8.626  19.858  67.797  1.00  0.00    -0.317 C  
ENDROOT
BRANCH   2   3
HETATM    3  C   UNL     1      -8.688  20.141  66.276  1.00  0.00    -0.215 C  
HETATM    4  H2  UNL     1     -10.778  20.361  66.393  1.00  0.00     0.000 HD 
HETATM    5  H1  UNL     1      -9.990  20.559  64.796  1.00  0.00     0.000 HD 
HETATM    6  O   UNL     1      -7.717  20.162  65.526  1.00  0.00    -0.262 OA 
HETATM    7  N   UNL     1      -9.949  20.373  65.798  1.00  0.00    -0.179 N  
ENDBRANCH   2   3
BRANCH   2   8
HETATM    8  N   UNL     1      -9.829  19.068  68.143  1.00  0.00    -0.346 NA 
HETATM    9  H   UNL     1     -10.133  18.507  67.348  1.00  0.00     0.000 HD 
BRANCH   8  10
HETATM   10  C   UNL     1      -9.655  18.233  69.332  1.00  0.00     0.204 C  
BRANCH  10  11
HETATM   11  C   UNL     1     -10.264  16.865  69.119  1.00  0.00    -0.292 A  
HETATM   12  C   UNL     1     -10.182  16.254  67.859  1.00  0.00    -0.261 A  
HETATM   13  C   UNL     1     -10.732  14.994  67.641  1.00  0.00    -0.274 A  
HETATM   14  C   UNL     1     -11.330  14.298  68.690  1.00  0.00    -0.275 A  
HETATM   15  C   UNL     1     -10.893  16.174  70.163  1.00  0.00    -0.328 A  
HETATM   16  C   UNL     1     -11.425  14.899  69.946  1.00  0.00    -0.321 A  
BRANCH  14  17
HETATM   17  O   UNL     1     -11.845  13.033  68.590  1.00  0.00    -0.305 OA 
BRANCH  17  18
HETATM   18  C   UNL     1     -11.104  12.157  67.736  1.00  0.00    -0.250 C  
BRANCH  18  19
HETATM   19  C   UNL     1     -10.097  11.345  68.512  1.00  0.00    -0.211 A  
HETATM   20  C   UNL     1     -10.418  10.758  69.742  1.00  0.00    -0.130 A  
HETATM   21  C   UNL     1      -9.436  10.095  70.470  1.00  0.00     0.452 A  
HETATM   22  F   UNL     1      -9.749   9.543  71.648  1.00  0.00    -0.298 F  
HETATM   23  C   UNL     1      -8.129  10.013  70.003  1.00  0.00    -0.154 A  
HETATM   24  C   UNL     1      -7.796  10.599  68.784  1.00  0.00    -0.125 A  
HETATM   25  C   UNL     1      -8.774  11.266  68.044  1.00  0.00    -0.144 A  
ENDBRANCH  18  19
ENDBRANCH  17  18
ENDBRANCH  14  17
ENDBRANCH  10  11
ENDBRANCH   8  10
ENDBRANCH   2   8
TORSDOF 7
ENDMDL
MODEL      229
REMARK 921   NORMALIZED FREE ENERGY PREDICTED BY IDOCK:   -3.08 KCAL/MOL
REMARK 922        TOTAL FREE ENERGY PREDICTED BY IDOCK:   -5.14 KCAL/MOL
REMARK 923 INTER-LIGAND FREE ENERGY PREDICTED BY IDOCK:   -4.23 KCAL/MOL
REMARK 924 INTRA-LIGAND FREE ENERGY PREDICTED BY IDOCK:   -0.91 KCAL/MOL
REMARK 927      BINDING AFFINITY PREDICTED BY RF-SCORE:    0.00 PKD
ROOT
HETATM    1  C   UNL     1     -11.671  12.658  65.683  1.00  0.00    -0.458 C  
HETATM    2  C   UNL     1     -10.247  13.182  65.506  1.00  0.00    -0.287 C  
ENDROOT
BRANCH   2   3
HETATM    3  C   UNL     1     -10.178  14.669  65.930  1.00  0.00    -0.326 C  
HETATM    4  H2  UNL     1     -12.279  14.782  65.908  1.00  0.00     0.000 HD 
HETATM    5  H1  UNL     1     -11.354  16.251  66.348  1.00  0.00     0.000 HD 
HETATM    6  O   UNL     1      -9.141  15.294  66.130  1.00  0.00    -0.307 OA 
HETATM    7  N   UNL     1     -11.399  15.271  66.069  1.00  0.00    -0.232 N  
ENDBRANCH   2   3
BRANCH   2   8
HETATM    8  N   UNL     1      -9.238  12.452  66.307  1.00  0.00    -0.364 NA 
HETATM    9  H   UNL     1      -9.081  12.918  67.201  1.00  0.00     0.000 HD 
BRANCH   8  10
HETATM   10  C   UNL     1      -9.564  11.040  66.509  1.00  0.00    -0.195 C  
BRANCH  10  11
HETATM   11  C   UNL     1      -9.091  10.570  67.866  1.00  0.00    -0.136 A  
HETATM   12  C   UNL     1     -10.028  10.183  68.835  1.00  0.00    -0.207 A  
HETATM   13  C   UNL     1      -9.616   9.743  70.090  1.00  0.00    -0.287 A  
HETATM   14  C   UNL     1      -8.258   9.634  70.384  1.00  0.00    -0.160 A  
HETATM   15  C   UNL     1      -7.727  10.486  68.177  1.00  0.00    -0.096 A  
HETATM   16  C   UNL     1      -7.316  10.023  69.431  1.00  0.00    -0.100 A  
BRANCH  14  17
HETATM   17  O   UNL     1      -7.755   9.156  71.565  1.00  0.00    -0.325 OA 
BRANCH  17  18
HETATM   18  C   UNL     1      -8.323   7.916  71.993  1.00  0.00    -0.127 C  
BRANCH  18  19
HETATM   19  C   UNL     1      -7.926   6.779  71.084  1.00  0.00    -0.103 A  
HETATM   20  C   UNL     1      -8.881   5.949  70.485  1.00  0.00    -0.147 A  
HETATM   21  C   UNL     1      -8.473   4.857  69.728  1.00  0.00    -0.083 A  
HETATM   22  F   UNL     1      -9.392   4.065  69.164  1.00  0.00    -0.165 F  
HETATM   23  C   UNL     1      -7.124   4.563  69.563  1.00  0.00    -0.050 A  
HETATM   24  C   UNL     1      -6.164   5.377  70.160  1.00  0.00    -0.023 A  
HETATM   25  C   UNL     1      -6.564   6.477  70.921  1.00  0.00    -0.053 A  
ENDBRANCH  18  19
ENDBRANCH  17  18
ENDBRANCH  14  17
ENDBRANCH  10  11
ENDBRANCH   8  10
ENDBRANCH   2   8
TORSDOF 7
ENDMDL
MODEL      230
REMARK 921   NORMALIZED FREE ENERGY PREDICTED BY IDOCK:   -3.03 KCAL/MOL
REMARK 922        TOTAL FREE ENERGY PREDICTED BY IDOCK:   -5.06 KCAL/MOL
REMARK 923 INTER-LIGAND FREE ENERGY PREDICTED BY IDOCK:   -4.35 KCAL/MOL
REMARK 924 INTRA-LIGAND FREE ENERGY PREDICTED BY IDOCK:   -0.71 KCAL/MOL
REMARK 927      BINDING AFFINITY PREDICTED BY RF-SCORE:    0.00 PKD
ROOT
HETATM    1  C   UNL     1      -8.849   8.104  72.292  1.00  0.00    -0.248 C  
HETATM    2  C   UNL     1      -9.195   7.254  71.071  1.00  0.00    -0.154 C  
ENDROOT
BRANCH   2   3
HETATM    3  C   UNL     1     -10.416   6.356  71.386  1.00  0.00    -0.218 C  
HETATM    4  H2  UNL     1      -9.595   5.883  73.265  1.00  0.00     0.000 HD 
HETATM    5  H1  UNL     1     -11.172   5.160  72.821  1.00  0.00     0.000 HD 
HETATM    6  O   UNL     1     -11.363   6.170  70.629  1.00  0.00    -0.325 OA 
HETATM    7  N   UNL     1     -10.368   5.752  72.613  1.00  0.00    -0.191 N  
ENDBRANCH   2   3
BRANCH   2   8
HETATM    8  N   UNL     1      -9.535   8.047  69.868  1.00  0.00    -0.160 NA 
HETATM    9  H   UNL     1      -9.981   8.926  70.129  1.00  0.00     0.000 HD 
BRANCH   8  10
HETATM   10  C   UNL     1      -8.393   8.287  68.986  1.00  0.00    -0.120 C  
BRANCH  10  11
HETATM   11  C   UNL     1      -8.120   9.768  68.854  1.00  0.00    -0.101 A  
HETATM   12  C   UNL     1      -9.102  10.613  68.315  1.00  0.00    -0.153 A  
HETATM   13  C   UNL     1      -8.874  11.980  68.187  1.00  0.00    -0.182 A  
HETATM   14  C   UNL     1      -7.680  12.538  68.640  1.00  0.00    -0.063 A  
HETATM   15  C   UNL     1      -6.909  10.330  69.280  1.00  0.00    -0.068 A  
HETATM   16  C   UNL     1      -6.692  11.707  69.170  1.00  0.00    -0.109 A  
BRANCH  14  17
HETATM   17  O   UNL     1      -7.388  13.876  68.612  1.00  0.00    -0.108 OA 
BRANCH  17  18
HETATM   18  C   UNL     1      -7.696  14.524  67.375  1.00  0.00    -0.192 C  
BRANCH  18  19
HETATM   19  C   UNL     1      -8.689  15.643  67.565  1.00  0.00    -0.189 A  
HETATM   20  C   UNL     1      -9.939  15.424  68.155  1.00  0.00    -0.221 A  
HETATM   21  C   UNL     1     -10.862  16.461  68.229  1.00  0.00    -0.347 A  
HETATM   22  F   UNL     1     -12.058  16.241  68.788  1.00  0.00    -0.317 F  
HETATM   23  C   UNL     1     -10.570  17.720  67.714  1.00  0.00    -0.392 A  
HETATM   24  C   UNL     1      -9.331  17.948  67.118  1.00  0.00    -0.265 A  
HETATM   25  C   UNL     1      -8.397  16.914  67.040  1.00  0.00    -0.227 A  
ENDBRANCH  18  19
ENDBRANCH  17  18
ENDBRANCH  14  17
ENDBRANCH  10  11
ENDBRANCH   8  10
ENDBRANCH   2   8
TORSDOF 7
ENDMDL
MODEL      231
REMARK 921   NORMALIZED FREE ENERGY PREDICTED BY IDOCK:   -3.01 KCAL/MOL
REMARK 922        TOTAL FREE ENERGY PREDICTED BY IDOCK:   -5.03 KCAL/MOL
REMARK 923 INTER-LIGAND FREE ENERGY PREDICTED BY IDOCK:   -4.20 KCAL/MOL
REMARK 924 INTRA-LIGAND FREE ENERGY PREDICTED BY IDOCK:   -0.83 KCAL/MOL
REMARK 927      BINDING AFFINITY PREDICTED BY RF-SCORE:    0.00 PKD
ROOT
HETATM    1  C   UNL     1      -6.982   9.515  63.315  1.00  0.00    -0.104 C  
HETATM    2  C   UNL     1      -7.619   9.764  64.681  1.00  0.00    -0.134 C  
ENDROOT
BRANCH   2   3
HETATM    3  C   UNL     1      -6.560  10.330  65.658  1.00  0.00    -0.122 C  
HETATM    4  H2  UNL     1      -6.974   8.778  67.019  1.00  0.00     0.000 HD 
HETATM    5  H1  UNL     1      -5.727   9.987  67.461  1.00  0.00     0.000 HD 
HETATM    6  O   UNL     1      -5.882  11.332  65.455  1.00  0.00    -0.035 OA 
HETATM    7  N   UNL     1      -6.424   9.614  66.817  1.00  0.00    -0.066 N  
ENDBRANCH   2   3
BRANCH   2   8
HETATM    8  N   UNL     1      -8.743  10.726  64.651  1.00  0.00    -0.307 NA 
HETATM    9  H   UNL     1      -8.736  11.262  63.783  1.00  0.00     0.000 HD 
BRANCH   8  10
HETATM   10  C   UNL     1     -10.050  10.103  64.864  1.00  0.00    -0.207 C  
BRANCH  10  11
HETATM   11  C   UNL     1     -10.274   9.818  66.332  1.00  0.00    -0.288 A  
HETATM   12  C   UNL     1     -10.114   8.513  66.821  1.00  0.00    -0.369 A  
HETATM   13  C   UNL     1     -10.312   8.227  68.169  1.00  0.00    -0.253 A  
HETATM   14  C   UNL     1     -10.624   9.249  69.064  1.00  0.00    -0.205 A  
HETATM   15  C   UNL     1     -10.617  10.836  67.231  1.00  0.00    -0.304 A  
HETATM   16  C   UNL     1     -10.793  10.550  68.589  1.00  0.00    -0.276 A  
BRANCH  14  17
HETATM   17  O   UNL     1     -10.778   9.079  70.415  1.00  0.00    -0.208 OA 
BRANCH  17  18
HETATM   18  C   UNL     1     -10.670   7.723  70.858  1.00  0.00    -0.221 C  
BRANCH  18  19
HETATM   19  C   UNL     1      -9.526   7.544  71.824  1.00  0.00    -0.170 A  
HETATM   20  C   UNL     1      -8.268   7.099  71.400  1.00  0.00    -0.107 A  
HETATM   21  C   UNL     1      -7.267   6.859  72.334  1.00  0.00    -0.078 A  
HETATM   22  F   UNL     1      -6.070   6.427  71.921  1.00  0.00    -0.035 F  
HETATM   23  C   UNL     1      -7.495   7.041  73.694  1.00  0.00    -0.087 A  
HETATM   24  C   UNL     1      -8.745   7.477  74.129  1.00  0.00    -0.282 A  
HETATM   25  C   UNL     1      -9.757   7.722  73.199  1.00  0.00    -0.347 A  
ENDBRANCH  18  19
ENDBRANCH  17  18
ENDBRANCH  14  17
ENDBRANCH  10  11
ENDBRANCH   8  10
ENDBRANCH   2   8
TORSDOF 7
ENDMDL
MODEL      232
REMARK 921   NORMALIZED FREE ENERGY PREDICTED BY IDOCK:   -2.94 KCAL/MOL
REMARK 922        TOTAL FREE ENERGY PREDICTED BY IDOCK:   -4.94 KCAL/MOL
REMARK 923 INTER-LIGAND FREE ENERGY PREDICTED BY IDOCK:   -4.09 KCAL/MOL
REMARK 924 INTRA-LIGAND FREE ENERGY PREDICTED BY IDOCK:   -0.85 KCAL/MOL
REMARK 927      BINDING AFFINITY PREDICTED BY RF-SCORE:    0.00 PKD
ROOT
HETATM    1  C   UNL     1      -9.966   5.959  73.439  1.00  0.00    -0.182 C  
HETATM    2  C   UNL     1      -9.176   6.220  72.158  1.00  0.00    -0.144 C  
ENDROOT
BRANCH   2   3
HETATM    3  C   UNL     1      -8.685   4.879  71.561  1.00  0.00    -0.130 C  
HETATM    4  H2  UNL     1     -10.624   4.080  71.740  1.00  0.00     0.000 HD 
HETATM    5  H1  UNL     1      -9.334   3.039  71.059  1.00  0.00     0.000 HD 
HETATM    6  O   UNL     1      -7.533   4.649  71.207  1.00  0.00    -0.070 OA 
HETATM    7  N   UNL     1      -9.658   3.923  71.452  1.00  0.00    -0.156 N  
ENDBRANCH   2   3
BRANCH   2   8
HETATM    8  N   UNL     1      -9.956   6.908  71.104  1.00  0.00    -0.178 NA 
HETATM    9  H   UNL     1     -10.851   6.443  70.957  1.00  0.00     0.000 HD 
BRANCH   8  10
HETATM   10  C   UNL     1     -10.149   8.335  71.360  1.00  0.00    -0.200 C  
BRANCH  10  11
HETATM   11  C   UNL     1     -10.469   9.071  70.078  1.00  0.00    -0.233 A  
HETATM   12  C   UNL     1     -10.692  10.455  70.106  1.00  0.00    -0.292 A  
HETATM   13  C   UNL     1     -10.986  11.153  68.938  1.00  0.00    -0.276 A  
HETATM   14  C   UNL     1     -11.012  10.491  67.712  1.00  0.00    -0.313 A  
HETATM   15  C   UNL     1     -10.526   8.404  68.847  1.00  0.00    -0.208 A  
HETATM   16  C   UNL     1     -10.799   9.112  67.672  1.00  0.00    -0.160 A  
BRANCH  14  17
HETATM   17  O   UNL     1     -11.231  11.099  66.504  1.00  0.00    -0.232 OA 
BRANCH  17  18
HETATM   18  C   UNL     1     -10.181  11.973  66.081  1.00  0.00    -0.226 C  
BRANCH  18  19
HETATM   19  C   UNL     1      -8.983  11.203  65.582  1.00  0.00    -0.195 A  
HETATM   20  C   UNL     1      -9.053  10.395  64.441  1.00  0.00    -0.267 A  
HETATM   21  C   UNL     1      -7.954   9.630  64.066  1.00  0.00    -0.140 A  
HETATM   22  F   UNL     1      -8.031   8.855  62.978  1.00  0.00    -0.129 F  
HETATM   23  C   UNL     1      -6.782   9.642  64.815  1.00  0.00    -0.103 A  
HETATM   24  C   UNL     1      -6.704  10.436  65.957  1.00  0.00    -0.124 A  
HETATM   25  C   UNL     1      -7.801  11.209  66.341  1.00  0.00    -0.136 A  
ENDBRANCH  18  19
ENDBRANCH  17  18
ENDBRANCH  14  17
ENDBRANCH  10  11
ENDBRANCH   8  10
ENDBRANCH   2   8
TORSDOF 7
ENDMDL
MODEL      233
REMARK 921   NORMALIZED FREE ENERGY PREDICTED BY IDOCK:   -2.93 KCAL/MOL
REMARK 922        TOTAL FREE ENERGY PREDICTED BY IDOCK:   -4.92 KCAL/MOL
REMARK 923 INTER-LIGAND FREE ENERGY PREDICTED BY IDOCK:   -4.15 KCAL/MOL
REMARK 924 INTRA-LIGAND FREE ENERGY PREDICTED BY IDOCK:   -0.77 KCAL/MOL
REMARK 927      BINDING AFFINITY PREDICTED BY RF-SCORE:    0.00 PKD
ROOT
HETATM    1  C   UNL     1     -12.378  13.014  65.095  1.00  0.00    -0.536 C  
HETATM    2  C   UNL     1     -10.893  13.281  65.339  1.00  0.00    -0.291 C  
ENDROOT
BRANCH   2   3
HETATM    3  C   UNL     1     -10.728  14.446  66.345  1.00  0.00    -0.306 C  
HETATM    4  H2  UNL     1     -11.930  13.424  67.738  1.00  0.00     0.000 HD 
HETATM    5  H1  UNL     1     -11.273  15.026  68.197  1.00  0.00     0.000 HD 
HETATM    6  O   UNL     1     -10.081  15.467  66.136  1.00  0.00    -0.269 OA 
HETATM    7  N   UNL     1     -11.382  14.259  67.533  1.00  0.00    -0.310 N  
ENDBRANCH   2   3
BRANCH   2   8
HETATM    8  N   UNL     1     -10.159  12.120  65.890  1.00  0.00    -0.239 NA 
HETATM    9  H   UNL     1      -9.875  12.297  66.853  1.00  0.00     0.000 HD 
BRANCH   8  10
HETATM   10  C   UNL     1     -10.899  10.862  65.792  1.00  0.00    -0.049 C  
BRANCH  10  11
HETATM   11  C   UNL     1     -10.186   9.760  66.542  1.00  0.00    -0.289 A  
HETATM   12  C   UNL     1     -10.633   9.382  67.816  1.00  0.00    -0.317 A  
HETATM   13  C   UNL     1      -9.994   8.368  68.524  1.00  0.00    -0.203 A  
HETATM   14  C   UNL     1      -8.927   7.678  67.952  1.00  0.00    -0.128 A  
HETATM   15  C   UNL     1      -9.093   9.084  65.983  1.00  0.00    -0.257 A  
HETATM   16  C   UNL     1      -8.467   8.051  66.688  1.00  0.00    -0.133 A  
BRANCH  14  17
HETATM   17  O   UNL     1      -8.273   6.629  68.543  1.00  0.00    -0.117 OA 
BRANCH  17  18
HETATM   18  C   UNL     1      -8.976   5.385  68.486  1.00  0.00    -0.107 C  
BRANCH  18  19
HETATM   19  C   UNL     1      -8.444   4.496  67.389  1.00  0.00    -0.104 A  
HETATM   20  C   UNL     1      -7.094   4.130  67.329  1.00  0.00    -0.067 A  
HETATM   21  C   UNL     1      -6.625   3.386  66.253  1.00  0.00    -0.037 A  
HETATM   22  F   UNL     1      -5.332   3.046  66.200  1.00  0.00    -0.010 F  
HETATM   23  C   UNL     1      -7.474   3.005  65.219  1.00  0.00    -0.076 A  
HETATM   24  C   UNL     1      -8.818   3.370  65.263  1.00  0.00    -0.126 A  
HETATM   25  C   UNL     1      -9.299   4.116  66.341  1.00  0.00    -0.178 A  
ENDBRANCH  18  19
ENDBRANCH  17  18
ENDBRANCH  14  17
ENDBRANCH  10  11
ENDBRANCH   8  10
ENDBRANCH   2   8
TORSDOF 7
ENDMDL
MODEL      234
REMARK 921   NORMALIZED FREE ENERGY PREDICTED BY IDOCK:   -2.90 KCAL/MOL
REMARK 922        TOTAL FREE ENERGY PREDICTED BY IDOCK:   -4.88 KCAL/MOL
REMARK 923 INTER-LIGAND FREE ENERGY PREDICTED BY IDOCK:   -3.83 KCAL/MOL
REMARK 924 INTRA-LIGAND FREE ENERGY PREDICTED BY IDOCK:   -1.05 KCAL/MOL
REMARK 927      BINDING AFFINITY PREDICTED BY RF-SCORE:    0.00 PKD
ROOT
HETATM    1  C   UNL     1      -6.322  10.259  64.140  1.00  0.00    -0.094 C  
HETATM    2  C   UNL     1      -6.918  10.137  65.541  1.00  0.00    -0.131 C  
ENDROOT
BRANCH   2   3
HETATM    3  C   UNL     1      -6.228   8.983  66.306  1.00  0.00    -0.064 C  
HETATM    4  H2  UNL     1      -6.067   7.882  64.519  1.00  0.00     0.000 HD 
HETATM    5  H1  UNL     1      -5.429   7.153  66.027  1.00  0.00     0.000 HD 
HETATM    6  O   UNL     1      -5.992   8.981  67.510  1.00  0.00    -0.049 OA 
HETATM    7  N   UNL     1      -5.884   7.915  65.523  1.00  0.00    -0.037 N  
ENDBRANCH   2   3
BRANCH   2   8
HETATM    8  N   UNL     1      -6.766  11.359  66.364  1.00  0.00    -0.341 NA 
HETATM    9  H   UNL     1      -6.128  12.017  65.918  1.00  0.00     0.000 HD 
BRANCH   8  10
HETATM   10  C   UNL     1      -8.038  12.007  66.685  1.00  0.00    -0.023 C  
BRANCH  10  11
HETATM   11  C   UNL     1      -8.903  11.100  67.531  1.00  0.00    -0.139 A  
HETATM   12  C   UNL     1     -10.051  10.515  66.977  1.00  0.00    -0.259 A  
HETATM   13  C   UNL     1     -10.860   9.675  67.736  1.00  0.00    -0.278 A  
HETATM   14  C   UNL     1     -10.511   9.361  69.049  1.00  0.00    -0.217 A  
HETATM   15  C   UNL     1      -8.572  10.806  68.861  1.00  0.00    -0.155 A  
HETATM   16  C   UNL     1      -9.375   9.943  69.614  1.00  0.00    -0.247 A  
BRANCH  14  17
HETATM   17  O   UNL     1     -11.208   8.500  69.854  1.00  0.00    -0.172 OA 
BRANCH  17  18
HETATM   18  C   UNL     1     -10.538   7.265  70.122  1.00  0.00    -0.232 C  
BRANCH  18  19
HETATM   19  C   UNL     1     -10.031   6.621  68.856  1.00  0.00    -0.160 A  
HETATM   20  C   UNL     1     -10.898   5.994  67.953  1.00  0.00    -0.378 A  
HETATM   21  C   UNL     1     -10.383   5.332  66.844  1.00  0.00    -0.255 A  
HETATM   22  F   UNL     1     -11.218   4.729  65.990  1.00  0.00    -0.259 F  
HETATM   23  C   UNL     1      -9.012   5.268  66.619  1.00  0.00    -0.117 A  
HETATM   24  C   UNL     1      -8.139   5.882  67.515  1.00  0.00    -0.102 A  
HETATM   25  C   UNL     1      -8.646   6.551  68.630  1.00  0.00    -0.124 A  
ENDBRANCH  18  19
ENDBRANCH  17  18
ENDBRANCH  14  17
ENDBRANCH  10  11
ENDBRANCH   8  10
ENDBRANCH   2   8
TORSDOF 7
ENDMDL
MODEL      235
REMARK 921   NORMALIZED FREE ENERGY PREDICTED BY IDOCK:   -2.83 KCAL/MOL
REMARK 922        TOTAL FREE ENERGY PREDICTED BY IDOCK:   -4.78 KCAL/MOL
REMARK 923 INTER-LIGAND FREE ENERGY PREDICTED BY IDOCK:   -4.02 KCAL/MOL
REMARK 924 INTRA-LIGAND FREE ENERGY PREDICTED BY IDOCK:   -0.76 KCAL/MOL
REMARK 927      BINDING AFFINITY PREDICTED BY RF-SCORE:    0.00 PKD
ROOT
HETATM    1  C   UNL     1      -6.140  10.264  63.813  1.00  0.00    -0.127 C  
HETATM    2  C   UNL     1      -6.652   9.983  65.225  1.00  0.00    -0.116 C  
ENDROOT
BRANCH   2   3
HETATM    3  C   UNL     1      -5.807   8.861  65.875  1.00  0.00    -0.051 C  
HETATM    4  H2  UNL     1      -6.177   7.612  64.222  1.00  0.00     0.000 HD 
HETATM    5  H1  UNL     1      -5.166   6.976  65.557  1.00  0.00     0.000 HD 
HETATM    6  O   UNL     1      -5.248   8.945  66.964  1.00  0.00    -0.035 OA 
HETATM    7  N   UNL     1      -5.723   7.716  65.129  1.00  0.00    -0.037 N  
ENDBRANCH   2   3
BRANCH   2   8
HETATM    8  N   UNL     1      -6.590  11.155  66.128  1.00  0.00    -0.325 NA 
HETATM    9  H   UNL     1      -6.012  11.891  65.725  1.00  0.00     0.000 HD 
BRANCH   8  10
HETATM   10  C   UNL     1      -7.906  11.674  66.500  1.00  0.00    -0.025 C  
BRANCH  10  11
HETATM   11  C   UNL     1      -8.755  10.587  67.119  1.00  0.00    -0.130 A  
HETATM   12  C   UNL     1      -9.915  10.150  66.464  1.00  0.00    -0.283 A  
HETATM   13  C   UNL     1     -10.711   9.149  67.014  1.00  0.00    -0.189 A  
HETATM   14  C   UNL     1     -10.335   8.529  68.205  1.00  0.00    -0.206 A  
HETATM   15  C   UNL     1      -8.398   9.982  68.332  1.00  0.00    -0.111 A  
HETATM   16  C   UNL     1      -9.188   8.961  68.871  1.00  0.00    -0.140 A  
BRANCH  14  17
HETATM   17  O   UNL     1     -11.018   7.497  68.792  1.00  0.00    -0.075 OA 
BRANCH  17  18
HETATM   18  C   UNL     1     -10.465   6.202  68.542  1.00  0.00    -0.237 C  
BRANCH  18  19
HETATM   19  C   UNL     1     -10.357   5.389  69.808  1.00  0.00    -0.375 A  
HETATM   20  C   UNL     1     -10.767   5.900  71.046  1.00  0.00    -0.331 A  
HETATM   21  C   UNL     1     -10.566   5.155  72.203  1.00  0.00    -0.211 A  
HETATM   22  F   UNL     1     -10.955   5.653  73.383  1.00  0.00    -0.261 F  
HETATM   23  C   UNL     1      -9.951   3.909  72.157  1.00  0.00    -0.243 A  
HETATM   24  C   UNL     1      -9.532   3.394  70.932  1.00  0.00    -0.234 A  
HETATM   25  C   UNL     1      -9.730   4.133  69.764  1.00  0.00    -0.278 A  
ENDBRANCH  18  19
ENDBRANCH  17  18
ENDBRANCH  14  17
ENDBRANCH  10  11
ENDBRANCH   8  10
ENDBRANCH   2   8
TORSDOF 7
ENDMDL
MODEL      236
REMARK 921   NORMALIZED FREE ENERGY PREDICTED BY IDOCK:   -2.76 KCAL/MOL
REMARK 922        TOTAL FREE ENERGY PREDICTED BY IDOCK:   -4.68 KCAL/MOL
REMARK 923 INTER-LIGAND FREE ENERGY PREDICTED BY IDOCK:   -4.16 KCAL/MOL
REMARK 924 INTRA-LIGAND FREE ENERGY PREDICTED BY IDOCK:   -0.52 KCAL/MOL
REMARK 927      BINDING AFFINITY PREDICTED BY RF-SCORE:    0.00 PKD
ROOT
HETATM    1  C   UNL     1      -9.358   7.033  66.404  1.00  0.00    -0.182 C  
HETATM    2  C   UNL     1      -7.949   7.052  65.813  1.00  0.00    -0.116 C  
ENDROOT
BRANCH   2   3
HETATM    3  C   UNL     1      -7.538   8.507  65.483  1.00  0.00    -0.090 C  
HETATM    4  H2  UNL     1      -6.796   8.750  67.438  1.00  0.00     0.000 HD 
HETATM    5  H1  UNL     1      -6.679  10.134  66.306  1.00  0.00     0.000 HD 
HETATM    6  O   UNL     1      -7.708   9.056  64.399  1.00  0.00    -0.108 OA 
HETATM    7  N   UNL     1      -6.950   9.175  66.523  1.00  0.00    -0.080 N  
ENDBRANCH   2   3
BRANCH   2   8
HETATM    8  N   UNL     1      -6.914   6.500  66.716  1.00  0.00    -0.066 NA 
HETATM    9  H   UNL     1      -6.809   7.085  67.544  1.00  0.00     0.000 HD 
BRANCH   8  10
HETATM   10  C   UNL     1      -7.153   5.106  67.093  1.00  0.00    -0.069 C  
BRANCH  10  11
HETATM   11  C   UNL     1      -7.710   5.019  68.496  1.00  0.00    -0.079 A  
HETATM   12  C   UNL     1      -7.222   5.874  69.495  1.00  0.00    -0.070 A  
HETATM   13  C   UNL     1      -7.722   5.814  70.793  1.00  0.00    -0.093 A  
HETATM   14  C   UNL     1      -8.755   4.932  71.106  1.00  0.00    -0.126 A  
HETATM   15  C   UNL     1      -8.728   4.113  68.824  1.00  0.00    -0.128 A  
HETATM   16  C   UNL     1      -9.244   4.070  70.123  1.00  0.00    -0.212 A  
BRANCH  14  17
HETATM   17  O   UNL     1      -9.353   4.841  72.335  1.00  0.00    -0.128 OA 
BRANCH  17  18
HETATM   18  C   UNL     1     -10.767   5.051  72.324  1.00  0.00    -0.180 C  
BRANCH  18  19
HETATM   19  C   UNL     1     -11.112   6.512  72.179  1.00  0.00    -0.296 A  
HETATM   20  C   UNL     1     -12.378   6.930  71.749  1.00  0.00    -0.401 A  
HETATM   21  C   UNL     1     -12.627   8.281  71.540  1.00  0.00    -0.309 A  
HETATM   22  F   UNL     1     -13.837   8.671  71.123  1.00  0.00    -0.338 F  
HETATM   23  C   UNL     1     -11.633   9.234  71.739  1.00  0.00    -0.458 A  
HETATM   24  C   UNL     1     -10.368   8.830  72.159  1.00  0.00    -0.378 A  
HETATM   25  C   UNL     1     -10.107   7.475  72.373  1.00  0.00    -0.252 A  
ENDBRANCH  18  19
ENDBRANCH  17  18
ENDBRANCH  14  17
ENDBRANCH  10  11
ENDBRANCH   8  10
ENDBRANCH   2   8
TORSDOF 7
ENDMDL
MODEL      237
REMARK 921   NORMALIZED FREE ENERGY PREDICTED BY IDOCK:   -2.74 KCAL/MOL
REMARK 922        TOTAL FREE ENERGY PREDICTED BY IDOCK:   -4.66 KCAL/MOL
REMARK 923 INTER-LIGAND FREE ENERGY PREDICTED BY IDOCK:   -3.65 KCAL/MOL
REMARK 924 INTRA-LIGAND FREE ENERGY PREDICTED BY IDOCK:   -1.02 KCAL/MOL
REMARK 927      BINDING AFFINITY PREDICTED BY RF-SCORE:    0.00 PKD
ROOT
HETATM    1  C   UNL     1      -8.261   8.611  63.830  1.00  0.00    -0.147 C  
HETATM    2  C   UNL     1      -8.086   9.946  64.550  1.00  0.00    -0.149 C  
ENDROOT
BRANCH   2   3
HETATM    3  C   UNL     1      -9.408  10.341  65.252  1.00  0.00    -0.215 C  
HETATM    4  H2  UNL     1      -9.637   8.368  65.948  1.00  0.00     0.000 HD 
HETATM    5  H1  UNL     1     -10.891   9.573  66.380  1.00  0.00     0.000 HD 
HETATM    6  O   UNL     1      -9.902  11.463  65.237  1.00  0.00    -0.229 OA 
HETATM    7  N   UNL     1     -10.020   9.313  65.918  1.00  0.00    -0.289 N  
ENDBRANCH   2   3
BRANCH   2   8
HETATM    8  N   UNL     1      -7.028   9.933  65.586  1.00  0.00    -0.101 NA 
HETATM    9  H   UNL     1      -7.427  10.090  66.511  1.00  0.00     0.000 HD 
BRANCH   8  10
HETATM   10  C   UNL     1      -6.214   8.718  65.572  1.00  0.00    -0.052 C  
BRANCH  10  11
HETATM   11  C   UNL     1      -6.528   7.849  66.768  1.00  0.00    -0.055 A  
HETATM   12  C   UNL     1      -6.365   6.458  66.682  1.00  0.00    -0.042 A  
HETATM   13  C   UNL     1      -6.645   5.638  67.771  1.00  0.00    -0.053 A  
HETATM   14  C   UNL     1      -7.045   6.196  68.985  1.00  0.00    -0.081 A  
HETATM   15  C   UNL     1      -6.959   8.402  67.982  1.00  0.00    -0.081 A  
HETATM   16  C   UNL     1      -7.218   7.577  69.081  1.00  0.00    -0.084 A  
BRANCH  14  17
HETATM   17  O   UNL     1      -7.285   5.479  70.127  1.00  0.00    -0.063 OA 
BRANCH  17  18
HETATM   18  C   UNL     1      -8.417   4.608  70.054  1.00  0.00    -0.073 C  
BRANCH  18  19
HETATM   19  C   UNL     1      -9.587   5.149  70.837  1.00  0.00    -0.235 A  
HETATM   20  C   UNL     1     -10.620   5.862  70.217  1.00  0.00    -0.354 A  
HETATM   21  C   UNL     1     -11.633   6.423  70.986  1.00  0.00    -0.325 A  
HETATM   22  F   UNL     1     -12.613   7.109  70.386  1.00  0.00    -0.231 F  
HETATM   23  C   UNL     1     -11.635   6.300  72.371  1.00  0.00    -0.325 A  
HETATM   24  C   UNL     1     -10.608   5.599  73.000  1.00  0.00    -0.275 A  
HETATM   25  C   UNL     1      -9.587   5.030  72.237  1.00  0.00    -0.184 A  
ENDBRANCH  18  19
ENDBRANCH  17  18
ENDBRANCH  14  17
ENDBRANCH  10  11
ENDBRANCH   8  10
ENDBRANCH   2   8
TORSDOF 7
ENDMDL
MODEL      238
REMARK 921   NORMALIZED FREE ENERGY PREDICTED BY IDOCK:   -2.74 KCAL/MOL
REMARK 922        TOTAL FREE ENERGY PREDICTED BY IDOCK:   -4.65 KCAL/MOL
REMARK 923 INTER-LIGAND FREE ENERGY PREDICTED BY IDOCK:   -3.92 KCAL/MOL
REMARK 924 INTRA-LIGAND FREE ENERGY PREDICTED BY IDOCK:   -0.73 KCAL/MOL
REMARK 927      BINDING AFFINITY PREDICTED BY RF-SCORE:    0.00 PKD
ROOT
HETATM    1  C   UNL     1      -8.988   8.146  73.202  1.00  0.00    -0.330 C  
HETATM    2  C   UNL     1     -10.513   8.070  73.161  1.00  0.00    -0.181 C  
ENDROOT
BRANCH   2   3
HETATM    3  C   UNL     1     -11.047   8.889  71.961  1.00  0.00    -0.351 C  
HETATM    4  H2  UNL     1      -9.184   8.712  70.999  1.00  0.00     0.000 HD 
HETATM    5  H1  UNL     1     -10.487   9.618  70.168  1.00  0.00     0.000 HD 
HETATM    6  O   UNL     1     -12.181   9.349  71.876  1.00  0.00    -0.365 OA 
HETATM    7  N   UNL     1     -10.135   9.078  70.959  1.00  0.00    -0.256 N  
ENDBRANCH   2   3
BRANCH   2   8
HETATM    8  N   UNL     1     -11.039   6.693  73.020  1.00  0.00    -0.412 NA 
HETATM    9  H   UNL     1     -11.366   6.528  72.069  1.00  0.00     0.000 HD 
BRANCH   8  10
HETATM   10  C   UNL     1     -10.087   5.660  73.428  1.00  0.00    -0.189 C  
BRANCH  10  11
HETATM   11  C   UNL     1      -9.556   4.916  72.224  1.00  0.00    -0.193 A  
HETATM   12  C   UNL     1     -10.345   4.805  71.069  1.00  0.00    -0.188 A  
HETATM   13  C   UNL     1      -9.875   4.126  69.948  1.00  0.00    -0.233 A  
HETATM   14  C   UNL     1      -8.590   3.589  69.940  1.00  0.00    -0.058 A  
HETATM   15  C   UNL     1      -8.275   4.347  72.222  1.00  0.00    -0.108 A  
HETATM   16  C   UNL     1      -7.798   3.685  71.086  1.00  0.00    -0.059 A  
BRANCH  14  17
HETATM   17  O   UNL     1      -8.018   2.958  68.867  1.00  0.00    -0.056 OA 
BRANCH  17  18
HETATM   18  C   UNL     1      -8.908   2.728  67.771  1.00  0.00    -0.137 C  
BRANCH  18  19
HETATM   19  C   UNL     1      -8.640   3.677  66.629  1.00  0.00    -0.111 A  
HETATM   20  C   UNL     1      -7.932   4.870  66.815  1.00  0.00    -0.103 A  
HETATM   21  C   UNL     1      -7.786   5.761  65.758  1.00  0.00    -0.102 A  
HETATM   22  F   UNL     1      -7.114   6.903  65.947  1.00  0.00    -0.064 F  
HETATM   23  C   UNL     1      -8.344   5.494  64.513  1.00  0.00    -0.127 A  
HETATM   24  C   UNL     1      -9.057   4.314  64.317  1.00  0.00    -0.150 A  
HETATM   25  C   UNL     1      -9.208   3.411  65.372  1.00  0.00    -0.152 A  
ENDBRANCH  18  19
ENDBRANCH  17  18
ENDBRANCH  14  17
ENDBRANCH  10  11
ENDBRANCH   8  10
ENDBRANCH   2   8
TORSDOF 7
ENDMDL
MODEL      239
REMARK 921   NORMALIZED FREE ENERGY PREDICTED BY IDOCK:   -2.74 KCAL/MOL
REMARK 922        TOTAL FREE ENERGY PREDICTED BY IDOCK:   -4.65 KCAL/MOL
REMARK 923 INTER-LIGAND FREE ENERGY PREDICTED BY IDOCK:   -4.59 KCAL/MOL
REMARK 924 INTRA-LIGAND FREE ENERGY PREDICTED BY IDOCK:   -0.06 KCAL/MOL
REMARK 927      BINDING AFFINITY PREDICTED BY RF-SCORE:    0.00 PKD
ROOT
HETATM    1  C   UNL     1      -9.513   6.903  66.647  1.00  0.00    -0.209 C  
HETATM    2  C   UNL     1      -8.990   5.568  66.120  1.00  0.00    -0.145 C  
ENDROOT
BRANCH   2   3
HETATM    3  C   UNL     1      -7.884   5.816  65.067  1.00  0.00    -0.107 C  
HETATM    4  H2  UNL     1      -9.113   4.993  63.569  1.00  0.00     0.000 HD 
HETATM    5  H1  UNL     1      -7.485   5.581  63.105  1.00  0.00     0.000 HD 
HETATM    6  O   UNL     1      -6.790   6.320  65.303  1.00  0.00    -0.046 OA 
HETATM    7  N   UNL     1      -8.214   5.418  63.800  1.00  0.00    -0.124 N  
ENDBRANCH   2   3
BRANCH   2   8
HETATM    8  N   UNL     1      -8.408   4.699  67.168  1.00  0.00    -0.105 NA 
HETATM    9  H   UNL     1      -7.696   5.200  67.699  1.00  0.00     0.000 HD 
BRANCH   8  10
HETATM   10  C   UNL     1      -9.407   4.116  68.063  1.00  0.00    -0.162 C  
BRANCH  10  11
HETATM   11  C   UNL     1      -9.386   4.803  69.410  1.00  0.00    -0.197 A  
HETATM   12  C   UNL     1      -8.173   5.275  69.933  1.00  0.00    -0.094 A  
HETATM   13  C   UNL     1      -8.129   5.913  71.169  1.00  0.00    -0.121 A  
HETATM   14  C   UNL     1      -9.304   6.137  71.885  1.00  0.00    -0.150 A  
HETATM   15  C   UNL     1     -10.560   5.003  70.148  1.00  0.00    -0.115 A  
HETATM   16  C   UNL     1     -10.516   5.664  71.380  1.00  0.00    -0.300 A  
BRANCH  14  17
HETATM   17  O   UNL     1      -9.372   6.806  73.078  1.00  0.00    -0.134 OA 
BRANCH  17  18
HETATM   18  C   UNL     1     -10.475   7.709  73.190  1.00  0.00    -0.374 C  
BRANCH  18  19
HETATM   19  C   UNL     1     -10.583   8.608  71.984  1.00  0.00    -0.421 A  
HETATM   20  C   UNL     1      -9.448   9.056  71.297  1.00  0.00    -0.339 A  
HETATM   21  C   UNL     1      -9.584   9.956  70.247  1.00  0.00    -0.127 A  
HETATM   22  F   UNL     1      -8.493  10.385  69.601  1.00  0.00    -0.162 F  
HETATM   23  C   UNL     1     -10.834  10.434  69.869  1.00  0.00    -0.353 A  
HETATM   24  C   UNL     1     -11.970  10.002  70.549  1.00  0.00    -0.357 A  
HETATM   25  C   UNL     1     -11.845   9.096  71.605  1.00  0.00    -0.443 A  
ENDBRANCH  18  19
ENDBRANCH  17  18
ENDBRANCH  14  17
ENDBRANCH  10  11
ENDBRANCH   8  10
ENDBRANCH   2   8
TORSDOF 7
ENDMDL
MODEL      240
REMARK 921   NORMALIZED FREE ENERGY PREDICTED BY IDOCK:   -2.61 KCAL/MOL
REMARK 922        TOTAL FREE ENERGY PREDICTED BY IDOCK:   -4.47 KCAL/MOL
REMARK 923 INTER-LIGAND FREE ENERGY PREDICTED BY IDOCK:   -3.50 KCAL/MOL
REMARK 924 INTRA-LIGAND FREE ENERGY PREDICTED BY IDOCK:   -0.98 KCAL/MOL
REMARK 927      BINDING AFFINITY PREDICTED BY RF-SCORE:    0.00 PKD
ROOT
HETATM    1  C   UNL     1      -8.883   7.994  65.685  1.00  0.00    -0.133 C  
HETATM    2  C   UNL     1      -9.082   8.995  66.822  1.00  0.00    -0.145 C  
ENDROOT
BRANCH   2   3
HETATM    3  C   UNL     1      -8.926  10.437  66.283  1.00  0.00    -0.155 C  
HETATM    4  H2  UNL     1      -7.587  10.884  67.844  1.00  0.00     0.000 HD 
HETATM    5  H1  UNL     1      -7.973  12.173  66.661  1.00  0.00     0.000 HD 
HETATM    6  O   UNL     1      -9.497  10.882  65.293  1.00  0.00    -0.196 OA 
HETATM    7  N   UNL     1      -8.076  11.222  67.015  1.00  0.00    -0.142 N  
ENDBRANCH   2   3
BRANCH   2   8
HETATM    8  N   UNL     1     -10.413   8.911  67.466  1.00  0.00    -0.291 NA 
HETATM    9  H   UNL     1     -10.981   8.187  67.028  1.00  0.00     0.000 HD 
BRANCH   8  10
HETATM   10  C   UNL     1     -10.347   8.714  68.914  1.00  0.00    -0.211 C  
BRANCH  10  11
HETATM   11  C   UNL     1      -9.720   7.379  69.245  1.00  0.00    -0.165 A  
HETATM   12  C   UNL     1      -8.404   7.327  69.729  1.00  0.00    -0.135 A  
HETATM   13  C   UNL     1      -7.807   6.110  70.043  1.00  0.00    -0.106 A  
HETATM   14  C   UNL     1      -8.530   4.924  69.929  1.00  0.00    -0.079 A  
HETATM   15  C   UNL     1     -10.432   6.180  69.104  1.00  0.00    -0.310 A  
HETATM   16  C   UNL     1      -9.837   4.961  69.441  1.00  0.00    -0.281 A  
BRANCH  14  17
HETATM   17  O   UNL     1      -8.051   3.686  70.270  1.00  0.00    -0.049 OA 
BRANCH  17  18
HETATM   18  C   UNL     1      -7.743   3.532  71.658  1.00  0.00    -0.057 C  
BRANCH  18  19
HETATM   19  C   UNL     1      -8.992   3.475  72.502  1.00  0.00    -0.118 A  
HETATM   20  C   UNL     1      -9.918   2.433  72.375  1.00  0.00    -0.221 A  
HETATM   21  C   UNL     1     -11.101   2.466  73.105  1.00  0.00    -0.097 A  
HETATM   22  F   UNL     1     -11.985   1.469  72.972  1.00  0.00    -0.246 F  
HETATM   23  C   UNL     1     -11.390   3.526  73.957  1.00  0.00     0.088 A  
HETATM   24  C   UNL     1     -10.479   4.572  74.086  1.00  0.00    -0.321 A  
HETATM   25  C   UNL     1      -9.288   4.549  73.359  1.00  0.00    -0.125 A  
ENDBRANCH  18  19
ENDBRANCH  17  18
ENDBRANCH  14  17
ENDBRANCH  10  11
ENDBRANCH   8  10
ENDBRANCH   2   8
TORSDOF 7
ENDMDL
MODEL      241
REMARK 921   NORMALIZED FREE ENERGY PREDICTED BY IDOCK:   -2.58 KCAL/MOL
REMARK 922        TOTAL FREE ENERGY PREDICTED BY IDOCK:   -4.43 KCAL/MOL
REMARK 923 INTER-LIGAND FREE ENERGY PREDICTED BY IDOCK:   -3.68 KCAL/MOL
REMARK 924 INTRA-LIGAND FREE ENERGY PREDICTED BY IDOCK:   -0.75 KCAL/MOL
REMARK 927      BINDING AFFINITY PREDICTED BY RF-SCORE:    0.00 PKD
ROOT
HETATM    1  C   UNL     1     -10.475   9.107  68.139  1.00  0.00    -0.260 C  
HETATM    2  C   UNL     1      -9.393   8.113  68.557  1.00  0.00    -0.138 C  
ENDROOT
BRANCH   2   3
HETATM    3  C   UNL     1      -8.921   7.303  67.325  1.00  0.00    -0.123 C  
HETATM    4  H2  UNL     1      -8.297   5.736  68.584  1.00  0.00     0.000 HD 
HETATM    5  H1  UNL     1      -8.070   5.548  66.817  1.00  0.00     0.000 HD 
HETATM    6  O   UNL     1      -9.002   7.684  66.162  1.00  0.00    -0.166 OA 
HETATM    7  N   UNL     1      -8.381   6.082  67.628  1.00  0.00    -0.109 N  
ENDBRANCH   2   3
BRANCH   2   8
HETATM    8  N   UNL     1      -8.193   8.749  69.147  1.00  0.00    -0.117 NA 
HETATM    9  H   UNL     1      -7.761   8.135  69.837  1.00  0.00     0.000 HD 
BRANCH   8  10
HETATM   10  C   UNL     1      -7.212   9.180  68.150  1.00  0.00    -0.079 C  
BRANCH  10  11
HETATM   11  C   UNL     1      -7.121  10.688  68.105  1.00  0.00    -0.081 A  
HETATM   12  C   UNL     1      -7.554  11.379  66.964  1.00  0.00    -0.151 A  
HETATM   13  C   UNL     1      -7.482  12.768  66.901  1.00  0.00     0.199 A  
HETATM   14  C   UNL     1      -7.023  13.497  67.997  1.00  0.00    -0.133 A  
HETATM   15  C   UNL     1      -6.632  11.424  69.193  1.00  0.00    -0.095 A  
HETATM   16  C   UNL     1      -6.582  12.821  69.135  1.00  0.00    -0.101 A  
BRANCH  14  17
HETATM   17  O   UNL     1      -6.971  14.865  68.053  1.00  0.00    -0.112 OA 
BRANCH  17  18
HETATM   18  C   UNL     1      -8.002  15.465  68.842  1.00  0.00    -0.177 C  
BRANCH  18  19
HETATM   19  C   UNL     1      -9.371  15.196  68.267  1.00  0.00    -0.193 A  
HETATM   20  C   UNL     1     -10.338  14.474  68.976  1.00  0.00    -0.227 A  
HETATM   21  C   UNL     1     -11.553  14.169  68.375  1.00  0.00    -0.318 A  
HETATM   22  F   UNL     1     -12.469  13.472  69.058  1.00  0.00    -0.333 F  
HETATM   23  C   UNL     1     -11.826  14.559  67.069  1.00  0.00    -0.408 A  
HETATM   24  C   UNL     1     -10.869  15.271  66.350  1.00  0.00    -0.317 A  
HETATM   25  C   UNL     1      -9.645  15.584  66.944  1.00  0.00    -0.241 A  
ENDBRANCH  18  19
ENDBRANCH  17  18
ENDBRANCH  14  17
ENDBRANCH  10  11
ENDBRANCH   8  10
ENDBRANCH   2   8
TORSDOF 7
ENDMDL
MODEL      242
REMARK 921   NORMALIZED FREE ENERGY PREDICTED BY IDOCK:   -2.38 KCAL/MOL
REMARK 922        TOTAL FREE ENERGY PREDICTED BY IDOCK:   -4.15 KCAL/MOL
REMARK 923 INTER-LIGAND FREE ENERGY PREDICTED BY IDOCK:   -3.38 KCAL/MOL
REMARK 924 INTRA-LIGAND FREE ENERGY PREDICTED BY IDOCK:   -0.77 KCAL/MOL
REMARK 927      BINDING AFFINITY PREDICTED BY RF-SCORE:    0.00 PKD
ROOT
HETATM    1  C   UNL     1      -9.229   7.054  71.073  1.00  0.00    -0.155 C  
HETATM    2  C   UNL     1     -10.452   6.488  71.791  1.00  0.00    -0.211 C  
ENDROOT
BRANCH   2   3
HETATM    3  C   UNL     1     -11.724   6.752  70.948  1.00  0.00    -0.372 C  
HETATM    4  H2  UNL     1     -10.799   5.889  69.266  1.00  0.00     0.000 HD 
HETATM    5  H1  UNL     1     -12.471   6.509  69.092  1.00  0.00     0.000 HD 
HETATM    6  O   UNL     1     -12.744   7.288  71.367  1.00  0.00    -0.362 OA 
HETATM    7  N   UNL     1     -11.633   6.335  69.648  1.00  0.00    -0.371 N  
ENDBRANCH   2   3
BRANCH   2   8
HETATM    8  N   UNL     1     -10.383   5.029  72.031  1.00  0.00    -0.210 NA 
HETATM    9  H   UNL     1     -10.903   4.520  71.317  1.00  0.00     0.000 HD 
BRANCH   8  10
HETATM   10  C   UNL     1      -9.015   4.520  72.137  1.00  0.00    -0.125 C  
BRANCH  10  11
HETATM   11  C   UNL     1      -8.644   3.723  70.907  1.00  0.00    -0.109 A  
HETATM   12  C   UNL     1      -9.611   2.930  70.271  1.00  0.00    -0.141 A  
HETATM   13  C   UNL     1      -9.292   2.190  69.136  1.00  0.00    -0.184 A  
HETATM   14  C   UNL     1      -8.015   2.266  68.585  1.00  0.00    -0.052 A  
HETATM   15  C   UNL     1      -7.352   3.773  70.365  1.00  0.00    -0.041 A  
HETATM   16  C   UNL     1      -7.041   3.045  69.212  1.00  0.00    -0.045 A  
BRANCH  14  17
HETATM   17  O   UNL     1      -7.624   1.624  67.439  1.00  0.00    -0.057 OA 
BRANCH  17  18
HETATM   18  C   UNL     1      -8.631   1.552  66.426  1.00  0.00    -0.107 C  
BRANCH  18  19
HETATM   19  C   UNL     1      -8.572   2.739  65.497  1.00  0.00    -0.110 A  
HETATM   20  C   UNL     1      -8.719   4.050  65.968  1.00  0.00    -0.116 A  
HETATM   21  C   UNL     1      -8.750   5.109  65.069  1.00  0.00    -0.148 A  
HETATM   22  F   UNL     1      -8.898   6.358  65.528  1.00  0.00    -0.157 F  
HETATM   23  C   UNL     1      -8.649   4.892  63.699  1.00  0.00    -0.124 A  
HETATM   24  C   UNL     1      -8.509   3.592  63.218  1.00  0.00    -0.090 A  
HETATM   25  C   UNL     1      -8.476   2.521  64.113  1.00  0.00    -0.086 A  
ENDBRANCH  18  19
ENDBRANCH  17  18
ENDBRANCH  14  17
ENDBRANCH  10  11
ENDBRANCH   8  10
ENDBRANCH   2   8
TORSDOF 7
ENDMDL
MODEL      243
REMARK 921   NORMALIZED FREE ENERGY PREDICTED BY IDOCK:   -2.32 KCAL/MOL
REMARK 922        TOTAL FREE ENERGY PREDICTED BY IDOCK:   -4.07 KCAL/MOL
REMARK 923 INTER-LIGAND FREE ENERGY PREDICTED BY IDOCK:   -3.81 KCAL/MOL
REMARK 924 INTRA-LIGAND FREE ENERGY PREDICTED BY IDOCK:   -0.26 KCAL/MOL
REMARK 927      BINDING AFFINITY PREDICTED BY RF-SCORE:    0.00 PKD
ROOT
HETATM    1  C   UNL     1      -6.040  16.924  68.929  1.00  0.00    -0.164 C  
HETATM    2  C   UNL     1      -5.977  15.605  68.162  1.00  0.00    -0.131 C  
ENDROOT
BRANCH   2   3
HETATM    3  C   UNL     1      -6.075  14.418  69.150  1.00  0.00    -0.094 C  
HETATM    4  H2  UNL     1      -4.458  13.473  68.189  1.00  0.00     0.000 HD 
HETATM    5  H1  UNL     1      -5.216  12.648  69.588  1.00  0.00     0.000 HD 
HETATM    6  O   UNL     1      -6.895  14.326  70.058  1.00  0.00    -0.092 OA 
HETATM    7  N   UNL     1      -5.152  13.430  68.936  1.00  0.00    -0.066 N  
ENDBRANCH   2   3
BRANCH   2   8
HETATM    8  N   UNL     1      -7.064  15.438  67.170  1.00  0.00    -0.213 NA 
HETATM    9  H   UNL     1      -6.849  14.679  66.524  1.00  0.00     0.000 HD 
BRANCH   8  10
HETATM   10  C   UNL     1      -8.382  15.245  67.776  1.00  0.00    -0.153 C  
BRANCH  10  11
HETATM   11  C   UNL     1      -8.997  13.942  67.317  1.00  0.00    -0.225 A  
HETATM   12  C   UNL     1      -8.188  12.954  66.738  1.00  0.00     0.084 A  
HETATM   13  C   UNL     1      -8.732  11.746  66.310  1.00  0.00    -0.106 A  
HETATM   14  C   UNL     1     -10.087  11.482  66.499  1.00  0.00    -0.213 A  
HETATM   15  C   UNL     1     -10.365  13.683  67.478  1.00  0.00    -0.241 A  
HETATM   16  C   UNL     1     -10.905  12.460  67.067  1.00  0.00    -0.282 A  
BRANCH  14  17
HETATM   17  O   UNL     1     -10.702  10.303  66.168  1.00  0.00    -0.107 OA 
BRANCH  17  18
HETATM   18  C   UNL     1      -9.812   9.197  65.998  1.00  0.00    -0.272 C  
BRANCH  18  19
HETATM   19  C   UNL     1      -9.970   8.181  67.101  1.00  0.00    -0.304 A  
HETATM   20  C   UNL     1     -10.257   6.838  66.828  1.00  0.00    -0.273 A  
HETATM   21  C   UNL     1     -10.487   5.952  67.874  1.00  0.00    -0.236 A  
HETATM   22  F   UNL     1     -10.768   4.672  67.604  1.00  0.00    -0.039 F  
HETATM   23  C   UNL     1     -10.449   6.378  69.197  1.00  0.00    -0.274 A  
HETATM   24  C   UNL     1     -10.171   7.714  69.482  1.00  0.00    -0.209 A  
HETATM   25  C   UNL     1      -9.938   8.612  68.438  1.00  0.00    -0.204 A  
ENDBRANCH  18  19
ENDBRANCH  17  18
ENDBRANCH  14  17
ENDBRANCH  10  11
ENDBRANCH   8  10
ENDBRANCH   2   8
TORSDOF 7
ENDMDL
MODEL      244
REMARK 921   NORMALIZED FREE ENERGY PREDICTED BY IDOCK:   -2.13 KCAL/MOL
REMARK 922        TOTAL FREE ENERGY PREDICTED BY IDOCK:   -3.79 KCAL/MOL
REMARK 923 INTER-LIGAND FREE ENERGY PREDICTED BY IDOCK:   -2.76 KCAL/MOL
REMARK 924 INTRA-LIGAND FREE ENERGY PREDICTED BY IDOCK:   -1.03 KCAL/MOL
REMARK 927      BINDING AFFINITY PREDICTED BY RF-SCORE:    0.00 PKD
ROOT
HETATM    1  C   UNL     1      -9.272   6.932  66.394  1.00  0.00    -0.186 C  
HETATM    2  C   UNL     1      -8.066   7.233  65.506  1.00  0.00    -0.132 C  
ENDROOT
BRANCH   2   3
HETATM    3  C   UNL     1      -8.077   8.724  65.093  1.00  0.00    -0.133 C  
HETATM    4  H2  UNL     1     -10.161   8.798  65.382  1.00  0.00     0.000 HD 
HETATM    5  H1  UNL     1      -9.325  10.288  64.843  1.00  0.00     0.000 HD 
HETATM    6  O   UNL     1      -7.087   9.369  64.763  1.00  0.00    -0.096 OA 
HETATM    7  N   UNL     1      -9.317   9.305  65.115  1.00  0.00    -0.219 N  
ENDBRANCH   2   3
BRANCH   2   8
HETATM    8  N   UNL     1      -6.763   6.971  66.159  1.00  0.00    -0.052 NA 
HETATM    9  H   UNL     1      -6.682   7.499  67.027  1.00  0.00     0.000 HD 
BRANCH   8  10
HETATM   10  C   UNL     1      -6.502   5.550  66.390  1.00  0.00    -0.047 C  
BRANCH  10  11
HETATM   11  C   UNL     1      -6.453   5.249  67.871  1.00  0.00    -0.048 A  
HETATM   12  C   UNL     1      -6.201   6.282  68.786  1.00  0.00    -0.036 A  
HETATM   13  C   UNL     1      -6.155   6.028  70.153  1.00  0.00    -0.026 A  
HETATM   14  C   UNL     1      -6.409   4.746  70.638  1.00  0.00    -0.026 A  
HETATM   15  C   UNL     1      -6.679   3.955  68.362  1.00  0.00    -0.046 A  
HETATM   16  C   UNL     1      -6.653   3.708  69.738  1.00  0.00    -0.033 A  
BRANCH  14  17
HETATM   17  O   UNL     1      -6.445   4.411  71.966  1.00  0.00    -0.021 OA 
BRANCH  17  18
HETATM   18  C   UNL     1      -7.700   3.888  72.411  1.00  0.00    -0.072 C  
BRANCH  18  19
HETATM   19  C   UNL     1      -8.727   4.979  72.584  1.00  0.00    -0.119 A  
HETATM   20  C   UNL     1      -8.442   6.152  73.294  1.00  0.00    -0.116 A  
HETATM   21  C   UNL     1      -9.442   7.092  73.509  1.00  0.00    -0.209 A  
HETATM   22  F   UNL     1      -9.163   8.207  74.195  1.00  0.00    -0.273 F  
HETATM   23  C   UNL     1     -10.735   6.885  73.041  1.00  0.00    -0.328 A  
HETATM   24  C   UNL     1     -11.034   5.718  72.340  1.00  0.00    -0.308 A  
HETATM   25  C   UNL     1     -10.036   4.768  72.117  1.00  0.00    -0.237 A  
ENDBRANCH  18  19
ENDBRANCH  17  18
ENDBRANCH  14  17
ENDBRANCH  10  11
ENDBRANCH   8  10
ENDBRANCH   2   8
TORSDOF 7
ENDMDL
MODEL      245
REMARK 921   NORMALIZED FREE ENERGY PREDICTED BY IDOCK:   -2.06 KCAL/MOL
REMARK 922        TOTAL FREE ENERGY PREDICTED BY IDOCK:   -3.70 KCAL/MOL
REMARK 923 INTER-LIGAND FREE ENERGY PREDICTED BY IDOCK:   -4.00 KCAL/MOL
REMARK 924 INTRA-LIGAND FREE ENERGY PREDICTED BY IDOCK:    0.30 KCAL/MOL
REMARK 927      BINDING AFFINITY PREDICTED BY RF-SCORE:    0.00 PKD
ROOT
HETATM    1  C   UNL     1      -6.096  17.515  68.376  1.00  0.00    -0.173 C  
HETATM    2  C   UNL     1      -5.152  16.562  69.106  1.00  0.00    -0.122 C  
ENDROOT
BRANCH   2   3
HETATM    3  C   UNL     1      -5.395  16.650  70.632  1.00  0.00    -0.173 C  
HETATM    4  H2  UNL     1      -5.233  14.557  70.787  1.00  0.00     0.000 HD 
HETATM    5  H1  UNL     1      -5.547  15.498  72.279  1.00  0.00     0.000 HD 
HETATM    6  O   UNL     1      -5.586  17.690  71.253  1.00  0.00     0.020 OA 
HETATM    7  N   UNL     1      -5.386  15.441  71.273  1.00  0.00    -0.071 N  
ENDBRANCH   2   3
BRANCH   2   8
HETATM    8  N   UNL     1      -5.318  15.143  68.718  1.00  0.00    -0.089 NA 
HETATM    9  H   UNL     1      -5.591  14.579  69.522  1.00  0.00     0.000 HD 
BRANCH   8  10
HETATM   10  C   UNL     1      -6.250  14.947  67.607  1.00  0.00    -0.100 C  
BRANCH  10  11
HETATM   11  C   UNL     1      -7.553  14.358  68.098  1.00  0.00    -0.128 A  
HETATM   12  C   UNL     1      -7.722  12.966  68.125  1.00  0.00    -0.138 A  
HETATM   13  C   UNL     1      -8.912  12.400  68.576  1.00  0.00    -0.058 A  
HETATM   14  C   UNL     1      -9.937  13.214  69.056  1.00  0.00     0.223 A  
HETATM   15  C   UNL     1      -8.599  15.172  68.553  1.00  0.00    -0.163 A  
HETATM   16  C   UNL     1      -9.784  14.600  69.026  1.00  0.00    -0.161 A  
BRANCH  14  17
HETATM   17  O   UNL     1     -11.118  12.751  69.574  1.00  0.00    -0.123 OA 
BRANCH  17  18
HETATM   18  C   UNL     1     -11.731  11.708  68.812  1.00  0.00    -0.330 C  
BRANCH  18  19
HETATM   19  C   UNL     1     -11.538  11.914  67.330  1.00  0.00    -0.367 A  
HETATM   20  C   UNL     1     -10.898  10.959  66.532  1.00  0.00    -0.234 A  
HETATM   21  C   UNL     1     -10.658  11.227  65.189  1.00  0.00    -0.280 A  
HETATM   22  F   UNL     1     -10.039  10.311  64.435  1.00  0.00    -0.388 F  
HETATM   23  C   UNL     1     -11.033  12.439  64.621  1.00  0.00    -0.344 A  
HETATM   24  C   UNL     1     -11.664  13.401  65.407  1.00  0.00    -0.354 A  
HETATM   25  C   UNL     1     -11.911  13.142  66.756  1.00  0.00    -0.444 A  
ENDBRANCH  18  19
ENDBRANCH  17  18
ENDBRANCH  14  17
ENDBRANCH  10  11
ENDBRANCH   8  10
ENDBRANCH   2   8
TORSDOF 7
ENDMDL
MODEL      246
REMARK 921   NORMALIZED FREE ENERGY PREDICTED BY IDOCK:   -1.36 KCAL/MOL
REMARK 922        TOTAL FREE ENERGY PREDICTED BY IDOCK:   -2.71 KCAL/MOL
REMARK 923 INTER-LIGAND FREE ENERGY PREDICTED BY IDOCK:   -2.67 KCAL/MOL
REMARK 924 INTRA-LIGAND FREE ENERGY PREDICTED BY IDOCK:   -0.04 KCAL/MOL
REMARK 927      BINDING AFFINITY PREDICTED BY RF-SCORE:    0.00 PKD
ROOT
HETATM    1  C   UNL     1      -6.847  18.378  69.276  1.00  0.00    -0.221 C  
HETATM    2  C   UNL     1      -6.822  17.095  68.448  1.00  0.00    -0.191 C  
ENDROOT
BRANCH   2   3
HETATM    3  C   UNL     1      -6.474  15.891  69.356  1.00  0.00    -0.167 C  
HETATM    4  H2  UNL     1      -5.817  14.803  67.678  1.00  0.00     0.000 HD 
HETATM    5  H1  UNL     1      -5.730  14.019  69.286  1.00  0.00     0.000 HD 
HETATM    6  O   UNL     1      -6.632  15.861  70.572  1.00  0.00     0.218 OA 
HETATM    7  N   UNL     1      -5.959  14.813  68.688  1.00  0.00    -0.085 N  
ENDBRANCH   2   3
BRANCH   2   8
HETATM    8  N   UNL     1      -8.110  16.785  67.787  1.00  0.00    -0.176 NA 
HETATM    9  H   UNL     1      -7.954  16.342  66.882  1.00  0.00     0.000 HD 
BRANCH   8  10
HETATM   10  C   UNL     1      -9.009  15.978  68.611  1.00  0.00    -0.210 C  
BRANCH  10  11
HETATM   11  C   UNL     1      -9.192  14.601  68.014  1.00  0.00    -0.197 A  
HETATM   12  C   UNL     1      -8.866  14.375  66.669  1.00  0.00    -0.188 A  
HETATM   13  C   UNL     1      -9.024  13.115  66.098  1.00  0.00     0.198 A  
HETATM   14  C   UNL     1      -9.462  12.044  66.874  1.00  0.00    -0.203 A  
HETATM   15  C   UNL     1      -9.661  13.527  68.782  1.00  0.00    -0.016 A  
HETATM   16  C   UNL     1      -9.798  12.257  68.212  1.00  0.00    -0.217 A  
BRANCH  14  17
HETATM   17  O   UNL     1      -9.591  10.757  66.421  1.00  0.00    -0.180 OA 
BRANCH  17  18
HETATM   18  C   UNL     1      -8.955  10.505  65.165  1.00  0.00    -0.191 C  
BRANCH  18  19
HETATM   19  C   UNL     1      -8.497   9.072  65.051  1.00  0.00    -0.191 A  
HETATM   20  C   UNL     1      -8.212   8.488  63.811  1.00  0.00    -0.126 A  
HETATM   21  C   UNL     1      -7.882   7.139  63.741  1.00  0.00    -0.110 A  
HETATM   22  F   UNL     1      -7.618   6.587  62.551  1.00  0.00    -0.056 F  
HETATM   23  C   UNL     1      -7.840   6.350  64.885  1.00  0.00    -0.113 A  
HETATM   24  C   UNL     1      -8.129   6.918  66.124  1.00  0.00    -0.115 A  
HETATM   25  C   UNL     1      -8.461   8.272  66.206  1.00  0.00    -0.134 A  
ENDBRANCH  18  19
ENDBRANCH  17  18
ENDBRANCH  14  17
ENDBRANCH  10  11
ENDBRANCH   8  10
ENDBRANCH   2   8
TORSDOF 7
ENDMDL
MODEL      247
REMARK 921   NORMALIZED FREE ENERGY PREDICTED BY IDOCK:   -1.32 KCAL/MOL
REMARK 922        TOTAL FREE ENERGY PREDICTED BY IDOCK:   -2.65 KCAL/MOL
REMARK 923 INTER-LIGAND FREE ENERGY PREDICTED BY IDOCK:   -3.38 KCAL/MOL
REMARK 924 INTRA-LIGAND FREE ENERGY PREDICTED BY IDOCK:    0.73 KCAL/MOL
REMARK 927      BINDING AFFINITY PREDICTED BY RF-SCORE:    0.00 PKD
ROOT
HETATM    1  C   UNL     1     -13.329  13.411  72.891  1.00  0.00    -0.055 C  
HETATM    2  C   UNL     1     -13.584  14.833  72.397  1.00  0.00    -0.446 C  
ENDROOT
BRANCH   2   3
HETATM    3  C   UNL     1     -12.718  15.832  73.202  1.00  0.00    -0.507 C  
HETATM    4  H2  UNL     1     -13.507  15.077  75.002  1.00  0.00     0.000 HD 
HETATM    5  H1  UNL     1     -12.304  16.402  75.091  1.00  0.00     0.000 HD 
HETATM    6  O   UNL     1     -11.949  16.650  72.709  1.00  0.00    -0.504 OA 
HETATM    7  N   UNL     1     -12.874  15.744  74.559  1.00  0.00    -0.221 N  
ENDBRANCH   2   3
BRANCH   2   8
HETATM    8  N   UNL     1     -13.265  15.035  70.965  1.00  0.00    -0.458 NA 
HETATM    9  H   UNL     1     -13.142  16.026  70.759  1.00  0.00     0.000 HD 
BRANCH   8  10
HETATM   10  C   UNL     1     -12.107  14.264  70.512  1.00  0.00    -0.343 C  
BRANCH  10  11
HETATM   11  C   UNL     1     -11.617  14.770  69.174  1.00  0.00    -0.330 A  
HETATM   12  C   UNL     1     -10.322  15.298  69.060  1.00  0.00    -0.242 A  
HETATM   13  C   UNL     1      -9.848  15.767  67.838  1.00  0.00    -0.217 A  
HETATM   14  C   UNL     1     -10.640  15.672  66.695  1.00  0.00    -0.307 A  
HETATM   15  C   UNL     1     -12.420  14.704  68.028  1.00  0.00     0.289 A  
HETATM   16  C   UNL     1     -11.933  15.156  66.797  1.00  0.00     0.130 A  
BRANCH  14  17
HETATM   17  O   UNL     1     -10.242  16.049  65.440  1.00  0.00    -0.437 OA 
BRANCH  17  18
HETATM   18  C   UNL     1      -9.579  15.024  64.695  1.00  0.00     1.451 C  
BRANCH  18  19
HETATM   19  C   UNL     1      -9.715  13.677  65.360  1.00  0.00    -0.055 A  
HETATM   20  C   UNL     1      -8.889  13.296  66.424  1.00  0.00     0.101 A  
HETATM   21  C   UNL     1      -8.984  12.012  66.949  1.00  0.00    -0.199 A  
HETATM   22  F   UNL     1      -8.186  11.654  67.961  1.00  0.00    -0.119 F  
HETATM   23  C   UNL     1      -9.882  11.087  66.427  1.00  0.00    -0.252 A  
HETATM   24  C   UNL     1     -10.704  11.453  65.363  1.00  0.00    -0.313 A  
HETATM   25  C   UNL     1     -10.618  12.740  64.829  1.00  0.00    -0.348 A  
ENDBRANCH  18  19
ENDBRANCH  17  18
ENDBRANCH  14  17
ENDBRANCH  10  11
ENDBRANCH   8  10
ENDBRANCH   2   8
TORSDOF 7
ENDMDL
MODEL      248
REMARK 921   NORMALIZED FREE ENERGY PREDICTED BY IDOCK:   -0.24 KCAL/MOL
REMARK 922        TOTAL FREE ENERGY PREDICTED BY IDOCK:   -1.13 KCAL/MOL
REMARK 923 INTER-LIGAND FREE ENERGY PREDICTED BY IDOCK:   -2.28 KCAL/MOL
REMARK 924 INTRA-LIGAND FREE ENERGY PREDICTED BY IDOCK:    1.15 KCAL/MOL
REMARK 927      BINDING AFFINITY PREDICTED BY RF-SCORE:    0.00 PKD
ROOT
HETATM    1  C   UNL     1      -6.172  17.447  68.379  1.00  0.00    -0.169 C  
HETATM    2  C   UNL     1      -5.145  16.419  68.849  1.00  0.00    -0.109 C  
ENDROOT
BRANCH   2   3
HETATM    3  C   UNL     1      -5.389  16.078  70.340  1.00  0.00    -0.169 C  
HETATM    4  H2  UNL     1      -4.838  14.079  69.983  1.00  0.00     0.000 HD 
HETATM    5  H1  UNL     1      -5.311  14.546  71.646  1.00  0.00     0.000 HD 
HETATM    6  O   UNL     1      -5.767  16.879  71.189  1.00  0.00     0.171 OA 
HETATM    7  N   UNL     1      -5.150  14.771  70.664  1.00  0.00    -0.114 N  
ENDBRANCH   2   3
BRANCH   2   8
HETATM    8  N   UNL     1      -5.188  15.144  68.098  1.00  0.00    -0.111 NA 
HETATM    9  H   UNL     1      -4.987  14.356  68.712  1.00  0.00     0.000 HD 
BRANCH   8  10
HETATM   10  C   UNL     1      -6.445  14.933  67.380  1.00  0.00     0.043 C  
BRANCH  10  11
HETATM   11  C   UNL     1      -6.947  13.521  67.581  1.00  0.00    -0.176 A  
HETATM   12  C   UNL     1      -7.011  12.641  66.491  1.00  0.00     1.084 A  
HETATM   13  C   UNL     1      -7.468  11.336  66.654  1.00  0.00    -0.133 A  
HETATM   14  C   UNL     1      -7.820  10.869  67.919  1.00  0.00    -0.109 A  
HETATM   15  C   UNL     1      -7.332  13.055  68.846  1.00  0.00    -0.017 A  
HETATM   16  C   UNL     1      -7.769  11.737  69.010  1.00  0.00     0.027 A  
BRANCH  14  17
HETATM   17  O   UNL     1      -8.222   9.587  68.189  1.00  0.00    -0.112 OA 
BRANCH  17  18
HETATM   18  C   UNL     1      -9.200   9.069  67.283  1.00  0.00    -0.134 C  
BRANCH  18  19
HETATM   19  C   UNL     1     -10.009  10.172  66.647  1.00  0.00    -0.272 A  
HETATM   20  C   UNL     1     -10.177  10.253  65.259  1.00  0.00    -0.308 A  
HETATM   21  C   UNL     1     -10.852  11.336  64.706  1.00  0.00    -0.244 A  
HETATM   22  F   UNL     1     -11.002  11.409  63.378  1.00  0.00    -0.428 F  
HETATM   23  C   UNL     1     -11.356  12.354  65.508  1.00  0.00    -0.387 A  
HETATM   24  C   UNL     1     -11.188  12.288  66.889  1.00  0.00    -0.367 A  
HETATM   25  C   UNL     1     -10.513  11.205  67.455  1.00  0.00    -0.239 A  
ENDBRANCH  18  19
ENDBRANCH  17  18
ENDBRANCH  14  17
ENDBRANCH  10  11
ENDBRANCH   8  10
ENDBRANCH   2   8
TORSDOF 7
ENDMDL
MODEL      249
REMARK 921   NORMALIZED FREE ENERGY PREDICTED BY IDOCK:    1.12 KCAL/MOL
REMARK 922        TOTAL FREE ENERGY PREDICTED BY IDOCK:    0.79 KCAL/MOL
REMARK 923 INTER-LIGAND FREE ENERGY PREDICTED BY IDOCK:    1.07 KCAL/MOL
REMARK 924 INTRA-LIGAND FREE ENERGY PREDICTED BY IDOCK:   -0.28 KCAL/MOL
REMARK 927      BINDING AFFINITY PREDICTED BY RF-SCORE:    0.00 PKD
ROOT
HETATM    1  C   UNL     1      -6.126  17.155  69.317  1.00  0.00    -0.216 C  
HETATM    2  C   UNL     1      -5.960  15.665  69.611  1.00  0.00    -0.137 C  
ENDROOT
BRANCH   2   3
HETATM    3  C   UNL     1      -6.890  15.254  70.778  1.00  0.00     0.652 C  
HETATM    4  H2  UNL     1      -5.343  14.101  71.617  1.00  0.00     0.000 HD 
HETATM    5  H1  UNL     1      -6.921  14.151  72.464  1.00  0.00     0.000 HD 
HETATM    6  O   UNL     1      -8.056  15.615  70.907  1.00  0.00     1.888 OA 
HETATM    7  N   UNL     1      -6.308  14.422  71.695  1.00  0.00     0.300 N  
ENDBRANCH   2   3
BRANCH   2   8
HETATM    8  N   UNL     1      -6.287  14.789  68.463  1.00  0.00    -0.082 NA 
HETATM    9  H   UNL     1      -5.828  13.884  68.557  1.00  0.00     0.000 HD 
BRANCH   8  10
HETATM   10  C   UNL     1      -7.725  14.622  68.248  1.00  0.00    -0.123 C  
BRANCH  10  11
HETATM   11  C   UNL     1      -8.037  13.218  67.783  1.00  0.00    -0.166 A  
HETATM   12  C   UNL     1      -8.631  13.014  66.529  1.00  0.00     0.131 A  
HETATM   13  C   UNL     1      -8.925  11.730  66.079  1.00  0.00    -0.108 A  
HETATM   14  C   UNL     1      -8.584  10.621  66.851  1.00  0.00    -0.126 A  
HETATM   15  C   UNL     1      -7.723  12.100  68.569  1.00  0.00    -0.119 A  
HETATM   16  C   UNL     1      -8.000  10.810  68.104  1.00  0.00    -0.114 A  
BRANCH  14  17
HETATM   17  O   UNL     1      -8.777   9.320  66.469  1.00  0.00    -0.127 OA 
BRANCH  17  18
HETATM   18  C   UNL     1      -8.932   9.132  65.059  1.00  0.00    -0.171 C  
BRANCH  18  19
HETATM   19  C   UNL     1      -7.799   8.323  64.478  1.00  0.00    -0.130 A  
HETATM   20  C   UNL     1      -8.031   7.144  63.759  1.00  0.00    -0.072 A  
HETATM   21  C   UNL     1      -6.958   6.378  63.319  1.00  0.00    -0.047 A  
HETATM   22  F   UNL     1      -7.189   5.250  62.638  1.00  0.00    -0.035 F  
HETATM   23  C   UNL     1      -5.647   6.756  63.591  1.00  0.00    -0.031 A  
HETATM   24  C   UNL     1      -5.404   7.922  64.313  1.00  0.00    -0.036 A  
HETATM   25  C   UNL     1      -6.475   8.699  64.758  1.00  0.00    -0.065 A  
ENDBRANCH  18  19
ENDBRANCH  17  18
ENDBRANCH  14  17
ENDBRANCH  10  11
ENDBRANCH   8  10
ENDBRANCH   2   8
TORSDOF 7
ENDMDL
MODEL      250
REMARK 921   NORMALIZED FREE ENERGY PREDICTED BY IDOCK:    1.54 KCAL/MOL
REMARK 922        TOTAL FREE ENERGY PREDICTED BY IDOCK:    1.37 KCAL/MOL
REMARK 923 INTER-LIGAND FREE ENERGY PREDICTED BY IDOCK:   -1.41 KCAL/MOL
REMARK 924 INTRA-LIGAND FREE ENERGY PREDICTED BY IDOCK:    2.78 KCAL/MOL
REMARK 927      BINDING AFFINITY PREDICTED BY RF-SCORE:    0.00 PKD
ROOT
HETATM    1  C   UNL     1      -9.071   7.529  65.717  1.00  0.00    -0.020 C  
HETATM    2  C   UNL     1      -8.494   8.293  66.907  1.00  0.00    -0.118 C  
ENDROOT
BRANCH   2   3
HETATM    3  C   UNL     1      -7.557   9.418  66.404  1.00  0.00    -0.097 C  
HETATM    4  H2  UNL     1      -5.889   8.166  66.683  1.00  0.00     0.000 HD 
HETATM    5  H1  UNL     1      -5.614   9.822  66.057  1.00  0.00     0.000 HD 
HETATM    6  O   UNL     1      -7.928  10.531  66.044  1.00  0.00    -0.139 OA 
HETATM    7  N   UNL     1      -6.231   9.081  66.388  1.00  0.00    -0.063 N  
ENDBRANCH   2   3
BRANCH   2   8
HETATM    8  N   UNL     1      -9.520   8.930  67.764  1.00  0.00    -0.140 NA 
HETATM    9  H   UNL     1     -10.424   8.948  67.292  1.00  0.00     0.000 HD 
BRANCH   8  10
HETATM   10  C   UNL     1      -9.638   8.316  69.086  1.00  0.00    -0.160 C  
BRANCH  10  11
HETATM   11  C   UNL     1      -9.666   6.809  68.976  1.00  0.00    -0.145 A  
HETATM   12  C   UNL     1     -10.643   6.185  68.186  1.00  0.00    -0.328 A  
HETATM   13  C   UNL     1     -10.686   4.798  68.068  1.00  0.00     0.500 A  
HETATM   14  C   UNL     1      -9.723   4.011  68.696  1.00  0.00    -0.068 A  
HETATM   15  C   UNL     1      -8.718   6.010  69.631  1.00  0.00    -0.133 A  
HETATM   16  C   UNL     1      -8.751   4.619  69.492  1.00  0.00    -0.111 A  
BRANCH  14  17
HETATM   17  O   UNL     1      -9.646   2.647  68.591  1.00  0.00    -0.165 OA 
BRANCH  17  18
HETATM   18  C   UNL     1      -8.405   2.161  68.073  1.00  0.00    -0.064 C  
BRANCH  18  19
HETATM   19  C   UNL     1      -7.226   2.828  68.737  1.00  0.00    -0.048 A  
HETATM   20  C   UNL     1      -6.957   2.658  70.101  1.00  0.00    -0.033 A  
HETATM   21  C   UNL     1      -5.916   3.361  70.695  1.00  0.00    -0.018 A  
HETATM   22  F   UNL     1      -5.671   3.198  72.000  1.00  0.00    -0.007 F  
HETATM   23  C   UNL     1      -5.137   4.248  69.959  1.00  0.00     0.000 A  
HETATM   24  C   UNL     1      -5.399   4.431  68.603  1.00  0.00    -0.011 A  
HETATM   25  C   UNL     1      -6.441   3.728  67.996  1.00  0.00    -0.038 A  
ENDBRANCH  18  19
ENDBRANCH  17  18
ENDBRANCH  14  17
ENDBRANCH  10  11
ENDBRANCH   8  10
ENDBRANCH   2   8
TORSDOF 7
ENDMDL
MODEL      251
REMARK 921   NORMALIZED FREE ENERGY PREDICTED BY IDOCK:   13.55 KCAL/MOL
REMARK 922        TOTAL FREE ENERGY PREDICTED BY IDOCK:   18.30 KCAL/MOL
REMARK 923 INTER-LIGAND FREE ENERGY PREDICTED BY IDOCK:   14.93 KCAL/MOL
REMARK 924 INTRA-LIGAND FREE ENERGY PREDICTED BY IDOCK:    3.37 KCAL/MOL
REMARK 927      BINDING AFFINITY PREDICTED BY RF-SCORE:    0.00 PKD
ROOT
HETATM    1  C   UNL     1      -6.037  17.716  70.330  1.00  0.00     0.094 C  
HETATM    2  C   UNL     1      -5.536  16.805  71.448  1.00  0.00     0.308 C  
ENDROOT
BRANCH   2   3
HETATM    3  C   UNL     1      -5.715  17.506  72.817  1.00  0.00     3.061 C  
HETATM    4  H2  UNL     1      -6.902  18.990  71.911  1.00  0.00     0.000 HD 
HETATM    5  H1  UNL     1      -6.601  19.100  73.674  1.00  0.00     0.000 HD 
HETATM    6  O   UNL     1      -5.227  17.118  73.873  1.00  0.00     5.686 OA 
HETATM    7  N   UNL     1      -6.483  18.638  72.772  1.00  0.00     2.943 N  
ENDBRANCH   2   3
BRANCH   2   8
HETATM    8  N   UNL     1      -6.245  15.508  71.526  1.00  0.00     0.904 NA 
HETATM    9  H   UNL     1      -6.136  15.092  72.450  1.00  0.00     0.000 HD 
BRANCH   8  10
HETATM   10  C   UNL     1      -7.658  15.593  71.158  1.00  0.00     3.074 C  
BRANCH  10  11
HETATM   11  C   UNL     1      -7.811  15.921  69.690  1.00  0.00     0.019 A  
HETATM   12  C   UNL     1      -8.026  17.248  69.290  1.00  0.00     0.113 A  
HETATM   13  C   UNL     1      -8.166  17.574  67.944  1.00  0.00    -0.231 A  
HETATM   14  C   UNL     1      -8.044  16.587  66.967  1.00  0.00    -0.201 A  
HETATM   15  C   UNL     1      -7.719  14.928  68.705  1.00  0.00    -0.139 A  
HETATM   16  C   UNL     1      -7.838  15.262  67.352  1.00  0.00    -0.220 A  
BRANCH  14  17
HETATM   17  O   UNL     1      -8.106  16.818  65.618  1.00  0.00    -0.221 OA 
BRANCH  17  18
HETATM   18  C   UNL     1      -9.430  16.815  65.077  1.00  0.00     1.815 C  
BRANCH  18  19
HETATM   19  C   UNL     1     -10.283  15.738  65.700  1.00  0.00    -0.407 A  
HETATM   20  C   UNL     1     -10.428  14.479  65.104  1.00  0.00    -0.439 A  
HETATM   21  C   UNL     1     -11.295  13.545  65.659  1.00  0.00    -0.298 A  
HETATM   22  F   UNL     1     -11.433  12.347  65.080  1.00  0.00    -0.332 F  
HETATM   23  C   UNL     1     -12.037  13.843  66.798  1.00  0.00    -0.476 A  
HETATM   24  C   UNL     1     -11.907  15.094  67.395  1.00  0.00    -0.086 A  
HETATM   25  C   UNL     1     -11.038  16.039  66.846  1.00  0.00    -0.039 A  
ENDBRANCH  18  19
ENDBRANCH  17  18
ENDBRANCH  14  17
ENDBRANCH  10  11
ENDBRANCH   8  10
ENDBRANCH   2   8
TORSDOF 7
ENDMDL
