MODEL        1
REMARK 921   NORMALIZED FREE ENERGY PREDICTED BY IDOCK:   -5.49 KCAL/MOL
REMARK 922        TOTAL FREE ENERGY PREDICTED BY IDOCK:   -6.04 KCAL/MOL
REMARK 923 INTER-LIGAND FREE ENERGY PREDICTED BY IDOCK:   -5.81 KCAL/MOL
REMARK 924 INTRA-LIGAND FREE ENERGY PREDICTED BY IDOCK:   -0.23 KCAL/MOL
REMARK 927      BINDING AFFINITY PREDICTED BY RF-SCORE:    0.00 PKD
ROOT
HETATM    1  N   UNL     1     -12.387  13.854  63.092  1.00  0.00    -1.106 N  
HETATM    2  C   UNL     1     -12.284  13.637  64.434  1.00  0.00    -0.390 C  
HETATM    3  H2  UNL     1     -13.041  13.301  62.538  1.00  0.00     0.000 HD 
HETATM    4  H1  UNL     1     -11.813  14.567  62.641  1.00  0.00     0.000 HD 
HETATM    5  O   UNL     1     -12.973  12.780  64.977  1.00  0.00    -0.811 OA 
ENDROOT
BRANCH   2   6
HETATM    6  C   UNL     1     -11.314  14.474  65.204  1.00  0.00    -0.366 A  
HETATM    7  C   UNL     1     -10.663  13.854  66.284  1.00  0.00    -0.285 A  
HETATM    8  C   UNL     1      -9.747  14.559  67.068  1.00  0.00    -0.247 A  
HETATM    9  C   UNL     1      -9.471  15.894  66.783  1.00  0.00    -0.254 A  
HETATM   10  C   UNL     1     -10.105  16.524  65.712  1.00  0.00    -0.328 A  
HETATM   11  C   UNL     1     -11.020  15.818  64.922  1.00  0.00    -0.427 A  
HETATM   12  O   UNL     1     -11.617  16.470  63.873  1.00  0.00    -1.598 OA 
HETATM   13  H   UNL     1     -11.418  17.380  63.683  1.00  0.00     0.000 HD 
ENDBRANCH   2   6
TORSDOF 1
ENDMDL
MODEL        2
REMARK 921   NORMALIZED FREE ENERGY PREDICTED BY IDOCK:   -5.00 KCAL/MOL
REMARK 922        TOTAL FREE ENERGY PREDICTED BY IDOCK:   -5.52 KCAL/MOL
REMARK 923 INTER-LIGAND FREE ENERGY PREDICTED BY IDOCK:   -5.27 KCAL/MOL
REMARK 924 INTRA-LIGAND FREE ENERGY PREDICTED BY IDOCK:   -0.25 KCAL/MOL
REMARK 927      BINDING AFFINITY PREDICTED BY RF-SCORE:    0.00 PKD
ROOT
HETATM    1  N   UNL     1     -11.441  12.051  63.354  1.00  0.00    -0.654 N  
HETATM    2  C   UNL     1     -11.796  13.341  63.614  1.00  0.00    -0.458 C  
HETATM    3  H2  UNL     1     -11.977  11.503  62.681  1.00  0.00     0.000 HD 
HETATM    4  H1  UNL     1     -10.640  11.632  63.829  1.00  0.00     0.000 HD 
HETATM    5  O   UNL     1     -12.758  13.845  63.044  1.00  0.00    -0.634 OA 
ENDROOT
BRANCH   2   6
HETATM    6  C   UNL     1     -10.978  14.104  64.605  1.00  0.00    -0.393 A  
HETATM    7  C   UNL     1     -10.228  13.348  65.522  1.00  0.00    -0.300 A  
HETATM    8  C   UNL     1      -9.441  13.974  66.491  1.00  0.00    -0.295 A  
HETATM    9  C   UNL     1      -9.394  15.364  66.557  1.00  0.00    -0.311 A  
HETATM   10  C   UNL     1     -10.130  16.131  65.652  1.00  0.00    -0.366 A  
HETATM   11  C   UNL     1     -10.916  15.505  64.677  1.00  0.00    -0.322 A  
HETATM   12  O   UNL     1     -11.617  16.293  63.801  1.00  0.00    -1.539 OA 
HETATM   13  H   UNL     1     -11.575  17.242  63.849  1.00  0.00     0.000 HD 
ENDBRANCH   2   6
TORSDOF 1
ENDMDL
MODEL        3
REMARK 921   NORMALIZED FREE ENERGY PREDICTED BY IDOCK:   -5.00 KCAL/MOL
REMARK 922        TOTAL FREE ENERGY PREDICTED BY IDOCK:   -5.52 KCAL/MOL
REMARK 923 INTER-LIGAND FREE ENERGY PREDICTED BY IDOCK:   -5.28 KCAL/MOL
REMARK 924 INTRA-LIGAND FREE ENERGY PREDICTED BY IDOCK:   -0.23 KCAL/MOL
REMARK 927      BINDING AFFINITY PREDICTED BY RF-SCORE:    0.00 PKD
ROOT
HETATM    1  N   UNL     1     -10.180  16.960  65.833  1.00  0.00    -0.337 N  
HETATM    2  C   UNL     1     -11.018  16.248  65.029  1.00  0.00    -0.298 C  
HETATM    3  H2  UNL     1      -9.942  17.922  65.592  1.00  0.00     0.000 HD 
HETATM    4  H1  UNL     1      -9.790  16.535  66.675  1.00  0.00     0.000 HD 
HETATM    5  O   UNL     1     -11.487  16.758  64.017  1.00  0.00    -1.198 OA 
ENDROOT
BRANCH   2   6
HETATM    6  C   UNL     1     -11.340  14.843  65.425  1.00  0.00    -0.346 A  
HETATM    7  C   UNL     1     -10.938  14.441  66.711  1.00  0.00    -0.314 A  
HETATM    8  C   UNL     1     -11.188  13.145  67.166  1.00  0.00    -0.326 A  
HETATM    9  C   UNL     1     -11.840  12.232  66.341  1.00  0.00    -0.382 A  
HETATM   10  C   UNL     1     -12.249  12.615  65.063  1.00  0.00    -0.535 A  
HETATM   11  C   UNL     1     -12.005  13.916  64.607  1.00  0.00    -0.419 A  
HETATM   12  O   UNL     1     -12.430  14.257  63.348  1.00  0.00    -1.125 OA 
HETATM   13  H   UNL     1     -12.880  13.629  62.794  1.00  0.00     0.000 HD 
ENDBRANCH   2   6
TORSDOF 1
ENDMDL
MODEL        4
REMARK 921   NORMALIZED FREE ENERGY PREDICTED BY IDOCK:   -4.90 KCAL/MOL
REMARK 922        TOTAL FREE ENERGY PREDICTED BY IDOCK:   -5.41 KCAL/MOL
REMARK 923 INTER-LIGAND FREE ENERGY PREDICTED BY IDOCK:   -5.17 KCAL/MOL
REMARK 924 INTRA-LIGAND FREE ENERGY PREDICTED BY IDOCK:   -0.24 KCAL/MOL
REMARK 927      BINDING AFFINITY PREDICTED BY RF-SCORE:    0.00 PKD
ROOT
HETATM    1  N   UNL     1     -11.185  11.378  63.141  1.00  0.00    -0.854 N  
HETATM    2  C   UNL     1     -11.973  12.255  63.825  1.00  0.00    -0.519 C  
HETATM    3  H2  UNL     1     -11.614  10.635  62.590  1.00  0.00     0.000 HD 
HETATM    4  H1  UNL     1     -10.169  11.462  63.178  1.00  0.00     0.000 HD 
HETATM    5  O   UNL     1     -13.194  12.154  63.781  1.00  0.00    -0.763 OA 
ENDROOT
BRANCH   2   6
HETATM    6  C   UNL     1     -11.299  13.329  64.617  1.00  0.00    -0.372 A  
HETATM    7  C   UNL     1     -10.315  12.916  65.531  1.00  0.00    -0.304 A  
HETATM    8  C   UNL     1      -9.637  13.847  66.321  1.00  0.00    -0.274 A  
HETATM    9  C   UNL     1      -9.935  15.203  66.209  1.00  0.00    -0.307 A  
HETATM   10  C   UNL     1     -10.908  15.630  65.303  1.00  0.00    -0.420 A  
HETATM   11  C   UNL     1     -11.584  14.699  64.507  1.00  0.00    -0.370 A  
HETATM   12  O   UNL     1     -12.527  15.159  63.623  1.00  0.00    -0.985 OA 
HETATM   13  H   UNL     1     -12.720  16.087  63.549  1.00  0.00     0.000 HD 
ENDBRANCH   2   6
TORSDOF 1
ENDMDL
MODEL        5
REMARK 921   NORMALIZED FREE ENERGY PREDICTED BY IDOCK:   -4.87 KCAL/MOL
REMARK 922        TOTAL FREE ENERGY PREDICTED BY IDOCK:   -5.38 KCAL/MOL
REMARK 923 INTER-LIGAND FREE ENERGY PREDICTED BY IDOCK:   -5.14 KCAL/MOL
REMARK 924 INTRA-LIGAND FREE ENERGY PREDICTED BY IDOCK:   -0.24 KCAL/MOL
REMARK 927      BINDING AFFINITY PREDICTED BY RF-SCORE:    0.00 PKD
ROOT
HETATM    1  N   UNL     1     -13.133  12.643  64.630  1.00  0.00    -0.693 N  
HETATM    2  C   UNL     1     -12.486  13.741  64.149  1.00  0.00    -0.240 C  
HETATM    3  H2  UNL     1     -13.689  12.065  63.999  1.00  0.00     0.000 HD 
HETATM    4  H1  UNL     1     -13.064  12.396  65.617  1.00  0.00     0.000 HD 
HETATM    5  O   UNL     1     -12.569  14.039  62.962  1.00  0.00    -0.643 OA 
ENDROOT
BRANCH   2   6
HETATM    6  C   UNL     1     -11.681  14.555  65.111  1.00  0.00    -0.376 A  
HETATM    7  C   UNL     1     -11.336  13.938  66.326  1.00  0.00    -0.329 A  
HETATM    8  C   UNL     1     -10.593  14.622  67.290  1.00  0.00    -0.284 A  
HETATM    9  C   UNL     1     -10.188  15.933  67.054  1.00  0.00    -0.283 A  
HETATM   10  C   UNL     1     -10.520  16.561  65.852  1.00  0.00    -0.335 A  
HETATM   11  C   UNL     1     -11.260  15.874  64.883  1.00  0.00    -0.337 A  
HETATM   12  O   UNL     1     -11.558  16.522  63.711  1.00  0.00    -1.617 OA 
HETATM   13  H   UNL     1     -11.273  17.415  63.556  1.00  0.00     0.000 HD 
ENDBRANCH   2   6
TORSDOF 1
ENDMDL
MODEL        6
REMARK 921   NORMALIZED FREE ENERGY PREDICTED BY IDOCK:   -4.74 KCAL/MOL
REMARK 922        TOTAL FREE ENERGY PREDICTED BY IDOCK:   -5.24 KCAL/MOL
REMARK 923 INTER-LIGAND FREE ENERGY PREDICTED BY IDOCK:   -4.99 KCAL/MOL
REMARK 924 INTRA-LIGAND FREE ENERGY PREDICTED BY IDOCK:   -0.26 KCAL/MOL
REMARK 927      BINDING AFFINITY PREDICTED BY RF-SCORE:    0.00 PKD
ROOT
HETATM    1  N   UNL     1     -12.331  14.159  63.343  1.00  0.00    -1.144 N  
HETATM    2  C   UNL     1     -12.322  13.643  64.604  1.00  0.00    -0.371 C  
HETATM    3  H2  UNL     1     -13.036  14.849  63.083  1.00  0.00     0.000 HD 
HETATM    4  H1  UNL     1     -11.637  13.858  62.659  1.00  0.00     0.000 HD 
HETATM    5  O   UNL     1     -13.157  14.004  65.427  1.00  0.00    -0.763 OA 
ENDROOT
BRANCH   2   6
HETATM    6  C   UNL     1     -11.269  12.636  64.939  1.00  0.00    -0.332 A  
HETATM    7  C   UNL     1     -10.546  12.850  66.125  1.00  0.00    -0.287 A  
HETATM    8  C   UNL     1      -9.537  11.967  66.516  1.00  0.00    -0.234 A  
HETATM    9  C   UNL     1      -9.236  10.861  65.726  1.00  0.00    -0.224 A  
HETATM   10  C   UNL     1      -9.946  10.632  64.547  1.00  0.00    -0.410 A  
HETATM   11  C   UNL     1     -10.962  11.512  64.156  1.00  0.00    -0.366 A  
HETATM   12  O   UNL     1     -11.643  11.248  62.995  1.00  0.00    -0.857 OA 
HETATM   13  H   UNL     1     -11.435  10.487  62.465  1.00  0.00     0.000 HD 
ENDBRANCH   2   6
TORSDOF 1
ENDMDL
MODEL        7
REMARK 921   NORMALIZED FREE ENERGY PREDICTED BY IDOCK:   -4.74 KCAL/MOL
REMARK 922        TOTAL FREE ENERGY PREDICTED BY IDOCK:   -5.24 KCAL/MOL
REMARK 923 INTER-LIGAND FREE ENERGY PREDICTED BY IDOCK:   -5.01 KCAL/MOL
REMARK 924 INTRA-LIGAND FREE ENERGY PREDICTED BY IDOCK:   -0.23 KCAL/MOL
REMARK 927      BINDING AFFINITY PREDICTED BY RF-SCORE:    0.00 PKD
ROOT
HETATM    1  N   UNL     1     -12.244  14.057  63.207  1.00  0.00    -1.099 N  
HETATM    2  C   UNL     1     -12.333  13.487  64.441  1.00  0.00    -0.337 C  
HETATM    3  H2  UNL     1     -12.849  14.842  62.966  1.00  0.00     0.000 HD 
HETATM    4  H1  UNL     1     -11.574  13.703  62.523  1.00  0.00     0.000 HD 
HETATM    5  O   UNL     1     -13.137  13.912  65.263  1.00  0.00    -0.777 OA 
ENDROOT
BRANCH   2   6
HETATM    6  C   UNL     1     -11.422  12.341  64.748  1.00  0.00    -0.382 A  
HETATM    7  C   UNL     1     -10.672  11.826  63.677  1.00  0.00    -0.503 A  
HETATM    8  C   UNL     1      -9.801  10.751  63.866  1.00  0.00    -0.389 A  
HETATM    9  C   UNL     1      -9.671  10.175  65.127  1.00  0.00    -0.370 A  
HETATM   10  C   UNL     1     -10.406  10.676  66.202  1.00  0.00    -0.291 A  
HETATM   11  C   UNL     1     -11.275  11.757  66.016  1.00  0.00    -0.296 A  
HETATM   12  O   UNL     1     -11.974  12.227  67.099  1.00  0.00    -0.564 OA 
HETATM   13  H   UNL     1     -11.874  11.831  67.958  1.00  0.00     0.000 HD 
ENDBRANCH   2   6
TORSDOF 1
ENDMDL
MODEL        8
REMARK 921   NORMALIZED FREE ENERGY PREDICTED BY IDOCK:   -4.72 KCAL/MOL
REMARK 922        TOTAL FREE ENERGY PREDICTED BY IDOCK:   -5.22 KCAL/MOL
REMARK 923 INTER-LIGAND FREE ENERGY PREDICTED BY IDOCK:   -4.96 KCAL/MOL
REMARK 924 INTRA-LIGAND FREE ENERGY PREDICTED BY IDOCK:   -0.26 KCAL/MOL
REMARK 927      BINDING AFFINITY PREDICTED BY RF-SCORE:    0.00 PKD
ROOT
HETATM    1  N   UNL     1      -8.645  16.159  66.699  1.00  0.00    -0.246 N  
HETATM    2  C   UNL     1      -9.822  16.479  66.090  1.00  0.00    -0.332 C  
HETATM    3  H2  UNL     1      -7.971  16.894  66.916  1.00  0.00     0.000 HD 
HETATM    4  H1  UNL     1      -8.436  15.190  66.937  1.00  0.00     0.000 HD 
HETATM    5  O   UNL     1     -10.074  17.644  65.803  1.00  0.00    -0.555 OA 
ENDROOT
BRANCH   2   6
HETATM    6  C   UNL     1     -10.779  15.369  65.794  1.00  0.00    -0.360 A  
HETATM    7  C   UNL     1     -10.785  14.285  66.689  1.00  0.00    -0.290 A  
HETATM    8  C   UNL     1     -11.639  13.198  66.490  1.00  0.00    -0.402 A  
HETATM    9  C   UNL     1     -12.496  13.179  65.392  1.00  0.00    -0.535 A  
HETATM   10  C   UNL     1     -12.505  14.248  64.495  1.00  0.00    -0.357 A  
HETATM   11  C   UNL     1     -11.653  15.341  64.696  1.00  0.00    -0.333 A  
HETATM   12  O   UNL     1     -11.698  16.376  63.798  1.00  0.00    -1.553 OA 
HETATM   13  H   UNL     1     -12.290  16.357  63.054  1.00  0.00     0.000 HD 
ENDBRANCH   2   6
TORSDOF 1
ENDMDL
MODEL        9
REMARK 921   NORMALIZED FREE ENERGY PREDICTED BY IDOCK:   -4.70 KCAL/MOL
REMARK 922        TOTAL FREE ENERGY PREDICTED BY IDOCK:   -5.20 KCAL/MOL
REMARK 923 INTER-LIGAND FREE ENERGY PREDICTED BY IDOCK:   -4.95 KCAL/MOL
REMARK 924 INTRA-LIGAND FREE ENERGY PREDICTED BY IDOCK:   -0.25 KCAL/MOL
REMARK 927      BINDING AFFINITY PREDICTED BY RF-SCORE:    0.00 PKD
ROOT
HETATM    1  N   UNL     1     -12.765  11.678  62.934  1.00  0.00    -0.816 N  
HETATM    2  C   UNL     1     -11.650  11.842  63.701  1.00  0.00    -0.464 C  
HETATM    3  H2  UNL     1     -12.716  11.118  62.083  1.00  0.00     0.000 HD 
HETATM    4  H1  UNL     1     -13.647  12.113  63.208  1.00  0.00     0.000 HD 
HETATM    5  O   UNL     1     -10.590  11.320  63.373  1.00  0.00    -0.375 OA 
ENDROOT
BRANCH   2   6
HETATM    6  C   UNL     1     -11.771  12.669  64.941  1.00  0.00    -0.399 A  
HETATM    7  C   UNL     1     -11.460  12.035  66.156  1.00  0.00    -0.401 A  
HETATM    8  C   UNL     1     -11.552  12.724  67.367  1.00  0.00    -0.415 A  
HETATM    9  C   UNL     1     -11.959  14.056  67.380  1.00  0.00    -0.439 A  
HETATM   10  C   UNL     1     -12.270  14.702  66.182  1.00  0.00    -0.167 A  
HETATM   11  C   UNL     1     -12.173  14.014  64.967  1.00  0.00    -0.433 A  
HETATM   12  O   UNL     1     -12.478  14.686  63.811  1.00  0.00    -1.041 OA 
HETATM   13  H   UNL     1     -12.750  15.597  63.828  1.00  0.00     0.000 HD 
ENDBRANCH   2   6
TORSDOF 1
ENDMDL
MODEL       10
REMARK 921   NORMALIZED FREE ENERGY PREDICTED BY IDOCK:   -4.67 KCAL/MOL
REMARK 922        TOTAL FREE ENERGY PREDICTED BY IDOCK:   -5.17 KCAL/MOL
REMARK 923 INTER-LIGAND FREE ENERGY PREDICTED BY IDOCK:   -4.96 KCAL/MOL
REMARK 924 INTRA-LIGAND FREE ENERGY PREDICTED BY IDOCK:   -0.21 KCAL/MOL
REMARK 927      BINDING AFFINITY PREDICTED BY RF-SCORE:    0.00 PKD
ROOT
HETATM    1  N   UNL     1     -12.204   6.257  72.559  1.00  0.00    -0.539 N  
HETATM    2  C   UNL     1     -11.511   7.390  72.863  1.00  0.00    -0.221 C  
HETATM    3  H2  UNL     1     -11.955   5.375  73.007  1.00  0.00     0.000 HD 
HETATM    4  H1  UNL     1     -12.970   6.287  71.886  1.00  0.00     0.000 HD 
HETATM    5  O   UNL     1     -10.590   7.354  73.672  1.00  0.00    -0.370 OA 
ENDROOT
BRANCH   2   6
HETATM    6  C   UNL     1     -11.915   8.659  72.184  1.00  0.00    -0.449 A  
HETATM    7  C   UNL     1     -11.017   9.182  71.238  1.00  0.00    -0.400 A  
HETATM    8  C   UNL     1     -11.305  10.368  70.559  1.00  0.00    -0.424 A  
HETATM    9  C   UNL     1     -12.492  11.048  70.818  1.00  0.00    -0.491 A  
HETATM   10  C   UNL     1     -13.396  10.541  71.753  1.00  0.00    -0.446 A  
HETATM   11  C   UNL     1     -13.112   9.350  72.431  1.00  0.00    -0.379 A  
HETATM   12  O   UNL     1     -14.030   8.879  73.335  1.00  0.00    -1.236 OA 
HETATM   13  H   UNL     1     -14.840   9.347  73.502  1.00  0.00     0.000 HD 
ENDBRANCH   2   6
TORSDOF 1
ENDMDL
MODEL       11
REMARK 921   NORMALIZED FREE ENERGY PREDICTED BY IDOCK:   -4.66 KCAL/MOL
REMARK 922        TOTAL FREE ENERGY PREDICTED BY IDOCK:   -5.16 KCAL/MOL
REMARK 923 INTER-LIGAND FREE ENERGY PREDICTED BY IDOCK:   -4.90 KCAL/MOL
REMARK 924 INTRA-LIGAND FREE ENERGY PREDICTED BY IDOCK:   -0.26 KCAL/MOL
REMARK 927      BINDING AFFINITY PREDICTED BY RF-SCORE:    0.00 PKD
ROOT
HETATM    1  N   UNL     1     -12.378  14.446  63.522  1.00  0.00    -1.114 N  
HETATM    2  C   UNL     1     -11.779  15.340  64.359  1.00  0.00    -0.285 C  
HETATM    3  H2  UNL     1     -12.713  14.753  62.609  1.00  0.00     0.000 HD 
HETATM    4  H1  UNL     1     -12.492  13.473  63.805  1.00  0.00     0.000 HD 
HETATM    5  O   UNL     1     -11.642  16.510  64.020  1.00  0.00    -1.154 OA 
ENDROOT
BRANCH   2   6
HETATM    6  C   UNL     1     -11.302  14.843  65.686  1.00  0.00    -0.325 A  
HETATM    7  C   UNL     1     -12.165  13.984  66.387  1.00  0.00    -0.492 A  
HETATM    8  C   UNL     1     -11.809  13.476  67.638  1.00  0.00    -0.399 A  
HETATM    9  C   UNL     1     -10.584  13.822  68.205  1.00  0.00    -0.262 A  
HETATM   10  C   UNL     1      -9.713  14.670  67.521  1.00  0.00    -0.210 A  
HETATM   11  C   UNL     1     -10.067  15.176  66.265  1.00  0.00    -0.283 A  
HETATM   12  O   UNL     1      -9.179  16.000  65.620  1.00  0.00    -0.379 OA 
HETATM   13  H   UNL     1      -8.343  16.225  66.012  1.00  0.00     0.000 HD 
ENDBRANCH   2   6
TORSDOF 1
ENDMDL
MODEL       12
REMARK 921   NORMALIZED FREE ENERGY PREDICTED BY IDOCK:   -4.66 KCAL/MOL
REMARK 922        TOTAL FREE ENERGY PREDICTED BY IDOCK:   -5.16 KCAL/MOL
REMARK 923 INTER-LIGAND FREE ENERGY PREDICTED BY IDOCK:   -4.91 KCAL/MOL
REMARK 924 INTRA-LIGAND FREE ENERGY PREDICTED BY IDOCK:   -0.25 KCAL/MOL
REMARK 927      BINDING AFFINITY PREDICTED BY RF-SCORE:    0.00 PKD
ROOT
HETATM    1  N   UNL     1     -12.293  14.113  67.219  1.00  0.00    -0.576 N  
HETATM    2  C   UNL     1     -12.637  13.779  65.944  1.00  0.00    -0.447 C  
HETATM    3  H2  UNL     1     -12.846  14.801  67.731  1.00  0.00     0.000 HD 
HETATM    4  H1  UNL     1     -11.484  13.677  67.664  1.00  0.00     0.000 HD 
HETATM    5  O   UNL     1     -13.609  14.302  65.408  1.00  0.00    -0.516 OA 
ENDROOT
BRANCH   2   6
HETATM    6  C   UNL     1     -11.799  12.764  65.236  1.00  0.00    -0.442 A  
HETATM    7  C   UNL     1     -11.101  11.848  66.042  1.00  0.00    -0.369 A  
HETATM    8  C   UNL     1     -10.285  10.869  65.471  1.00  0.00    -0.332 A  
HETATM    9  C   UNL     1     -10.154  10.794  64.087  1.00  0.00    -0.418 A  
HETATM   10  C   UNL     1     -10.842  11.694  63.271  1.00  0.00    -0.380 A  
HETATM   11  C   UNL     1     -11.664  12.673  63.842  1.00  0.00    -0.457 A  
HETATM   12  O   UNL     1     -12.331  13.533  63.006  1.00  0.00    -0.970 OA 
HETATM   13  H   UNL     1     -12.240  13.471  62.062  1.00  0.00     0.000 HD 
ENDBRANCH   2   6
TORSDOF 1
ENDMDL
MODEL       13
REMARK 921   NORMALIZED FREE ENERGY PREDICTED BY IDOCK:   -4.64 KCAL/MOL
REMARK 922        TOTAL FREE ENERGY PREDICTED BY IDOCK:   -5.14 KCAL/MOL
REMARK 923 INTER-LIGAND FREE ENERGY PREDICTED BY IDOCK:   -4.88 KCAL/MOL
REMARK 924 INTRA-LIGAND FREE ENERGY PREDICTED BY IDOCK:   -0.26 KCAL/MOL
REMARK 927      BINDING AFFINITY PREDICTED BY RF-SCORE:    0.00 PKD
ROOT
HETATM    1  N   UNL     1     -14.018  15.587  70.919  1.00  0.00    -0.853 N  
HETATM    2  C   UNL     1     -12.765  15.058  70.834  1.00  0.00    -0.375 C  
HETATM    3  H2  UNL     1     -14.145  16.599  70.883  1.00  0.00     0.000 HD 
HETATM    4  H1  UNL     1     -14.830  14.976  71.017  1.00  0.00     0.000 HD 
HETATM    5  O   UNL     1     -11.790  15.793  70.716  1.00  0.00    -0.342 OA 
ENDROOT
BRANCH   2   6
HETATM    6  C   UNL     1     -12.630  13.570  70.888  1.00  0.00    -0.414 A  
HETATM    7  C   UNL     1     -11.823  12.974  69.905  1.00  0.00    -0.377 A  
HETATM    8  C   UNL     1     -11.644  11.589  69.869  1.00  0.00    -0.387 A  
HETATM    9  C   UNL     1     -12.272  10.782  70.815  1.00  0.00    -0.480 A  
HETATM   10  C   UNL     1     -13.075  11.359  71.800  1.00  0.00    -0.523 A  
HETATM   11  C   UNL     1     -13.251  12.747  71.840  1.00  0.00    -0.412 A  
HETATM   12  O   UNL     1     -14.041  13.276  72.829  1.00  0.00    -0.716 OA 
HETATM   13  H   UNL     1     -14.462  12.718  73.474  1.00  0.00     0.000 HD 
ENDBRANCH   2   6
TORSDOF 1
ENDMDL
MODEL       14
REMARK 921   NORMALIZED FREE ENERGY PREDICTED BY IDOCK:   -4.57 KCAL/MOL
REMARK 922        TOTAL FREE ENERGY PREDICTED BY IDOCK:   -5.07 KCAL/MOL
REMARK 923 INTER-LIGAND FREE ENERGY PREDICTED BY IDOCK:   -4.97 KCAL/MOL
REMARK 924 INTRA-LIGAND FREE ENERGY PREDICTED BY IDOCK:   -0.10 KCAL/MOL
REMARK 927      BINDING AFFINITY PREDICTED BY RF-SCORE:    0.00 PKD
ROOT
HETATM    1  N   UNL     1     -12.409  14.279  63.309  1.00  0.00    -1.092 N  
HETATM    2  C   UNL     1     -11.986  15.152  64.267  1.00  0.00    -0.262 C  
HETATM    3  H2  UNL     1     -12.640  14.622  62.377  1.00  0.00     0.000 HD 
HETATM    4  H1  UNL     1     -12.494  13.285  63.521  1.00  0.00     0.000 HD 
HETATM    5  O   UNL     1     -11.884  16.348  64.012  1.00  0.00    -1.003 OA 
ENDROOT
BRANCH   2   6
HETATM    6  C   UNL     1     -11.656  14.602  65.617  1.00  0.00    -0.328 A  
HETATM    7  C   UNL     1     -10.871  15.412  66.454  1.00  0.00    -0.303 A  
HETATM    8  C   UNL     1     -10.504  14.979  67.730  1.00  0.00    -0.249 A  
HETATM    9  C   UNL     1     -10.915  13.728  68.185  1.00  0.00    -0.265 A  
HETATM   10  C   UNL     1     -11.698  12.912  67.367  1.00  0.00    -0.428 A  
HETATM   11  C   UNL     1     -12.071  13.347  66.090  1.00  0.00    -0.429 A  
HETATM   12  O   UNL     1     -12.848  12.519  65.320  1.00  0.00    -0.613 OA 
HETATM   13  H   UNL     1     -13.129  11.669  65.640  1.00  0.00     0.000 HD 
ENDBRANCH   2   6
TORSDOF 1
ENDMDL
MODEL       15
REMARK 921   NORMALIZED FREE ENERGY PREDICTED BY IDOCK:   -4.54 KCAL/MOL
REMARK 922        TOTAL FREE ENERGY PREDICTED BY IDOCK:   -5.03 KCAL/MOL
REMARK 923 INTER-LIGAND FREE ENERGY PREDICTED BY IDOCK:   -4.78 KCAL/MOL
REMARK 924 INTRA-LIGAND FREE ENERGY PREDICTED BY IDOCK:   -0.26 KCAL/MOL
REMARK 927      BINDING AFFINITY PREDICTED BY RF-SCORE:    0.00 PKD
ROOT
HETATM    1  N   UNL     1     -12.399  11.486  62.880  1.00  0.00    -0.871 N  
HETATM    2  C   UNL     1     -12.272  12.577  63.687  1.00  0.00    -0.550 C  
HETATM    3  H2  UNL     1     -12.794  11.590  61.945  1.00  0.00     0.000 HD 
HETATM    4  H1  UNL     1     -12.102  10.567  63.208  1.00  0.00     0.000 HD 
HETATM    5  O   UNL     1     -12.629  13.683  63.295  1.00  0.00    -0.816 OA 
ENDROOT
BRANCH   2   6
HETATM    6  C   UNL     1     -11.686  12.375  65.047  1.00  0.00    -0.420 A  
HETATM    7  C   UNL     1     -10.728  11.355  65.177  1.00  0.00    -0.332 A  
HETATM    8  C   UNL     1     -10.131  11.086  66.411  1.00  0.00    -0.275 A  
HETATM    9  C   UNL     1     -10.486  11.833  67.532  1.00  0.00    -0.228 A  
HETATM   10  C   UNL     1     -11.433  12.852  67.420  1.00  0.00    -0.388 A  
HETATM   11  C   UNL     1     -12.028  13.125  66.183  1.00  0.00    -0.422 A  
HETATM   12  O   UNL     1     -12.948  14.141  66.113  1.00  0.00    -0.477 OA 
HETATM   13  H   UNL     1     -13.180  14.649  66.882  1.00  0.00     0.000 HD 
ENDBRANCH   2   6
TORSDOF 1
ENDMDL
MODEL       16
REMARK 921   NORMALIZED FREE ENERGY PREDICTED BY IDOCK:   -4.53 KCAL/MOL
REMARK 922        TOTAL FREE ENERGY PREDICTED BY IDOCK:   -5.02 KCAL/MOL
REMARK 923 INTER-LIGAND FREE ENERGY PREDICTED BY IDOCK:   -4.79 KCAL/MOL
REMARK 924 INTRA-LIGAND FREE ENERGY PREDICTED BY IDOCK:   -0.23 KCAL/MOL
REMARK 927      BINDING AFFINITY PREDICTED BY RF-SCORE:    0.00 PKD
ROOT
HETATM    1  N   UNL     1     -12.376  13.807  63.109  1.00  0.00    -1.106 N  
HETATM    2  C   UNL     1     -12.427  13.204  64.331  1.00  0.00    -0.310 C  
HETATM    3  H2  UNL     1     -13.049  13.549  62.388  1.00  0.00     0.000 HD 
HETATM    4  H1  UNL     1     -11.668  14.516  62.915  1.00  0.00     0.000 HD 
HETATM    5  O   UNL     1     -13.278  12.353  64.565  1.00  0.00    -0.834 OA 
ENDROOT
BRANCH   2   6
HETATM    6  C   UNL     1     -11.422  13.619  65.357  1.00  0.00    -0.322 A  
HETATM    7  C   UNL     1     -10.604  14.715  65.033  1.00  0.00    -0.461 A  
HETATM    8  C   UNL     1      -9.630  15.169  65.925  1.00  0.00    -0.373 A  
HETATM    9  C   UNL     1      -9.460  14.532  67.152  1.00  0.00    -0.236 A  
HETATM   10  C   UNL     1     -10.266  13.444  67.491  1.00  0.00    -0.226 A  
HETATM   11  C   UNL     1     -11.246  12.991  66.600  1.00  0.00    -0.307 A  
HETATM   12  O   UNL     1     -12.024  11.925  66.973  1.00  0.00    -0.615 OA 
HETATM   13  H   UNL     1     -11.905  11.500  67.815  1.00  0.00     0.000 HD 
ENDBRANCH   2   6
TORSDOF 1
ENDMDL
MODEL       17
REMARK 921   NORMALIZED FREE ENERGY PREDICTED BY IDOCK:   -4.51 KCAL/MOL
REMARK 922        TOTAL FREE ENERGY PREDICTED BY IDOCK:   -4.99 KCAL/MOL
REMARK 923 INTER-LIGAND FREE ENERGY PREDICTED BY IDOCK:   -4.74 KCAL/MOL
REMARK 924 INTRA-LIGAND FREE ENERGY PREDICTED BY IDOCK:   -0.26 KCAL/MOL
REMARK 927      BINDING AFFINITY PREDICTED BY RF-SCORE:    0.00 PKD
ROOT
HETATM    1  N   UNL     1     -11.938  13.635  67.994  1.00  0.00    -0.366 N  
HETATM    2  C   UNL     1     -11.908  12.374  67.477  1.00  0.00    -0.284 C  
HETATM    3  H2  UNL     1     -12.145  13.772  68.983  1.00  0.00     0.000 HD 
HETATM    4  H1  UNL     1     -11.755  14.441  67.395  1.00  0.00     0.000 HD 
HETATM    5  O   UNL     1     -12.128  11.405  68.196  1.00  0.00    -0.623 OA 
ENDROOT
BRANCH   2   6
HETATM    6  C   UNL     1     -11.598  12.222  66.023  1.00  0.00    -0.451 A  
HETATM    7  C   UNL     1     -10.607  11.285  65.682  1.00  0.00    -0.303 A  
HETATM    8  C   UNL     1     -10.243  11.080  64.350  1.00  0.00    -0.409 A  
HETATM    9  C   UNL     1     -10.863  11.812  63.340  1.00  0.00    -0.460 A  
HETATM   10  C   UNL     1     -11.851  12.745  63.659  1.00  0.00    -0.603 A  
HETATM   11  C   UNL     1     -12.220  12.947  64.994  1.00  0.00    -0.464 A  
HETATM   12  O   UNL     1     -13.201  13.866  65.267  1.00  0.00    -0.774 OA 
HETATM   13  H   UNL     1     -13.623  14.357  64.571  1.00  0.00     0.000 HD 
ENDBRANCH   2   6
TORSDOF 1
ENDMDL
MODEL       18
REMARK 921   NORMALIZED FREE ENERGY PREDICTED BY IDOCK:   -4.48 KCAL/MOL
REMARK 922        TOTAL FREE ENERGY PREDICTED BY IDOCK:   -4.97 KCAL/MOL
REMARK 923 INTER-LIGAND FREE ENERGY PREDICTED BY IDOCK:   -4.80 KCAL/MOL
REMARK 924 INTRA-LIGAND FREE ENERGY PREDICTED BY IDOCK:   -0.17 KCAL/MOL
REMARK 927      BINDING AFFINITY PREDICTED BY RF-SCORE:    0.00 PKD
ROOT
HETATM    1  N   UNL     1     -10.161  15.476  65.554  1.00  0.00    -0.367 N  
HETATM    2  C   UNL     1     -10.626  16.739  65.344  1.00  0.00    -0.203 C  
HETATM    3  H2  UNL     1     -10.294  14.761  64.838  1.00  0.00     0.000 HD 
HETATM    4  H1  UNL     1      -9.681  15.242  66.423  1.00  0.00     0.000 HD 
HETATM    5  O   UNL     1     -11.203  17.021  64.299  1.00  0.00    -1.186 OA 
ENDROOT
BRANCH   2   6
HETATM    6  C   UNL     1     -10.404  17.752  66.421  1.00  0.00    -0.351 A  
HETATM    7  C   UNL     1     -10.355  19.099  66.021  1.00  0.00    -0.538 A  
HETATM    8  C   UNL     1     -10.144  20.115  66.955  1.00  0.00    -0.592 A  
HETATM    9  C   UNL     1      -9.977  19.799  68.301  1.00  0.00    -0.557 A  
HETATM   10  C   UNL     1     -10.027  18.467  68.716  1.00  0.00    -0.417 A  
HETATM   11  C   UNL     1     -10.243  17.448  67.782  1.00  0.00    -0.345 A  
HETATM   12  O   UNL     1     -10.294  16.152  68.230  1.00  0.00    -0.249 OA 
HETATM   13  H   UNL     1     -10.185  15.946  69.151  1.00  0.00     0.000 HD 
ENDBRANCH   2   6
TORSDOF 1
ENDMDL
MODEL       19
REMARK 921   NORMALIZED FREE ENERGY PREDICTED BY IDOCK:   -4.46 KCAL/MOL
REMARK 922        TOTAL FREE ENERGY PREDICTED BY IDOCK:   -4.94 KCAL/MOL
REMARK 923 INTER-LIGAND FREE ENERGY PREDICTED BY IDOCK:   -4.70 KCAL/MOL
REMARK 924 INTRA-LIGAND FREE ENERGY PREDICTED BY IDOCK:   -0.24 KCAL/MOL
REMARK 927      BINDING AFFINITY PREDICTED BY RF-SCORE:    0.00 PKD
ROOT
HETATM    1  N   UNL     1     -12.331  14.109  63.345  1.00  0.00    -1.144 N  
HETATM    2  C   UNL     1     -12.457  12.924  64.004  1.00  0.00    -0.326 C  
HETATM    3  H2  UNL     1     -12.704  14.206  62.400  1.00  0.00     0.000 HD 
HETATM    4  H1  UNL     1     -11.865  14.900  63.792  1.00  0.00     0.000 HD 
HETATM    5  O   UNL     1     -13.016  11.973  63.467  1.00  0.00    -0.774 OA 
ENDROOT
BRANCH   2   6
HETATM    6  C   UNL     1     -11.897  12.831  65.387  1.00  0.00    -0.456 A  
HETATM    7  C   UNL     1     -12.323  13.804  66.308  1.00  0.00    -0.479 A  
HETATM    8  C   UNL     1     -11.848  13.803  67.621  1.00  0.00    -0.413 A  
HETATM    9  C   UNL     1     -10.938  12.831  68.031  1.00  0.00    -0.266 A  
HETATM   10  C   UNL     1     -10.507  11.855  67.130  1.00  0.00    -0.249 A  
HETATM   11  C   UNL     1     -10.987  11.851  65.815  1.00  0.00    -0.311 A  
HETATM   12  O   UNL     1     -10.546  10.871  64.963  1.00  0.00    -0.286 OA 
HETATM   13  H   UNL     1      -9.930  10.208  65.253  1.00  0.00     0.000 HD 
ENDBRANCH   2   6
TORSDOF 1
ENDMDL
MODEL       20
REMARK 921   NORMALIZED FREE ENERGY PREDICTED BY IDOCK:   -4.45 KCAL/MOL
REMARK 922        TOTAL FREE ENERGY PREDICTED BY IDOCK:   -4.93 KCAL/MOL
REMARK 923 INTER-LIGAND FREE ENERGY PREDICTED BY IDOCK:   -4.68 KCAL/MOL
REMARK 924 INTRA-LIGAND FREE ENERGY PREDICTED BY IDOCK:   -0.26 KCAL/MOL
REMARK 927      BINDING AFFINITY PREDICTED BY RF-SCORE:    0.00 PKD
ROOT
HETATM    1  N   UNL     1     -10.666  12.452  69.181  1.00  0.00    -0.433 N  
HETATM    2  C   UNL     1     -11.819  12.106  69.819  1.00  0.00    -0.327 C  
HETATM    3  H2  UNL     1     -10.185  11.768  68.597  1.00  0.00     0.000 HD 
HETATM    4  H1  UNL     1     -10.282  13.392  69.286  1.00  0.00     0.000 HD 
HETATM    5  O   UNL     1     -12.281  10.977  69.694  1.00  0.00    -0.330 OA 
ENDROOT
BRANCH   2   6
HETATM    6  C   UNL     1     -12.489  13.144  70.662  1.00  0.00    -0.363 A  
HETATM    7  C   UNL     1     -12.377  14.477  70.231  1.00  0.00    -0.408 A  
HETATM    8  C   UNL     1     -12.963  15.515  70.958  1.00  0.00    -0.550 A  
HETATM    9  C   UNL     1     -13.667  15.235  72.127  1.00  0.00    -0.598 A  
HETATM   10  C   UNL     1     -13.790  13.917  72.567  1.00  0.00    -0.620 A  
HETATM   11  C   UNL     1     -13.208  12.874  71.837  1.00  0.00    -0.423 A  
HETATM   12  O   UNL     1     -13.360  11.591  72.298  1.00  0.00    -0.624 OA 
HETATM   13  H   UNL     1     -13.847  11.408  73.094  1.00  0.00     0.000 HD 
ENDBRANCH   2   6
TORSDOF 1
ENDMDL
MODEL       21
REMARK 921   NORMALIZED FREE ENERGY PREDICTED BY IDOCK:   -4.41 KCAL/MOL
REMARK 922        TOTAL FREE ENERGY PREDICTED BY IDOCK:   -4.89 KCAL/MOL
REMARK 923 INTER-LIGAND FREE ENERGY PREDICTED BY IDOCK:   -4.64 KCAL/MOL
REMARK 924 INTRA-LIGAND FREE ENERGY PREDICTED BY IDOCK:   -0.25 KCAL/MOL
REMARK 927      BINDING AFFINITY PREDICTED BY RF-SCORE:    0.00 PKD
ROOT
HETATM    1  N   UNL     1     -10.398  13.049  68.886  1.00  0.00    -0.431 N  
HETATM    2  C   UNL     1     -11.657  12.638  69.208  1.00  0.00    -0.318 C  
HETATM    3  H2  UNL     1      -9.874  12.558  68.161  1.00  0.00     0.000 HD 
HETATM    4  H1  UNL     1      -9.978  13.844  69.367  1.00  0.00     0.000 HD 
HETATM    5  O   UNL     1     -12.163  11.682  68.630  1.00  0.00    -0.455 OA 
ENDROOT
BRANCH   2   6
HETATM    6  C   UNL     1     -12.386  13.391  70.274  1.00  0.00    -0.354 A  
HETATM    7  C   UNL     1     -12.795  12.655  71.399  1.00  0.00    -0.358 A  
HETATM    8  C   UNL     1     -13.490  13.271  72.442  1.00  0.00    -0.670 A  
HETATM    9  C   UNL     1     -13.787  14.629  72.373  1.00  0.00    -0.580 A  
HETATM   10  C   UNL     1     -13.385  15.376  71.265  1.00  0.00    -0.598 A  
HETATM   11  C   UNL     1     -12.684  14.762  70.221  1.00  0.00    -0.276 A  
HETATM   12  O   UNL     1     -12.299  15.531  69.152  1.00  0.00    -0.599 OA 
HETATM   13  H   UNL     1     -12.501  16.459  69.116  1.00  0.00     0.000 HD 
ENDBRANCH   2   6
TORSDOF 1
ENDMDL
MODEL       22
REMARK 921   NORMALIZED FREE ENERGY PREDICTED BY IDOCK:   -4.35 KCAL/MOL
REMARK 922        TOTAL FREE ENERGY PREDICTED BY IDOCK:   -4.83 KCAL/MOL
REMARK 923 INTER-LIGAND FREE ENERGY PREDICTED BY IDOCK:   -4.59 KCAL/MOL
REMARK 924 INTRA-LIGAND FREE ENERGY PREDICTED BY IDOCK:   -0.25 KCAL/MOL
REMARK 927      BINDING AFFINITY PREDICTED BY RF-SCORE:    0.00 PKD
ROOT
HETATM    1  N   UNL     1     -11.106  12.608  69.368  1.00  0.00    -0.447 N  
HETATM    2  C   UNL     1     -11.735  13.816  69.312  1.00  0.00    -0.327 C  
HETATM    3  H2  UNL     1     -10.759  12.177  68.511  1.00  0.00     0.000 HD 
HETATM    4  H1  UNL     1     -10.979  12.135  70.263  1.00  0.00     0.000 HD 
HETATM    5  O   UNL     1     -11.887  14.385  68.236  1.00  0.00    -0.325 OA 
ENDROOT
BRANCH   2   6
HETATM    6  C   UNL     1     -12.223  14.409  70.594  1.00  0.00    -0.414 A  
HETATM    7  C   UNL     1     -12.998  13.578  71.421  1.00  0.00    -0.421 A  
HETATM    8  C   UNL     1     -13.505  14.048  72.634  1.00  0.00    -0.650 A  
HETATM    9  C   UNL     1     -13.245  15.356  73.037  1.00  0.00    -0.638 A  
HETATM   10  C   UNL     1     -12.474  16.194  72.230  1.00  0.00    -0.484 A  
HETATM   11  C   UNL     1     -11.961  15.723  71.016  1.00  0.00    -0.419 A  
HETATM   12  O   UNL     1     -11.201  16.574  70.255  1.00  0.00    -0.464 OA 
HETATM   13  H   UNL     1     -11.023  17.463  70.540  1.00  0.00     0.000 HD 
ENDBRANCH   2   6
TORSDOF 1
ENDMDL
MODEL       23
REMARK 921   NORMALIZED FREE ENERGY PREDICTED BY IDOCK:   -4.33 KCAL/MOL
REMARK 922        TOTAL FREE ENERGY PREDICTED BY IDOCK:   -4.81 KCAL/MOL
REMARK 923 INTER-LIGAND FREE ENERGY PREDICTED BY IDOCK:   -4.55 KCAL/MOL
REMARK 924 INTRA-LIGAND FREE ENERGY PREDICTED BY IDOCK:   -0.26 KCAL/MOL
REMARK 927      BINDING AFFINITY PREDICTED BY RF-SCORE:    0.00 PKD
ROOT
HETATM    1  N   UNL     1     -12.002  16.127  71.217  1.00  0.00    -0.601 N  
HETATM    2  C   UNL     1     -13.056  15.263  71.230  1.00  0.00    -0.468 C  
HETATM    3  H2  UNL     1     -12.164  17.126  71.346  1.00  0.00     0.000 HD 
HETATM    4  H1  UNL     1     -11.053  15.779  71.078  1.00  0.00     0.000 HD 
HETATM    5  O   UNL     1     -14.197  15.680  71.397  1.00  0.00    -0.535 OA 
ENDROOT
BRANCH   2   6
HETATM    6  C   UNL     1     -12.768  13.808  71.040  1.00  0.00    -0.416 A  
HETATM    7  C   UNL     1     -13.341  12.924  71.971  1.00  0.00    -0.579 A  
HETATM    8  C   UNL     1     -13.121  11.548  71.879  1.00  0.00    -0.492 A  
HETATM    9  C   UNL     1     -12.324  11.038  70.858  1.00  0.00    -0.503 A  
HETATM   10  C   UNL     1     -11.750  11.901  69.923  1.00  0.00    -0.383 A  
HETATM   11  C   UNL     1     -11.974  13.280  70.010  1.00  0.00    -0.329 A  
HETATM   12  O   UNL     1     -11.400  14.095  69.068  1.00  0.00    -0.245 OA 
HETATM   13  H   UNL     1     -10.862  13.737  68.370  1.00  0.00     0.000 HD 
ENDBRANCH   2   6
TORSDOF 1
ENDMDL
MODEL       24
REMARK 921   NORMALIZED FREE ENERGY PREDICTED BY IDOCK:   -4.32 KCAL/MOL
REMARK 922        TOTAL FREE ENERGY PREDICTED BY IDOCK:   -4.80 KCAL/MOL
REMARK 923 INTER-LIGAND FREE ENERGY PREDICTED BY IDOCK:   -4.57 KCAL/MOL
REMARK 924 INTRA-LIGAND FREE ENERGY PREDICTED BY IDOCK:   -0.23 KCAL/MOL
REMARK 927      BINDING AFFINITY PREDICTED BY RF-SCORE:    0.00 PKD
ROOT
HETATM    1  N   UNL     1     -10.343  15.417  65.540  1.00  0.00    -0.356 N  
HETATM    2  C   UNL     1     -10.686  16.716  65.311  1.00  0.00    -0.204 C  
HETATM    3  H2  UNL     1     -10.529  14.710  64.829  1.00  0.00     0.000 HD 
HETATM    4  H1  UNL     1      -9.901  15.149  66.420  1.00  0.00     0.000 HD 
HETATM    5  O   UNL     1     -11.218  17.038  64.254  1.00  0.00    -1.186 OA 
ENDROOT
BRANCH   2   6
HETATM    6  C   UNL     1     -10.390  17.716  66.382  1.00  0.00    -0.345 A  
HETATM    7  C   UNL     1      -9.877  17.214  67.590  1.00  0.00    -0.270 A  
HETATM    8  C   UNL     1      -9.579  18.071  68.651  1.00  0.00    -0.335 A  
HETATM    9  C   UNL     1      -9.792  19.441  68.520  1.00  0.00    -0.509 A  
HETATM   10  C   UNL     1     -10.297  19.957  67.325  1.00  0.00    -0.574 A  
HETATM   11  C   UNL     1     -10.592  19.100  66.259  1.00  0.00    -0.434 A  
HETATM   12  O   UNL     1     -11.079  19.645  65.098  1.00  0.00    -0.355 OA 
HETATM   13  H   UNL     1     -11.216  20.582  65.015  1.00  0.00     0.000 HD 
ENDBRANCH   2   6
TORSDOF 1
ENDMDL
MODEL       25
REMARK 921   NORMALIZED FREE ENERGY PREDICTED BY IDOCK:   -4.31 KCAL/MOL
REMARK 922        TOTAL FREE ENERGY PREDICTED BY IDOCK:   -4.79 KCAL/MOL
REMARK 923 INTER-LIGAND FREE ENERGY PREDICTED BY IDOCK:   -4.55 KCAL/MOL
REMARK 924 INTRA-LIGAND FREE ENERGY PREDICTED BY IDOCK:   -0.24 KCAL/MOL
REMARK 927      BINDING AFFINITY PREDICTED BY RF-SCORE:    0.00 PKD
ROOT
HETATM    1  N   UNL     1      -9.940  16.971  66.084  1.00  0.00    -0.306 N  
HETATM    2  C   UNL     1     -10.786  16.258  65.288  1.00  0.00    -0.332 C  
HETATM    3  H2  UNL     1      -9.749  17.951  65.872  1.00  0.00     0.000 HD 
HETATM    4  H1  UNL     1      -9.498  16.530  66.891  1.00  0.00     0.000 HD 
HETATM    5  O   UNL     1     -11.318  16.788  64.318  1.00  0.00    -1.170 OA 
ENDROOT
BRANCH   2   6
HETATM    6  C   UNL     1     -11.037  14.828  65.642  1.00  0.00    -0.342 A  
HETATM    7  C   UNL     1     -10.641  13.865  64.698  1.00  0.00    -0.432 A  
HETATM    8  C   UNL     1     -10.844  12.504  64.936  1.00  0.00    -0.327 A  
HETATM    9  C   UNL     1     -11.447  12.087  66.120  1.00  0.00    -0.401 A  
HETATM   10  C   UNL     1     -11.843  13.030  67.070  1.00  0.00    -0.437 A  
HETATM   11  C   UNL     1     -11.637  14.394  66.835  1.00  0.00    -0.388 A  
HETATM   12  O   UNL     1     -12.032  15.289  67.796  1.00  0.00    -0.412 OA 
HETATM   13  H   UNL     1     -12.438  14.996  68.605  1.00  0.00     0.000 HD 
ENDBRANCH   2   6
TORSDOF 1
ENDMDL
MODEL       26
REMARK 921   NORMALIZED FREE ENERGY PREDICTED BY IDOCK:   -4.30 KCAL/MOL
REMARK 922        TOTAL FREE ENERGY PREDICTED BY IDOCK:   -4.78 KCAL/MOL
REMARK 923 INTER-LIGAND FREE ENERGY PREDICTED BY IDOCK:   -4.58 KCAL/MOL
REMARK 924 INTRA-LIGAND FREE ENERGY PREDICTED BY IDOCK:   -0.19 KCAL/MOL
REMARK 927      BINDING AFFINITY PREDICTED BY RF-SCORE:    0.00 PKD
ROOT
HETATM    1  N   UNL     1      -9.992  14.473  69.326  1.00  0.00    -0.409 N  
HETATM    2  C   UNL     1     -11.333  14.478  69.086  1.00  0.00    -0.277 C  
HETATM    3  H2  UNL     1      -9.338  14.631  68.559  1.00  0.00     0.000 HD 
HETATM    4  H1  UNL     1      -9.639  14.310  70.270  1.00  0.00     0.000 HD 
HETATM    5  O   UNL     1     -11.758  14.673  67.952  1.00  0.00    -0.339 OA 
ENDROOT
BRANCH   2   6
HETATM    6  C   UNL     1     -12.251  14.245  70.242  1.00  0.00    -0.407 A  
HETATM    7  C   UNL     1     -12.973  15.356  70.710  1.00  0.00    -0.510 A  
HETATM    8  C   UNL     1     -13.849  15.236  71.792  1.00  0.00    -0.622 A  
HETATM    9  C   UNL     1     -14.012  14.004  72.421  1.00  0.00    -0.622 A  
HETATM   10  C   UNL     1     -13.305  12.890  71.967  1.00  0.00    -0.579 A  
HETATM   11  C   UNL     1     -12.431  13.007  70.880  1.00  0.00    -0.310 A  
HETATM   12  O   UNL     1     -11.761  11.887  70.458  1.00  0.00    -0.508 OA 
HETATM   13  H   UNL     1     -11.883  11.049  70.890  1.00  0.00     0.000 HD 
ENDBRANCH   2   6
TORSDOF 1
ENDMDL
MODEL       27
REMARK 921   NORMALIZED FREE ENERGY PREDICTED BY IDOCK:   -4.25 KCAL/MOL
REMARK 922        TOTAL FREE ENERGY PREDICTED BY IDOCK:   -4.72 KCAL/MOL
REMARK 923 INTER-LIGAND FREE ENERGY PREDICTED BY IDOCK:   -4.49 KCAL/MOL
REMARK 924 INTRA-LIGAND FREE ENERGY PREDICTED BY IDOCK:   -0.23 KCAL/MOL
REMARK 927      BINDING AFFINITY PREDICTED BY RF-SCORE:    0.00 PKD
ROOT
HETATM    1  N   UNL     1     -10.549  15.252  66.610  1.00  0.00    -0.299 N  
HETATM    2  C   UNL     1     -10.952  16.161  67.542  1.00  0.00    -0.238 C  
HETATM    3  H2  UNL     1     -10.798  14.269  66.720  1.00  0.00     0.000 HD 
HETATM    4  H1  UNL     1     -10.001  15.551  65.803  1.00  0.00     0.000 HD 
HETATM    5  O   UNL     1     -11.612  15.803  68.512  1.00  0.00    -0.368 OA 
ENDROOT
BRANCH   2   6
HETATM    6  C   UNL     1     -10.566  17.591  67.336  1.00  0.00    -0.311 A  
HETATM    7  C   UNL     1     -10.240  18.329  68.487  1.00  0.00    -0.402 A  
HETATM    8  C   UNL     1      -9.876  19.674  68.394  1.00  0.00    -0.531 A  
HETATM    9  C   UNL     1      -9.834  20.299  67.150  1.00  0.00    -0.606 A  
HETATM   10  C   UNL     1     -10.151  19.580  65.997  1.00  0.00    -0.521 A  
HETATM   11  C   UNL     1     -10.512  18.231  66.088  1.00  0.00    -0.383 A  
HETATM   12  O   UNL     1     -10.808  17.556  64.931  1.00  0.00    -0.832 OA 
HETATM   13  H   UNL     1     -10.771  17.989  64.085  1.00  0.00     0.000 HD 
ENDBRANCH   2   6
TORSDOF 1
ENDMDL
MODEL       28
REMARK 921   NORMALIZED FREE ENERGY PREDICTED BY IDOCK:   -4.24 KCAL/MOL
REMARK 922        TOTAL FREE ENERGY PREDICTED BY IDOCK:   -4.72 KCAL/MOL
REMARK 923 INTER-LIGAND FREE ENERGY PREDICTED BY IDOCK:   -4.48 KCAL/MOL
REMARK 924 INTRA-LIGAND FREE ENERGY PREDICTED BY IDOCK:   -0.23 KCAL/MOL
REMARK 927      BINDING AFFINITY PREDICTED BY RF-SCORE:    0.00 PKD
ROOT
HETATM    1  N   UNL     1     -13.988   8.874  72.752  1.00  0.00    -0.859 N  
HETATM    2  C   UNL     1     -13.052   8.961  71.765  1.00  0.00    -0.374 C  
HETATM    3  H2  UNL     1     -14.242   7.961  73.131  1.00  0.00     0.000 HD 
HETATM    4  H1  UNL     1     -14.435   9.717  73.113  1.00  0.00     0.000 HD 
HETATM    5  O   UNL     1     -12.514   7.947  71.331  1.00  0.00    -0.313 OA 
ENDROOT
BRANCH   2   6
HETATM    6  C   UNL     1     -12.711  10.319  71.244  1.00  0.00    -0.523 A  
HETATM    7  C   UNL     1     -13.238  11.416  71.947  1.00  0.00    -0.485 A  
HETATM    8  C   UNL     1     -12.981  12.724  71.529  1.00  0.00    -0.388 A  
HETATM    9  C   UNL     1     -12.195  12.952  70.402  1.00  0.00    -0.381 A  
HETATM   10  C   UNL     1     -11.661  11.874  69.694  1.00  0.00    -0.413 A  
HETATM   11  C   UNL     1     -11.914  10.563  70.114  1.00  0.00    -0.316 A  
HETATM   12  O   UNL     1     -11.364   9.531  69.397  1.00  0.00    -0.431 OA 
HETATM   13  H   UNL     1     -10.824   9.696  68.632  1.00  0.00     0.000 HD 
ENDBRANCH   2   6
TORSDOF 1
ENDMDL
MODEL       29
REMARK 921   NORMALIZED FREE ENERGY PREDICTED BY IDOCK:   -4.24 KCAL/MOL
REMARK 922        TOTAL FREE ENERGY PREDICTED BY IDOCK:   -4.71 KCAL/MOL
REMARK 923 INTER-LIGAND FREE ENERGY PREDICTED BY IDOCK:   -4.46 KCAL/MOL
REMARK 924 INTRA-LIGAND FREE ENERGY PREDICTED BY IDOCK:   -0.25 KCAL/MOL
REMARK 927      BINDING AFFINITY PREDICTED BY RF-SCORE:    0.00 PKD
ROOT
HETATM    1  N   UNL     1     -11.672  13.071  68.965  1.00  0.00    -0.311 N  
HETATM    2  C   UNL     1     -11.836  12.674  67.672  1.00  0.00    -0.329 C  
HETATM    3  H2  UNL     1     -11.772  12.393  69.721  1.00  0.00     0.000 HD 
HETATM    4  H1  UNL     1     -11.450  14.044  69.181  1.00  0.00     0.000 HD 
HETATM    5  O   UNL     1     -12.103  11.505  67.412  1.00  0.00    -0.593 OA 
ENDROOT
BRANCH   2   6
HETATM    6  C   UNL     1     -11.676  13.703  66.600  1.00  0.00    -0.420 A  
HETATM    7  C   UNL     1     -10.825  14.785  66.884  1.00  0.00    -0.316 A  
HETATM    8  C   UNL     1     -10.621  15.800  65.947  1.00  0.00    -0.350 A  
HETATM    9  C   UNL     1     -11.266  15.748  64.714  1.00  0.00    -0.375 A  
HETATM   10  C   UNL     1     -12.112  14.679  64.413  1.00  0.00    -0.481 A  
HETATM   11  C   UNL     1     -12.314  13.659  65.350  1.00  0.00    -0.476 A  
HETATM   12  O   UNL     1     -13.146  12.621  65.014  1.00  0.00    -0.808 OA 
HETATM   13  H   UNL     1     -13.578  12.590  64.168  1.00  0.00     0.000 HD 
ENDBRANCH   2   6
TORSDOF 1
ENDMDL
MODEL       30
REMARK 921   NORMALIZED FREE ENERGY PREDICTED BY IDOCK:   -4.19 KCAL/MOL
REMARK 922        TOTAL FREE ENERGY PREDICTED BY IDOCK:   -4.66 KCAL/MOL
REMARK 923 INTER-LIGAND FREE ENERGY PREDICTED BY IDOCK:   -4.44 KCAL/MOL
REMARK 924 INTRA-LIGAND FREE ENERGY PREDICTED BY IDOCK:   -0.22 KCAL/MOL
REMARK 927      BINDING AFFINITY PREDICTED BY RF-SCORE:    0.00 PKD
ROOT
HETATM    1  N   UNL     1     -10.945  11.282  62.957  1.00  0.00    -0.836 N  
HETATM    2  C   UNL     1     -11.812  12.186  63.495  1.00  0.00    -0.505 C  
HETATM    3  H2  UNL     1     -11.304  10.498  62.412  1.00  0.00     0.000 HD 
HETATM    4  H1  UNL     1      -9.940  11.388  63.097  1.00  0.00     0.000 HD 
HETATM    5  O   UNL     1     -13.020  12.060  63.328  1.00  0.00    -0.736 OA 
ENDROOT
BRANCH   2   6
HETATM    6  C   UNL     1     -11.239  13.320  64.283  1.00  0.00    -0.417 A  
HETATM    7  C   UNL     1     -11.939  14.537  64.239  1.00  0.00    -0.419 A  
HETATM    8  C   UNL     1     -11.476  15.655  64.936  1.00  0.00    -0.245 A  
HETATM    9  C   UNL     1     -10.304  15.572  65.684  1.00  0.00    -0.407 A  
HETATM   10  C   UNL     1      -9.597  14.370  65.741  1.00  0.00    -0.216 A  
HETATM   11  C   UNL     1     -10.063  13.247  65.047  1.00  0.00    -0.227 A  
HETATM   12  O   UNL     1      -9.345  12.082  65.135  1.00  0.00    -0.428 OA 
HETATM   13  H   UNL     1      -8.549  12.032  65.652  1.00  0.00     0.000 HD 
ENDBRANCH   2   6
TORSDOF 1
ENDMDL
MODEL       31
REMARK 921   NORMALIZED FREE ENERGY PREDICTED BY IDOCK:   -4.18 KCAL/MOL
REMARK 922        TOTAL FREE ENERGY PREDICTED BY IDOCK:   -4.65 KCAL/MOL
REMARK 923 INTER-LIGAND FREE ENERGY PREDICTED BY IDOCK:   -4.39 KCAL/MOL
REMARK 924 INTRA-LIGAND FREE ENERGY PREDICTED BY IDOCK:   -0.26 KCAL/MOL
REMARK 927      BINDING AFFINITY PREDICTED BY RF-SCORE:    0.00 PKD
ROOT
HETATM    1  N   UNL     1     -12.904  13.920  64.884  1.00  0.00    -0.715 N  
HETATM    2  C   UNL     1     -12.171  13.044  65.627  1.00  0.00    -0.466 C  
HETATM    3  H2  UNL     1     -13.064  13.735  63.894  1.00  0.00     0.000 HD 
HETATM    4  H1  UNL     1     -13.293  14.760  65.314  1.00  0.00     0.000 HD 
HETATM    5  O   UNL     1     -11.704  12.034  65.111  1.00  0.00    -0.330 OA 
ENDROOT
BRANCH   2   6
HETATM    6  C   UNL     1     -11.966  13.356  67.074  1.00  0.00    -0.429 A  
HETATM    7  C   UNL     1     -11.851  14.714  67.417  1.00  0.00    -0.374 A  
HETATM    8  C   UNL     1     -11.649  15.103  68.743  1.00  0.00    -0.369 A  
HETATM    9  C   UNL     1     -11.558  14.138  69.744  1.00  0.00    -0.351 A  
HETATM   10  C   UNL     1     -11.673  12.785  69.422  1.00  0.00    -0.380 A  
HETATM   11  C   UNL     1     -11.881  12.395  68.094  1.00  0.00    -0.315 A  
HETATM   12  O   UNL     1     -11.998  11.056  67.818  1.00  0.00    -0.661 OA 
HETATM   13  H   UNL     1     -11.940  10.405  68.509  1.00  0.00     0.000 HD 
ENDBRANCH   2   6
TORSDOF 1
ENDMDL
MODEL       32
REMARK 921   NORMALIZED FREE ENERGY PREDICTED BY IDOCK:   -4.16 KCAL/MOL
REMARK 922        TOTAL FREE ENERGY PREDICTED BY IDOCK:   -4.63 KCAL/MOL
REMARK 923 INTER-LIGAND FREE ENERGY PREDICTED BY IDOCK:   -4.38 KCAL/MOL
REMARK 924 INTRA-LIGAND FREE ENERGY PREDICTED BY IDOCK:   -0.25 KCAL/MOL
REMARK 927      BINDING AFFINITY PREDICTED BY RF-SCORE:    0.00 PKD
ROOT
HETATM    1  N   UNL     1     -13.221  11.759  72.081  1.00  0.00    -0.526 N  
HETATM    2  C   UNL     1     -13.468  13.099  72.081  1.00  0.00    -0.560 C  
HETATM    3  H2  UNL     1     -13.792  11.138  72.655  1.00  0.00     0.000 HD 
HETATM    4  H1  UNL     1     -12.468  11.374  71.509  1.00  0.00     0.000 HD 
HETATM    5  O   UNL     1     -14.373  13.562  72.768  1.00  0.00    -0.640 OA 
ENDROOT
BRANCH   2   6
HETATM    6  C   UNL     1     -12.608  13.968  71.222  1.00  0.00    -0.444 A  
HETATM    7  C   UNL     1     -12.001  13.356  70.112  1.00  0.00    -0.396 A  
HETATM    8  C   UNL     1     -11.173  14.086  69.256  1.00  0.00    -0.304 A  
HETATM    9  C   UNL     1     -10.938  15.437  69.500  1.00  0.00    -0.276 A  
HETATM   10  C   UNL     1     -11.535  16.061  70.596  1.00  0.00    -0.427 A  
HETATM   11  C   UNL     1     -12.370  15.332  71.452  1.00  0.00    -0.359 A  
HETATM   12  O   UNL     1     -12.945  15.984  72.513  1.00  0.00    -0.448 OA 
HETATM   13  H   UNL     1     -12.784  16.908  72.669  1.00  0.00     0.000 HD 
ENDBRANCH   2   6
TORSDOF 1
ENDMDL
MODEL       33
REMARK 921   NORMALIZED FREE ENERGY PREDICTED BY IDOCK:   -4.13 KCAL/MOL
REMARK 922        TOTAL FREE ENERGY PREDICTED BY IDOCK:   -4.60 KCAL/MOL
REMARK 923 INTER-LIGAND FREE ENERGY PREDICTED BY IDOCK:   -4.35 KCAL/MOL
REMARK 924 INTRA-LIGAND FREE ENERGY PREDICTED BY IDOCK:   -0.25 KCAL/MOL
REMARK 927      BINDING AFFINITY PREDICTED BY RF-SCORE:    0.00 PKD
ROOT
HETATM    1  N   UNL     1     -13.290   9.618  70.916  1.00  0.00    -0.596 N  
HETATM    2  C   UNL     1     -12.255  10.504  70.890  1.00  0.00    -0.388 C  
HETATM    3  H2  UNL     1     -13.104   8.618  70.831  1.00  0.00     0.000 HD 
HETATM    4  H1  UNL     1     -14.249   9.949  71.019  1.00  0.00     0.000 HD 
HETATM    5  O   UNL     1     -11.102  10.106  70.766  1.00  0.00    -0.322 OA 
ENDROOT
BRANCH   2   6
HETATM    6  C   UNL     1     -12.578  11.958  71.021  1.00  0.00    -0.381 A  
HETATM    7  C   UNL     1     -13.484  12.315  72.034  1.00  0.00    -0.418 A  
HETATM    8  C   UNL     1     -13.853  13.648  72.227  1.00  0.00    -0.689 A  
HETATM    9  C   UNL     1     -13.321  14.642  71.408  1.00  0.00    -0.441 A  
HETATM   10  C   UNL     1     -12.417  14.305  70.400  1.00  0.00    -0.426 A  
HETATM   11  C   UNL     1     -12.043  12.970  70.209  1.00  0.00    -0.314 A  
HETATM   12  O   UNL     1     -11.145  12.680  69.213  1.00  0.00    -0.371 OA 
HETATM   13  H   UNL     1     -10.783  13.366  68.662  1.00  0.00     0.000 HD 
ENDBRANCH   2   6
TORSDOF 1
ENDMDL
MODEL       34
REMARK 921   NORMALIZED FREE ENERGY PREDICTED BY IDOCK:   -4.08 KCAL/MOL
REMARK 922        TOTAL FREE ENERGY PREDICTED BY IDOCK:   -4.54 KCAL/MOL
REMARK 923 INTER-LIGAND FREE ENERGY PREDICTED BY IDOCK:   -4.30 KCAL/MOL
REMARK 924 INTRA-LIGAND FREE ENERGY PREDICTED BY IDOCK:   -0.24 KCAL/MOL
REMARK 927      BINDING AFFINITY PREDICTED BY RF-SCORE:    0.00 PKD
ROOT
HETATM    1  N   UNL     1     -10.131  10.558  62.425  1.00  0.00    -0.746 N  
HETATM    2  C   UNL     1      -9.982  10.739  63.767  1.00  0.00    -0.351 C  
HETATM    3  H2  UNL     1      -9.567   9.858  61.942  1.00  0.00     0.000 HD 
HETATM    4  H1  UNL     1     -10.803  11.119  61.901  1.00  0.00     0.000 HD 
HETATM    5  O   UNL     1      -9.175  10.064  64.397  1.00  0.00    -0.229 OA 
ENDROOT
BRANCH   2   6
HETATM    6  C   UNL     1     -10.833  11.773  64.431  1.00  0.00    -0.389 A  
HETATM    7  C   UNL     1     -11.468  12.703  63.590  1.00  0.00    -0.563 A  
HETATM    8  C   UNL     1     -12.276  13.712  64.119  1.00  0.00    -0.450 A  
HETATM    9  C   UNL     1     -12.457  13.806  65.497  1.00  0.00    -0.548 A  
HETATM   10  C   UNL     1     -11.836  12.889  66.346  1.00  0.00    -0.478 A  
HETATM   11  C   UNL     1     -11.031  11.875  65.817  1.00  0.00    -0.311 A  
HETATM   12  O   UNL     1     -10.445  10.987  66.684  1.00  0.00    -0.238 OA 
HETATM   13  H   UNL     1     -10.579  11.056  67.623  1.00  0.00     0.000 HD 
ENDBRANCH   2   6
TORSDOF 1
ENDMDL
MODEL       35
REMARK 921   NORMALIZED FREE ENERGY PREDICTED BY IDOCK:   -4.05 KCAL/MOL
REMARK 922        TOTAL FREE ENERGY PREDICTED BY IDOCK:   -4.51 KCAL/MOL
REMARK 923 INTER-LIGAND FREE ENERGY PREDICTED BY IDOCK:   -4.32 KCAL/MOL
REMARK 924 INTRA-LIGAND FREE ENERGY PREDICTED BY IDOCK:   -0.20 KCAL/MOL
REMARK 927      BINDING AFFINITY PREDICTED BY RF-SCORE:    0.00 PKD
ROOT
HETATM    1  N   UNL     1     -11.456   6.342  69.316  1.00  0.00    -0.609 N  
HETATM    2  C   UNL     1     -11.538   6.591  70.653  1.00  0.00    -0.381 C  
HETATM    3  H2  UNL     1     -11.053   5.465  68.987  1.00  0.00     0.000 HD 
HETATM    4  H1  UNL     1     -11.796   7.030  68.643  1.00  0.00     0.000 HD 
HETATM    5  O   UNL     1     -11.129   5.765  71.463  1.00  0.00    -0.265 OA 
ENDROOT
BRANCH   2   6
HETATM    6  C   UNL     1     -12.139   7.889  71.087  1.00  0.00    -0.294 A  
HETATM    7  C   UNL     1     -11.448   9.058  70.724  1.00  0.00    -0.331 A  
HETATM    8  C   UNL     1     -11.928  10.316  71.092  1.00  0.00    -0.472 A  
HETATM    9  C   UNL     1     -13.104  10.423  71.830  1.00  0.00    -0.567 A  
HETATM   10  C   UNL     1     -13.805   9.273  72.196  1.00  0.00    -0.478 A  
HETATM   11  C   UNL     1     -13.328   8.011  71.823  1.00  0.00    -0.340 A  
HETATM   12  O   UNL     1     -14.049   6.905  72.194  1.00  0.00    -0.577 OA 
HETATM   13  H   UNL     1     -14.854   6.988  72.693  1.00  0.00     0.000 HD 
ENDBRANCH   2   6
TORSDOF 1
ENDMDL
MODEL       36
REMARK 921   NORMALIZED FREE ENERGY PREDICTED BY IDOCK:   -4.05 KCAL/MOL
REMARK 922        TOTAL FREE ENERGY PREDICTED BY IDOCK:   -4.51 KCAL/MOL
REMARK 923 INTER-LIGAND FREE ENERGY PREDICTED BY IDOCK:   -4.30 KCAL/MOL
REMARK 924 INTRA-LIGAND FREE ENERGY PREDICTED BY IDOCK:   -0.20 KCAL/MOL
REMARK 927      BINDING AFFINITY PREDICTED BY RF-SCORE:    0.00 PKD
ROOT
HETATM    1  N   UNL     1     -13.979   9.035  73.029  1.00  0.00    -0.881 N  
HETATM    2  C   UNL     1     -13.405   8.419  71.958  1.00  0.00    -0.343 C  
HETATM    3  H2  UNL     1     -14.969   8.888  73.228  1.00  0.00     0.000 HD 
HETATM    4  H1  UNL     1     -13.424   9.643  73.632  1.00  0.00     0.000 HD 
HETATM    5  O   UNL     1     -14.072   7.688  71.233  1.00  0.00    -0.361 OA 
ENDROOT
BRANCH   2   6
HETATM    6  C   UNL     1     -11.951   8.663  71.708  1.00  0.00    -0.402 A  
HETATM    7  C   UNL     1     -11.626   9.450  70.590  1.00  0.00    -0.330 A  
HETATM    8  C   UNL     1     -10.294   9.725  70.272  1.00  0.00    -0.348 A  
HETATM    9  C   UNL     1      -9.270   9.215  71.066  1.00  0.00    -0.321 A  
HETATM   10  C   UNL     1      -9.575   8.435  72.182  1.00  0.00    -0.367 A  
HETATM   11  C   UNL     1     -10.910   8.163  72.505  1.00  0.00    -0.361 A  
HETATM   12  O   UNL     1     -11.169   7.399  73.615  1.00  0.00    -0.588 OA 
HETATM   13  H   UNL     1     -10.464   7.060  74.155  1.00  0.00     0.000 HD 
ENDBRANCH   2   6
TORSDOF 1
ENDMDL
MODEL       37
REMARK 921   NORMALIZED FREE ENERGY PREDICTED BY IDOCK:   -4.04 KCAL/MOL
REMARK 922        TOTAL FREE ENERGY PREDICTED BY IDOCK:   -4.50 KCAL/MOL
REMARK 923 INTER-LIGAND FREE ENERGY PREDICTED BY IDOCK:   -4.24 KCAL/MOL
REMARK 924 INTRA-LIGAND FREE ENERGY PREDICTED BY IDOCK:   -0.26 KCAL/MOL
REMARK 927      BINDING AFFINITY PREDICTED BY RF-SCORE:    0.00 PKD
ROOT
HETATM    1  N   UNL     1     -12.294  14.345  68.388  1.00  0.00    -0.599 N  
HETATM    2  C   UNL     1     -11.574  14.848  67.346  1.00  0.00    -0.332 C  
HETATM    3  H2  UNL     1     -12.362  14.872  69.259  1.00  0.00     0.000 HD 
HETATM    4  H1  UNL     1     -12.764  13.443  68.301  1.00  0.00     0.000 HD 
HETATM    5  O   UNL     1     -11.009  15.931  67.450  1.00  0.00    -0.318 OA 
ENDROOT
BRANCH   2   6
HETATM    6  C   UNL     1     -11.506  14.040  66.090  1.00  0.00    -0.350 A  
HETATM    7  C   UNL     1     -12.695  13.416  65.675  1.00  0.00    -0.432 A  
HETATM    8  C   UNL     1     -12.726  12.634  64.519  1.00  0.00    -0.439 A  
HETATM    9  C   UNL     1     -11.569  12.463  63.763  1.00  0.00    -0.553 A  
HETATM   10  C   UNL     1     -10.381  13.079  64.158  1.00  0.00    -0.345 A  
HETATM   11  C   UNL     1     -10.349  13.867  65.314  1.00  0.00    -0.378 A  
HETATM   12  O   UNL     1      -9.164  14.463  65.665  1.00  0.00    -0.497 OA 
HETATM   13  H   UNL     1      -8.380  14.346  65.140  1.00  0.00     0.000 HD 
ENDBRANCH   2   6
TORSDOF 1
ENDMDL
MODEL       38
REMARK 921   NORMALIZED FREE ENERGY PREDICTED BY IDOCK:   -4.01 KCAL/MOL
REMARK 922        TOTAL FREE ENERGY PREDICTED BY IDOCK:   -4.47 KCAL/MOL
REMARK 923 INTER-LIGAND FREE ENERGY PREDICTED BY IDOCK:   -4.22 KCAL/MOL
REMARK 924 INTRA-LIGAND FREE ENERGY PREDICTED BY IDOCK:   -0.25 KCAL/MOL
REMARK 927      BINDING AFFINITY PREDICTED BY RF-SCORE:    0.00 PKD
ROOT
HETATM    1  N   UNL     1      -9.297   9.192  64.840  1.00  0.00    -0.446 N  
HETATM    2  C   UNL     1      -9.330  10.432  65.404  1.00  0.00    -0.204 C  
HETATM    3  H2  UNL     1      -8.524   8.559  65.050  1.00  0.00     0.000 HD 
HETATM    4  H1  UNL     1     -10.042   8.893  64.210  1.00  0.00     0.000 HD 
HETATM    5  O   UNL     1      -8.435  10.791  66.162  1.00  0.00    -0.156 OA 
ENDROOT
BRANCH   2   6
HETATM    6  C   UNL     1     -10.484  11.321  65.069  1.00  0.00    -0.359 A  
HETATM    7  C   UNL     1     -11.054  12.043  66.132  1.00  0.00    -0.367 A  
HETATM    8  C   UNL     1     -12.141  12.892  65.918  1.00  0.00    -0.503 A  
HETATM    9  C   UNL     1     -12.675  13.030  64.638  1.00  0.00    -0.367 A  
HETATM   10  C   UNL     1     -12.118  12.323  63.571  1.00  0.00    -0.649 A  
HETATM   11  C   UNL     1     -11.025  11.475  63.783  1.00  0.00    -0.409 A  
HETATM   12  O   UNL     1     -10.501  10.805  62.707  1.00  0.00    -0.763 OA 
HETATM   13  H   UNL     1     -10.868  10.909  61.837  1.00  0.00     0.000 HD 
ENDBRANCH   2   6
TORSDOF 1
ENDMDL
MODEL       39
REMARK 921   NORMALIZED FREE ENERGY PREDICTED BY IDOCK:   -4.00 KCAL/MOL
REMARK 922        TOTAL FREE ENERGY PREDICTED BY IDOCK:   -4.46 KCAL/MOL
REMARK 923 INTER-LIGAND FREE ENERGY PREDICTED BY IDOCK:   -4.23 KCAL/MOL
REMARK 924 INTRA-LIGAND FREE ENERGY PREDICTED BY IDOCK:   -0.23 KCAL/MOL
REMARK 927      BINDING AFFINITY PREDICTED BY RF-SCORE:    0.00 PKD
ROOT
HETATM    1  N   UNL     1     -11.320  12.834  69.629  1.00  0.00    -0.478 N  
HETATM    2  C   UNL     1     -11.780  12.129  68.557  1.00  0.00    -0.330 C  
HETATM    3  H2  UNL     1     -11.324  12.408  70.555  1.00  0.00     0.000 HD 
HETATM    4  H1  UNL     1     -10.972  13.786  69.507  1.00  0.00     0.000 HD 
HETATM    5  O   UNL     1     -12.199  10.986  68.702  1.00  0.00    -0.571 OA 
ENDROOT
BRANCH   2   6
HETATM    6  C   UNL     1     -11.751  12.795  67.219  1.00  0.00    -0.440 A  
HETATM    7  C   UNL     1     -11.488  11.973  66.110  1.00  0.00    -0.401 A  
HETATM    8  C   UNL     1     -11.433  12.506  64.820  1.00  0.00    -0.369 A  
HETATM    9  C   UNL     1     -11.638  13.870  64.623  1.00  0.00    -0.398 A  
HETATM   10  C   UNL     1     -11.903  14.700  65.712  1.00  0.00    -0.274 A  
HETATM   11  C   UNL     1     -11.964  14.166  67.005  1.00  0.00    -0.439 A  
HETATM   12  O   UNL     1     -12.236  15.013  68.049  1.00  0.00    -0.536 OA 
HETATM   13  H   UNL     1     -12.380  15.942  67.904  1.00  0.00     0.000 HD 
ENDBRANCH   2   6
TORSDOF 1
ENDMDL
MODEL       40
REMARK 921   NORMALIZED FREE ENERGY PREDICTED BY IDOCK:   -3.99 KCAL/MOL
REMARK 922        TOTAL FREE ENERGY PREDICTED BY IDOCK:   -4.45 KCAL/MOL
REMARK 923 INTER-LIGAND FREE ENERGY PREDICTED BY IDOCK:   -4.26 KCAL/MOL
REMARK 924 INTRA-LIGAND FREE ENERGY PREDICTED BY IDOCK:   -0.19 KCAL/MOL
REMARK 927      BINDING AFFINITY PREDICTED BY RF-SCORE:    0.00 PKD
ROOT
HETATM    1  N   UNL     1     -14.353   7.609  70.869  1.00  0.00    -0.569 N  
HETATM    2  C   UNL     1     -13.736   8.395  71.795  1.00  0.00    -0.393 C  
HETATM    3  H2  UNL     1     -15.367   7.494  70.896  1.00  0.00     0.000 HD 
HETATM    4  H1  UNL     1     -13.807   7.135  70.150  1.00  0.00     0.000 HD 
HETATM    5  O   UNL     1     -14.392   8.966  72.660  1.00  0.00    -0.613 OA 
ENDROOT
BRANCH   2   6
HETATM    6  C   UNL     1     -12.250   8.535  71.712  1.00  0.00    -0.388 A  
HETATM    7  C   UNL     1     -11.497   7.875  72.699  1.00  0.00    -0.454 A  
HETATM    8  C   UNL     1     -10.103   7.955  72.708  1.00  0.00    -0.365 A  
HETATM    9  C   UNL     1      -9.443   8.698  71.733  1.00  0.00    -0.354 A  
HETATM   10  C   UNL     1     -10.174   9.357  70.744  1.00  0.00    -0.368 A  
HETATM   11  C   UNL     1     -11.571   9.274  70.730  1.00  0.00    -0.285 A  
HETATM   12  O   UNL     1     -12.254   9.929  69.737  1.00  0.00    -0.469 OA 
HETATM   13  H   UNL     1     -11.794  10.429  69.071  1.00  0.00     0.000 HD 
ENDBRANCH   2   6
TORSDOF 1
ENDMDL
MODEL       41
REMARK 921   NORMALIZED FREE ENERGY PREDICTED BY IDOCK:   -3.99 KCAL/MOL
REMARK 922        TOTAL FREE ENERGY PREDICTED BY IDOCK:   -4.44 KCAL/MOL
REMARK 923 INTER-LIGAND FREE ENERGY PREDICTED BY IDOCK:   -4.20 KCAL/MOL
REMARK 924 INTRA-LIGAND FREE ENERGY PREDICTED BY IDOCK:   -0.25 KCAL/MOL
REMARK 927      BINDING AFFINITY PREDICTED BY RF-SCORE:    0.00 PKD
ROOT
HETATM    1  N   UNL     1     -13.991   9.005  72.707  1.00  0.00    -0.867 N  
HETATM    2  C   UNL     1     -13.036   9.829  72.190  1.00  0.00    -0.422 C  
HETATM    3  H2  UNL     1     -14.909   9.380  72.945  1.00  0.00     0.000 HD 
HETATM    4  H1  UNL     1     -13.791   8.016  72.856  1.00  0.00     0.000 HD 
HETATM    5  O   UNL     1     -13.276  11.019  72.011  1.00  0.00    -0.499 OA 
ENDROOT
BRANCH   2   6
HETATM    6  C   UNL     1     -11.707   9.233  71.854  1.00  0.00    -0.420 A  
HETATM    7  C   UNL     1     -11.370   8.033  72.502  1.00  0.00    -0.469 A  
HETATM    8  C   UNL     1     -10.146   7.407  72.258  1.00  0.00    -0.234 A  
HETATM    9  C   UNL     1      -9.242   7.974  71.364  1.00  0.00    -0.180 A  
HETATM   10  C   UNL     1      -9.561   9.164  70.708  1.00  0.00    -0.338 A  
HETATM   11  C   UNL     1     -10.790   9.790  70.948  1.00  0.00    -0.328 A  
HETATM   12  O   UNL     1     -11.071  10.953  70.278  1.00  0.00    -0.441 OA 
HETATM   13  H   UNL     1     -10.450  11.330  69.665  1.00  0.00     0.000 HD 
ENDBRANCH   2   6
TORSDOF 1
ENDMDL
MODEL       42
REMARK 921   NORMALIZED FREE ENERGY PREDICTED BY IDOCK:   -3.97 KCAL/MOL
REMARK 922        TOTAL FREE ENERGY PREDICTED BY IDOCK:   -4.43 KCAL/MOL
REMARK 923 INTER-LIGAND FREE ENERGY PREDICTED BY IDOCK:   -4.19 KCAL/MOL
REMARK 924 INTRA-LIGAND FREE ENERGY PREDICTED BY IDOCK:   -0.24 KCAL/MOL
REMARK 927      BINDING AFFINITY PREDICTED BY RF-SCORE:    0.00 PKD
ROOT
HETATM    1  N   UNL     1     -11.327  14.188  67.779  1.00  0.00    -0.291 N  
HETATM    2  C   UNL     1     -11.703  14.817  68.928  1.00  0.00    -0.309 C  
HETATM    3  H2  UNL     1     -10.930  14.729  67.011  1.00  0.00     0.000 HD 
HETATM    4  H1  UNL     1     -11.441  13.178  67.684  1.00  0.00     0.000 HD 
HETATM    5  O   UNL     1     -11.566  16.030  69.043  1.00  0.00    -0.367 OA 
ENDROOT
BRANCH   2   6
HETATM    6  C   UNL     1     -12.276  13.981  70.027  1.00  0.00    -0.414 A  
HETATM    7  C   UNL     1     -12.004  12.603  69.980  1.00  0.00    -0.377 A  
HETATM    8  C   UNL     1     -12.505  11.741  70.958  1.00  0.00    -0.411 A  
HETATM    9  C   UNL     1     -13.286  12.245  71.995  1.00  0.00    -0.508 A  
HETATM   10  C   UNL     1     -13.563  13.611  72.059  1.00  0.00    -0.585 A  
HETATM   11  C   UNL     1     -13.058  14.477  71.082  1.00  0.00    -0.359 A  
HETATM   12  O   UNL     1     -13.345  15.815  71.185  1.00  0.00    -0.564 OA 
HETATM   13  H   UNL     1     -13.874  16.151  71.900  1.00  0.00     0.000 HD 
ENDBRANCH   2   6
TORSDOF 1
ENDMDL
MODEL       43
REMARK 921   NORMALIZED FREE ENERGY PREDICTED BY IDOCK:   -3.97 KCAL/MOL
REMARK 922        TOTAL FREE ENERGY PREDICTED BY IDOCK:   -4.42 KCAL/MOL
REMARK 923 INTER-LIGAND FREE ENERGY PREDICTED BY IDOCK:   -4.26 KCAL/MOL
REMARK 924 INTRA-LIGAND FREE ENERGY PREDICTED BY IDOCK:   -0.16 KCAL/MOL
REMARK 927      BINDING AFFINITY PREDICTED BY RF-SCORE:    0.00 PKD
ROOT
HETATM    1  N   UNL     1      -8.672  11.161  63.025  1.00  0.00    -0.450 N  
HETATM    2  C   UNL     1      -9.746  11.074  63.860  1.00  0.00    -0.292 C  
HETATM    3  H2  UNL     1      -8.065  10.352  62.893  1.00  0.00     0.000 HD 
HETATM    4  H1  UNL     1      -8.475  12.031  62.530  1.00  0.00     0.000 HD 
HETATM    5  O   UNL     1      -9.984  10.027  64.454  1.00  0.00    -0.265 OA 
ENDROOT
BRANCH   2   6
HETATM    6  C   UNL     1     -10.608  12.284  64.018  1.00  0.00    -0.434 A  
HETATM    7  C   UNL     1     -10.045  13.377  64.698  1.00  0.00    -0.256 A  
HETATM    8  C   UNL     1     -10.778  14.548  64.901  1.00  0.00    -0.448 A  
HETATM    9  C   UNL     1     -12.085  14.641  64.429  1.00  0.00    -0.481 A  
HETATM   10  C   UNL     1     -12.659  13.566  63.749  1.00  0.00    -0.147 A  
HETATM   11  C   UNL     1     -11.924  12.394  63.540  1.00  0.00    -0.538 A  
HETATM   12  O   UNL     1     -12.520  11.363  62.859  1.00  0.00    -0.949 OA 
HETATM   13  H   UNL     1     -13.411  11.437  62.535  1.00  0.00     0.000 HD 
ENDBRANCH   2   6
TORSDOF 1
ENDMDL
MODEL       44
REMARK 921   NORMALIZED FREE ENERGY PREDICTED BY IDOCK:   -3.97 KCAL/MOL
REMARK 922        TOTAL FREE ENERGY PREDICTED BY IDOCK:   -4.42 KCAL/MOL
REMARK 923 INTER-LIGAND FREE ENERGY PREDICTED BY IDOCK:   -4.17 KCAL/MOL
REMARK 924 INTRA-LIGAND FREE ENERGY PREDICTED BY IDOCK:   -0.26 KCAL/MOL
REMARK 927      BINDING AFFINITY PREDICTED BY RF-SCORE:    0.00 PKD
ROOT
HETATM    1  N   UNL     1     -13.885   9.139  72.948  1.00  0.00    -0.901 N  
HETATM    2  C   UNL     1     -13.019   9.691  72.052  1.00  0.00    -0.428 C  
HETATM    3  H2  UNL     1     -14.629   9.708  73.350  1.00  0.00     0.000 HD 
HETATM    4  H1  UNL     1     -13.792   8.159  73.217  1.00  0.00     0.000 HD 
HETATM    5  O   UNL     1     -13.130  10.869  71.728  1.00  0.00    -0.464 OA 
ENDROOT
BRANCH   2   6
HETATM    6  C   UNL     1     -11.946   8.816  71.488  1.00  0.00    -0.386 A  
HETATM    7  C   UNL     1     -10.641   9.337  71.486  1.00  0.00    -0.405 A  
HETATM    8  C   UNL     1      -9.575   8.596  70.971  1.00  0.00    -0.264 A  
HETATM    9  C   UNL     1      -9.801   7.325  70.448  1.00  0.00    -0.183 A  
HETATM   10  C   UNL     1     -11.090   6.791  70.444  1.00  0.00    -0.357 A  
HETATM   11  C   UNL     1     -12.158   7.530  70.965  1.00  0.00    -0.277 A  
HETATM   12  O   UNL     1     -13.409   6.967  70.951  1.00  0.00    -0.502 OA 
HETATM   13  H   UNL     1     -13.553   6.097  70.597  1.00  0.00     0.000 HD 
ENDBRANCH   2   6
TORSDOF 1
ENDMDL
MODEL       45
REMARK 921   NORMALIZED FREE ENERGY PREDICTED BY IDOCK:   -3.95 KCAL/MOL
REMARK 922        TOTAL FREE ENERGY PREDICTED BY IDOCK:   -4.40 KCAL/MOL
REMARK 923 INTER-LIGAND FREE ENERGY PREDICTED BY IDOCK:   -4.19 KCAL/MOL
REMARK 924 INTRA-LIGAND FREE ENERGY PREDICTED BY IDOCK:   -0.21 KCAL/MOL
REMARK 927      BINDING AFFINITY PREDICTED BY RF-SCORE:    0.00 PKD
ROOT
HETATM    1  N   UNL     1     -13.489  11.860  72.268  1.00  0.00    -0.548 N  
HETATM    2  C   UNL     1     -12.722  11.280  71.302  1.00  0.00    -0.405 C  
HETATM    3  H2  UNL     1     -13.886  12.787  72.112  1.00  0.00     0.000 HD 
HETATM    4  H1  UNL     1     -13.667  11.371  73.146  1.00  0.00     0.000 HD 
HETATM    5  O   UNL     1     -12.508  11.867  70.246  1.00  0.00    -0.217 OA 
ENDROOT
BRANCH   2   6
HETATM    6  C   UNL     1     -12.164   9.921  71.575  1.00  0.00    -0.505 A  
HETATM    7  C   UNL     1     -10.928   9.614  70.983  1.00  0.00    -0.431 A  
HETATM    8  C   UNL     1     -10.333   8.365  71.174  1.00  0.00    -0.264 A  
HETATM    9  C   UNL     1     -10.967   7.405  71.958  1.00  0.00    -0.273 A  
HETATM   10  C   UNL     1     -12.194   7.694  72.557  1.00  0.00    -0.142 A  
HETATM   11  C   UNL     1     -12.790   8.947  72.371  1.00  0.00    -0.380 A  
HETATM   12  O   UNL     1     -13.992   9.196  72.983  1.00  0.00    -1.026 OA 
HETATM   13  H   UNL     1     -14.415   8.537  73.522  1.00  0.00     0.000 HD 
ENDBRANCH   2   6
TORSDOF 1
ENDMDL
MODEL       46
REMARK 921   NORMALIZED FREE ENERGY PREDICTED BY IDOCK:   -3.93 KCAL/MOL
REMARK 922        TOTAL FREE ENERGY PREDICTED BY IDOCK:   -4.39 KCAL/MOL
REMARK 923 INTER-LIGAND FREE ENERGY PREDICTED BY IDOCK:   -4.13 KCAL/MOL
REMARK 924 INTRA-LIGAND FREE ENERGY PREDICTED BY IDOCK:   -0.26 KCAL/MOL
REMARK 927      BINDING AFFINITY PREDICTED BY RF-SCORE:    0.00 PKD
ROOT
HETATM    1  N   UNL     1     -10.646   9.976  68.576  1.00  0.00    -0.205 N  
HETATM    2  C   UNL     1     -11.529  11.006  68.446  1.00  0.00    -0.308 C  
HETATM    3  H2  UNL     1     -10.211   9.573  67.746  1.00  0.00     0.000 HD 
HETATM    4  H1  UNL     1     -10.419   9.607  69.500  1.00  0.00     0.000 HD 
HETATM    5  O   UNL     1     -11.803  11.450  67.336  1.00  0.00    -0.609 OA 
ENDROOT
BRANCH   2   6
HETATM    6  C   UNL     1     -12.138  11.566  69.691  1.00  0.00    -0.363 A  
HETATM    7  C   UNL     1     -12.080  12.961  69.851  1.00  0.00    -0.335 A  
HETATM    8  C   UNL     1     -12.614  13.574  70.986  1.00  0.00    -0.438 A  
HETATM    9  C   UNL     1     -13.212  12.800  71.978  1.00  0.00    -0.538 A  
HETATM   10  C   UNL     1     -13.281  11.414  71.834  1.00  0.00    -0.485 A  
HETATM   11  C   UNL     1     -12.751  10.798  70.694  1.00  0.00    -0.331 A  
HETATM   12  O   UNL     1     -12.846   9.434  70.585  1.00  0.00    -0.519 OA 
HETATM   13  H   UNL     1     -13.261   8.914  71.265  1.00  0.00     0.000 HD 
ENDBRANCH   2   6
TORSDOF 1
ENDMDL
MODEL       47
REMARK 921   NORMALIZED FREE ENERGY PREDICTED BY IDOCK:   -3.92 KCAL/MOL
REMARK 922        TOTAL FREE ENERGY PREDICTED BY IDOCK:   -4.37 KCAL/MOL
REMARK 923 INTER-LIGAND FREE ENERGY PREDICTED BY IDOCK:   -4.14 KCAL/MOL
REMARK 924 INTRA-LIGAND FREE ENERGY PREDICTED BY IDOCK:   -0.23 KCAL/MOL
REMARK 927      BINDING AFFINITY PREDICTED BY RF-SCORE:    0.00 PKD
ROOT
HETATM    1  N   UNL     1     -11.353  14.878  71.489  1.00  0.00    -0.555 N  
HETATM    2  C   UNL     1     -12.285  14.012  71.001  1.00  0.00    -0.353 C  
HETATM    3  H2  UNL     1     -11.501  15.325  72.394  1.00  0.00     0.000 HD 
HETATM    4  H1  UNL     1     -10.508  15.080  70.954  1.00  0.00     0.000 HD 
HETATM    5  O   UNL     1     -13.301  13.768  71.645  1.00  0.00    -0.347 OA 
ENDROOT
BRANCH   2   6
HETATM    6  C   UNL     1     -12.023  13.379  69.673  1.00  0.00    -0.386 A  
HETATM    7  C   UNL     1     -11.841  11.985  69.662  1.00  0.00    -0.401 A  
HETATM    8  C   UNL     1     -11.582  11.307  68.469  1.00  0.00    -0.384 A  
HETATM    9  C   UNL     1     -11.500  12.013  67.271  1.00  0.00    -0.403 A  
HETATM   10  C   UNL     1     -11.681  13.397  67.264  1.00  0.00    -0.424 A  
HETATM   11  C   UNL     1     -11.946  14.077  68.458  1.00  0.00    -0.348 A  
HETATM   12  O   UNL     1     -12.127  15.436  68.408  1.00  0.00    -0.539 OA 
HETATM   13  H   UNL     1     -12.075  15.910  67.585  1.00  0.00     0.000 HD 
ENDBRANCH   2   6
TORSDOF 1
ENDMDL
MODEL       48
REMARK 921   NORMALIZED FREE ENERGY PREDICTED BY IDOCK:   -3.89 KCAL/MOL
REMARK 922        TOTAL FREE ENERGY PREDICTED BY IDOCK:   -4.34 KCAL/MOL
REMARK 923 INTER-LIGAND FREE ENERGY PREDICTED BY IDOCK:   -4.09 KCAL/MOL
REMARK 924 INTRA-LIGAND FREE ENERGY PREDICTED BY IDOCK:   -0.25 KCAL/MOL
REMARK 927      BINDING AFFINITY PREDICTED BY RF-SCORE:    0.00 PKD
ROOT
HETATM    1  N   UNL     1     -13.572  12.531  72.442  1.00  0.00    -0.587 N  
HETATM    2  C   UNL     1     -12.811  12.037  71.425  1.00  0.00    -0.288 C  
HETATM    3  H2  UNL     1     -13.751  13.533  72.501  1.00  0.00     0.000 HD 
HETATM    4  H1  UNL     1     -13.964  11.902  73.144  1.00  0.00     0.000 HD 
HETATM    5  O   UNL     1     -12.341  12.792  70.581  1.00  0.00    -0.360 OA 
ENDROOT
BRANCH   2   6
HETATM    6  C   UNL     1     -12.580  10.561  71.379  1.00  0.00    -0.539 A  
HETATM    7  C   UNL     1     -13.532   9.752  72.023  1.00  0.00    -0.498 A  
HETATM    8  C   UNL     1     -13.396   8.362  72.040  1.00  0.00    -0.367 A  
HETATM    9  C   UNL     1     -12.305   7.763  71.415  1.00  0.00    -0.346 A  
HETATM   10  C   UNL     1     -11.352   8.551  70.768  1.00  0.00    -0.296 A  
HETATM   11  C   UNL     1     -11.490   9.943  70.746  1.00  0.00    -0.354 A  
HETATM   12  O   UNL     1     -10.537  10.683  70.092  1.00  0.00    -0.454 OA 
HETATM   13  H   UNL     1      -9.798  10.265  69.664  1.00  0.00     0.000 HD 
ENDBRANCH   2   6
TORSDOF 1
ENDMDL
MODEL       49
REMARK 921   NORMALIZED FREE ENERGY PREDICTED BY IDOCK:   -3.88 KCAL/MOL
REMARK 922        TOTAL FREE ENERGY PREDICTED BY IDOCK:   -4.34 KCAL/MOL
REMARK 923 INTER-LIGAND FREE ENERGY PREDICTED BY IDOCK:   -4.08 KCAL/MOL
REMARK 924 INTRA-LIGAND FREE ENERGY PREDICTED BY IDOCK:   -0.26 KCAL/MOL
REMARK 927      BINDING AFFINITY PREDICTED BY RF-SCORE:    0.00 PKD
ROOT
HETATM    1  N   UNL     1     -12.343  14.236  67.743  1.00  0.00    -0.578 N  
HETATM    2  C   UNL     1     -12.091  12.935  67.425  1.00  0.00    -0.197 C  
HETATM    3  H2  UNL     1     -12.542  14.492  68.710  1.00  0.00     0.000 HD 
HETATM    4  H1  UNL     1     -12.334  14.954  67.018  1.00  0.00     0.000 HD 
HETATM    5  O   UNL     1     -12.102  12.071  68.296  1.00  0.00    -0.447 OA 
ENDROOT
BRANCH   2   6
HETATM    6  C   UNL     1     -11.801  12.609  65.995  1.00  0.00    -0.492 A  
HETATM    7  C   UNL     1     -12.462  13.381  65.025  1.00  0.00    -0.479 A  
HETATM    8  C   UNL     1     -12.261  13.144  63.663  1.00  0.00    -0.553 A  
HETATM    9  C   UNL     1     -11.399  12.130  63.254  1.00  0.00    -0.410 A  
HETATM   10  C   UNL     1     -10.732  11.356  64.204  1.00  0.00    -0.434 A  
HETATM   11  C   UNL     1     -10.928  11.595  65.569  1.00  0.00    -0.270 A  
HETATM   12  O   UNL     1     -10.248  10.818  66.472  1.00  0.00    -0.220 OA 
HETATM   13  H   UNL     1      -9.657  10.132  66.184  1.00  0.00     0.000 HD 
ENDBRANCH   2   6
TORSDOF 1
ENDMDL
MODEL       50
REMARK 921   NORMALIZED FREE ENERGY PREDICTED BY IDOCK:   -3.87 KCAL/MOL
REMARK 922        TOTAL FREE ENERGY PREDICTED BY IDOCK:   -4.32 KCAL/MOL
REMARK 923 INTER-LIGAND FREE ENERGY PREDICTED BY IDOCK:   -4.19 KCAL/MOL
REMARK 924 INTRA-LIGAND FREE ENERGY PREDICTED BY IDOCK:   -0.13 KCAL/MOL
REMARK 927      BINDING AFFINITY PREDICTED BY RF-SCORE:    0.00 PKD
ROOT
HETATM    1  N   UNL     1      -5.795  18.852  68.503  1.00  0.00    -0.203 N  
HETATM    2  C   UNL     1      -6.865  19.462  69.087  1.00  0.00    -0.339 C  
HETATM    3  H2  UNL     1      -4.902  18.814  68.995  1.00  0.00     0.000 HD 
HETATM    4  H1  UNL     1      -5.883  18.433  67.577  1.00  0.00     0.000 HD 
HETATM    5  O   UNL     1      -6.759  19.965  70.200  1.00  0.00    -0.307 OA 
ENDROOT
BRANCH   2   6
HETATM    6  C   UNL     1      -8.152  19.489  68.328  1.00  0.00    -0.369 A  
HETATM    7  C   UNL     1      -9.121  18.539  68.694  1.00  0.00    -0.325 A  
HETATM    8  C   UNL     1     -10.352  18.482  68.036  1.00  0.00    -0.417 A  
HETATM    9  C   UNL     1     -10.629  19.373  67.002  1.00  0.00    -0.586 A  
HETATM   10  C   UNL     1      -9.680  20.325  66.628  1.00  0.00    -0.550 A  
HETATM   11  C   UNL     1      -8.448  20.386  67.290  1.00  0.00    -0.331 A  
HETATM   12  O   UNL     1      -7.545  21.342  66.899  1.00  0.00    -0.769 OA 
HETATM   13  H   UNL     1      -7.745  21.950  66.196  1.00  0.00     0.000 HD 
ENDBRANCH   2   6
TORSDOF 1
ENDMDL
MODEL       51
REMARK 921   NORMALIZED FREE ENERGY PREDICTED BY IDOCK:   -3.84 KCAL/MOL
REMARK 922        TOTAL FREE ENERGY PREDICTED BY IDOCK:   -4.29 KCAL/MOL
REMARK 923 INTER-LIGAND FREE ENERGY PREDICTED BY IDOCK:   -4.09 KCAL/MOL
REMARK 924 INTRA-LIGAND FREE ENERGY PREDICTED BY IDOCK:   -0.21 KCAL/MOL
REMARK 927      BINDING AFFINITY PREDICTED BY RF-SCORE:    0.00 PKD
ROOT
HETATM    1  N   UNL     1     -12.361  16.185  73.668  1.00  0.00    -0.531 N  
HETATM    2  C   UNL     1     -13.141  15.703  72.659  1.00  0.00    -0.480 C  
HETATM    3  H2  UNL     1     -12.797  16.589  74.497  1.00  0.00     0.000 HD 
HETATM    4  H1  UNL     1     -11.344  16.143  73.596  1.00  0.00     0.000 HD 
HETATM    5  O   UNL     1     -14.364  15.754  72.744  1.00  0.00    -0.453 OA 
ENDROOT
BRANCH   2   6
HETATM    6  C   UNL     1     -12.457  15.118  71.466  1.00  0.00    -0.418 A  
HETATM    7  C   UNL     1     -11.637  15.982  70.721  1.00  0.00    -0.431 A  
HETATM    8  C   UNL     1     -10.964  15.527  69.585  1.00  0.00    -0.288 A  
HETATM    9  C   UNL     1     -11.104  14.202  69.177  1.00  0.00    -0.295 A  
HETATM   10  C   UNL     1     -11.913  13.330  69.908  1.00  0.00    -0.400 A  
HETATM   11  C   UNL     1     -12.584  13.783  71.049  1.00  0.00    -0.371 A  
HETATM   12  O   UNL     1     -13.362  12.893  71.745  1.00  0.00    -0.420 OA 
HETATM   13  H   UNL     1     -13.447  11.989  71.463  1.00  0.00     0.000 HD 
ENDBRANCH   2   6
TORSDOF 1
ENDMDL
MODEL       52
REMARK 921   NORMALIZED FREE ENERGY PREDICTED BY IDOCK:   -3.84 KCAL/MOL
REMARK 922        TOTAL FREE ENERGY PREDICTED BY IDOCK:   -4.29 KCAL/MOL
REMARK 923 INTER-LIGAND FREE ENERGY PREDICTED BY IDOCK:   -4.07 KCAL/MOL
REMARK 924 INTRA-LIGAND FREE ENERGY PREDICTED BY IDOCK:   -0.22 KCAL/MOL
REMARK 927      BINDING AFFINITY PREDICTED BY RF-SCORE:    0.00 PKD
ROOT
HETATM    1  N   UNL     1     -10.049  14.272  65.013  1.00  0.00    -0.549 N  
HETATM    2  C   UNL     1     -10.620  15.451  65.390  1.00  0.00    -0.410 C  
HETATM    3  H2  UNL     1      -9.935  14.058  64.022  1.00  0.00     0.000 HD 
HETATM    4  H1  UNL     1      -9.734  13.604  65.717  1.00  0.00     0.000 HD 
HETATM    5  O   UNL     1     -10.998  16.254  64.543  1.00  0.00    -0.687 OA 
ENDROOT
BRANCH   2   6
HETATM    6  C   UNL     1     -10.761  15.722  66.853  1.00  0.00    -0.299 A  
HETATM    7  C   UNL     1      -9.966  16.751  67.385  1.00  0.00    -0.267 A  
HETATM    8  C   UNL     1     -10.023  17.071  68.743  1.00  0.00    -0.293 A  
HETATM    9  C   UNL     1     -10.875  16.364  69.588  1.00  0.00    -0.346 A  
HETATM   10  C   UNL     1     -11.674  15.340  69.076  1.00  0.00    -0.368 A  
HETATM   11  C   UNL     1     -11.622  15.022  67.714  1.00  0.00    -0.319 A  
HETATM   12  O   UNL     1     -12.429  14.016  67.248  1.00  0.00    -0.532 OA 
HETATM   13  H   UNL     1     -13.012  13.543  67.831  1.00  0.00     0.000 HD 
ENDBRANCH   2   6
TORSDOF 1
ENDMDL
MODEL       53
REMARK 921   NORMALIZED FREE ENERGY PREDICTED BY IDOCK:   -3.83 KCAL/MOL
REMARK 922        TOTAL FREE ENERGY PREDICTED BY IDOCK:   -4.28 KCAL/MOL
REMARK 923 INTER-LIGAND FREE ENERGY PREDICTED BY IDOCK:   -4.02 KCAL/MOL
REMARK 924 INTRA-LIGAND FREE ENERGY PREDICTED BY IDOCK:   -0.26 KCAL/MOL
REMARK 927      BINDING AFFINITY PREDICTED BY RF-SCORE:    0.00 PKD
ROOT
HETATM    1  N   UNL     1     -10.648  10.299  70.458  1.00  0.00    -0.421 N  
HETATM    2  C   UNL     1     -11.685  11.182  70.436  1.00  0.00    -0.320 C  
HETATM    3  H2  UNL     1     -10.597   9.594  71.193  1.00  0.00     0.000 HD 
HETATM    4  H1  UNL     1      -9.922  10.340  69.742  1.00  0.00     0.000 HD 
HETATM    5  O   UNL     1     -12.558  11.133  71.297  1.00  0.00    -0.387 OA 
ENDROOT
BRANCH   2   6
HETATM    6  C   UNL     1     -11.718  12.194  69.337  1.00  0.00    -0.391 A  
HETATM    7  C   UNL     1     -11.788  13.544  69.723  1.00  0.00    -0.395 A  
HETATM    8  C   UNL     1     -11.831  14.560  68.766  1.00  0.00    -0.350 A  
HETATM    9  C   UNL     1     -11.808  14.241  67.411  1.00  0.00    -0.441 A  
HETATM   10  C   UNL     1     -11.735  12.906  67.010  1.00  0.00    -0.447 A  
HETATM   11  C   UNL     1     -11.686  11.886  67.967  1.00  0.00    -0.312 A  
HETATM   12  O   UNL     1     -11.607  10.587  67.534  1.00  0.00    -0.561 OA 
HETATM   13  H   UNL     1     -11.585  10.379  66.606  1.00  0.00     0.000 HD 
ENDBRANCH   2   6
TORSDOF 1
ENDMDL
MODEL       54
REMARK 921   NORMALIZED FREE ENERGY PREDICTED BY IDOCK:   -3.82 KCAL/MOL
REMARK 922        TOTAL FREE ENERGY PREDICTED BY IDOCK:   -4.27 KCAL/MOL
REMARK 923 INTER-LIGAND FREE ENERGY PREDICTED BY IDOCK:   -4.02 KCAL/MOL
REMARK 924 INTRA-LIGAND FREE ENERGY PREDICTED BY IDOCK:   -0.25 KCAL/MOL
REMARK 927      BINDING AFFINITY PREDICTED BY RF-SCORE:    0.00 PKD
ROOT
HETATM    1  N   UNL     1     -11.947  16.824  73.983  1.00  0.00    -0.252 N  
HETATM    2  C   UNL     1     -13.009  16.207  73.393  1.00  0.00    -0.509 C  
HETATM    3  H2  UNL     1     -12.106  17.548  74.685  1.00  0.00     0.000 HD 
HETATM    4  H1  UNL     1     -10.994  16.566  73.726  1.00  0.00     0.000 HD 
HETATM    5  O   UNL     1     -14.155  16.516  73.702  1.00  0.00    -0.153 OA 
ENDROOT
BRANCH   2   6
HETATM    6  C   UNL     1     -12.725  15.151  72.374  1.00  0.00    -0.432 A  
HETATM    7  C   UNL     1     -13.248  13.872  72.626  1.00  0.00    -0.592 A  
HETATM    8  C   UNL     1     -13.027  12.820  71.734  1.00  0.00    -0.416 A  
HETATM    9  C   UNL     1     -12.278  13.033  70.580  1.00  0.00    -0.392 A  
HETATM   10  C   UNL     1     -11.753  14.298  70.312  1.00  0.00    -0.343 A  
HETATM   11  C   UNL     1     -11.978  15.354  71.202  1.00  0.00    -0.362 A  
HETATM   12  O   UNL     1     -11.453  16.585  70.899  1.00  0.00    -0.566 OA 
HETATM   13  H   UNL     1     -10.948  16.723  70.106  1.00  0.00     0.000 HD 
ENDBRANCH   2   6
TORSDOF 1
ENDMDL
MODEL       55
REMARK 921   NORMALIZED FREE ENERGY PREDICTED BY IDOCK:   -3.81 KCAL/MOL
REMARK 922        TOTAL FREE ENERGY PREDICTED BY IDOCK:   -4.26 KCAL/MOL
REMARK 923 INTER-LIGAND FREE ENERGY PREDICTED BY IDOCK:   -4.01 KCAL/MOL
REMARK 924 INTRA-LIGAND FREE ENERGY PREDICTED BY IDOCK:   -0.24 KCAL/MOL
REMARK 927      BINDING AFFINITY PREDICTED BY RF-SCORE:    0.00 PKD
ROOT
HETATM    1  N   UNL     1     -12.371  15.139  68.725  1.00  0.00    -0.595 N  
HETATM    2  C   UNL     1     -11.388  15.068  67.784  1.00  0.00    -0.330 C  
HETATM    3  H2  UNL     1     -12.203  15.640  69.598  1.00  0.00     0.000 HD 
HETATM    4  H1  UNL     1     -13.275  14.695  68.559  1.00  0.00     0.000 HD 
HETATM    5  O   UNL     1     -10.302  15.603  67.983  1.00  0.00    -0.238 OA 
ENDROOT
BRANCH   2   6
HETATM    6  C   UNL     1     -11.682  14.327  66.520  1.00  0.00    -0.409 A  
HETATM    7  C   UNL     1     -11.650  15.072  65.329  1.00  0.00    -0.258 A  
HETATM    8  C   UNL     1     -11.921  14.468  64.099  1.00  0.00    -0.346 A  
HETATM    9  C   UNL     1     -12.230  13.111  64.045  1.00  0.00    -0.482 A  
HETATM   10  C   UNL     1     -12.263  12.355  65.218  1.00  0.00    -0.418 A  
HETATM   11  C   UNL     1     -11.987  12.959  66.450  1.00  0.00    -0.395 A  
HETATM   12  O   UNL     1     -12.021  12.180  67.579  1.00  0.00    -0.544 OA 
HETATM   13  H   UNL     1     -12.227  11.254  67.532  1.00  0.00     0.000 HD 
ENDBRANCH   2   6
TORSDOF 1
ENDMDL
MODEL       56
REMARK 921   NORMALIZED FREE ENERGY PREDICTED BY IDOCK:   -3.81 KCAL/MOL
REMARK 922        TOTAL FREE ENERGY PREDICTED BY IDOCK:   -4.25 KCAL/MOL
REMARK 923 INTER-LIGAND FREE ENERGY PREDICTED BY IDOCK:   -4.04 KCAL/MOL
REMARK 924 INTRA-LIGAND FREE ENERGY PREDICTED BY IDOCK:   -0.22 KCAL/MOL
REMARK 927      BINDING AFFINITY PREDICTED BY RF-SCORE:    0.00 PKD
ROOT
HETATM    1  N   UNL     1     -13.104  11.892  72.130  1.00  0.00    -0.425 N  
HETATM    2  C   UNL     1     -13.381  13.226  72.108  1.00  0.00    -0.523 C  
HETATM    3  H2  UNL     1     -13.698  11.259  72.666  1.00  0.00     0.000 HD 
HETATM    4  H1  UNL     1     -12.305  11.524  71.613  1.00  0.00     0.000 HD 
HETATM    5  O   UNL     1     -14.342  13.668  72.730  1.00  0.00    -0.622 OA 
ENDROOT
BRANCH   2   6
HETATM    6  C   UNL     1     -12.484  14.113  71.307  1.00  0.00    -0.446 A  
HETATM    7  C   UNL     1     -12.316  15.428  71.773  1.00  0.00    -0.453 A  
HETATM    8  C   UNL     1     -11.503  16.332  71.085  1.00  0.00    -0.364 A  
HETATM    9  C   UNL     1     -10.850  15.934  69.922  1.00  0.00    -0.333 A  
HETATM   10  C   UNL     1     -11.003  14.631  69.447  1.00  0.00    -0.279 A  
HETATM   11  C   UNL     1     -11.813  13.722  70.138  1.00  0.00    -0.290 A  
HETATM   12  O   UNL     1     -11.931  12.447  69.644  1.00  0.00    -0.304 OA 
HETATM   13  H   UNL     1     -11.476  12.182  68.852  1.00  0.00     0.000 HD 
ENDBRANCH   2   6
TORSDOF 1
ENDMDL
MODEL       57
REMARK 921   NORMALIZED FREE ENERGY PREDICTED BY IDOCK:   -3.80 KCAL/MOL
REMARK 922        TOTAL FREE ENERGY PREDICTED BY IDOCK:   -4.25 KCAL/MOL
REMARK 923 INTER-LIGAND FREE ENERGY PREDICTED BY IDOCK:   -3.99 KCAL/MOL
REMARK 924 INTRA-LIGAND FREE ENERGY PREDICTED BY IDOCK:   -0.26 KCAL/MOL
REMARK 927      BINDING AFFINITY PREDICTED BY RF-SCORE:    0.00 PKD
ROOT
HETATM    1  N   UNL     1      -8.669  15.339  66.217  1.00  0.00    -0.455 N  
HETATM    2  C   UNL     1      -8.048  16.513  66.520  1.00  0.00    -0.306 C  
HETATM    3  H2  UNL     1      -8.121  14.549  65.876  1.00  0.00     0.000 HD 
HETATM    4  H1  UNL     1      -9.679  15.246  66.330  1.00  0.00     0.000 HD 
HETATM    5  O   UNL     1      -6.834  16.624  66.384  1.00  0.00    -0.178 OA 
ENDROOT
BRANCH   2   6
HETATM    6  C   UNL     1      -8.892  17.641  67.020  1.00  0.00    -0.256 A  
HETATM    7  C   UNL     1      -8.451  18.292  68.184  1.00  0.00    -0.290 A  
HETATM    8  C   UNL     1      -9.179  19.352  68.731  1.00  0.00    -0.422 A  
HETATM    9  C   UNL     1     -10.358  19.772  68.121  1.00  0.00    -0.561 A  
HETATM   10  C   UNL     1     -10.809  19.139  66.962  1.00  0.00    -0.479 A  
HETATM   11  C   UNL     1     -10.078  18.081  66.410  1.00  0.00    -0.384 A  
HETATM   12  O   UNL     1     -10.549  17.489  65.266  1.00  0.00    -0.664 OA 
HETATM   13  H   UNL     1     -11.352  17.787  64.853  1.00  0.00     0.000 HD 
ENDBRANCH   2   6
TORSDOF 1
ENDMDL
MODEL       58
REMARK 921   NORMALIZED FREE ENERGY PREDICTED BY IDOCK:   -3.78 KCAL/MOL
REMARK 922        TOTAL FREE ENERGY PREDICTED BY IDOCK:   -4.23 KCAL/MOL
REMARK 923 INTER-LIGAND FREE ENERGY PREDICTED BY IDOCK:   -3.97 KCAL/MOL
REMARK 924 INTRA-LIGAND FREE ENERGY PREDICTED BY IDOCK:   -0.26 KCAL/MOL
REMARK 927      BINDING AFFINITY PREDICTED BY RF-SCORE:    0.00 PKD
ROOT
HETATM    1  N   UNL     1     -10.650  10.638  70.177  1.00  0.00    -0.458 N  
HETATM    2  C   UNL     1     -10.665   9.553  71.002  1.00  0.00    -0.340 C  
HETATM    3  H2  UNL     1      -9.764  11.089  69.950  1.00  0.00     0.000 HD 
HETATM    4  H1  UNL     1     -11.521  10.999  69.787  1.00  0.00     0.000 HD 
HETATM    5  O   UNL     1      -9.619   9.118  71.472  1.00  0.00    -0.283 OA 
ENDROOT
BRANCH   2   6
HETATM    6  C   UNL     1     -11.987   8.923  71.304  1.00  0.00    -0.365 A  
HETATM    7  C   UNL     1     -12.070   7.528  71.158  1.00  0.00    -0.335 A  
HETATM    8  C   UNL     1     -13.266   6.852  71.409  1.00  0.00    -0.287 A  
HETATM    9  C   UNL     1     -14.396   7.562  71.807  1.00  0.00    -0.588 A  
HETATM   10  C   UNL     1     -14.330   8.948  71.959  1.00  0.00    -0.406 A  
HETATM   11  C   UNL     1     -13.131   9.626  71.713  1.00  0.00    -0.421 A  
HETATM   12  O   UNL     1     -13.104  10.987  71.883  1.00  0.00    -0.486 OA 
HETATM   13  H   UNL     1     -13.879  11.464  72.160  1.00  0.00     0.000 HD 
ENDBRANCH   2   6
TORSDOF 1
ENDMDL
MODEL       59
REMARK 921   NORMALIZED FREE ENERGY PREDICTED BY IDOCK:   -3.77 KCAL/MOL
REMARK 922        TOTAL FREE ENERGY PREDICTED BY IDOCK:   -4.21 KCAL/MOL
REMARK 923 INTER-LIGAND FREE ENERGY PREDICTED BY IDOCK:   -3.98 KCAL/MOL
REMARK 924 INTRA-LIGAND FREE ENERGY PREDICTED BY IDOCK:   -0.23 KCAL/MOL
REMARK 927      BINDING AFFINITY PREDICTED BY RF-SCORE:    0.00 PKD
ROOT
HETATM    1  N   UNL     1     -12.447  14.694  69.229  1.00  0.00    -0.572 N  
HETATM    2  C   UNL     1     -11.747  15.301  68.229  1.00  0.00    -0.301 C  
HETATM    3  H2  UNL     1     -12.610  15.188  70.106  1.00  0.00     0.000 HD 
HETATM    4  H1  UNL     1     -12.807  13.748  69.103  1.00  0.00     0.000 HD 
HETATM    5  O   UNL     1     -11.314  16.438  68.379  1.00  0.00    -0.366 OA 
ENDROOT
BRANCH   2   6
HETATM    6  C   UNL     1     -11.536  14.538  66.961  1.00  0.00    -0.402 A  
HETATM    7  C   UNL     1     -11.875  13.174  66.981  1.00  0.00    -0.435 A  
HETATM    8  C   UNL     1     -11.705  12.378  65.846  1.00  0.00    -0.476 A  
HETATM    9  C   UNL     1     -11.191  12.934  64.677  1.00  0.00    -0.353 A  
HETATM   10  C   UNL     1     -10.852  14.287  64.639  1.00  0.00    -0.384 A  
HETATM   11  C   UNL     1     -11.027  15.088  65.774  1.00  0.00    -0.350 A  
HETATM   12  O   UNL     1     -10.691  16.415  65.694  1.00  0.00    -0.336 OA 
HETATM   13  H   UNL     1     -10.346  16.788  64.890  1.00  0.00     0.000 HD 
ENDBRANCH   2   6
TORSDOF 1
ENDMDL
MODEL       60
REMARK 921   NORMALIZED FREE ENERGY PREDICTED BY IDOCK:   -3.76 KCAL/MOL
REMARK 922        TOTAL FREE ENERGY PREDICTED BY IDOCK:   -4.20 KCAL/MOL
REMARK 923 INTER-LIGAND FREE ENERGY PREDICTED BY IDOCK:   -3.95 KCAL/MOL
REMARK 924 INTRA-LIGAND FREE ENERGY PREDICTED BY IDOCK:   -0.25 KCAL/MOL
REMARK 927      BINDING AFFINITY PREDICTED BY RF-SCORE:    0.00 PKD
ROOT
HETATM    1  N   UNL     1     -12.045  14.801  68.127  1.00  0.00    -0.573 N  
HETATM    2  C   UNL     1     -11.295  13.825  68.712  1.00  0.00    -0.283 C  
HETATM    3  H2  UNL     1     -11.638  15.382  67.394  1.00  0.00     0.000 HD 
HETATM    4  H1  UNL     1     -13.011  14.951  68.419  1.00  0.00     0.000 HD 
HETATM    5  O   UNL     1     -10.133  13.643  68.361  1.00  0.00    -0.234 OA 
ENDROOT
BRANCH   2   6
HETATM    6  C   UNL     1     -11.935  12.996  69.778  1.00  0.00    -0.377 A  
HETATM    7  C   UNL     1     -12.608  13.690  70.799  1.00  0.00    -0.397 A  
HETATM    8  C   UNL     1     -13.229  13.001  71.842  1.00  0.00    -0.527 A  
HETATM    9  C   UNL     1     -13.184  11.609  71.881  1.00  0.00    -0.475 A  
HETATM   10  C   UNL     1     -12.524  10.904  70.874  1.00  0.00    -0.507 A  
HETATM   11  C   UNL     1     -11.905  11.593  69.824  1.00  0.00    -0.357 A  
HETATM   12  O   UNL     1     -11.273  10.864  68.849  1.00  0.00    -0.224 OA 
HETATM   13  H   UNL     1     -11.252   9.915  68.880  1.00  0.00     0.000 HD 
ENDBRANCH   2   6
TORSDOF 1
ENDMDL
MODEL       61
REMARK 921   NORMALIZED FREE ENERGY PREDICTED BY IDOCK:   -3.72 KCAL/MOL
REMARK 922        TOTAL FREE ENERGY PREDICTED BY IDOCK:   -4.16 KCAL/MOL
REMARK 923 INTER-LIGAND FREE ENERGY PREDICTED BY IDOCK:   -3.91 KCAL/MOL
REMARK 924 INTRA-LIGAND FREE ENERGY PREDICTED BY IDOCK:   -0.26 KCAL/MOL
REMARK 927      BINDING AFFINITY PREDICTED BY RF-SCORE:    0.00 PKD
ROOT
HETATM    1  N   UNL     1      -9.938   9.894  65.023  1.00  0.00    -0.385 N  
HETATM    2  C   UNL     1     -10.461  11.067  64.566  1.00  0.00    -0.342 C  
HETATM    3  H2  UNL     1      -9.680   9.162  64.362  1.00  0.00     0.000 HD 
HETATM    4  H1  UNL     1      -9.805   9.745  66.024  1.00  0.00     0.000 HD 
HETATM    5  O   UNL     1     -10.622  11.246  63.364  1.00  0.00    -0.375 OA 
ENDROOT
BRANCH   2   6
HETATM    6  C   UNL     1     -10.822  12.110  65.574  1.00  0.00    -0.324 A  
HETATM    7  C   UNL     1     -11.350  11.655  66.794  1.00  0.00    -0.354 A  
HETATM    8  C   UNL     1     -11.724  12.556  67.793  1.00  0.00    -0.419 A  
HETATM    9  C   UNL     1     -11.577  13.925  67.584  1.00  0.00    -0.381 A  
HETATM   10  C   UNL     1     -11.051  14.395  66.380  1.00  0.00    -0.326 A  
HETATM   11  C   UNL     1     -10.671  13.493  65.380  1.00  0.00    -0.304 A  
HETATM   12  O   UNL     1     -10.150  13.993  64.214  1.00  0.00    -0.697 OA 
HETATM   13  H   UNL     1     -10.047  14.929  64.082  1.00  0.00     0.000 HD 
ENDBRANCH   2   6
TORSDOF 1
ENDMDL
MODEL       62
REMARK 921   NORMALIZED FREE ENERGY PREDICTED BY IDOCK:   -3.72 KCAL/MOL
REMARK 922        TOTAL FREE ENERGY PREDICTED BY IDOCK:   -4.16 KCAL/MOL
REMARK 923 INTER-LIGAND FREE ENERGY PREDICTED BY IDOCK:   -3.91 KCAL/MOL
REMARK 924 INTRA-LIGAND FREE ENERGY PREDICTED BY IDOCK:   -0.25 KCAL/MOL
REMARK 927      BINDING AFFINITY PREDICTED BY RF-SCORE:    0.00 PKD
ROOT
HETATM    1  N   UNL     1     -12.751  15.167  69.651  1.00  0.00    -0.605 N  
HETATM    2  C   UNL     1     -12.160  14.091  69.060  1.00  0.00    -0.323 C  
HETATM    3  H2  UNL     1     -13.042  15.113  70.627  1.00  0.00     0.000 HD 
HETATM    4  H1  UNL     1     -12.903  16.026  69.122  1.00  0.00     0.000 HD 
HETATM    5  O   UNL     1     -11.977  13.058  69.696  1.00  0.00    -0.315 OA 
ENDROOT
BRANCH   2   6
HETATM    6  C   UNL     1     -11.747  14.219  67.629  1.00  0.00    -0.421 A  
HETATM    7  C   UNL     1     -12.035  13.131  66.788  1.00  0.00    -0.434 A  
HETATM    8  C   UNL     1     -11.680  13.156  65.438  1.00  0.00    -0.383 A  
HETATM    9  C   UNL     1     -11.029  14.269  64.911  1.00  0.00    -0.413 A  
HETATM   10  C   UNL     1     -10.738  15.360  65.731  1.00  0.00    -0.360 A  
HETATM   11  C   UNL     1     -11.098  15.338  67.083  1.00  0.00    -0.323 A  
HETATM   12  O   UNL     1     -10.803  16.434  67.854  1.00  0.00    -0.333 OA 
HETATM   13  H   UNL     1     -10.364  17.192  67.485  1.00  0.00     0.000 HD 
ENDBRANCH   2   6
TORSDOF 1
ENDMDL
MODEL       63
REMARK 921   NORMALIZED FREE ENERGY PREDICTED BY IDOCK:   -3.69 KCAL/MOL
REMARK 922        TOTAL FREE ENERGY PREDICTED BY IDOCK:   -4.13 KCAL/MOL
REMARK 923 INTER-LIGAND FREE ENERGY PREDICTED BY IDOCK:   -3.88 KCAL/MOL
REMARK 924 INTRA-LIGAND FREE ENERGY PREDICTED BY IDOCK:   -0.25 KCAL/MOL
REMARK 927      BINDING AFFINITY PREDICTED BY RF-SCORE:    0.00 PKD
ROOT
HETATM    1  N   UNL     1     -11.135  12.879  69.317  1.00  0.00    -0.424 N  
HETATM    2  C   UNL     1     -11.536  12.503  68.070  1.00  0.00    -0.317 C  
HETATM    3  H2  UNL     1     -11.266  12.243  70.105  1.00  0.00     0.000 HD 
HETATM    4  H1  UNL     1     -10.706  13.792  69.466  1.00  0.00     0.000 HD 
HETATM    5  O   UNL     1     -12.052  11.405  67.891  1.00  0.00    -0.646 OA 
ENDROOT
BRANCH   2   6
HETATM    6  C   UNL     1     -11.321  13.466  66.948  1.00  0.00    -0.351 A  
HETATM    7  C   UNL     1     -12.378  13.617  66.034  1.00  0.00    -0.493 A  
HETATM    8  C   UNL     1     -12.266  14.488  64.948  1.00  0.00    -0.409 A  
HETATM    9  C   UNL     1     -11.095  15.218  64.760  1.00  0.00    -0.407 A  
HETATM   10  C   UNL     1     -10.037  15.083  65.660  1.00  0.00    -0.390 A  
HETATM   11  C   UNL     1     -10.149  14.214  66.752  1.00  0.00    -0.262 A  
HETATM   12  O   UNL     1      -9.091  14.116  67.619  1.00  0.00    -0.180 OA 
HETATM   13  H   UNL     1      -8.298  14.623  67.486  1.00  0.00     0.000 HD 
ENDBRANCH   2   6
TORSDOF 1
ENDMDL
MODEL       64
REMARK 921   NORMALIZED FREE ENERGY PREDICTED BY IDOCK:   -3.69 KCAL/MOL
REMARK 922        TOTAL FREE ENERGY PREDICTED BY IDOCK:   -4.13 KCAL/MOL
REMARK 923 INTER-LIGAND FREE ENERGY PREDICTED BY IDOCK:   -3.91 KCAL/MOL
REMARK 924 INTRA-LIGAND FREE ENERGY PREDICTED BY IDOCK:   -0.21 KCAL/MOL
REMARK 927      BINDING AFFINITY PREDICTED BY RF-SCORE:    0.00 PKD
ROOT
HETATM    1  N   UNL     1     -11.491  10.418  67.962  1.00  0.00    -0.484 N  
HETATM    2  C   UNL     1     -10.584  11.078  67.188  1.00  0.00    -0.250 C  
HETATM    3  H2  UNL     1     -11.189   9.971  68.828  1.00  0.00     0.000 HD 
HETATM    4  H1  UNL     1     -12.470  10.368  67.679  1.00  0.00     0.000 HD 
HETATM    5  O   UNL     1      -9.407  11.137  67.528  1.00  0.00    -0.165 OA 
ENDROOT
BRANCH   2   6
HETATM    6  C   UNL     1     -11.075  11.719  65.930  1.00  0.00    -0.355 A  
HETATM    7  C   UNL     1     -10.649  11.144  64.720  1.00  0.00    -0.371 A  
HETATM    8  C   UNL     1     -11.049  11.679  63.494  1.00  0.00    -0.476 A  
HETATM    9  C   UNL     1     -11.878  12.797  63.461  1.00  0.00    -0.618 A  
HETATM   10  C   UNL     1     -12.313  13.379  64.652  1.00  0.00    -0.433 A  
HETATM   11  C   UNL     1     -11.917  12.841  65.882  1.00  0.00    -0.449 A  
HETATM   12  O   UNL     1     -12.373  13.436  67.031  1.00  0.00    -0.311 OA 
HETATM   13  H   UNL     1     -12.943  14.196  66.999  1.00  0.00     0.000 HD 
ENDBRANCH   2   6
TORSDOF 1
ENDMDL
MODEL       65
REMARK 921   NORMALIZED FREE ENERGY PREDICTED BY IDOCK:   -3.67 KCAL/MOL
REMARK 922        TOTAL FREE ENERGY PREDICTED BY IDOCK:   -4.11 KCAL/MOL
REMARK 923 INTER-LIGAND FREE ENERGY PREDICTED BY IDOCK:   -3.87 KCAL/MOL
REMARK 924 INTRA-LIGAND FREE ENERGY PREDICTED BY IDOCK:   -0.24 KCAL/MOL
REMARK 927      BINDING AFFINITY PREDICTED BY RF-SCORE:    0.00 PKD
ROOT
HETATM    1  N   UNL     1     -11.527   6.352  69.167  1.00  0.00    -0.608 N  
HETATM    2  C   UNL     1     -11.545   6.568  70.512  1.00  0.00    -0.393 C  
HETATM    3  H2  UNL     1     -11.132   5.487  68.798  1.00  0.00     0.000 HD 
HETATM    4  H1  UNL     1     -11.908   7.051  68.528  1.00  0.00     0.000 HD 
HETATM    5  O   UNL     1     -11.089   5.729  71.281  1.00  0.00    -0.262 OA 
ENDROOT
BRANCH   2   6
HETATM    6  C   UNL     1     -12.138   7.849  71.005  1.00  0.00    -0.246 A  
HETATM    7  C   UNL     1     -13.282   7.745  71.815  1.00  0.00    -0.354 A  
HETATM    8  C   UNL     1     -13.911   8.888  72.315  1.00  0.00    -0.536 A  
HETATM    9  C   UNL     1     -13.405  10.149  72.011  1.00  0.00    -0.492 A  
HETATM   10  C   UNL     1     -12.267  10.270  71.211  1.00  0.00    -0.496 A  
HETATM   11  C   UNL     1     -11.633   9.126  70.713  1.00  0.00    -0.276 A  
HETATM   12  O   UNL     1     -10.513   9.286  69.938  1.00  0.00    -0.205 OA 
HETATM   13  H   UNL     1     -10.171  10.151  69.741  1.00  0.00     0.000 HD 
ENDBRANCH   2   6
TORSDOF 1
ENDMDL
MODEL       66
REMARK 921   NORMALIZED FREE ENERGY PREDICTED BY IDOCK:   -3.67 KCAL/MOL
REMARK 922        TOTAL FREE ENERGY PREDICTED BY IDOCK:   -4.11 KCAL/MOL
REMARK 923 INTER-LIGAND FREE ENERGY PREDICTED BY IDOCK:   -3.86 KCAL/MOL
REMARK 924 INTRA-LIGAND FREE ENERGY PREDICTED BY IDOCK:   -0.25 KCAL/MOL
REMARK 927      BINDING AFFINITY PREDICTED BY RF-SCORE:    0.00 PKD
ROOT
HETATM    1  N   UNL     1     -12.438  14.651  69.723  1.00  0.00    -0.533 N  
HETATM    2  C   UNL     1     -11.818  14.983  68.556  1.00  0.00    -0.291 C  
HETATM    3  H2  UNL     1     -12.533  15.348  70.462  1.00  0.00     0.000 HD 
HETATM    4  H1  UNL     1     -12.808  13.710  69.860  1.00  0.00     0.000 HD 
HETATM    5  O   UNL     1     -11.374  16.114  68.390  1.00  0.00    -0.366 OA 
ENDROOT
BRANCH   2   6
HETATM    6  C   UNL     1     -11.706  13.929  67.501  1.00  0.00    -0.416 A  
HETATM    7  C   UNL     1     -12.302  14.212  66.260  1.00  0.00    -0.451 A  
HETATM    8  C   UNL     1     -12.256  13.285  65.217  1.00  0.00    -0.492 A  
HETATM    9  C   UNL     1     -11.616  12.062  65.401  1.00  0.00    -0.343 A  
HETATM   10  C   UNL     1     -11.016  11.766  66.625  1.00  0.00    -0.342 A  
HETATM   11  C   UNL     1     -11.057  12.696  67.671  1.00  0.00    -0.263 A  
HETATM   12  O   UNL     1     -10.448  12.372  68.856  1.00  0.00    -0.360 OA 
HETATM   13  H   UNL     1     -10.008  11.537  68.971  1.00  0.00     0.000 HD 
ENDBRANCH   2   6
TORSDOF 1
ENDMDL
MODEL       67
REMARK 921   NORMALIZED FREE ENERGY PREDICTED BY IDOCK:   -3.66 KCAL/MOL
REMARK 922        TOTAL FREE ENERGY PREDICTED BY IDOCK:   -4.10 KCAL/MOL
REMARK 923 INTER-LIGAND FREE ENERGY PREDICTED BY IDOCK:   -3.86 KCAL/MOL
REMARK 924 INTRA-LIGAND FREE ENERGY PREDICTED BY IDOCK:   -0.24 KCAL/MOL
REMARK 927      BINDING AFFINITY PREDICTED BY RF-SCORE:    0.00 PKD
ROOT
HETATM    1  N   UNL     1      -9.372   9.379  69.057  1.00  0.00    -0.150 N  
HETATM    2  C   UNL     1      -9.475   9.436  70.415  1.00  0.00    -0.268 C  
HETATM    3  H2  UNL     1      -8.455   9.275  68.622  1.00  0.00     0.000 HD 
HETATM    4  H1  UNL     1     -10.208   9.441  68.474  1.00  0.00     0.000 HD 
HETATM    5  O   UNL     1      -8.471   9.362  71.115  1.00  0.00    -0.303 OA 
ENDROOT
BRANCH   2   6
HETATM    6  C   UNL     1     -10.840   9.585  71.006  1.00  0.00    -0.423 A  
HETATM    7  C   UNL     1     -11.285   8.545  71.839  1.00  0.00    -0.397 A  
HETATM    8  C   UNL     1     -12.550   8.593  72.430  1.00  0.00    -0.426 A  
HETATM    9  C   UNL     1     -13.387   9.680  72.193  1.00  0.00    -0.545 A  
HETATM   10  C   UNL     1     -12.960  10.723  71.370  1.00  0.00    -0.535 A  
HETATM   11  C   UNL     1     -11.691  10.680  70.782  1.00  0.00    -0.335 A  
HETATM   12  O   UNL     1     -11.304  11.728  69.987  1.00  0.00    -0.477 OA 
HETATM   13  H   UNL     1     -11.880  12.469  69.835  1.00  0.00     0.000 HD 
ENDBRANCH   2   6
TORSDOF 1
ENDMDL
MODEL       68
REMARK 921   NORMALIZED FREE ENERGY PREDICTED BY IDOCK:   -3.65 KCAL/MOL
REMARK 922        TOTAL FREE ENERGY PREDICTED BY IDOCK:   -4.09 KCAL/MOL
REMARK 923 INTER-LIGAND FREE ENERGY PREDICTED BY IDOCK:   -3.89 KCAL/MOL
REMARK 924 INTRA-LIGAND FREE ENERGY PREDICTED BY IDOCK:   -0.20 KCAL/MOL
REMARK 927      BINDING AFFINITY PREDICTED BY RF-SCORE:    0.00 PKD
ROOT
HETATM    1  N   UNL     1     -11.173  15.266  66.795  1.00  0.00    -0.288 N  
HETATM    2  C   UNL     1     -10.727  16.260  65.977  1.00  0.00    -0.214 C  
HETATM    3  H2  UNL     1     -11.407  14.353  66.403  1.00  0.00     0.000 HD 
HETATM    4  H1  UNL     1     -11.273  15.430  67.797  1.00  0.00     0.000 HD 
HETATM    5  O   UNL     1     -10.607  16.063  64.772  1.00  0.00    -0.600 OA 
ENDROOT
BRANCH   2   6
HETATM    6  C   UNL     1     -10.393  17.578  66.597  1.00  0.00    -0.319 A  
HETATM    7  C   UNL     1     -10.564  18.717  65.792  1.00  0.00    -0.321 A  
HETATM    8  C   UNL     1     -10.269  19.991  66.282  1.00  0.00    -0.595 A  
HETATM    9  C   UNL     1      -9.798  20.143  67.584  1.00  0.00    -0.567 A  
HETATM   10  C   UNL     1      -9.626  19.023  68.399  1.00  0.00    -0.429 A  
HETATM   11  C   UNL     1      -9.926  17.746  67.910  1.00  0.00    -0.322 A  
HETATM   12  O   UNL     1      -9.752  16.671  68.745  1.00  0.00    -0.236 OA 
HETATM   13  H   UNL     1      -9.435  16.785  69.634  1.00  0.00     0.000 HD 
ENDBRANCH   2   6
TORSDOF 1
ENDMDL
MODEL       69
REMARK 921   NORMALIZED FREE ENERGY PREDICTED BY IDOCK:   -3.65 KCAL/MOL
REMARK 922        TOTAL FREE ENERGY PREDICTED BY IDOCK:   -4.09 KCAL/MOL
REMARK 923 INTER-LIGAND FREE ENERGY PREDICTED BY IDOCK:   -3.88 KCAL/MOL
REMARK 924 INTRA-LIGAND FREE ENERGY PREDICTED BY IDOCK:   -0.21 KCAL/MOL
REMARK 927      BINDING AFFINITY PREDICTED BY RF-SCORE:    0.00 PKD
ROOT
HETATM    1  N   UNL     1     -10.775  16.944  69.426  1.00  0.00    -0.336 N  
HETATM    2  C   UNL     1     -10.772  17.125  68.075  1.00  0.00    -0.372 C  
HETATM    3  H2  UNL     1     -10.621  17.740  70.044  1.00  0.00     0.000 HD 
HETATM    4  H1  UNL     1     -10.930  16.016  69.820  1.00  0.00     0.000 HD 
HETATM    5  O   UNL     1     -10.586  18.240  67.600  1.00  0.00    -0.406 OA 
ENDROOT
BRANCH   2   6
HETATM    6  C   UNL     1     -11.006  15.928  67.210  1.00  0.00    -0.234 A  
HETATM    7  C   UNL     1     -10.398  15.936  65.943  1.00  0.00    -0.383 A  
HETATM    8  C   UNL     1     -10.566  14.867  65.061  1.00  0.00    -0.446 A  
HETATM    9  C   UNL     1     -11.346  13.775  65.434  1.00  0.00    -0.314 A  
HETATM   10  C   UNL     1     -11.954  13.748  66.690  1.00  0.00    -0.469 A  
HETATM   11  C   UNL     1     -11.783  14.818  67.576  1.00  0.00    -0.348 A  
HETATM   12  O   UNL     1     -12.389  14.751  68.805  1.00  0.00    -0.574 OA 
HETATM   13  H   UNL     1     -12.915  13.999  69.053  1.00  0.00     0.000 HD 
ENDBRANCH   2   6
TORSDOF 1
ENDMDL
MODEL       70
REMARK 921   NORMALIZED FREE ENERGY PREDICTED BY IDOCK:   -3.65 KCAL/MOL
REMARK 922        TOTAL FREE ENERGY PREDICTED BY IDOCK:   -4.09 KCAL/MOL
REMARK 923 INTER-LIGAND FREE ENERGY PREDICTED BY IDOCK:   -3.83 KCAL/MOL
REMARK 924 INTRA-LIGAND FREE ENERGY PREDICTED BY IDOCK:   -0.26 KCAL/MOL
REMARK 927      BINDING AFFINITY PREDICTED BY RF-SCORE:    0.00 PKD
ROOT
HETATM    1  N   UNL     1     -10.591   9.796  68.280  1.00  0.00    -0.220 N  
HETATM    2  C   UNL     1     -11.402  10.890  68.220  1.00  0.00    -0.308 C  
HETATM    3  H2  UNL     1     -10.213   9.397  67.420  1.00  0.00     0.000 HD 
HETATM    4  H1  UNL     1     -10.361   9.375  69.180  1.00  0.00     0.000 HD 
HETATM    5  O   UNL     1     -11.679  11.396  67.138  1.00  0.00    -0.556 OA 
ENDROOT
BRANCH   2   6
HETATM    6  C   UNL     1     -11.929  11.440  69.506  1.00  0.00    -0.409 A  
HETATM    7  C   UNL     1     -12.394  10.507  70.449  1.00  0.00    -0.409 A  
HETATM    8  C   UNL     1     -12.912  10.928  71.676  1.00  0.00    -0.569 A  
HETATM    9  C   UNL     1     -12.974  12.287  71.975  1.00  0.00    -0.375 A  
HETATM   10  C   UNL     1     -12.513  13.226  71.052  1.00  0.00    -0.422 A  
HETATM   11  C   UNL     1     -11.989  12.806  69.824  1.00  0.00    -0.292 A  
HETATM   12  O   UNL     1     -11.538  13.760  68.947  1.00  0.00    -0.272 OA 
HETATM   13  H   UNL     1     -11.579  14.685  69.162  1.00  0.00     0.000 HD 
ENDBRANCH   2   6
TORSDOF 1
ENDMDL
MODEL       71
REMARK 921   NORMALIZED FREE ENERGY PREDICTED BY IDOCK:   -3.65 KCAL/MOL
REMARK 922        TOTAL FREE ENERGY PREDICTED BY IDOCK:   -4.08 KCAL/MOL
REMARK 923 INTER-LIGAND FREE ENERGY PREDICTED BY IDOCK:   -3.90 KCAL/MOL
REMARK 924 INTRA-LIGAND FREE ENERGY PREDICTED BY IDOCK:   -0.18 KCAL/MOL
REMARK 927      BINDING AFFINITY PREDICTED BY RF-SCORE:    0.00 PKD
ROOT
HETATM    1  N   UNL     1     -10.060  14.457  65.086  1.00  0.00    -0.507 N  
HETATM    2  C   UNL     1     -11.307  14.156  65.547  1.00  0.00    -0.319 C  
HETATM    3  H2  UNL     1      -9.952  15.065  64.274  1.00  0.00     0.000 HD 
HETATM    4  H1  UNL     1      -9.234  14.077  65.550  1.00  0.00     0.000 HD 
HETATM    5  O   UNL     1     -12.299  14.613  64.989  1.00  0.00    -0.370 OA 
ENDROOT
BRANCH   2   6
HETATM    6  C   UNL     1     -11.414  13.264  66.741  1.00  0.00    -0.387 A  
HETATM    7  C   UNL     1     -10.994  11.933  66.575  1.00  0.00    -0.337 A  
HETATM    8  C   UNL     1     -11.065  11.023  67.632  1.00  0.00    -0.363 A  
HETATM    9  C   UNL     1     -11.558  11.431  68.869  1.00  0.00    -0.388 A  
HETATM   10  C   UNL     1     -11.976  12.750  69.053  1.00  0.00    -0.288 A  
HETATM   11  C   UNL     1     -11.901  13.664  67.995  1.00  0.00    -0.362 A  
HETATM   12  O   UNL     1     -12.313  14.954  68.218  1.00  0.00    -0.580 OA 
HETATM   13  H   UNL     1     -12.643  15.225  69.067  1.00  0.00     0.000 HD 
ENDBRANCH   2   6
TORSDOF 1
ENDMDL
MODEL       72
REMARK 921   NORMALIZED FREE ENERGY PREDICTED BY IDOCK:   -3.61 KCAL/MOL
REMARK 922        TOTAL FREE ENERGY PREDICTED BY IDOCK:   -4.05 KCAL/MOL
REMARK 923 INTER-LIGAND FREE ENERGY PREDICTED BY IDOCK:   -3.82 KCAL/MOL
REMARK 924 INTRA-LIGAND FREE ENERGY PREDICTED BY IDOCK:   -0.23 KCAL/MOL
REMARK 927      BINDING AFFINITY PREDICTED BY RF-SCORE:    0.00 PKD
ROOT
HETATM    1  N   UNL     1     -14.126   7.475  71.012  1.00  0.00    -0.643 N  
HETATM    2  C   UNL     1     -12.873   7.639  71.523  1.00  0.00    -0.344 C  
HETATM    3  H2  UNL     1     -14.859   8.146  71.242  1.00  0.00     0.000 HD 
HETATM    4  H1  UNL     1     -14.333   6.685  70.400  1.00  0.00     0.000 HD 
HETATM    5  O   UNL     1     -12.624   8.588  72.259  1.00  0.00    -0.359 OA 
ENDROOT
BRANCH   2   6
HETATM    6  C   UNL     1     -11.832   6.632  71.155  1.00  0.00    -0.414 A  
HETATM    7  C   UNL     1     -11.591   6.444  69.783  1.00  0.00    -0.397 A  
HETATM    8  C   UNL     1     -10.642   5.519  69.343  1.00  0.00    -0.349 A  
HETATM    9  C   UNL     1      -9.923   4.767  70.269  1.00  0.00    -0.320 A  
HETATM   10  C   UNL     1     -10.147   4.942  71.635  1.00  0.00    -0.266 A  
HETATM   11  C   UNL     1     -11.094   5.873  72.078  1.00  0.00    -0.274 A  
HETATM   12  O   UNL     1     -11.279   6.023  73.429  1.00  0.00    -0.455 OA 
HETATM   13  H   UNL     1     -10.780   5.509  74.054  1.00  0.00     0.000 HD 
ENDBRANCH   2   6
TORSDOF 1
ENDMDL
MODEL       73
REMARK 921   NORMALIZED FREE ENERGY PREDICTED BY IDOCK:   -3.61 KCAL/MOL
REMARK 922        TOTAL FREE ENERGY PREDICTED BY IDOCK:   -4.05 KCAL/MOL
REMARK 923 INTER-LIGAND FREE ENERGY PREDICTED BY IDOCK:   -3.80 KCAL/MOL
REMARK 924 INTRA-LIGAND FREE ENERGY PREDICTED BY IDOCK:   -0.25 KCAL/MOL
REMARK 927      BINDING AFFINITY PREDICTED BY RF-SCORE:    0.00 PKD
ROOT
HETATM    1  N   UNL     1     -10.035  20.191  66.284  1.00  0.00    -0.549 N  
HETATM    2  C   UNL     1      -9.339  19.020  66.284  1.00  0.00    -0.298 C  
HETATM    3  H2  UNL     1      -9.619  21.029  65.877  1.00  0.00     0.000 HD 
HETATM    4  H1  UNL     1     -10.971  20.233  66.689  1.00  0.00     0.000 HD 
HETATM    5  O   UNL     1      -8.214  18.969  65.797  1.00  0.00    -0.449 OA 
ENDROOT
BRANCH   2   6
HETATM    6  C   UNL     1      -9.992  17.819  66.888  1.00  0.00    -0.332 A  
HETATM    7  C   UNL     1     -10.139  16.694  66.058  1.00  0.00    -0.359 A  
HETATM    8  C   UNL     1     -10.745  15.529  66.532  1.00  0.00    -0.304 A  
HETATM    9  C   UNL     1     -11.214  15.473  67.842  1.00  0.00    -0.325 A  
HETATM   10  C   UNL     1     -11.074  16.579  68.681  1.00  0.00    -0.329 A  
HETATM   11  C   UNL     1     -10.462  17.746  68.209  1.00  0.00    -0.364 A  
HETATM   12  O   UNL     1     -10.334  18.809  69.067  1.00  0.00    -0.489 OA 
HETATM   13  H   UNL     1     -10.652  18.759  69.962  1.00  0.00     0.000 HD 
ENDBRANCH   2   6
TORSDOF 1
ENDMDL
MODEL       74
REMARK 921   NORMALIZED FREE ENERGY PREDICTED BY IDOCK:   -3.61 KCAL/MOL
REMARK 922        TOTAL FREE ENERGY PREDICTED BY IDOCK:   -4.05 KCAL/MOL
REMARK 923 INTER-LIGAND FREE ENERGY PREDICTED BY IDOCK:   -3.81 KCAL/MOL
REMARK 924 INTRA-LIGAND FREE ENERGY PREDICTED BY IDOCK:   -0.24 KCAL/MOL
REMARK 927      BINDING AFFINITY PREDICTED BY RF-SCORE:    0.00 PKD
ROOT
HETATM    1  N   UNL     1     -10.215  10.437  66.011  1.00  0.00    -0.243 N  
HETATM    2  C   UNL     1     -11.042  11.347  66.598  1.00  0.00    -0.271 C  
HETATM    3  H2  UNL     1     -10.144   9.494  66.396  1.00  0.00     0.000 HD 
HETATM    4  H1  UNL     1      -9.668  10.693  65.189  1.00  0.00     0.000 HD 
HETATM    5  O   UNL     1     -11.700  11.039  67.587  1.00  0.00    -0.576 OA 
ENDROOT
BRANCH   2   6
HETATM    6  C   UNL     1     -11.115  12.714  65.997  1.00  0.00    -0.321 A  
HETATM    7  C   UNL     1     -12.366  13.121  65.504  1.00  0.00    -0.529 A  
HETATM    8  C   UNL     1     -12.530  14.377  64.916  1.00  0.00    -0.368 A  
HETATM    9  C   UNL     1     -11.443  15.243  64.812  1.00  0.00    -0.364 A  
HETATM   10  C   UNL     1     -10.194  14.856  65.300  1.00  0.00    -0.404 A  
HETATM   11  C   UNL     1     -10.030  13.599  65.893  1.00  0.00    -0.291 A  
HETATM   12  O   UNL     1      -8.789  13.259  66.368  1.00  0.00    -0.441 OA 
HETATM   13  H   UNL     1      -8.054  13.858  66.298  1.00  0.00     0.000 HD 
ENDBRANCH   2   6
TORSDOF 1
ENDMDL
MODEL       75
REMARK 921   NORMALIZED FREE ENERGY PREDICTED BY IDOCK:   -3.61 KCAL/MOL
REMARK 922        TOTAL FREE ENERGY PREDICTED BY IDOCK:   -4.04 KCAL/MOL
REMARK 923 INTER-LIGAND FREE ENERGY PREDICTED BY IDOCK:   -3.79 KCAL/MOL
REMARK 924 INTRA-LIGAND FREE ENERGY PREDICTED BY IDOCK:   -0.25 KCAL/MOL
REMARK 927      BINDING AFFINITY PREDICTED BY RF-SCORE:    0.00 PKD
ROOT
HETATM    1  N   UNL     1     -11.215   4.580  65.197  1.00  0.00    -0.978 N  
HETATM    2  C   UNL     1     -10.065   4.538  65.927  1.00  0.00    -0.258 C  
HETATM    3  H2  UNL     1     -11.190   4.374  64.199  1.00  0.00     0.000 HD 
HETATM    4  H1  UNL     1     -12.100   4.816  65.646  1.00  0.00     0.000 HD 
HETATM    5  O   UNL     1      -9.000   4.254  65.388  1.00  0.00    -0.124 OA 
ENDROOT
BRANCH   2   6
HETATM    6  C   UNL     1     -10.152   4.844  67.387  1.00  0.00    -0.196 A  
HETATM    7  C   UNL     1      -9.480   3.968  68.258  1.00  0.00    -0.216 A  
HETATM    8  C   UNL     1      -9.513   4.169  69.639  1.00  0.00    -0.259 A  
HETATM    9  C   UNL     1     -10.219   5.246  70.169  1.00  0.00    -0.350 A  
HETATM   10  C   UNL     1     -10.889   6.127  69.319  1.00  0.00    -0.418 A  
HETATM   11  C   UNL     1     -10.853   5.930  67.934  1.00  0.00    -0.233 A  
HETATM   12  O   UNL     1     -11.517   6.823  67.131  1.00  0.00    -0.756 OA 
HETATM   13  H   UNL     1     -11.992   7.559  67.502  1.00  0.00     0.000 HD 
ENDBRANCH   2   6
TORSDOF 1
ENDMDL
MODEL       76
REMARK 921   NORMALIZED FREE ENERGY PREDICTED BY IDOCK:   -3.60 KCAL/MOL
REMARK 922        TOTAL FREE ENERGY PREDICTED BY IDOCK:   -4.03 KCAL/MOL
REMARK 923 INTER-LIGAND FREE ENERGY PREDICTED BY IDOCK:   -3.78 KCAL/MOL
REMARK 924 INTRA-LIGAND FREE ENERGY PREDICTED BY IDOCK:   -0.25 KCAL/MOL
REMARK 927      BINDING AFFINITY PREDICTED BY RF-SCORE:    0.00 PKD
ROOT
HETATM    1  N   UNL     1     -12.390  13.142  65.687  1.00  0.00    -0.462 N  
HETATM    2  C   UNL     1     -11.884  13.498  66.901  1.00  0.00    -0.407 C  
HETATM    3  H2  UNL     1     -12.892  12.260  65.585  1.00  0.00     0.000 HD 
HETATM    4  H1  UNL     1     -12.269  13.754  64.879  1.00  0.00     0.000 HD 
HETATM    5  O   UNL     1     -12.029  12.763  67.872  1.00  0.00    -0.346 OA 
ENDROOT
BRANCH   2   6
HETATM    6  C   UNL     1     -11.160  14.802  67.000  1.00  0.00    -0.333 A  
HETATM    7  C   UNL     1     -10.178  15.055  66.028  1.00  0.00    -0.318 A  
HETATM    8  C   UNL     1      -9.443  16.242  66.045  1.00  0.00    -0.369 A  
HETATM    9  C   UNL     1      -9.679  17.192  67.036  1.00  0.00    -0.265 A  
HETATM   10  C   UNL     1     -10.652  16.958  68.008  1.00  0.00    -0.367 A  
HETATM   11  C   UNL     1     -11.393  15.771  67.990  1.00  0.00    -0.310 A  
HETATM   12  O   UNL     1     -12.347  15.582  68.957  1.00  0.00    -0.607 OA 
HETATM   13  H   UNL     1     -12.506  16.238  69.627  1.00  0.00     0.000 HD 
ENDBRANCH   2   6
TORSDOF 1
ENDMDL
MODEL       77
REMARK 921   NORMALIZED FREE ENERGY PREDICTED BY IDOCK:   -3.59 KCAL/MOL
REMARK 922        TOTAL FREE ENERGY PREDICTED BY IDOCK:   -4.02 KCAL/MOL
REMARK 923 INTER-LIGAND FREE ENERGY PREDICTED BY IDOCK:   -3.77 KCAL/MOL
REMARK 924 INTRA-LIGAND FREE ENERGY PREDICTED BY IDOCK:   -0.25 KCAL/MOL
REMARK 927      BINDING AFFINITY PREDICTED BY RF-SCORE:    0.00 PKD
ROOT
HETATM    1  N   UNL     1     -10.238  19.226  68.212  1.00  0.00    -0.412 N  
HETATM    2  C   UNL     1      -9.839  18.683  67.028  1.00  0.00    -0.327 C  
HETATM    3  H2  UNL     1     -10.087  20.219  68.392  1.00  0.00     0.000 HD 
HETATM    4  H1  UNL     1     -10.688  18.644  68.920  1.00  0.00     0.000 HD 
HETATM    5  O   UNL     1      -9.298  19.383  66.177  1.00  0.00    -0.355 OA 
ENDROOT
BRANCH   2   6
HETATM    6  C   UNL     1     -10.085  17.225  66.810  1.00  0.00    -0.302 A  
HETATM    7  C   UNL     1      -9.704  16.358  67.848  1.00  0.00    -0.235 A  
HETATM    8  C   UNL     1      -9.887  14.979  67.732  1.00  0.00    -0.220 A  
HETATM    9  C   UNL     1     -10.451  14.447  66.574  1.00  0.00    -0.289 A  
HETATM   10  C   UNL     1     -10.837  15.294  65.534  1.00  0.00    -0.382 A  
HETATM   11  C   UNL     1     -10.659  16.678  65.652  1.00  0.00    -0.270 A  
HETATM   12  O   UNL     1     -11.060  17.477  64.612  1.00  0.00    -0.978 OA 
HETATM   13  H   UNL     1     -11.450  17.107  63.828  1.00  0.00     0.000 HD 
ENDBRANCH   2   6
TORSDOF 1
ENDMDL
MODEL       78
REMARK 921   NORMALIZED FREE ENERGY PREDICTED BY IDOCK:   -3.58 KCAL/MOL
REMARK 922        TOTAL FREE ENERGY PREDICTED BY IDOCK:   -4.01 KCAL/MOL
REMARK 923 INTER-LIGAND FREE ENERGY PREDICTED BY IDOCK:   -3.75 KCAL/MOL
REMARK 924 INTRA-LIGAND FREE ENERGY PREDICTED BY IDOCK:   -0.26 KCAL/MOL
REMARK 927      BINDING AFFINITY PREDICTED BY RF-SCORE:    0.00 PKD
ROOT
HETATM    1  N   UNL     1     -11.238  10.769  70.218  1.00  0.00    -0.430 N  
HETATM    2  C   UNL     1     -12.187  11.663  70.615  1.00  0.00    -0.366 C  
HETATM    3  H2  UNL     1     -11.285   9.802  70.542  1.00  0.00     0.000 HD 
HETATM    4  H1  UNL     1     -10.482  11.062  69.599  1.00  0.00     0.000 HD 
HETATM    5  O   UNL     1     -13.096  11.310  71.360  1.00  0.00    -0.388 OA 
ENDROOT
BRANCH   2   6
HETATM    6  C   UNL     1     -12.079  13.066  70.112  1.00  0.00    -0.377 A  
HETATM    7  C   UNL     1     -12.166  14.089  71.071  1.00  0.00    -0.430 A  
HETATM    8  C   UNL     1     -12.084  15.432  70.695  1.00  0.00    -0.412 A  
HETATM    9  C   UNL     1     -11.917  15.769  69.354  1.00  0.00    -0.321 A  
HETATM   10  C   UNL     1     -11.826  14.765  68.389  1.00  0.00    -0.319 A  
HETATM   11  C   UNL     1     -11.902  13.419  68.765  1.00  0.00    -0.351 A  
HETATM   12  O   UNL     1     -11.799  12.462  67.788  1.00  0.00    -0.361 OA 
HETATM   13  H   UNL     1     -11.680  12.701  66.876  1.00  0.00     0.000 HD 
ENDBRANCH   2   6
TORSDOF 1
ENDMDL
MODEL       79
REMARK 921   NORMALIZED FREE ENERGY PREDICTED BY IDOCK:   -3.57 KCAL/MOL
REMARK 922        TOTAL FREE ENERGY PREDICTED BY IDOCK:   -4.01 KCAL/MOL
REMARK 923 INTER-LIGAND FREE ENERGY PREDICTED BY IDOCK:   -3.76 KCAL/MOL
REMARK 924 INTRA-LIGAND FREE ENERGY PREDICTED BY IDOCK:   -0.25 KCAL/MOL
REMARK 927      BINDING AFFINITY PREDICTED BY RF-SCORE:    0.00 PKD
ROOT
HETATM    1  N   UNL     1     -10.693  11.106  66.101  1.00  0.00    -0.252 N  
HETATM    2  C   UNL     1     -11.626  12.097  66.167  1.00  0.00    -0.354 C  
HETATM    3  H2  UNL     1     -10.619  10.535  65.259  1.00  0.00     0.000 HD 
HETATM    4  H1  UNL     1     -10.069  10.933  66.889  1.00  0.00     0.000 HD 
HETATM    5  O   UNL     1     -12.377  12.305  65.220  1.00  0.00    -0.555 OA 
ENDROOT
BRANCH   2   6
HETATM    6  C   UNL     1     -11.695  12.909  67.421  1.00  0.00    -0.428 A  
HETATM    7  C   UNL     1     -11.762  12.198  68.631  1.00  0.00    -0.382 A  
HETATM    8  C   UNL     1     -11.837  12.871  69.852  1.00  0.00    -0.373 A  
HETATM    9  C   UNL     1     -11.848  14.263  69.880  1.00  0.00    -0.382 A  
HETATM   10  C   UNL     1     -11.779  14.985  68.687  1.00  0.00    -0.363 A  
HETATM   11  C   UNL     1     -11.699  14.312  67.463  1.00  0.00    -0.384 A  
HETATM   12  O   UNL     1     -11.623  15.057  66.313  1.00  0.00    -0.286 OA 
HETATM   13  H   UNL     1     -11.626  16.007  66.341  1.00  0.00     0.000 HD 
ENDBRANCH   2   6
TORSDOF 1
ENDMDL
MODEL       80
REMARK 921   NORMALIZED FREE ENERGY PREDICTED BY IDOCK:   -3.57 KCAL/MOL
REMARK 922        TOTAL FREE ENERGY PREDICTED BY IDOCK:   -4.01 KCAL/MOL
REMARK 923 INTER-LIGAND FREE ENERGY PREDICTED BY IDOCK:   -3.75 KCAL/MOL
REMARK 924 INTRA-LIGAND FREE ENERGY PREDICTED BY IDOCK:   -0.26 KCAL/MOL
REMARK 927      BINDING AFFINITY PREDICTED BY RF-SCORE:    0.00 PKD
ROOT
HETATM    1  N   UNL     1      -6.597  20.730  67.456  1.00  0.00    -0.309 N  
HETATM    2  C   UNL     1      -7.125  19.947  68.439  1.00  0.00    -0.295 C  
HETATM    3  H2  UNL     1      -5.729  21.239  67.625  1.00  0.00     0.000 HD 
HETATM    4  H1  UNL     1      -7.066  20.809  66.553  1.00  0.00     0.000 HD 
HETATM    5  O   UNL     1      -6.562  19.852  69.524  1.00  0.00    -0.335 OA 
ENDROOT
BRANCH   2   6
HETATM    6  C   UNL     1      -8.396  19.218  68.144  1.00  0.00    -0.358 A  
HETATM    7  C   UNL     1      -8.431  17.852  68.470  1.00  0.00    -0.303 A  
HETATM    8  C   UNL     1      -9.572  17.086  68.223  1.00  0.00    -0.273 A  
HETATM    9  C   UNL     1     -10.693  17.676  67.644  1.00  0.00    -0.318 A  
HETATM   10  C   UNL     1     -10.677  19.032  67.316  1.00  0.00    -0.556 A  
HETATM   11  C   UNL     1      -9.536  19.802  67.568  1.00  0.00    -0.344 A  
HETATM   12  O   UNL     1      -9.562  21.134  67.240  1.00  0.00    -0.660 OA 
HETATM   13  H   UNL     1     -10.333  21.529  66.850  1.00  0.00     0.000 HD 
ENDBRANCH   2   6
TORSDOF 1
ENDMDL
MODEL       81
REMARK 921   NORMALIZED FREE ENERGY PREDICTED BY IDOCK:   -3.55 KCAL/MOL
REMARK 922        TOTAL FREE ENERGY PREDICTED BY IDOCK:   -3.99 KCAL/MOL
REMARK 923 INTER-LIGAND FREE ENERGY PREDICTED BY IDOCK:   -3.74 KCAL/MOL
REMARK 924 INTRA-LIGAND FREE ENERGY PREDICTED BY IDOCK:   -0.25 KCAL/MOL
REMARK 927      BINDING AFFINITY PREDICTED BY RF-SCORE:    0.00 PKD
ROOT
HETATM    1  N   UNL     1     -10.077  20.296  65.750  1.00  0.00    -0.555 N  
HETATM    2  C   UNL     1      -9.974  19.656  66.949  1.00  0.00    -0.400 C  
HETATM    3  H2  UNL     1     -10.976  20.330  65.269  1.00  0.00     0.000 HD 
HETATM    4  H1  UNL     1      -9.259  20.741  65.333  1.00  0.00     0.000 HD 
HETATM    5  O   UNL     1     -10.957  19.121  67.452  1.00  0.00    -0.475 OA 
ENDROOT
BRANCH   2   6
HETATM    6  C   UNL     1      -8.638  19.636  67.618  1.00  0.00    -0.365 A  
HETATM    7  C   UNL     1      -7.770  20.703  67.329  1.00  0.00    -0.359 A  
HETATM    8  C   UNL     1      -6.497  20.766  67.899  1.00  0.00    -0.376 A  
HETATM    9  C   UNL     1      -6.073  19.760  68.765  1.00  0.00    -0.287 A  
HETATM   10  C   UNL     1      -6.923  18.695  69.066  1.00  0.00    -0.305 A  
HETATM   11  C   UNL     1      -8.201  18.634  68.499  1.00  0.00    -0.341 A  
HETATM   12  O   UNL     1      -9.010  17.575  68.826  1.00  0.00    -0.272 OA 
HETATM   13  H   UNL     1      -8.715  16.896  69.422  1.00  0.00     0.000 HD 
ENDBRANCH   2   6
TORSDOF 1
ENDMDL
MODEL       82
REMARK 921   NORMALIZED FREE ENERGY PREDICTED BY IDOCK:   -3.54 KCAL/MOL
REMARK 922        TOTAL FREE ENERGY PREDICTED BY IDOCK:   -3.97 KCAL/MOL
REMARK 923 INTER-LIGAND FREE ENERGY PREDICTED BY IDOCK:   -3.74 KCAL/MOL
REMARK 924 INTRA-LIGAND FREE ENERGY PREDICTED BY IDOCK:   -0.23 KCAL/MOL
REMARK 927      BINDING AFFINITY PREDICTED BY RF-SCORE:    0.00 PKD
ROOT
HETATM    1  N   UNL     1     -10.231  12.156  68.480  1.00  0.00    -0.242 N  
HETATM    2  C   UNL     1     -10.981  11.480  67.565  1.00  0.00    -0.255 C  
HETATM    3  H2  UNL     1      -9.970  11.703  69.356  1.00  0.00     0.000 HD 
HETATM    4  H1  UNL     1      -9.928  13.112  68.292  1.00  0.00     0.000 HD 
HETATM    5  O   UNL     1     -11.344  10.330  67.790  1.00  0.00    -0.322 OA 
ENDROOT
BRANCH   2   6
HETATM    6  C   UNL     1     -11.334  12.184  66.294  1.00  0.00    -0.411 A  
HETATM    7  C   UNL     1     -12.030  13.399  66.418  1.00  0.00    -0.457 A  
HETATM    8  C   UNL     1     -12.410  14.124  65.287  1.00  0.00    -0.469 A  
HETATM    9  C   UNL     1     -12.102  13.643  64.016  1.00  0.00    -0.474 A  
HETATM   10  C   UNL     1     -11.408  12.440  63.876  1.00  0.00    -0.502 A  
HETATM   11  C   UNL     1     -11.022  11.715  65.009  1.00  0.00    -0.273 A  
HETATM   12  O   UNL     1     -10.334  10.541  64.829  1.00  0.00    -0.339 OA 
HETATM   13  H   UNL     1     -10.123  10.223  63.958  1.00  0.00     0.000 HD 
ENDBRANCH   2   6
TORSDOF 1
ENDMDL
MODEL       83
REMARK 921   NORMALIZED FREE ENERGY PREDICTED BY IDOCK:   -3.53 KCAL/MOL
REMARK 922        TOTAL FREE ENERGY PREDICTED BY IDOCK:   -3.96 KCAL/MOL
REMARK 923 INTER-LIGAND FREE ENERGY PREDICTED BY IDOCK:   -3.71 KCAL/MOL
REMARK 924 INTRA-LIGAND FREE ENERGY PREDICTED BY IDOCK:   -0.26 KCAL/MOL
REMARK 927      BINDING AFFINITY PREDICTED BY RF-SCORE:    0.00 PKD
ROOT
HETATM    1  N   UNL     1      -8.669   8.440  72.734  1.00  0.00    -0.212 N  
HETATM    2  C   UNL     1      -9.347   8.428  71.553  1.00  0.00    -0.200 C  
HETATM    3  H2  UNL     1      -7.705   8.108  72.769  1.00  0.00     0.000 HD 
HETATM    4  H1  UNL     1      -9.121   8.779  73.584  1.00  0.00     0.000 HD 
HETATM    5  O   UNL     1      -8.804   8.021  70.531  1.00  0.00    -0.134 OA 
ENDROOT
BRANCH   2   6
HETATM    6  C   UNL     1     -10.756   8.927  71.551  1.00  0.00    -0.398 A  
HETATM    7  C   UNL     1     -11.063   9.950  70.637  1.00  0.00    -0.409 A  
HETATM    8  C   UNL     1     -12.351  10.485  70.569  1.00  0.00    -0.432 A  
HETATM    9  C   UNL     1     -13.349  10.007  71.415  1.00  0.00    -0.432 A  
HETATM   10  C   UNL     1     -13.062   8.990  72.327  1.00  0.00    -0.508 A  
HETATM   11  C   UNL     1     -11.773   8.449  72.393  1.00  0.00    -0.382 A  
HETATM   12  O   UNL     1     -11.532   7.445  73.296  1.00  0.00    -0.602 OA 
HETATM   13  H   UNL     1     -12.221   7.121  73.866  1.00  0.00     0.000 HD 
ENDBRANCH   2   6
TORSDOF 1
ENDMDL
MODEL       84
REMARK 921   NORMALIZED FREE ENERGY PREDICTED BY IDOCK:   -3.50 KCAL/MOL
REMARK 922        TOTAL FREE ENERGY PREDICTED BY IDOCK:   -3.93 KCAL/MOL
REMARK 923 INTER-LIGAND FREE ENERGY PREDICTED BY IDOCK:   -3.69 KCAL/MOL
REMARK 924 INTRA-LIGAND FREE ENERGY PREDICTED BY IDOCK:   -0.24 KCAL/MOL
REMARK 927      BINDING AFFINITY PREDICTED BY RF-SCORE:    0.00 PKD
ROOT
HETATM    1  N   UNL     1     -10.261  10.242  65.535  1.00  0.00    -0.270 N  
HETATM    2  C   UNL     1     -10.774  11.327  64.890  1.00  0.00    -0.271 C  
HETATM    3  H2  UNL     1     -10.034   9.399  65.007  1.00  0.00     0.000 HD 
HETATM    4  H1  UNL     1     -10.103  10.270  66.542  1.00  0.00     0.000 HD 
HETATM    5  O   UNL     1     -10.965  11.294  63.678  1.00  0.00    -0.385 OA 
ENDROOT
BRANCH   2   6
HETATM    6  C   UNL     1     -11.087  12.540  65.705  1.00  0.00    -0.338 A  
HETATM    7  C   UNL     1     -10.789  13.785  65.125  1.00  0.00    -0.349 A  
HETATM    8  C   UNL     1     -11.039  14.974  65.814  1.00  0.00    -0.346 A  
HETATM    9  C   UNL     1     -11.588  14.934  67.093  1.00  0.00    -0.327 A  
HETATM   10  C   UNL     1     -11.893  13.706  67.683  1.00  0.00    -0.404 A  
HETATM   11  C   UNL     1     -11.648  12.514  66.991  1.00  0.00    -0.368 A  
HETATM   12  O   UNL     1     -11.970  11.328  67.601  1.00  0.00    -0.634 OA 
HETATM   13  H   UNL     1     -12.350  11.311  68.473  1.00  0.00     0.000 HD 
ENDBRANCH   2   6
TORSDOF 1
ENDMDL
MODEL       85
REMARK 921   NORMALIZED FREE ENERGY PREDICTED BY IDOCK:   -3.50 KCAL/MOL
REMARK 922        TOTAL FREE ENERGY PREDICTED BY IDOCK:   -3.93 KCAL/MOL
REMARK 923 INTER-LIGAND FREE ENERGY PREDICTED BY IDOCK:   -3.71 KCAL/MOL
REMARK 924 INTRA-LIGAND FREE ENERGY PREDICTED BY IDOCK:   -0.22 KCAL/MOL
REMARK 927      BINDING AFFINITY PREDICTED BY RF-SCORE:    0.00 PKD
ROOT
HETATM    1  N   UNL     1     -11.417  14.755  71.635  1.00  0.00    -0.505 N  
HETATM    2  C   UNL     1     -12.254  13.808  71.125  1.00  0.00    -0.278 C  
HETATM    3  H2  UNL     1     -11.532  15.067  72.600  1.00  0.00     0.000 HD 
HETATM    4  H1  UNL     1     -10.676  15.152  71.057  1.00  0.00     0.000 HD 
HETATM    5  O   UNL     1     -13.145  13.330  71.819  1.00  0.00    -0.380 OA 
ENDROOT
BRANCH   2   6
HETATM    6  C   UNL     1     -12.043  13.381  69.708  1.00  0.00    -0.374 A  
HETATM    7  C   UNL     1     -12.123  14.384  68.727  1.00  0.00    -0.276 A  
HETATM    8  C   UNL     1     -11.949  14.079  67.376  1.00  0.00    -0.439 A  
HETATM    9  C   UNL     1     -11.695  12.766  66.986  1.00  0.00    -0.440 A  
HETATM   10  C   UNL     1     -11.610  11.757  67.948  1.00  0.00    -0.377 A  
HETATM   11  C   UNL     1     -11.779  12.063  69.303  1.00  0.00    -0.330 A  
HETATM   12  O   UNL     1     -11.679  11.046  70.218  1.00  0.00    -0.309 OA 
HETATM   13  H   UNL     1     -11.500  10.153  69.944  1.00  0.00     0.000 HD 
ENDBRANCH   2   6
TORSDOF 1
ENDMDL
MODEL       86
REMARK 921   NORMALIZED FREE ENERGY PREDICTED BY IDOCK:   -3.48 KCAL/MOL
REMARK 922        TOTAL FREE ENERGY PREDICTED BY IDOCK:   -3.91 KCAL/MOL
REMARK 923 INTER-LIGAND FREE ENERGY PREDICTED BY IDOCK:   -3.66 KCAL/MOL
REMARK 924 INTRA-LIGAND FREE ENERGY PREDICTED BY IDOCK:   -0.25 KCAL/MOL
REMARK 927      BINDING AFFINITY PREDICTED BY RF-SCORE:    0.00 PKD
ROOT
HETATM    1  N   UNL     1      -8.683  15.337  66.253  1.00  0.00    -0.455 N  
HETATM    2  C   UNL     1      -7.992  16.472  66.557  1.00  0.00    -0.310 C  
HETATM    3  H2  UNL     1      -8.193  14.535  65.858  1.00  0.00     0.000 HD 
HETATM    4  H1  UNL     1      -9.689  15.288  66.418  1.00  0.00     0.000 HD 
HETATM    5  O   UNL     1      -6.783  16.532  66.359  1.00  0.00    -0.202 OA 
ENDROOT
BRANCH   2   6
HETATM    6  C   UNL     1      -8.754  17.620  67.136  1.00  0.00    -0.252 A  
HETATM    7  C   UNL     1      -9.976  17.942  66.520  1.00  0.00    -0.357 A  
HETATM    8  C   UNL     1     -10.753  19.005  66.986  1.00  0.00    -0.516 A  
HETATM    9  C   UNL     1     -10.319  19.761  68.072  1.00  0.00    -0.567 A  
HETATM   10  C   UNL     1      -9.110  19.452  68.698  1.00  0.00    -0.423 A  
HETATM   11  C   UNL     1      -8.332  18.384  68.236  1.00  0.00    -0.303 A  
HETATM   12  O   UNL     1      -7.155  18.107  68.883  1.00  0.00    -0.273 OA 
HETATM   13  H   UNL     1      -6.869  18.625  69.627  1.00  0.00     0.000 HD 
ENDBRANCH   2   6
TORSDOF 1
ENDMDL
MODEL       87
REMARK 921   NORMALIZED FREE ENERGY PREDICTED BY IDOCK:   -3.47 KCAL/MOL
REMARK 922        TOTAL FREE ENERGY PREDICTED BY IDOCK:   -3.90 KCAL/MOL
REMARK 923 INTER-LIGAND FREE ENERGY PREDICTED BY IDOCK:   -3.68 KCAL/MOL
REMARK 924 INTRA-LIGAND FREE ENERGY PREDICTED BY IDOCK:   -0.22 KCAL/MOL
REMARK 927      BINDING AFFINITY PREDICTED BY RF-SCORE:    0.00 PKD
ROOT
HETATM    1  N   UNL     1      -8.387  20.649  66.990  1.00  0.00    -0.547 N  
HETATM    2  C   UNL     1      -8.326  19.607  67.866  1.00  0.00    -0.313 C  
HETATM    3  H2  UNL     1      -7.900  21.520  67.203  1.00  0.00     0.000 HD 
HETATM    4  H1  UNL     1      -8.917  20.562  66.122  1.00  0.00     0.000 HD 
HETATM    5  O   UNL     1      -7.689  19.711  68.909  1.00  0.00    -0.350 OA 
ENDROOT
BRANCH   2   6
HETATM    6  C   UNL     1      -9.053  18.351  67.509  1.00  0.00    -0.278 A  
HETATM    7  C   UNL     1     -10.157  18.010  68.308  1.00  0.00    -0.390 A  
HETATM    8  C   UNL     1     -10.893  16.850  68.056  1.00  0.00    -0.338 A  
HETATM    9  C   UNL     1     -10.533  16.014  67.003  1.00  0.00    -0.307 A  
HETATM   10  C   UNL     1      -9.441  16.338  66.197  1.00  0.00    -0.373 A  
HETATM   11  C   UNL     1      -8.705  17.503  66.445  1.00  0.00    -0.242 A  
HETATM   12  O   UNL     1      -7.644  17.792  65.625  1.00  0.00    -0.541 OA 
HETATM   13  H   UNL     1      -7.409  17.218  64.904  1.00  0.00     0.000 HD 
ENDBRANCH   2   6
TORSDOF 1
ENDMDL
MODEL       88
REMARK 921   NORMALIZED FREE ENERGY PREDICTED BY IDOCK:   -3.46 KCAL/MOL
REMARK 922        TOTAL FREE ENERGY PREDICTED BY IDOCK:   -3.89 KCAL/MOL
REMARK 923 INTER-LIGAND FREE ENERGY PREDICTED BY IDOCK:   -3.67 KCAL/MOL
REMARK 924 INTRA-LIGAND FREE ENERGY PREDICTED BY IDOCK:   -0.22 KCAL/MOL
REMARK 927      BINDING AFFINITY PREDICTED BY RF-SCORE:    0.00 PKD
ROOT
HETATM    1  N   UNL     1      -8.697  13.738  66.983  1.00  0.00    -0.317 N  
HETATM    2  C   UNL     1      -9.822  12.983  67.130  1.00  0.00    -0.230 C  
HETATM    3  H2  UNL     1      -8.163  14.018  67.806  1.00  0.00     0.000 HD 
HETATM    4  H1  UNL     1      -8.388  14.025  66.054  1.00  0.00     0.000 HD 
HETATM    5  O   UNL     1     -10.194  12.638  68.247  1.00  0.00    -0.229 OA 
ENDROOT
BRANCH   2   6
HETATM    6  C   UNL     1     -10.569  12.595  65.895  1.00  0.00    -0.297 A  
HETATM    7  C   UNL     1     -11.841  13.167  65.720  1.00  0.00    -0.442 A  
HETATM    8  C   UNL     1     -12.617  12.858  64.601  1.00  0.00    -0.459 A  
HETATM    9  C   UNL     1     -12.133  11.970  63.643  1.00  0.00    -0.627 A  
HETATM   10  C   UNL     1     -10.871  11.395  63.799  1.00  0.00    -0.468 A  
HETATM   11  C   UNL     1     -10.090  11.708  64.917  1.00  0.00    -0.260 A  
HETATM   12  O   UNL     1      -8.851  11.130  65.031  1.00  0.00    -0.341 OA 
HETATM   13  H   UNL     1      -8.526  10.529  64.369  1.00  0.00     0.000 HD 
ENDBRANCH   2   6
TORSDOF 1
ENDMDL
MODEL       89
REMARK 921   NORMALIZED FREE ENERGY PREDICTED BY IDOCK:   -3.46 KCAL/MOL
REMARK 922        TOTAL FREE ENERGY PREDICTED BY IDOCK:   -3.89 KCAL/MOL
REMARK 923 INTER-LIGAND FREE ENERGY PREDICTED BY IDOCK:   -3.63 KCAL/MOL
REMARK 924 INTRA-LIGAND FREE ENERGY PREDICTED BY IDOCK:   -0.25 KCAL/MOL
REMARK 927      BINDING AFFINITY PREDICTED BY RF-SCORE:    0.00 PKD
ROOT
HETATM    1  N   UNL     1     -10.660  19.594  65.956  1.00  0.00    -0.503 N  
HETATM    2  C   UNL     1      -9.886  18.741  66.683  1.00  0.00    -0.356 C  
HETATM    3  H2  UNL     1     -11.519  19.255  65.522  1.00  0.00     0.000 HD 
HETATM    4  H1  UNL     1     -10.385  20.570  65.844  1.00  0.00     0.000 HD 
HETATM    5  O   UNL     1     -10.217  17.567  66.818  1.00  0.00    -0.306 OA 
ENDROOT
BRANCH   2   6
HETATM    6  C   UNL     1      -8.639  19.284  67.302  1.00  0.00    -0.319 A  
HETATM    7  C   UNL     1      -8.394  18.935  68.641  1.00  0.00    -0.384 A  
HETATM    8  C   UNL     1      -7.259  19.403  69.306  1.00  0.00    -0.336 A  
HETATM    9  C   UNL     1      -6.354  20.227  68.642  1.00  0.00    -0.345 A  
HETATM   10  C   UNL     1      -6.579  20.581  67.311  1.00  0.00    -0.311 A  
HETATM   11  C   UNL     1      -7.714  20.109  66.641  1.00  0.00    -0.295 A  
HETATM   12  O   UNL     1      -7.896  20.472  65.331  1.00  0.00    -0.477 OA 
HETATM   13  H   UNL     1      -7.270  21.030  64.883  1.00  0.00     0.000 HD 
ENDBRANCH   2   6
TORSDOF 1
ENDMDL
MODEL       90
REMARK 921   NORMALIZED FREE ENERGY PREDICTED BY IDOCK:   -3.44 KCAL/MOL
REMARK 922        TOTAL FREE ENERGY PREDICTED BY IDOCK:   -3.86 KCAL/MOL
REMARK 923 INTER-LIGAND FREE ENERGY PREDICTED BY IDOCK:   -3.62 KCAL/MOL
REMARK 924 INTRA-LIGAND FREE ENERGY PREDICTED BY IDOCK:   -0.24 KCAL/MOL
REMARK 927      BINDING AFFINITY PREDICTED BY RF-SCORE:    0.00 PKD
ROOT
HETATM    1  N   UNL     1      -6.126  20.675  68.561  1.00  0.00    -0.327 N  
HETATM    2  C   UNL     1      -6.650  19.417  68.535  1.00  0.00    -0.256 C  
HETATM    3  H2  UNL     1      -5.167  20.817  68.878  1.00  0.00     0.000 HD 
HETATM    4  H1  UNL     1      -6.688  21.473  68.265  1.00  0.00     0.000 HD 
HETATM    5  O   UNL     1      -5.975  18.457  68.890  1.00  0.00    -0.199 OA 
ENDROOT
BRANCH   2   6
HETATM    6  C   UNL     1      -8.058  19.257  68.059  1.00  0.00    -0.341 A  
HETATM    7  C   UNL     1      -8.612  20.337  67.349  1.00  0.00    -0.420 A  
HETATM    8  C   UNL     1      -9.923  20.283  66.873  1.00  0.00    -0.592 A  
HETATM    9  C   UNL     1     -10.700  19.150  67.102  1.00  0.00    -0.567 A  
HETATM   10  C   UNL     1     -10.165  18.067  67.802  1.00  0.00    -0.385 A  
HETATM   11  C   UNL     1      -8.849  18.118  68.275  1.00  0.00    -0.283 A  
HETATM   12  O   UNL     1      -8.357  17.030  68.951  1.00  0.00    -0.252 OA 
HETATM   13  H   UNL     1      -8.893  16.259  69.098  1.00  0.00     0.000 HD 
ENDBRANCH   2   6
TORSDOF 1
ENDMDL
MODEL       91
REMARK 921   NORMALIZED FREE ENERGY PREDICTED BY IDOCK:   -3.43 KCAL/MOL
REMARK 922        TOTAL FREE ENERGY PREDICTED BY IDOCK:   -3.85 KCAL/MOL
REMARK 923 INTER-LIGAND FREE ENERGY PREDICTED BY IDOCK:   -3.61 KCAL/MOL
REMARK 924 INTRA-LIGAND FREE ENERGY PREDICTED BY IDOCK:   -0.24 KCAL/MOL
REMARK 927      BINDING AFFINITY PREDICTED BY RF-SCORE:    0.00 PKD
ROOT
HETATM    1  N   UNL     1     -12.518  14.445  69.314  1.00  0.00    -0.549 N  
HETATM    2  C   UNL     1     -11.695  15.511  69.520  1.00  0.00    -0.365 C  
HETATM    3  H2  UNL     1     -12.995  14.012  70.105  1.00  0.00     0.000 HD 
HETATM    4  H1  UNL     1     -12.659  14.079  68.372  1.00  0.00     0.000 HD 
HETATM    5  O   UNL     1     -11.525  15.952  70.652  1.00  0.00    -0.342 OA 
ENDROOT
BRANCH   2   6
HETATM    6  C   UNL     1     -11.021  16.114  68.330  1.00  0.00    -0.341 A  
HETATM    7  C   UNL     1     -10.943  15.316  67.176  1.00  0.00    -0.331 A  
HETATM    8  C   UNL     1     -10.324  15.791  66.018  1.00  0.00    -0.356 A  
HETATM    9  C   UNL     1      -9.772  17.069  65.999  1.00  0.00    -0.243 A  
HETATM   10  C   UNL     1      -9.842  17.876  67.135  1.00  0.00    -0.308 A  
HETATM   11  C   UNL     1     -10.467  17.404  68.295  1.00  0.00    -0.385 A  
HETATM   12  O   UNL     1     -10.524  18.231  69.388  1.00  0.00    -0.389 OA 
HETATM   13  H   UNL     1     -10.149  19.104  69.365  1.00  0.00     0.000 HD 
ENDBRANCH   2   6
TORSDOF 1
ENDMDL
MODEL       92
REMARK 921   NORMALIZED FREE ENERGY PREDICTED BY IDOCK:   -3.43 KCAL/MOL
REMARK 922        TOTAL FREE ENERGY PREDICTED BY IDOCK:   -3.85 KCAL/MOL
REMARK 923 INTER-LIGAND FREE ENERGY PREDICTED BY IDOCK:   -3.60 KCAL/MOL
REMARK 924 INTRA-LIGAND FREE ENERGY PREDICTED BY IDOCK:   -0.26 KCAL/MOL
REMARK 927      BINDING AFFINITY PREDICTED BY RF-SCORE:    0.00 PKD
ROOT
HETATM    1  N   UNL     1      -8.162  16.012  69.103  1.00  0.00    -0.238 N  
HETATM    2  C   UNL     1      -7.761  17.292  68.858  1.00  0.00    -0.221 C  
HETATM    3  H2  UNL     1      -7.560  15.386  69.638  1.00  0.00     0.000 HD 
HETATM    4  H1  UNL     1      -9.061  15.679  68.754  1.00  0.00     0.000 HD 
HETATM    5  O   UNL     1      -6.680  17.693  69.277  1.00  0.00    -0.254 OA 
ENDROOT
BRANCH   2   6
HETATM    6  C   UNL     1      -8.678  18.173  68.073  1.00  0.00    -0.276 A  
HETATM    7  C   UNL     1      -8.112  18.875  66.995  1.00  0.00    -0.272 A  
HETATM    8  C   UNL     1      -8.889  19.728  66.209  1.00  0.00    -0.417 A  
HETATM    9  C   UNL     1     -10.242  19.894  66.492  1.00  0.00    -0.611 A  
HETATM   10  C   UNL     1     -10.822  19.202  67.556  1.00  0.00    -0.512 A  
HETATM   11  C   UNL     1     -10.046  18.342  68.342  1.00  0.00    -0.391 A  
HETATM   12  O   UNL     1     -10.654  17.673  69.373  1.00  0.00    -0.404 OA 
HETATM   13  H   UNL     1     -11.580  17.787  69.555  1.00  0.00     0.000 HD 
ENDBRANCH   2   6
TORSDOF 1
ENDMDL
MODEL       93
REMARK 921   NORMALIZED FREE ENERGY PREDICTED BY IDOCK:   -3.42 KCAL/MOL
REMARK 922        TOTAL FREE ENERGY PREDICTED BY IDOCK:   -3.85 KCAL/MOL
REMARK 923 INTER-LIGAND FREE ENERGY PREDICTED BY IDOCK:   -3.59 KCAL/MOL
REMARK 924 INTRA-LIGAND FREE ENERGY PREDICTED BY IDOCK:   -0.25 KCAL/MOL
REMARK 927      BINDING AFFINITY PREDICTED BY RF-SCORE:    0.00 PKD
ROOT
HETATM    1  N   UNL     1     -10.227   9.555  69.052  1.00  0.00    -0.192 N  
HETATM    2  C   UNL     1     -11.110  10.476  69.531  1.00  0.00    -0.268 C  
HETATM    3  H2  UNL     1     -10.000   8.732  69.610  1.00  0.00     0.000 HD 
HETATM    4  H1  UNL     1      -9.793   9.686  68.138  1.00  0.00     0.000 HD 
HETATM    5  O   UNL     1     -11.632  10.320  70.630  1.00  0.00    -0.297 OA 
ENDROOT
BRANCH   2   6
HETATM    6  C   UNL     1     -11.412  11.664  68.676  1.00  0.00    -0.349 A  
HETATM    7  C   UNL     1     -11.330  11.479  67.285  1.00  0.00    -0.359 A  
HETATM    8  C   UNL     1     -11.587  12.534  66.406  1.00  0.00    -0.449 A  
HETATM    9  C   UNL     1     -11.927  13.788  66.906  1.00  0.00    -0.460 A  
HETATM   10  C   UNL     1     -12.017  13.989  68.285  1.00  0.00    -0.384 A  
HETATM   11  C   UNL     1     -11.765  12.932  69.166  1.00  0.00    -0.324 A  
HETATM   12  O   UNL     1     -11.872  13.166  70.514  1.00  0.00    -0.510 OA 
HETATM   13  H   UNL     1     -12.111  14.024  70.846  1.00  0.00     0.000 HD 
ENDBRANCH   2   6
TORSDOF 1
ENDMDL
MODEL       94
REMARK 921   NORMALIZED FREE ENERGY PREDICTED BY IDOCK:   -3.39 KCAL/MOL
REMARK 922        TOTAL FREE ENERGY PREDICTED BY IDOCK:   -3.82 KCAL/MOL
REMARK 923 INTER-LIGAND FREE ENERGY PREDICTED BY IDOCK:   -3.56 KCAL/MOL
REMARK 924 INTRA-LIGAND FREE ENERGY PREDICTED BY IDOCK:   -0.26 KCAL/MOL
REMARK 927      BINDING AFFINITY PREDICTED BY RF-SCORE:    0.00 PKD
ROOT
HETATM    1  N   UNL     1     -11.449  11.505  67.674  1.00  0.00    -0.294 N  
HETATM    2  C   UNL     1     -11.776  11.829  68.957  1.00  0.00    -0.328 C  
HETATM    3  H2  UNL     1     -11.484  12.219  66.946  1.00  0.00     0.000 HD 
HETATM    4  H1  UNL     1     -11.170  10.552  67.439  1.00  0.00     0.000 HD 
HETATM    5  O   UNL     1     -12.112  12.974  69.240  1.00  0.00    -0.278 OA 
ENDROOT
BRANCH   2   6
HETATM    6  C   UNL     1     -11.707  10.750  69.989  1.00  0.00    -0.417 A  
HETATM    7  C   UNL     1     -12.848  10.566  70.788  1.00  0.00    -0.454 A  
HETATM    8  C   UNL     1     -12.874   9.588  71.785  1.00  0.00    -0.496 A  
HETATM    9  C   UNL     1     -11.758   8.782  71.996  1.00  0.00    -0.442 A  
HETATM   10  C   UNL     1     -10.618   8.948  71.209  1.00  0.00    -0.351 A  
HETATM   11  C   UNL     1     -10.592   9.925  70.207  1.00  0.00    -0.301 A  
HETATM   12  O   UNL     1      -9.456  10.051  69.449  1.00  0.00    -0.198 OA 
HETATM   13  H   UNL     1      -8.701   9.493  69.596  1.00  0.00     0.000 HD 
ENDBRANCH   2   6
TORSDOF 1
ENDMDL
MODEL       95
REMARK 921   NORMALIZED FREE ENERGY PREDICTED BY IDOCK:   -3.39 KCAL/MOL
REMARK 922        TOTAL FREE ENERGY PREDICTED BY IDOCK:   -3.81 KCAL/MOL
REMARK 923 INTER-LIGAND FREE ENERGY PREDICTED BY IDOCK:   -3.56 KCAL/MOL
REMARK 924 INTRA-LIGAND FREE ENERGY PREDICTED BY IDOCK:   -0.26 KCAL/MOL
REMARK 927      BINDING AFFINITY PREDICTED BY RF-SCORE:    0.00 PKD
ROOT
HETATM    1  N   UNL     1     -10.694   8.528  68.202  1.00  0.00    -0.439 N  
HETATM    2  C   UNL     1     -10.437   9.238  69.337  1.00  0.00    -0.219 C  
HETATM    3  H2  UNL     1      -9.979   8.453  67.478  1.00  0.00     0.000 HD 
HETATM    4  H1  UNL     1     -11.597   8.072  68.073  1.00  0.00     0.000 HD 
HETATM    5  O   UNL     1      -9.351   9.786  69.492  1.00  0.00    -0.185 OA 
ENDROOT
BRANCH   2   6
HETATM    6  C   UNL     1     -11.515   9.316  70.370  1.00  0.00    -0.255 A  
HETATM    7  C   UNL     1     -11.921  10.603  70.763  1.00  0.00    -0.477 A  
HETATM    8  C   UNL     1     -12.915  10.776  71.728  1.00  0.00    -0.568 A  
HETATM    9  C   UNL     1     -13.514   9.665  72.315  1.00  0.00    -0.488 A  
HETATM   10  C   UNL     1     -13.126   8.379  71.935  1.00  0.00    -0.383 A  
HETATM   11  C   UNL     1     -12.133   8.204  70.963  1.00  0.00    -0.207 A  
HETATM   12  O   UNL     1     -11.785   6.925  70.610  1.00  0.00    -0.338 OA 
HETATM   13  H   UNL     1     -12.204   6.173  71.012  1.00  0.00     0.000 HD 
ENDBRANCH   2   6
TORSDOF 1
ENDMDL
MODEL       96
REMARK 921   NORMALIZED FREE ENERGY PREDICTED BY IDOCK:   -3.39 KCAL/MOL
REMARK 922        TOTAL FREE ENERGY PREDICTED BY IDOCK:   -3.81 KCAL/MOL
REMARK 923 INTER-LIGAND FREE ENERGY PREDICTED BY IDOCK:   -3.58 KCAL/MOL
REMARK 924 INTRA-LIGAND FREE ENERGY PREDICTED BY IDOCK:   -0.23 KCAL/MOL
REMARK 927      BINDING AFFINITY PREDICTED BY RF-SCORE:    0.00 PKD
ROOT
HETATM    1  N   UNL     1     -13.222   7.263  70.714  1.00  0.00    -0.556 N  
HETATM    2  C   UNL     1     -11.907   6.934  70.583  1.00  0.00    -0.368 C  
HETATM    3  H2  UNL     1     -13.847   7.184  69.911  1.00  0.00     0.000 HD 
HETATM    4  H1  UNL     1     -13.585   7.587  71.611  1.00  0.00     0.000 HD 
HETATM    5  O   UNL     1     -11.470   6.544  69.505  1.00  0.00    -0.371 OA 
ENDROOT
BRANCH   2   6
HETATM    6  C   UNL     1     -11.032   7.062  71.788  1.00  0.00    -0.263 A  
HETATM    7  C   UNL     1     -10.012   8.027  71.729  1.00  0.00    -0.245 A  
HETATM    8  C   UNL     1      -9.140   8.213  72.804  1.00  0.00    -0.328 A  
HETATM    9  C   UNL     1      -9.273   7.434  73.950  1.00  0.00    -0.312 A  
HETATM   10  C   UNL     1     -10.282   6.473  74.027  1.00  0.00    -0.374 A  
HETATM   11  C   UNL     1     -11.160   6.289  72.953  1.00  0.00    -0.236 A  
HETATM   12  O   UNL     1     -12.144   5.340  73.070  1.00  0.00    -0.528 OA 
HETATM   13  H   UNL     1     -12.231   4.816  73.859  1.00  0.00     0.000 HD 
ENDBRANCH   2   6
TORSDOF 1
ENDMDL
MODEL       97
REMARK 921   NORMALIZED FREE ENERGY PREDICTED BY IDOCK:   -3.37 KCAL/MOL
REMARK 922        TOTAL FREE ENERGY PREDICTED BY IDOCK:   -3.80 KCAL/MOL
REMARK 923 INTER-LIGAND FREE ENERGY PREDICTED BY IDOCK:   -3.54 KCAL/MOL
REMARK 924 INTRA-LIGAND FREE ENERGY PREDICTED BY IDOCK:   -0.26 KCAL/MOL
REMARK 927      BINDING AFFINITY PREDICTED BY RF-SCORE:    0.00 PKD
ROOT
HETATM    1  N   UNL     1     -10.629  14.014  66.799  1.00  0.00    -0.276 N  
HETATM    2  C   UNL     1     -11.202  12.797  66.576  1.00  0.00    -0.307 C  
HETATM    3  H2  UNL     1     -11.035  14.646  67.490  1.00  0.00     0.000 HD 
HETATM    4  H1  UNL     1      -9.798  14.295  66.279  1.00  0.00     0.000 HD 
HETATM    5  O   UNL     1     -12.201  12.459  67.202  1.00  0.00    -0.492 OA 
ENDROOT
BRANCH   2   6
HETATM    6  C   UNL     1     -10.570  11.905  65.557  1.00  0.00    -0.313 A  
HETATM    7  C   UNL     1     -10.259  10.597  65.968  1.00  0.00    -0.309 A  
HETATM    8  C   UNL     1      -9.660   9.694  65.088  1.00  0.00    -0.324 A  
HETATM    9  C   UNL     1      -9.360  10.087  63.785  1.00  0.00    -0.307 A  
HETATM   10  C   UNL     1      -9.665  11.381  63.360  1.00  0.00    -0.385 A  
HETATM   11  C   UNL     1     -10.271  12.285  64.239  1.00  0.00    -0.330 A  
HETATM   12  O   UNL     1     -10.563  13.545  63.780  1.00  0.00    -0.495 OA 
HETATM   13  H   UNL     1     -10.361  13.802  62.888  1.00  0.00     0.000 HD 
ENDBRANCH   2   6
TORSDOF 1
ENDMDL
MODEL       98
REMARK 921   NORMALIZED FREE ENERGY PREDICTED BY IDOCK:   -3.36 KCAL/MOL
REMARK 922        TOTAL FREE ENERGY PREDICTED BY IDOCK:   -3.79 KCAL/MOL
REMARK 923 INTER-LIGAND FREE ENERGY PREDICTED BY IDOCK:   -3.53 KCAL/MOL
REMARK 924 INTRA-LIGAND FREE ENERGY PREDICTED BY IDOCK:   -0.26 KCAL/MOL
REMARK 927      BINDING AFFINITY PREDICTED BY RF-SCORE:    0.00 PKD
ROOT
HETATM    1  N   UNL     1      -5.815  18.816  66.744  1.00  0.00    -0.157 N  
HETATM    2  C   UNL     1      -6.633  18.563  67.805  1.00  0.00    -0.214 C  
HETATM    3  H2  UNL     1      -4.808  18.686  66.837  1.00  0.00     0.000 HD 
HETATM    4  H1  UNL     1      -6.207  19.134  65.857  1.00  0.00     0.000 HD 
HETATM    5  O   UNL     1      -6.162  18.181  68.871  1.00  0.00    -0.205 OA 
ENDROOT
BRANCH   2   6
HETATM    6  C   UNL     1      -8.102  18.765  67.618  1.00  0.00    -0.270 A  
HETATM    7  C   UNL     1      -8.756  19.564  68.572  1.00  0.00    -0.388 A  
HETATM    8  C   UNL     1     -10.129  19.801  68.485  1.00  0.00    -0.555 A  
HETATM    9  C   UNL     1     -10.868  19.242  67.445  1.00  0.00    -0.554 A  
HETATM   10  C   UNL     1     -10.233  18.448  66.488  1.00  0.00    -0.423 A  
HETATM   11  C   UNL     1      -8.856  18.214  66.570  1.00  0.00    -0.271 A  
HETATM   12  O   UNL     1      -8.268  17.436  65.605  1.00  0.00    -0.491 OA 
HETATM   13  H   UNL     1      -8.779  17.063  64.895  1.00  0.00     0.000 HD 
ENDBRANCH   2   6
TORSDOF 1
ENDMDL
MODEL       99
REMARK 921   NORMALIZED FREE ENERGY PREDICTED BY IDOCK:   -3.33 KCAL/MOL
REMARK 922        TOTAL FREE ENERGY PREDICTED BY IDOCK:   -3.75 KCAL/MOL
REMARK 923 INTER-LIGAND FREE ENERGY PREDICTED BY IDOCK:   -3.52 KCAL/MOL
REMARK 924 INTRA-LIGAND FREE ENERGY PREDICTED BY IDOCK:   -0.23 KCAL/MOL
REMARK 927      BINDING AFFINITY PREDICTED BY RF-SCORE:    0.00 PKD
ROOT
HETATM    1  N   UNL     1     -10.628  12.635  66.135  1.00  0.00    -0.254 N  
HETATM    2  C   UNL     1     -10.936  11.661  67.037  1.00  0.00    -0.288 C  
HETATM    3  H2  UNL     1     -10.267  12.380  65.215  1.00  0.00     0.000 HD 
HETATM    4  H1  UNL     1     -10.756  13.618  66.376  1.00  0.00     0.000 HD 
HETATM    5  O   UNL     1     -10.781  10.479  66.747  1.00  0.00    -0.240 OA 
ENDROOT
BRANCH   2   6
HETATM    6  C   UNL     1     -11.464  12.084  68.369  1.00  0.00    -0.356 A  
HETATM    7  C   UNL     1     -11.755  13.449  68.529  1.00  0.00    -0.392 A  
HETATM    8  C   UNL     1     -12.244  13.940  69.742  1.00  0.00    -0.388 A  
HETATM    9  C   UNL     1     -12.446  13.072  70.812  1.00  0.00    -0.384 A  
HETATM   10  C   UNL     1     -12.165  11.712  70.670  1.00  0.00    -0.461 A  
HETATM   11  C   UNL     1     -11.680  11.218  69.453  1.00  0.00    -0.339 A  
HETATM   12  O   UNL     1     -11.424   9.874  69.350  1.00  0.00    -0.414 OA 
HETATM   13  H   UNL     1     -11.570   9.288  70.084  1.00  0.00     0.000 HD 
ENDBRANCH   2   6
TORSDOF 1
ENDMDL
MODEL      100
REMARK 921   NORMALIZED FREE ENERGY PREDICTED BY IDOCK:   -3.32 KCAL/MOL
REMARK 922        TOTAL FREE ENERGY PREDICTED BY IDOCK:   -3.74 KCAL/MOL
REMARK 923 INTER-LIGAND FREE ENERGY PREDICTED BY IDOCK:   -3.49 KCAL/MOL
REMARK 924 INTRA-LIGAND FREE ENERGY PREDICTED BY IDOCK:   -0.25 KCAL/MOL
REMARK 927      BINDING AFFINITY PREDICTED BY RF-SCORE:    0.00 PKD
ROOT
HETATM    1  N   UNL     1     -13.169   7.957  72.387  1.00  0.00    -0.524 N  
HETATM    2  C   UNL     1     -12.174   7.979  71.455  1.00  0.00    -0.299 C  
HETATM    3  H2  UNL     1     -13.738   8.789  72.540  1.00  0.00     0.000 HD 
HETATM    4  H1  UNL     1     -13.347   7.112  72.930  1.00  0.00     0.000 HD 
HETATM    5  O   UNL     1     -11.960   8.994  70.802  1.00  0.00    -0.264 OA 
ENDROOT
BRANCH   2   6
HETATM    6  C   UNL     1     -11.369   6.734  71.264  1.00  0.00    -0.333 A  
HETATM    7  C   UNL     1     -10.863   6.123  72.424  1.00  0.00    -0.281 A  
HETATM    8  C   UNL     1     -10.093   4.961  72.344  1.00  0.00    -0.240 A  
HETATM    9  C   UNL     1      -9.816   4.395  71.102  1.00  0.00    -0.258 A  
HETATM   10  C   UNL     1     -10.314   4.986  69.940  1.00  0.00    -0.298 A  
HETATM   11  C   UNL     1     -11.090   6.148  70.019  1.00  0.00    -0.392 A  
HETATM   12  O   UNL     1     -11.568   6.694  68.854  1.00  0.00    -0.601 OA 
HETATM   13  H   UNL     1     -11.379   6.297  68.011  1.00  0.00     0.000 HD 
ENDBRANCH   2   6
TORSDOF 1
ENDMDL
MODEL      101
REMARK 921   NORMALIZED FREE ENERGY PREDICTED BY IDOCK:   -3.32 KCAL/MOL
REMARK 922        TOTAL FREE ENERGY PREDICTED BY IDOCK:   -3.74 KCAL/MOL
REMARK 923 INTER-LIGAND FREE ENERGY PREDICTED BY IDOCK:   -3.52 KCAL/MOL
REMARK 924 INTRA-LIGAND FREE ENERGY PREDICTED BY IDOCK:   -0.21 KCAL/MOL
REMARK 927      BINDING AFFINITY PREDICTED BY RF-SCORE:    0.00 PKD
ROOT
HETATM    1  N   UNL     1     -10.885  17.013  67.399  1.00  0.00    -0.231 N  
HETATM    2  C   UNL     1     -10.186  17.551  66.360  1.00  0.00    -0.354 C  
HETATM    3  H2  UNL     1     -11.741  16.489  67.216  1.00  0.00     0.000 HD 
HETATM    4  H1  UNL     1     -10.556  17.133  68.357  1.00  0.00     0.000 HD 
HETATM    5  O   UNL     1     -10.580  17.408  65.208  1.00  0.00    -0.667 OA 
ENDROOT
BRANCH   2   6
HETATM    6  C   UNL     1      -8.936  18.308  66.677  1.00  0.00    -0.296 A  
HETATM    7  C   UNL     1      -7.910  17.594  67.319  1.00  0.00    -0.222 A  
HETATM    8  C   UNL     1      -6.710  18.219  67.663  1.00  0.00    -0.199 A  
HETATM    9  C   UNL     1      -6.520  19.567  67.372  1.00  0.00    -0.214 A  
HETATM   10  C   UNL     1      -7.527  20.291  66.732  1.00  0.00    -0.333 A  
HETATM   11  C   UNL     1      -8.729  19.665  66.382  1.00  0.00    -0.368 A  
HETATM   12  O   UNL     1      -9.691  20.408  65.746  1.00  0.00    -0.640 OA 
HETATM   13  H   UNL     1      -9.550  21.327  65.546  1.00  0.00     0.000 HD 
ENDBRANCH   2   6
TORSDOF 1
ENDMDL
MODEL      102
REMARK 921   NORMALIZED FREE ENERGY PREDICTED BY IDOCK:   -3.31 KCAL/MOL
REMARK 922        TOTAL FREE ENERGY PREDICTED BY IDOCK:   -3.72 KCAL/MOL
REMARK 923 INTER-LIGAND FREE ENERGY PREDICTED BY IDOCK:   -3.47 KCAL/MOL
REMARK 924 INTRA-LIGAND FREE ENERGY PREDICTED BY IDOCK:   -0.25 KCAL/MOL
REMARK 927      BINDING AFFINITY PREDICTED BY RF-SCORE:    0.00 PKD
ROOT
HETATM    1  N   UNL     1     -10.272  19.743  69.070  1.00  0.00    -0.615 N  
HETATM    2  C   UNL     1     -10.065  19.395  67.769  1.00  0.00    -0.401 C  
HETATM    3  H2  UNL     1     -11.039  20.371  69.311  1.00  0.00     0.000 HD 
HETATM    4  H1  UNL     1      -9.663  19.379  69.803  1.00  0.00     0.000 HD 
HETATM    5  O   UNL     1     -10.796  19.833  66.887  1.00  0.00    -0.472 OA 
ENDROOT
BRANCH   2   6
HETATM    6  C   UNL     1      -8.930  18.470  67.465  1.00  0.00    -0.286 A  
HETATM    7  C   UNL     1      -9.190  17.426  66.562  1.00  0.00    -0.286 A  
HETATM    8  C   UNL     1      -8.194  16.507  66.224  1.00  0.00    -0.360 A  
HETATM    9  C   UNL     1      -6.925  16.619  66.787  1.00  0.00    -0.264 A  
HETATM   10  C   UNL     1      -6.648  17.652  67.684  1.00  0.00    -0.185 A  
HETATM   11  C   UNL     1      -7.644  18.577  68.019  1.00  0.00    -0.256 A  
HETATM   12  O   UNL     1      -7.331  19.583  68.898  1.00  0.00    -0.348 OA 
HETATM   13  H   UNL     1      -6.460  19.655  69.273  1.00  0.00     0.000 HD 
ENDBRANCH   2   6
TORSDOF 1
ENDMDL
MODEL      103
REMARK 921   NORMALIZED FREE ENERGY PREDICTED BY IDOCK:   -3.29 KCAL/MOL
REMARK 922        TOTAL FREE ENERGY PREDICTED BY IDOCK:   -3.70 KCAL/MOL
REMARK 923 INTER-LIGAND FREE ENERGY PREDICTED BY IDOCK:   -3.62 KCAL/MOL
REMARK 924 INTRA-LIGAND FREE ENERGY PREDICTED BY IDOCK:   -0.09 KCAL/MOL
REMARK 927      BINDING AFFINITY PREDICTED BY RF-SCORE:    0.00 PKD
ROOT
HETATM    1  N   UNL     1     -10.033  14.690  65.327  1.00  0.00    -0.479 N  
HETATM    2  C   UNL     1     -10.184  16.044  65.370  1.00  0.00    -0.302 C  
HETATM    3  H2  UNL     1     -10.540  14.145  64.629  1.00  0.00     0.000 HD 
HETATM    4  H1  UNL     1      -9.417  14.220  65.991  1.00  0.00     0.000 HD 
HETATM    5  O   UNL     1     -10.925  16.610  64.572  1.00  0.00    -0.885 OA 
ENDROOT
BRANCH   2   6
HETATM    6  C   UNL     1      -9.419  16.800  66.408  1.00  0.00    -0.307 A  
HETATM    7  C   UNL     1      -8.098  17.154  66.086  1.00  0.00    -0.283 A  
HETATM    8  C   UNL     1      -7.303  17.854  66.996  1.00  0.00    -0.218 A  
HETATM    9  C   UNL     1      -7.817  18.206  68.242  1.00  0.00    -0.301 A  
HETATM   10  C   UNL     1      -9.128  17.864  68.577  1.00  0.00    -0.289 A  
HETATM   11  C   UNL     1      -9.928  17.168  67.664  1.00  0.00    -0.283 A  
HETATM   12  O   UNL     1     -11.214  16.858  68.026  1.00  0.00    -0.271 OA 
HETATM   13  H   UNL     1     -11.559  17.108  68.876  1.00  0.00     0.000 HD 
ENDBRANCH   2   6
TORSDOF 1
ENDMDL
MODEL      104
REMARK 921   NORMALIZED FREE ENERGY PREDICTED BY IDOCK:   -3.27 KCAL/MOL
REMARK 922        TOTAL FREE ENERGY PREDICTED BY IDOCK:   -3.69 KCAL/MOL
REMARK 923 INTER-LIGAND FREE ENERGY PREDICTED BY IDOCK:   -3.46 KCAL/MOL
REMARK 924 INTRA-LIGAND FREE ENERGY PREDICTED BY IDOCK:   -0.22 KCAL/MOL
REMARK 927      BINDING AFFINITY PREDICTED BY RF-SCORE:    0.00 PKD
ROOT
HETATM    1  N   UNL     1      -8.558  10.530  69.521  1.00  0.00    -0.356 N  
HETATM    2  C   UNL     1      -9.830  10.790  69.105  1.00  0.00    -0.175 C  
HETATM    3  H2  UNL     1      -7.768  10.809  68.940  1.00  0.00     0.000 HD 
HETATM    4  H1  UNL     1      -8.395  10.057  70.411  1.00  0.00     0.000 HD 
HETATM    5  O   UNL     1     -10.027  11.359  68.036  1.00  0.00    -0.173 OA 
ENDROOT
BRANCH   2   6
HETATM    6  C   UNL     1     -10.956  10.366  69.992  1.00  0.00    -0.370 A  
HETATM    7  C   UNL     1     -11.029   8.998  70.309  1.00  0.00    -0.274 A  
HETATM    8  C   UNL     1     -12.051   8.507  71.123  1.00  0.00    -0.283 A  
HETATM    9  C   UNL     1     -13.015   9.375  71.630  1.00  0.00    -0.471 A  
HETATM   10  C   UNL     1     -12.956  10.736  71.328  1.00  0.00    -0.502 A  
HETATM   11  C   UNL     1     -11.929  11.231  70.516  1.00  0.00    -0.371 A  
HETATM   12  O   UNL     1     -11.900  12.577  70.249  1.00  0.00    -0.489 OA 
HETATM   13  H   UNL     1     -12.558  13.163  70.604  1.00  0.00     0.000 HD 
ENDBRANCH   2   6
TORSDOF 1
ENDMDL
MODEL      105
REMARK 921   NORMALIZED FREE ENERGY PREDICTED BY IDOCK:   -3.27 KCAL/MOL
REMARK 922        TOTAL FREE ENERGY PREDICTED BY IDOCK:   -3.68 KCAL/MOL
REMARK 923 INTER-LIGAND FREE ENERGY PREDICTED BY IDOCK:   -3.44 KCAL/MOL
REMARK 924 INTRA-LIGAND FREE ENERGY PREDICTED BY IDOCK:   -0.25 KCAL/MOL
REMARK 927      BINDING AFFINITY PREDICTED BY RF-SCORE:    0.00 PKD
ROOT
HETATM    1  N   UNL     1      -9.779   9.380  64.387  1.00  0.00    -0.296 N  
HETATM    2  C   UNL     1     -10.084   9.837  65.634  1.00  0.00    -0.212 C  
HETATM    3  H2  UNL     1      -9.460   8.420  64.263  1.00  0.00     0.000 HD 
HETATM    4  H1  UNL     1      -9.870   9.995  63.578  1.00  0.00     0.000 HD 
HETATM    5  O   UNL     1      -9.976   9.099  66.608  1.00  0.00    -0.228 OA 
ENDROOT
BRANCH   2   6
HETATM    6  C   UNL     1     -10.552  11.251  65.765  1.00  0.00    -0.306 A  
HETATM    7  C   UNL     1     -10.210  12.129  64.722  1.00  0.00    -0.310 A  
HETATM    8  C   UNL     1     -10.596  13.470  64.760  1.00  0.00    -0.429 A  
HETATM    9  C   UNL     1     -11.325  13.953  65.844  1.00  0.00    -0.314 A  
HETATM   10  C   UNL     1     -11.675  13.095  66.887  1.00  0.00    -0.441 A  
HETATM   11  C   UNL     1     -11.294  11.749  66.848  1.00  0.00    -0.320 A  
HETATM   12  O   UNL     1     -11.665  10.935  67.888  1.00  0.00    -0.582 OA 
HETATM   13  H   UNL     1     -12.168  11.272  68.621  1.00  0.00     0.000 HD 
ENDBRANCH   2   6
TORSDOF 1
ENDMDL
MODEL      106
REMARK 921   NORMALIZED FREE ENERGY PREDICTED BY IDOCK:   -3.26 KCAL/MOL
REMARK 922        TOTAL FREE ENERGY PREDICTED BY IDOCK:   -3.67 KCAL/MOL
REMARK 923 INTER-LIGAND FREE ENERGY PREDICTED BY IDOCK:   -3.43 KCAL/MOL
REMARK 924 INTRA-LIGAND FREE ENERGY PREDICTED BY IDOCK:   -0.24 KCAL/MOL
REMARK 927      BINDING AFFINITY PREDICTED BY RF-SCORE:    0.00 PKD
ROOT
HETATM    1  N   UNL     1     -10.634   8.137  71.844  1.00  0.00    -0.242 N  
HETATM    2  C   UNL     1     -11.650   9.044  71.834  1.00  0.00    -0.370 C  
HETATM    3  H2  UNL     1     -10.676   7.335  72.474  1.00  0.00     0.000 HD 
HETATM    4  H1  UNL     1      -9.832   8.255  71.224  1.00  0.00     0.000 HD 
HETATM    5  O   UNL     1     -12.615   8.902  72.579  1.00  0.00    -0.375 OA 
ENDROOT
BRANCH   2   6
HETATM    6  C   UNL     1     -11.546  10.200  70.892  1.00  0.00    -0.459 A  
HETATM    7  C   UNL     1     -10.672  10.049  69.802  1.00  0.00    -0.304 A  
HETATM    8  C   UNL     1     -10.502  11.079  68.874  1.00  0.00    -0.229 A  
HETATM    9  C   UNL     1     -11.202  12.274  69.024  1.00  0.00    -0.319 A  
HETATM   10  C   UNL     1     -12.076  12.439  70.100  1.00  0.00    -0.366 A  
HETATM   11  C   UNL     1     -12.251  11.407  71.028  1.00  0.00    -0.285 A  
HETATM   12  O   UNL     1     -13.126  11.604  72.066  1.00  0.00    -0.478 OA 
HETATM   13  H   UNL     1     -13.603  12.421  72.159  1.00  0.00     0.000 HD 
ENDBRANCH   2   6
TORSDOF 1
ENDMDL
MODEL      107
REMARK 921   NORMALIZED FREE ENERGY PREDICTED BY IDOCK:   -3.25 KCAL/MOL
REMARK 922        TOTAL FREE ENERGY PREDICTED BY IDOCK:   -3.66 KCAL/MOL
REMARK 923 INTER-LIGAND FREE ENERGY PREDICTED BY IDOCK:   -3.40 KCAL/MOL
REMARK 924 INTRA-LIGAND FREE ENERGY PREDICTED BY IDOCK:   -0.26 KCAL/MOL
REMARK 927      BINDING AFFINITY PREDICTED BY RF-SCORE:    0.00 PKD
ROOT
HETATM    1  N   UNL     1     -11.393   6.530  67.603  1.00  0.00    -0.702 N  
HETATM    2  C   UNL     1     -10.512   7.258  68.345  1.00  0.00    -0.195 C  
HETATM    3  H2  UNL     1     -11.177   6.309  66.631  1.00  0.00     0.000 HD 
HETATM    4  H1  UNL     1     -12.268   6.205  68.016  1.00  0.00     0.000 HD 
HETATM    5  O   UNL     1      -9.460   7.648  67.849  1.00  0.00    -0.141 OA 
ENDROOT
BRANCH   2   6
HETATM    6  C   UNL     1     -10.872   7.554  69.765  1.00  0.00    -0.234 A  
HETATM    7  C   UNL     1     -11.548   6.543  70.469  1.00  0.00    -0.455 A  
HETATM    8  C   UNL     1     -11.932   6.731  71.798  1.00  0.00    -0.382 A  
HETATM    9  C   UNL     1     -11.648   7.934  72.441  1.00  0.00    -0.436 A  
HETATM   10  C   UNL     1     -10.974   8.948  71.757  1.00  0.00    -0.431 A  
HETATM   11  C   UNL     1     -10.584   8.758  70.427  1.00  0.00    -0.221 A  
HETATM   12  O   UNL     1      -9.916   9.774  69.792  1.00  0.00    -0.207 OA 
HETATM   13  H   UNL     1      -9.721  10.590  70.240  1.00  0.00     0.000 HD 
ENDBRANCH   2   6
TORSDOF 1
ENDMDL
MODEL      108
REMARK 921   NORMALIZED FREE ENERGY PREDICTED BY IDOCK:   -3.25 KCAL/MOL
REMARK 922        TOTAL FREE ENERGY PREDICTED BY IDOCK:   -3.66 KCAL/MOL
REMARK 923 INTER-LIGAND FREE ENERGY PREDICTED BY IDOCK:   -3.56 KCAL/MOL
REMARK 924 INTRA-LIGAND FREE ENERGY PREDICTED BY IDOCK:   -0.10 KCAL/MOL
REMARK 927      BINDING AFFINITY PREDICTED BY RF-SCORE:    0.00 PKD
ROOT
HETATM    1  N   UNL     1     -10.608  15.925  66.401  1.00  0.00    -0.309 N  
HETATM    2  C   UNL     1     -10.676  16.602  67.581  1.00  0.00    -0.306 C  
HETATM    3  H2  UNL     1     -10.219  16.383  65.576  1.00  0.00     0.000 HD 
HETATM    4  H1  UNL     1     -10.943  14.964  66.338  1.00  0.00     0.000 HD 
HETATM    5  O   UNL     1     -10.273  17.758  67.657  1.00  0.00    -0.326 OA 
ENDROOT
BRANCH   2   6
HETATM    6  C   UNL     1     -11.251  15.889  68.763  1.00  0.00    -0.359 A  
HETATM    7  C   UNL     1     -10.967  16.431  70.028  1.00  0.00    -0.322 A  
HETATM    8  C   UNL     1     -11.453  15.829  71.190  1.00  0.00    -0.466 A  
HETATM    9  C   UNL     1     -12.228  14.674  71.103  1.00  0.00    -0.405 A  
HETATM   10  C   UNL     1     -12.522  14.124  69.855  1.00  0.00    -0.313 A  
HETATM   11  C   UNL     1     -12.040  14.730  68.689  1.00  0.00    -0.188 A  
HETATM   12  O   UNL     1     -12.358  14.164  67.480  1.00  0.00    -0.571 OA 
HETATM   13  H   UNL     1     -12.892  13.379  67.430  1.00  0.00     0.000 HD 
ENDBRANCH   2   6
TORSDOF 1
ENDMDL
MODEL      109
REMARK 921   NORMALIZED FREE ENERGY PREDICTED BY IDOCK:   -3.24 KCAL/MOL
REMARK 922        TOTAL FREE ENERGY PREDICTED BY IDOCK:   -3.65 KCAL/MOL
REMARK 923 INTER-LIGAND FREE ENERGY PREDICTED BY IDOCK:   -3.56 KCAL/MOL
REMARK 924 INTRA-LIGAND FREE ENERGY PREDICTED BY IDOCK:   -0.09 KCAL/MOL
REMARK 927      BINDING AFFINITY PREDICTED BY RF-SCORE:    0.00 PKD
ROOT
HETATM    1  N   UNL     1     -12.587  14.029  66.767  1.00  0.00    -0.490 N  
HETATM    2  C   UNL     1     -12.018  12.892  66.278  1.00  0.00    -0.408 C  
HETATM    3  H2  UNL     1     -13.421  14.412  66.321  1.00  0.00     0.000 HD 
HETATM    4  H1  UNL     1     -12.183  14.500  67.577  1.00  0.00     0.000 HD 
HETATM    5  O   UNL     1     -12.504  12.326  65.304  1.00  0.00    -0.585 OA 
ENDROOT
BRANCH   2   6
HETATM    6  C   UNL     1     -10.799  12.369  66.966  1.00  0.00    -0.282 A  
HETATM    7  C   UNL     1      -9.586  13.019  66.684  1.00  0.00    -0.259 A  
HETATM    8  C   UNL     1      -8.393  12.595  67.274  1.00  0.00    -0.189 A  
HETATM    9  C   UNL     1      -8.397  11.514  68.152  1.00  0.00    -0.152 A  
HETATM   10  C   UNL     1      -9.593  10.859  68.446  1.00  0.00    -0.177 A  
HETATM   11  C   UNL     1     -10.791  11.286  67.860  1.00  0.00    -0.228 A  
HETATM   12  O   UNL     1     -11.947  10.621  68.181  1.00  0.00    -0.791 OA 
HETATM   13  H   UNL     1     -11.942   9.888  68.785  1.00  0.00     0.000 HD 
ENDBRANCH   2   6
TORSDOF 1
ENDMDL
MODEL      110
REMARK 921   NORMALIZED FREE ENERGY PREDICTED BY IDOCK:   -3.22 KCAL/MOL
REMARK 922        TOTAL FREE ENERGY PREDICTED BY IDOCK:   -3.63 KCAL/MOL
REMARK 923 INTER-LIGAND FREE ENERGY PREDICTED BY IDOCK:   -3.38 KCAL/MOL
REMARK 924 INTRA-LIGAND FREE ENERGY PREDICTED BY IDOCK:   -0.26 KCAL/MOL
REMARK 927      BINDING AFFINITY PREDICTED BY RF-SCORE:    0.00 PKD
ROOT
HETATM    1  N   UNL     1      -8.374  12.894  68.917  1.00  0.00    -0.338 N  
HETATM    2  C   UNL     1      -9.148  12.188  68.045  1.00  0.00    -0.190 C  
HETATM    3  H2  UNL     1      -7.736  12.402  69.542  1.00  0.00     0.000 HD 
HETATM    4  H1  UNL     1      -8.430  13.913  68.946  1.00  0.00     0.000 HD 
HETATM    5  O   UNL     1      -9.081  10.964  68.009  1.00  0.00    -0.144 OA 
ENDROOT
BRANCH   2   6
HETATM    6  C   UNL     1     -10.064  12.954  67.146  1.00  0.00    -0.243 A  
HETATM    7  C   UNL     1      -9.534  14.104  66.535  1.00  0.00    -0.303 A  
HETATM    8  C   UNL     1     -10.317  14.888  65.686  1.00  0.00    -0.370 A  
HETATM    9  C   UNL     1     -11.641  14.535  65.437  1.00  0.00    -0.355 A  
HETATM   10  C   UNL     1     -12.183  13.395  66.033  1.00  0.00    -0.491 A  
HETATM   11  C   UNL     1     -11.397  12.605  66.880  1.00  0.00    -0.320 A  
HETATM   12  O   UNL     1     -11.963  11.487  67.439  1.00  0.00    -0.623 OA 
HETATM   13  H   UNL     1     -12.866  11.250  67.260  1.00  0.00     0.000 HD 
ENDBRANCH   2   6
TORSDOF 1
ENDMDL
MODEL      111
REMARK 921   NORMALIZED FREE ENERGY PREDICTED BY IDOCK:   -3.20 KCAL/MOL
REMARK 922        TOTAL FREE ENERGY PREDICTED BY IDOCK:   -3.62 KCAL/MOL
REMARK 923 INTER-LIGAND FREE ENERGY PREDICTED BY IDOCK:   -3.36 KCAL/MOL
REMARK 924 INTRA-LIGAND FREE ENERGY PREDICTED BY IDOCK:   -0.26 KCAL/MOL
REMARK 927      BINDING AFFINITY PREDICTED BY RF-SCORE:    0.00 PKD
ROOT
HETATM    1  N   UNL     1     -10.287   8.100  66.853  1.00  0.00    -0.328 N  
HETATM    2  C   UNL     1     -10.558   9.018  67.823  1.00  0.00    -0.214 C  
HETATM    3  H2  UNL     1     -10.169   7.118  67.103  1.00  0.00     0.000 HD 
HETATM    4  H1  UNL     1     -10.203   8.391  65.879  1.00  0.00     0.000 HD 
HETATM    5  O   UNL     1     -10.660   8.669  68.995  1.00  0.00    -0.217 OA 
ENDROOT
BRANCH   2   6
HETATM    6  C   UNL     1     -10.725  10.445  67.408  1.00  0.00    -0.338 A  
HETATM    7  C   UNL     1      -9.877  10.910  66.389  1.00  0.00    -0.249 A  
HETATM    8  C   UNL     1      -9.954  12.230  65.941  1.00  0.00    -0.272 A  
HETATM    9  C   UNL     1     -10.878  13.104  66.508  1.00  0.00    -0.291 A  
HETATM   10  C   UNL     1     -11.731  12.658  67.519  1.00  0.00    -0.429 A  
HETATM   11  C   UNL     1     -11.659  11.333  67.965  1.00  0.00    -0.272 A  
HETATM   12  O   UNL     1     -12.520  10.930  68.954  1.00  0.00    -0.745 OA 
HETATM   13  H   UNL     1     -13.152  11.532  69.332  1.00  0.00     0.000 HD 
ENDBRANCH   2   6
TORSDOF 1
ENDMDL
MODEL      112
REMARK 921   NORMALIZED FREE ENERGY PREDICTED BY IDOCK:   -3.19 KCAL/MOL
REMARK 922        TOTAL FREE ENERGY PREDICTED BY IDOCK:   -3.60 KCAL/MOL
REMARK 923 INTER-LIGAND FREE ENERGY PREDICTED BY IDOCK:   -3.35 KCAL/MOL
REMARK 924 INTRA-LIGAND FREE ENERGY PREDICTED BY IDOCK:   -0.25 KCAL/MOL
REMARK 927      BINDING AFFINITY PREDICTED BY RF-SCORE:    0.00 PKD
ROOT
HETATM    1  N   UNL     1      -8.975  20.232  65.759  1.00  0.00    -0.496 N  
HETATM    2  C   UNL     1      -9.762  19.386  66.481  1.00  0.00    -0.375 C  
HETATM    3  H2  UNL     1      -9.184  21.231  65.745  1.00  0.00     0.000 HD 
HETATM    4  H1  UNL     1      -8.179  19.872  65.232  1.00  0.00     0.000 HD 
HETATM    5  O   UNL     1     -10.719  19.818  67.114  1.00  0.00    -0.466 OA 
ENDROOT
BRANCH   2   6
HETATM    6  C   UNL     1      -9.414  17.932  66.473  1.00  0.00    -0.307 A  
HETATM    7  C   UNL     1     -10.406  17.047  66.016  1.00  0.00    -0.324 A  
HETATM    8  C   UNL     1     -10.175  15.671  65.980  1.00  0.00    -0.354 A  
HETATM    9  C   UNL     1      -8.951  15.159  66.403  1.00  0.00    -0.314 A  
HETATM   10  C   UNL     1      -7.953  16.024  66.856  1.00  0.00    -0.283 A  
HETATM   11  C   UNL     1      -8.181  17.404  66.888  1.00  0.00    -0.231 A  
HETATM   12  O   UNL     1      -7.172  18.221  67.332  1.00  0.00    -0.198 OA 
HETATM   13  H   UNL     1      -6.337  17.864  67.613  1.00  0.00     0.000 HD 
ENDBRANCH   2   6
TORSDOF 1
ENDMDL
MODEL      113
REMARK 921   NORMALIZED FREE ENERGY PREDICTED BY IDOCK:   -3.17 KCAL/MOL
REMARK 922        TOTAL FREE ENERGY PREDICTED BY IDOCK:   -3.58 KCAL/MOL
REMARK 923 INTER-LIGAND FREE ENERGY PREDICTED BY IDOCK:   -3.32 KCAL/MOL
REMARK 924 INTRA-LIGAND FREE ENERGY PREDICTED BY IDOCK:   -0.26 KCAL/MOL
REMARK 927      BINDING AFFINITY PREDICTED BY RF-SCORE:    0.00 PKD
ROOT
HETATM    1  N   UNL     1      -9.379  16.748  66.035  1.00  0.00    -0.247 N  
HETATM    2  C   UNL     1     -10.390  16.139  66.716  1.00  0.00    -0.291 C  
HETATM    3  H2  UNL     1      -9.041  17.661  66.339  1.00  0.00     0.000 HD 
HETATM    4  H1  UNL     1      -8.959  16.294  65.223  1.00  0.00     0.000 HD 
HETATM    5  O   UNL     1     -10.895  16.684  67.692  1.00  0.00    -0.324 OA 
ENDROOT
BRANCH   2   6
HETATM    6  C   UNL     1     -10.850  14.801  66.235  1.00  0.00    -0.322 A  
HETATM    7  C   UNL     1     -12.216  14.674  65.929  1.00  0.00    -0.165 A  
HETATM    8  C   UNL     1     -12.739  13.460  65.481  1.00  0.00    -0.469 A  
HETATM    9  C   UNL     1     -11.904  12.354  65.334  1.00  0.00    -0.460 A  
HETATM   10  C   UNL     1     -10.544  12.463  65.630  1.00  0.00    -0.297 A  
HETATM   11  C   UNL     1     -10.018  13.682  66.075  1.00  0.00    -0.302 A  
HETATM   12  O   UNL     1      -8.675  13.751  66.347  1.00  0.00    -0.446 OA 
HETATM   13  H   UNL     1      -8.111  12.993  66.239  1.00  0.00     0.000 HD 
ENDBRANCH   2   6
TORSDOF 1
ENDMDL
MODEL      114
REMARK 921   NORMALIZED FREE ENERGY PREDICTED BY IDOCK:   -3.16 KCAL/MOL
REMARK 922        TOTAL FREE ENERGY PREDICTED BY IDOCK:   -3.57 KCAL/MOL
REMARK 923 INTER-LIGAND FREE ENERGY PREDICTED BY IDOCK:   -3.32 KCAL/MOL
REMARK 924 INTRA-LIGAND FREE ENERGY PREDICTED BY IDOCK:   -0.25 KCAL/MOL
REMARK 927      BINDING AFFINITY PREDICTED BY RF-SCORE:    0.00 PKD
ROOT
HETATM    1  N   UNL     1     -10.198  18.203  66.281  1.00  0.00    -0.391 N  
HETATM    2  C   UNL     1     -10.142  17.413  67.390  1.00  0.00    -0.321 C  
HETATM    3  H2  UNL     1      -9.870  19.167  66.328  1.00  0.00     0.000 HD 
HETATM    4  H1  UNL     1     -10.568  17.834  65.404  1.00  0.00     0.000 HD 
HETATM    5  O   UNL     1      -9.698  17.856  68.444  1.00  0.00    -0.306 OA 
ENDROOT
BRANCH   2   6
HETATM    6  C   UNL     1     -10.633  16.006  67.270  1.00  0.00    -0.313 A  
HETATM    7  C   UNL     1     -10.483  15.389  66.016  1.00  0.00    -0.333 A  
HETATM    8  C   UNL     1     -10.920  14.079  65.807  1.00  0.00    -0.294 A  
HETATM    9  C   UNL     1     -11.513  13.369  66.848  1.00  0.00    -0.376 A  
HETATM   10  C   UNL     1     -11.667  13.965  68.101  1.00  0.00    -0.388 A  
HETATM   11  C   UNL     1     -11.225  15.276  68.313  1.00  0.00    -0.314 A  
HETATM   12  O   UNL     1     -11.385  15.824  69.561  1.00  0.00    -0.280 OA 
HETATM   13  H   UNL     1     -11.786  15.330  70.267  1.00  0.00     0.000 HD 
ENDBRANCH   2   6
TORSDOF 1
ENDMDL
MODEL      115
REMARK 921   NORMALIZED FREE ENERGY PREDICTED BY IDOCK:   -3.16 KCAL/MOL
REMARK 922        TOTAL FREE ENERGY PREDICTED BY IDOCK:   -3.57 KCAL/MOL
REMARK 923 INTER-LIGAND FREE ENERGY PREDICTED BY IDOCK:   -3.35 KCAL/MOL
REMARK 924 INTRA-LIGAND FREE ENERGY PREDICTED BY IDOCK:   -0.22 KCAL/MOL
REMARK 927      BINDING AFFINITY PREDICTED BY RF-SCORE:    0.00 PKD
ROOT
HETATM    1  N   UNL     1     -12.353  14.250  66.275  1.00  0.00    -0.428 N  
HETATM    2  C   UNL     1     -11.710  13.533  67.240  1.00  0.00    -0.383 C  
HETATM    3  H2  UNL     1     -12.396  13.892  65.321  1.00  0.00     0.000 HD 
HETATM    4  H1  UNL     1     -12.791  15.143  66.504  1.00  0.00     0.000 HD 
HETATM    5  O   UNL     1     -11.183  12.460  66.966  1.00  0.00    -0.269 OA 
ENDROOT
BRANCH   2   6
HETATM    6  C   UNL     1     -11.676  14.097  68.623  1.00  0.00    -0.385 A  
HETATM    7  C   UNL     1     -12.403  13.404  69.606  1.00  0.00    -0.187 A  
HETATM    8  C   UNL     1     -12.437  13.861  70.926  1.00  0.00    -0.447 A  
HETATM    9  C   UNL     1     -11.748  15.018  71.279  1.00  0.00    -0.397 A  
HETATM   10  C   UNL     1     -11.018  15.717  70.317  1.00  0.00    -0.363 A  
HETATM   11  C   UNL     1     -10.979  15.258  68.995  1.00  0.00    -0.254 A  
HETATM   12  O   UNL     1     -10.244  15.968  68.080  1.00  0.00    -0.236 OA 
HETATM   13  H   UNL     1      -9.771  16.753  68.331  1.00  0.00     0.000 HD 
ENDBRANCH   2   6
TORSDOF 1
ENDMDL
MODEL      116
REMARK 921   NORMALIZED FREE ENERGY PREDICTED BY IDOCK:   -3.15 KCAL/MOL
REMARK 922        TOTAL FREE ENERGY PREDICTED BY IDOCK:   -3.56 KCAL/MOL
REMARK 923 INTER-LIGAND FREE ENERGY PREDICTED BY IDOCK:   -3.32 KCAL/MOL
REMARK 924 INTRA-LIGAND FREE ENERGY PREDICTED BY IDOCK:   -0.25 KCAL/MOL
REMARK 927      BINDING AFFINITY PREDICTED BY RF-SCORE:    0.00 PKD
ROOT
HETATM    1  N   UNL     1     -10.505   7.253  66.583  1.00  0.00    -0.506 N  
HETATM    2  C   UNL     1     -10.018   8.326  67.268  1.00  0.00    -0.224 C  
HETATM    3  H2  UNL     1     -10.216   6.311  66.845  1.00  0.00     0.000 HD 
HETATM    4  H1  UNL     1     -11.158   7.389  65.811  1.00  0.00     0.000 HD 
HETATM    5  O   UNL     1      -9.233   8.164  68.197  1.00  0.00    -0.134 OA 
ENDROOT
BRANCH   2   6
HETATM    6  C   UNL     1     -10.474   9.687  66.850  1.00  0.00    -0.282 A  
HETATM    7  C   UNL     1     -11.158  10.448  67.813  1.00  0.00    -0.365 A  
HETATM    8  C   UNL     1     -11.629  11.727  67.512  1.00  0.00    -0.361 A  
HETATM    9  C   UNL     1     -11.425  12.262  66.242  1.00  0.00    -0.435 A  
HETATM   10  C   UNL     1     -10.745  11.522  65.275  1.00  0.00    -0.337 A  
HETATM   11  C   UNL     1     -10.267  10.242  65.577  1.00  0.00    -0.238 A  
HETATM   12  O   UNL     1      -9.596   9.549  64.601  1.00  0.00    -0.435 OA 
HETATM   13  H   UNL     1      -9.456   9.924  63.739  1.00  0.00     0.000 HD 
ENDBRANCH   2   6
TORSDOF 1
ENDMDL
MODEL      117
REMARK 921   NORMALIZED FREE ENERGY PREDICTED BY IDOCK:   -3.14 KCAL/MOL
REMARK 922        TOTAL FREE ENERGY PREDICTED BY IDOCK:   -3.55 KCAL/MOL
REMARK 923 INTER-LIGAND FREE ENERGY PREDICTED BY IDOCK:   -3.46 KCAL/MOL
REMARK 924 INTRA-LIGAND FREE ENERGY PREDICTED BY IDOCK:   -0.09 KCAL/MOL
REMARK 927      BINDING AFFINITY PREDICTED BY RF-SCORE:    0.00 PKD
ROOT
HETATM    1  N   UNL     1     -11.714  12.294  70.267  1.00  0.00    -0.542 N  
HETATM    2  C   UNL     1     -11.469  12.019  68.955  1.00  0.00    -0.301 C  
HETATM    3  H2  UNL     1     -12.297  11.663  70.817  1.00  0.00     0.000 HD 
HETATM    4  H1  UNL     1     -11.316  13.128  70.701  1.00  0.00     0.000 HD 
HETATM    5  O   UNL     1     -11.946  11.017  68.433  1.00  0.00    -0.565 OA 
ENDROOT
BRANCH   2   6
HETATM    6  C   UNL     1     -10.606  12.971  68.191  1.00  0.00    -0.257 A  
HETATM    7  C   UNL     1      -9.219  12.752  68.247  1.00  0.00    -0.186 A  
HETATM    8  C   UNL     1      -8.333  13.594  67.572  1.00  0.00    -0.191 A  
HETATM    9  C   UNL     1      -8.822  14.670  66.834  1.00  0.00    -0.267 A  
HETATM   10  C   UNL     1     -10.197  14.900  66.765  1.00  0.00    -0.259 A  
HETATM   11  C   UNL     1     -11.086  14.054  67.437  1.00  0.00    -0.303 A  
HETATM   12  O   UNL     1     -12.431  14.308  67.337  1.00  0.00    -0.588 OA 
HETATM   13  H   UNL     1     -12.756  15.041  66.827  1.00  0.00     0.000 HD 
ENDBRANCH   2   6
TORSDOF 1
ENDMDL
MODEL      118
REMARK 921   NORMALIZED FREE ENERGY PREDICTED BY IDOCK:   -3.13 KCAL/MOL
REMARK 922        TOTAL FREE ENERGY PREDICTED BY IDOCK:   -3.53 KCAL/MOL
REMARK 923 INTER-LIGAND FREE ENERGY PREDICTED BY IDOCK:   -3.33 KCAL/MOL
REMARK 924 INTRA-LIGAND FREE ENERGY PREDICTED BY IDOCK:   -0.20 KCAL/MOL
REMARK 927      BINDING AFFINITY PREDICTED BY RF-SCORE:    0.00 PKD
ROOT
HETATM    1  N   UNL     1     -11.597   6.479  67.306  1.00  0.00    -0.644 N  
HETATM    2  C   UNL     1     -10.511   6.625  68.117  1.00  0.00    -0.214 C  
HETATM    3  H2  UNL     1     -11.542   6.767  66.329  1.00  0.00     0.000 HD 
HETATM    4  H1  UNL     1     -12.462   6.082  67.672  1.00  0.00     0.000 HD 
HETATM    5  O   UNL     1      -9.470   7.102  67.677  1.00  0.00    -0.126 OA 
ENDROOT
BRANCH   2   6
HETATM    6  C   UNL     1     -10.638   6.186  69.540  1.00  0.00    -0.350 A  
HETATM    7  C   UNL     1      -9.923   5.034  69.911  1.00  0.00    -0.322 A  
HETATM    8  C   UNL     1      -9.987   4.542  71.217  1.00  0.00    -0.258 A  
HETATM    9  C   UNL     1     -10.768   5.194  72.168  1.00  0.00    -0.252 A  
HETATM   10  C   UNL     1     -11.482   6.341  71.817  1.00  0.00    -0.355 A  
HETATM   11  C   UNL     1     -11.415   6.838  70.510  1.00  0.00    -0.360 A  
HETATM   12  O   UNL     1     -12.124   7.973  70.207  1.00  0.00    -0.450 OA 
HETATM   13  H   UNL     1     -12.650   8.414  70.864  1.00  0.00     0.000 HD 
ENDBRANCH   2   6
TORSDOF 1
ENDMDL
MODEL      119
REMARK 921   NORMALIZED FREE ENERGY PREDICTED BY IDOCK:   -3.11 KCAL/MOL
REMARK 922        TOTAL FREE ENERGY PREDICTED BY IDOCK:   -3.52 KCAL/MOL
REMARK 923 INTER-LIGAND FREE ENERGY PREDICTED BY IDOCK:   -3.26 KCAL/MOL
REMARK 924 INTRA-LIGAND FREE ENERGY PREDICTED BY IDOCK:   -0.26 KCAL/MOL
REMARK 927      BINDING AFFINITY PREDICTED BY RF-SCORE:    0.00 PKD
ROOT
HETATM    1  N   UNL     1     -11.733   6.477  69.051  1.00  0.00    -0.516 N  
HETATM    2  C   UNL     1     -11.253   6.957  70.233  1.00  0.00    -0.316 C  
HETATM    3  H2  UNL     1     -11.985   7.126  68.305  1.00  0.00     0.000 HD 
HETATM    4  H1  UNL     1     -11.841   5.473  68.909  1.00  0.00     0.000 HD 
HETATM    5  O   UNL     1     -11.123   8.164  70.404  1.00  0.00    -0.253 OA 
ENDROOT
BRANCH   2   6
HETATM    6  C   UNL     1     -10.895   5.967  71.294  1.00  0.00    -0.333 A  
HETATM    7  C   UNL     1     -10.237   4.799  70.872  1.00  0.00    -0.247 A  
HETATM    8  C   UNL     1      -9.871   3.813  71.791  1.00  0.00    -0.244 A  
HETATM    9  C   UNL     1     -10.159   3.980  73.143  1.00  0.00    -0.204 A  
HETATM   10  C   UNL     1     -10.809   5.135  73.579  1.00  0.00    -0.360 A  
HETATM   11  C   UNL     1     -11.173   6.127  72.661  1.00  0.00    -0.274 A  
HETATM   12  O   UNL     1     -11.802   7.252  73.130  1.00  0.00    -0.510 OA 
HETATM   13  H   UNL     1     -11.990   7.360  74.056  1.00  0.00     0.000 HD 
ENDBRANCH   2   6
TORSDOF 1
ENDMDL
MODEL      120
REMARK 921   NORMALIZED FREE ENERGY PREDICTED BY IDOCK:   -3.10 KCAL/MOL
REMARK 922        TOTAL FREE ENERGY PREDICTED BY IDOCK:   -3.51 KCAL/MOL
REMARK 923 INTER-LIGAND FREE ENERGY PREDICTED BY IDOCK:   -3.29 KCAL/MOL
REMARK 924 INTRA-LIGAND FREE ENERGY PREDICTED BY IDOCK:   -0.22 KCAL/MOL
REMARK 927      BINDING AFFINITY PREDICTED BY RF-SCORE:    0.00 PKD
ROOT
HETATM    1  N   UNL     1     -11.125   7.200  73.266  1.00  0.00    -0.552 N  
HETATM    2  C   UNL     1     -11.840   7.384  72.121  1.00  0.00    -0.286 C  
HETATM    3  H2  UNL     1     -11.359   6.427  73.891  1.00  0.00     0.000 HD 
HETATM    4  H1  UNL     1     -10.358   7.830  73.502  1.00  0.00     0.000 HD 
HETATM    5  O   UNL     1     -12.762   6.626  71.837  1.00  0.00    -0.345 OA 
ENDROOT
BRANCH   2   6
HETATM    6  C   UNL     1     -11.458   8.527  71.236  1.00  0.00    -0.329 A  
HETATM    7  C   UNL     1     -12.390   9.572  71.118  1.00  0.00    -0.410 A  
HETATM    8  C   UNL     1     -12.125  10.678  70.307  1.00  0.00    -0.423 A  
HETATM    9  C   UNL     1     -10.926  10.752  69.601  1.00  0.00    -0.320 A  
HETATM   10  C   UNL     1      -9.989   9.724  69.710  1.00  0.00    -0.265 A  
HETATM   11  C   UNL     1     -10.250   8.617  70.526  1.00  0.00    -0.197 A  
HETATM   12  O   UNL     1      -9.300   7.632  70.613  1.00  0.00    -0.162 OA 
HETATM   13  H   UNL     1      -8.482   7.693  70.133  1.00  0.00     0.000 HD 
ENDBRANCH   2   6
TORSDOF 1
ENDMDL
MODEL      121
REMARK 921   NORMALIZED FREE ENERGY PREDICTED BY IDOCK:   -3.09 KCAL/MOL
REMARK 922        TOTAL FREE ENERGY PREDICTED BY IDOCK:   -3.50 KCAL/MOL
REMARK 923 INTER-LIGAND FREE ENERGY PREDICTED BY IDOCK:   -3.30 KCAL/MOL
REMARK 924 INTRA-LIGAND FREE ENERGY PREDICTED BY IDOCK:   -0.20 KCAL/MOL
REMARK 927      BINDING AFFINITY PREDICTED BY RF-SCORE:    0.00 PKD
ROOT
HETATM    1  N   UNL     1     -11.238   8.783  72.055  1.00  0.00    -0.364 N  
HETATM    2  C   UNL     1     -11.962   9.700  71.353  1.00  0.00    -0.399 C  
HETATM    3  H2  UNL     1     -11.506   8.549  73.011  1.00  0.00     0.000 HD 
HETATM    4  H1  UNL     1     -10.429   8.330  71.628  1.00  0.00     0.000 HD 
HETATM    5  O   UNL     1     -12.934  10.245  71.866  1.00  0.00    -0.427 OA 
ENDROOT
BRANCH   2   6
HETATM    6  C   UNL     1     -11.531  10.008  69.955  1.00  0.00    -0.310 A  
HETATM    7  C   UNL     1     -11.815  11.298  69.476  1.00  0.00    -0.427 A  
HETATM    8  C   UNL     1     -11.459  11.675  68.180  1.00  0.00    -0.382 A  
HETATM    9  C   UNL     1     -10.816  10.765  67.343  1.00  0.00    -0.345 A  
HETATM   10  C   UNL     1     -10.524   9.480  67.803  1.00  0.00    -0.309 A  
HETATM   11  C   UNL     1     -10.876   9.103  69.105  1.00  0.00    -0.110 A  
HETATM   12  O   UNL     1     -10.564   7.835  69.523  1.00  0.00    -0.227 OA 
HETATM   13  H   UNL     1     -10.120   7.222  68.947  1.00  0.00     0.000 HD 
ENDBRANCH   2   6
TORSDOF 1
ENDMDL
MODEL      122
REMARK 921   NORMALIZED FREE ENERGY PREDICTED BY IDOCK:   -3.09 KCAL/MOL
REMARK 922        TOTAL FREE ENERGY PREDICTED BY IDOCK:   -3.50 KCAL/MOL
REMARK 923 INTER-LIGAND FREE ENERGY PREDICTED BY IDOCK:   -3.26 KCAL/MOL
REMARK 924 INTRA-LIGAND FREE ENERGY PREDICTED BY IDOCK:   -0.24 KCAL/MOL
REMARK 927      BINDING AFFINITY PREDICTED BY RF-SCORE:    0.00 PKD
ROOT
HETATM    1  N   UNL     1     -10.070   8.140  66.243  1.00  0.00    -0.479 N  
HETATM    2  C   UNL     1     -10.549   7.458  67.321  1.00  0.00    -0.323 C  
HETATM    3  H2  UNL     1     -10.196   7.759  65.305  1.00  0.00     0.000 HD 
HETATM    4  H1  UNL     1      -9.586   9.029  66.370  1.00  0.00     0.000 HD 
HETATM    5  O   UNL     1     -11.130   6.389  67.170  1.00  0.00    -0.377 OA 
ENDROOT
BRANCH   2   6
HETATM    6  C   UNL     1     -10.342   8.058  68.675  1.00  0.00    -0.224 A  
HETATM    7  C   UNL     1      -9.422   9.117  68.763  1.00  0.00    -0.147 A  
HETATM    8  C   UNL     1      -9.157   9.734  69.987  1.00  0.00    -0.258 A  
HETATM    9  C   UNL     1      -9.807   9.300  71.140  1.00  0.00    -0.342 A  
HETATM   10  C   UNL     1     -10.727   8.253  71.070  1.00  0.00    -0.256 A  
HETATM   11  C   UNL     1     -10.997   7.636  69.843  1.00  0.00    -0.200 A  
HETATM   12  O   UNL     1     -11.914   6.616  69.814  1.00  0.00    -0.654 OA 
HETATM   13  H   UNL     1     -12.357   6.330  70.604  1.00  0.00     0.000 HD 
ENDBRANCH   2   6
TORSDOF 1
ENDMDL
MODEL      123
REMARK 921   NORMALIZED FREE ENERGY PREDICTED BY IDOCK:   -3.09 KCAL/MOL
REMARK 922        TOTAL FREE ENERGY PREDICTED BY IDOCK:   -3.49 KCAL/MOL
REMARK 923 INTER-LIGAND FREE ENERGY PREDICTED BY IDOCK:   -3.25 KCAL/MOL
REMARK 924 INTRA-LIGAND FREE ENERGY PREDICTED BY IDOCK:   -0.25 KCAL/MOL
REMARK 927      BINDING AFFINITY PREDICTED BY RF-SCORE:    0.00 PKD
ROOT
HETATM    1  N   UNL     1     -11.408   4.707  65.189  1.00  0.00    -0.966 N  
HETATM    2  C   UNL     1     -10.232   4.672  65.877  1.00  0.00    -0.276 C  
HETATM    3  H2  UNL     1     -11.409   4.558  64.179  1.00  0.00     0.000 HD 
HETATM    4  H1  UNL     1     -12.286   4.881  65.678  1.00  0.00     0.000 HD 
HETATM    5  O   UNL     1      -9.177   4.462  65.289  1.00  0.00    -0.139 OA 
ENDROOT
BRANCH   2   6
HETATM    6  C   UNL     1     -10.282   4.892  67.355  1.00  0.00    -0.173 A  
HETATM    7  C   UNL     1     -11.014   6.004  67.804  1.00  0.00    -0.333 A  
HETATM    8  C   UNL     1     -11.110   6.295  69.166  1.00  0.00    -0.457 A  
HETATM    9  C   UNL     1     -10.472   5.480  70.098  1.00  0.00    -0.370 A  
HETATM   10  C   UNL     1      -9.742   4.370  69.670  1.00  0.00    -0.289 A  
HETATM   11  C   UNL     1      -9.650   4.074  68.305  1.00  0.00    -0.125 A  
HETATM   12  O   UNL     1      -8.931   2.969  67.924  1.00  0.00    -0.118 OA 
HETATM   13  H   UNL     1      -8.504   2.415  68.567  1.00  0.00     0.000 HD 
ENDBRANCH   2   6
TORSDOF 1
ENDMDL
MODEL      124
REMARK 921   NORMALIZED FREE ENERGY PREDICTED BY IDOCK:   -3.09 KCAL/MOL
REMARK 922        TOTAL FREE ENERGY PREDICTED BY IDOCK:   -3.49 KCAL/MOL
REMARK 923 INTER-LIGAND FREE ENERGY PREDICTED BY IDOCK:   -3.26 KCAL/MOL
REMARK 924 INTRA-LIGAND FREE ENERGY PREDICTED BY IDOCK:   -0.23 KCAL/MOL
REMARK 927      BINDING AFFINITY PREDICTED BY RF-SCORE:    0.00 PKD
ROOT
HETATM    1  N   UNL     1      -9.504  10.542  69.565  1.00  0.00    -0.399 N  
HETATM    2  C   UNL     1     -10.135   9.394  69.192  1.00  0.00    -0.195 C  
HETATM    3  H2  UNL     1      -9.140  11.175  68.853  1.00  0.00     0.000 HD 
HETATM    4  H1  UNL     1      -9.394  10.772  70.553  1.00  0.00     0.000 HD 
HETATM    5  O   UNL     1     -10.267   9.117  68.005  1.00  0.00    -0.190 OA 
ENDROOT
BRANCH   2   6
HETATM    6  C   UNL     1     -10.654   8.500  70.272  1.00  0.00    -0.238 A  
HETATM    7  C   UNL     1     -10.442   8.920  71.597  1.00  0.00    -0.408 A  
HETATM    8  C   UNL     1     -10.884   8.147  72.672  1.00  0.00    -0.429 A  
HETATM    9  C   UNL     1     -11.541   6.941  72.438  1.00  0.00    -0.278 A  
HETATM   10  C   UNL     1     -11.763   6.510  71.129  1.00  0.00    -0.392 A  
HETATM   11  C   UNL     1     -11.325   7.287  70.050  1.00  0.00    -0.166 A  
HETATM   12  O   UNL     1     -11.570   6.834  68.779  1.00  0.00    -0.565 OA 
HETATM   13  H   UNL     1     -12.025   6.013  68.628  1.00  0.00     0.000 HD 
ENDBRANCH   2   6
TORSDOF 1
ENDMDL
MODEL      125
REMARK 921   NORMALIZED FREE ENERGY PREDICTED BY IDOCK:   -3.08 KCAL/MOL
REMARK 922        TOTAL FREE ENERGY PREDICTED BY IDOCK:   -3.49 KCAL/MOL
REMARK 923 INTER-LIGAND FREE ENERGY PREDICTED BY IDOCK:   -3.23 KCAL/MOL
REMARK 924 INTRA-LIGAND FREE ENERGY PREDICTED BY IDOCK:   -0.26 KCAL/MOL
REMARK 927      BINDING AFFINITY PREDICTED BY RF-SCORE:    0.00 PKD
ROOT
HETATM    1  N   UNL     1     -11.228   7.062  67.550  1.00  0.00    -0.590 N  
HETATM    2  C   UNL     1     -10.447   7.793  68.393  1.00  0.00    -0.166 C  
HETATM    3  H2  UNL     1     -11.028   7.056  66.550  1.00  0.00     0.000 HD 
HETATM    4  H1  UNL     1     -12.012   6.520  67.915  1.00  0.00     0.000 HD 
HETATM    5  O   UNL     1      -9.504   8.445  67.955  1.00  0.00    -0.142 OA 
ENDROOT
BRANCH   2   6
HETATM    6  C   UNL     1     -10.778   7.768  69.851  1.00  0.00    -0.245 A  
HETATM    7  C   UNL     1     -10.949   9.012  70.482  1.00  0.00    -0.295 A  
HETATM    8  C   UNL     1     -11.251   9.088  71.843  1.00  0.00    -0.438 A  
HETATM    9  C   UNL     1     -11.384   7.921  72.592  1.00  0.00    -0.468 A  
HETATM   10  C   UNL     1     -11.221   6.677  71.981  1.00  0.00    -0.301 A  
HETATM   11  C   UNL     1     -10.923   6.599  70.615  1.00  0.00    -0.280 A  
HETATM   12  O   UNL     1     -10.779   5.358  70.049  1.00  0.00    -0.308 OA 
HETATM   13  H   UNL     1     -10.878   4.567  70.567  1.00  0.00     0.000 HD 
ENDBRANCH   2   6
TORSDOF 1
ENDMDL
MODEL      126
REMARK 921   NORMALIZED FREE ENERGY PREDICTED BY IDOCK:   -3.06 KCAL/MOL
REMARK 922        TOTAL FREE ENERGY PREDICTED BY IDOCK:   -3.46 KCAL/MOL
REMARK 923 INTER-LIGAND FREE ENERGY PREDICTED BY IDOCK:   -3.22 KCAL/MOL
REMARK 924 INTRA-LIGAND FREE ENERGY PREDICTED BY IDOCK:   -0.24 KCAL/MOL
REMARK 927      BINDING AFFINITY PREDICTED BY RF-SCORE:    0.00 PKD
ROOT
HETATM    1  N   UNL     1     -10.344  19.516  68.244  1.00  0.00    -0.430 N  
HETATM    2  C   UNL     1      -9.888  19.202  66.999  1.00  0.00    -0.336 C  
HETATM    3  H2  UNL     1     -11.335  19.715  68.386  1.00  0.00     0.000 HD 
HETATM    4  H1  UNL     1      -9.700  19.553  69.034  1.00  0.00     0.000 HD 
HETATM    5  O   UNL     1     -10.663  19.158  66.049  1.00  0.00    -0.439 OA 
ENDROOT
BRANCH   2   6
HETATM    6  C   UNL     1      -8.430  18.916  66.841  1.00  0.00    -0.295 A  
HETATM    7  C   UNL     1      -7.538  19.876  67.350  1.00  0.00    -0.308 A  
HETATM    8  C   UNL     1      -6.158  19.699  67.242  1.00  0.00    -0.197 A  
HETATM    9  C   UNL     1      -5.649  18.561  66.620  1.00  0.00    -0.169 A  
HETATM   10  C   UNL     1      -6.520  17.596  66.111  1.00  0.00    -0.284 A  
HETATM   11  C   UNL     1      -7.904  17.770  66.224  1.00  0.00    -0.264 A  
HETATM   12  O   UNL     1      -8.727  16.795  65.720  1.00  0.00    -0.496 OA 
HETATM   13  H   UNL     1      -8.371  16.018  65.302  1.00  0.00     0.000 HD 
ENDBRANCH   2   6
TORSDOF 1
ENDMDL
MODEL      127
REMARK 921   NORMALIZED FREE ENERGY PREDICTED BY IDOCK:   -3.06 KCAL/MOL
REMARK 922        TOTAL FREE ENERGY PREDICTED BY IDOCK:   -3.46 KCAL/MOL
REMARK 923 INTER-LIGAND FREE ENERGY PREDICTED BY IDOCK:   -3.28 KCAL/MOL
REMARK 924 INTRA-LIGAND FREE ENERGY PREDICTED BY IDOCK:   -0.19 KCAL/MOL
REMARK 927      BINDING AFFINITY PREDICTED BY RF-SCORE:    0.00 PKD
ROOT
HETATM    1  N   UNL     1      -9.058  14.617  66.425  1.00  0.00    -0.435 N  
HETATM    2  C   UNL     1     -10.235  13.999  66.128  1.00  0.00    -0.302 C  
HETATM    3  H2  UNL     1      -8.931  15.603  66.197  1.00  0.00     0.000 HD 
HETATM    4  H1  UNL     1      -8.303  14.098  66.875  1.00  0.00     0.000 HD 
HETATM    5  O   UNL     1     -11.143  14.624  65.588  1.00  0.00    -0.319 OA 
ENDROOT
BRANCH   2   6
HETATM    6  C   UNL     1     -10.375  12.554  66.484  1.00  0.00    -0.254 A  
HETATM    7  C   UNL     1     -11.204  12.251  67.578  1.00  0.00    -0.354 A  
HETATM    8  C   UNL     1     -11.389  10.929  67.990  1.00  0.00    -0.382 A  
HETATM    9  C   UNL     1     -10.746   9.894  67.316  1.00  0.00    -0.304 A  
HETATM   10  C   UNL     1      -9.921  10.178  66.226  1.00  0.00    -0.304 A  
HETATM   11  C   UNL     1      -9.739  11.501  65.809  1.00  0.00    -0.235 A  
HETATM   12  O   UNL     1      -8.928  11.738  64.728  1.00  0.00    -0.388 OA 
HETATM   13  H   UNL     1      -8.498  11.025  64.270  1.00  0.00     0.000 HD 
ENDBRANCH   2   6
TORSDOF 1
ENDMDL
MODEL      128
REMARK 921   NORMALIZED FREE ENERGY PREDICTED BY IDOCK:   -3.05 KCAL/MOL
REMARK 922        TOTAL FREE ENERGY PREDICTED BY IDOCK:   -3.46 KCAL/MOL
REMARK 923 INTER-LIGAND FREE ENERGY PREDICTED BY IDOCK:   -3.21 KCAL/MOL
REMARK 924 INTRA-LIGAND FREE ENERGY PREDICTED BY IDOCK:   -0.25 KCAL/MOL
REMARK 927      BINDING AFFINITY PREDICTED BY RF-SCORE:    0.00 PKD
ROOT
HETATM    1  N   UNL     1      -8.981  20.406  66.320  1.00  0.00    -0.587 N  
HETATM    2  C   UNL     1      -8.328  19.451  67.041  1.00  0.00    -0.282 C  
HETATM    3  H2  UNL     1      -8.623  21.361  66.302  1.00  0.00     0.000 HD 
HETATM    4  H1  UNL     1      -9.826  20.169  65.799  1.00  0.00     0.000 HD 
HETATM    5  O   UNL     1      -7.313  19.735  67.668  1.00  0.00    -0.255 OA 
ENDROOT
BRANCH   2   6
HETATM    6  C   UNL     1      -8.889  18.065  67.035  1.00  0.00    -0.259 A  
HETATM    7  C   UNL     1      -8.055  17.048  66.540  1.00  0.00    -0.320 A  
HETATM    8  C   UNL     1      -8.495  15.724  66.487  1.00  0.00    -0.335 A  
HETATM    9  C   UNL     1      -9.777  15.400  66.925  1.00  0.00    -0.241 A  
HETATM   10  C   UNL     1     -10.617  16.397  67.422  1.00  0.00    -0.306 A  
HETATM   11  C   UNL     1     -10.175  17.724  67.481  1.00  0.00    -0.356 A  
HETATM   12  O   UNL     1     -11.028  18.673  67.984  1.00  0.00    -0.268 OA 
HETATM   13  H   UNL     1     -11.899  18.442  68.286  1.00  0.00     0.000 HD 
ENDBRANCH   2   6
TORSDOF 1
ENDMDL
MODEL      129
REMARK 921   NORMALIZED FREE ENERGY PREDICTED BY IDOCK:   -3.03 KCAL/MOL
REMARK 922        TOTAL FREE ENERGY PREDICTED BY IDOCK:   -3.43 KCAL/MOL
REMARK 923 INTER-LIGAND FREE ENERGY PREDICTED BY IDOCK:   -3.21 KCAL/MOL
REMARK 924 INTRA-LIGAND FREE ENERGY PREDICTED BY IDOCK:   -0.22 KCAL/MOL
REMARK 927      BINDING AFFINITY PREDICTED BY RF-SCORE:    0.00 PKD
ROOT
HETATM    1  N   UNL     1     -10.535  10.924  65.194  1.00  0.00    -0.272 N  
HETATM    2  C   UNL     1      -9.632  11.781  65.748  1.00  0.00    -0.233 C  
HETATM    3  H2  UNL     1     -10.360   9.919  65.216  1.00  0.00     0.000 HD 
HETATM    4  H1  UNL     1     -11.386  11.283  64.759  1.00  0.00     0.000 HD 
HETATM    5  O   UNL     1      -8.610  11.350  66.271  1.00  0.00    -0.177 OA 
ENDROOT
BRANCH   2   6
HETATM    6  C   UNL     1      -9.934  13.244  65.695  1.00  0.00    -0.242 A  
HETATM    7  C   UNL     1      -9.446  14.029  66.753  1.00  0.00    -0.292 A  
HETATM    8  C   UNL     1      -9.686  15.404  66.794  1.00  0.00    -0.254 A  
HETATM    9  C   UNL     1     -10.419  16.013  65.779  1.00  0.00    -0.391 A  
HETATM   10  C   UNL     1     -10.909  15.249  64.718  1.00  0.00    -0.379 A  
HETATM   11  C   UNL     1     -10.665  13.871  64.673  1.00  0.00    -0.407 A  
HETATM   12  O   UNL     1     -11.156  13.156  63.610  1.00  0.00    -0.565 OA 
HETATM   13  H   UNL     1     -11.651  13.581  62.918  1.00  0.00     0.000 HD 
ENDBRANCH   2   6
TORSDOF 1
ENDMDL
MODEL      130
REMARK 921   NORMALIZED FREE ENERGY PREDICTED BY IDOCK:   -3.00 KCAL/MOL
REMARK 922        TOTAL FREE ENERGY PREDICTED BY IDOCK:   -3.41 KCAL/MOL
REMARK 923 INTER-LIGAND FREE ENERGY PREDICTED BY IDOCK:   -3.15 KCAL/MOL
REMARK 924 INTRA-LIGAND FREE ENERGY PREDICTED BY IDOCK:   -0.26 KCAL/MOL
REMARK 927      BINDING AFFINITY PREDICTED BY RF-SCORE:    0.00 PKD
ROOT
HETATM    1  N   UNL     1     -12.211  14.862  68.966  1.00  0.00    -0.573 N  
HETATM    2  C   UNL     1     -11.830  13.633  69.414  1.00  0.00    -0.339 C  
HETATM    3  H2  UNL     1     -12.742  15.483  69.577  1.00  0.00     0.000 HD 
HETATM    4  H1  UNL     1     -11.967  15.164  68.022  1.00  0.00     0.000 HD 
HETATM    5  O   UNL     1     -12.123  13.269  70.548  1.00  0.00    -0.352 OA 
ENDROOT
BRANCH   2   6
HETATM    6  C   UNL     1     -11.050  12.761  68.483  1.00  0.00    -0.300 A  
HETATM    7  C   UNL     1     -11.577  11.484  68.224  1.00  0.00    -0.378 A  
HETATM    8  C   UNL     1     -10.914  10.596  67.374  1.00  0.00    -0.361 A  
HETATM    9  C   UNL     1      -9.714  10.972  66.774  1.00  0.00    -0.222 A  
HETATM   10  C   UNL     1      -9.179  12.238  67.018  1.00  0.00    -0.205 A  
HETATM   11  C   UNL     1      -9.845  13.131  67.865  1.00  0.00    -0.231 A  
HETATM   12  O   UNL     1      -9.291  14.369  68.073  1.00  0.00    -0.189 OA 
HETATM   13  H   UNL     1      -8.475  14.619  67.655  1.00  0.00     0.000 HD 
ENDBRANCH   2   6
TORSDOF 1
ENDMDL
MODEL      131
REMARK 921   NORMALIZED FREE ENERGY PREDICTED BY IDOCK:   -2.99 KCAL/MOL
REMARK 922        TOTAL FREE ENERGY PREDICTED BY IDOCK:   -3.39 KCAL/MOL
REMARK 923 INTER-LIGAND FREE ENERGY PREDICTED BY IDOCK:   -3.15 KCAL/MOL
REMARK 924 INTRA-LIGAND FREE ENERGY PREDICTED BY IDOCK:   -0.24 KCAL/MOL
REMARK 927      BINDING AFFINITY PREDICTED BY RF-SCORE:    0.00 PKD
ROOT
HETATM    1  N   UNL     1     -12.403  13.975  69.043  1.00  0.00    -0.501 N  
HETATM    2  C   UNL     1     -11.588  15.047  69.254  1.00  0.00    -0.315 C  
HETATM    3  H2  UNL     1     -13.188  13.803  69.672  1.00  0.00     0.000 HD 
HETATM    4  H1  UNL     1     -12.231  13.345  68.259  1.00  0.00     0.000 HD 
HETATM    5  O   UNL     1     -11.794  15.805  70.196  1.00  0.00    -0.338 OA 
ENDROOT
BRANCH   2   6
HETATM    6  C   UNL     1     -10.453  15.259  68.305  1.00  0.00    -0.244 A  
HETATM    7  C   UNL     1     -10.458  16.458  67.572  1.00  0.00    -0.304 A  
HETATM    8  C   UNL     1      -9.444  16.741  66.655  1.00  0.00    -0.275 A  
HETATM    9  C   UNL     1      -8.412  15.826  66.455  1.00  0.00    -0.335 A  
HETATM   10  C   UNL     1      -8.390  14.632  67.177  1.00  0.00    -0.236 A  
HETATM   11  C   UNL     1      -9.403  14.350  68.100  1.00  0.00    -0.203 A  
HETATM   12  O   UNL     1      -9.341  13.169  68.796  1.00  0.00    -0.395 OA 
HETATM   13  H   UNL     1      -8.630  12.553  68.658  1.00  0.00     0.000 HD 
ENDBRANCH   2   6
TORSDOF 1
ENDMDL
MODEL      132
REMARK 921   NORMALIZED FREE ENERGY PREDICTED BY IDOCK:   -2.98 KCAL/MOL
REMARK 922        TOTAL FREE ENERGY PREDICTED BY IDOCK:   -3.38 KCAL/MOL
REMARK 923 INTER-LIGAND FREE ENERGY PREDICTED BY IDOCK:   -3.12 KCAL/MOL
REMARK 924 INTRA-LIGAND FREE ENERGY PREDICTED BY IDOCK:   -0.26 KCAL/MOL
REMARK 927      BINDING AFFINITY PREDICTED BY RF-SCORE:    0.00 PKD
ROOT
HETATM    1  N   UNL     1     -12.693  13.649  64.893  1.00  0.00    -0.677 N  
HETATM    2  C   UNL     1     -11.415  13.243  64.650  1.00  0.00    -0.342 C  
HETATM    3  H2  UNL     1     -13.368  13.682  64.129  1.00  0.00     0.000 HD 
HETATM    4  H1  UNL     1     -12.977  13.919  65.835  1.00  0.00     0.000 HD 
HETATM    5  O   UNL     1     -11.073  12.917  63.518  1.00  0.00    -0.398 OA 
ENDROOT
BRANCH   2   6
HETATM    6  C   UNL     1     -10.463  13.207  65.802  1.00  0.00    -0.291 A  
HETATM    7  C   UNL     1      -9.775  12.000  66.017  1.00  0.00    -0.256 A  
HETATM    8  C   UNL     1      -8.872  11.870  67.074  1.00  0.00    -0.190 A  
HETATM    9  C   UNL     1      -8.646  12.943  67.932  1.00  0.00    -0.185 A  
HETATM   10  C   UNL     1      -9.318  14.150  67.731  1.00  0.00    -0.200 A  
HETATM   11  C   UNL     1     -10.219  14.284  66.669  1.00  0.00    -0.272 A  
HETATM   12  O   UNL     1     -10.853  15.489  66.500  1.00  0.00    -0.313 OA 
HETATM   13  H   UNL     1     -10.689  16.218  67.087  1.00  0.00     0.000 HD 
ENDBRANCH   2   6
TORSDOF 1
ENDMDL
MODEL      133
REMARK 921   NORMALIZED FREE ENERGY PREDICTED BY IDOCK:   -2.97 KCAL/MOL
REMARK 922        TOTAL FREE ENERGY PREDICTED BY IDOCK:   -3.37 KCAL/MOL
REMARK 923 INTER-LIGAND FREE ENERGY PREDICTED BY IDOCK:   -3.28 KCAL/MOL
REMARK 924 INTRA-LIGAND FREE ENERGY PREDICTED BY IDOCK:   -0.09 KCAL/MOL
REMARK 927      BINDING AFFINITY PREDICTED BY RF-SCORE:    0.00 PKD
ROOT
HETATM    1  N   UNL     1     -12.609  13.909  66.781  1.00  0.00    -0.453 N  
HETATM    2  C   UNL     1     -12.035  12.767  66.309  1.00  0.00    -0.395 C  
HETATM    3  H2  UNL     1     -13.391  14.328  66.277  1.00  0.00     0.000 HD 
HETATM    4  H1  UNL     1     -12.261  14.346  67.634  1.00  0.00     0.000 HD 
HETATM    5  O   UNL     1     -12.453  12.241  65.283  1.00  0.00    -0.585 OA 
ENDROOT
BRANCH   2   6
HETATM    6  C   UNL     1     -10.894  12.188  67.083  1.00  0.00    -0.286 A  
HETATM    7  C   UNL     1     -11.222  11.309  68.129  1.00  0.00    -0.351 A  
HETATM    8  C   UNL     1     -10.224  10.726  68.913  1.00  0.00    -0.219 A  
HETATM    9  C   UNL     1      -8.885  11.016  68.662  1.00  0.00    -0.164 A  
HETATM   10  C   UNL     1      -8.541  11.885  67.625  1.00  0.00    -0.156 A  
HETATM   11  C   UNL     1      -9.540  12.466  66.836  1.00  0.00    -0.219 A  
HETATM   12  O   UNL     1      -9.162  13.307  65.820  1.00  0.00    -0.451 OA 
HETATM   13  H   UNL     1      -8.245  13.495  65.653  1.00  0.00     0.000 HD 
ENDBRANCH   2   6
TORSDOF 1
ENDMDL
MODEL      134
REMARK 921   NORMALIZED FREE ENERGY PREDICTED BY IDOCK:   -2.95 KCAL/MOL
REMARK 922        TOTAL FREE ENERGY PREDICTED BY IDOCK:   -3.35 KCAL/MOL
REMARK 923 INTER-LIGAND FREE ENERGY PREDICTED BY IDOCK:   -3.09 KCAL/MOL
REMARK 924 INTRA-LIGAND FREE ENERGY PREDICTED BY IDOCK:   -0.26 KCAL/MOL
REMARK 927      BINDING AFFINITY PREDICTED BY RF-SCORE:    0.00 PKD
ROOT
HETATM    1  N   UNL     1     -10.673   7.790  70.138  1.00  0.00    -0.238 N  
HETATM    2  C   UNL     1     -10.807   8.583  71.238  1.00  0.00    -0.251 C  
HETATM    3  H2  UNL     1     -10.233   6.874  70.223  1.00  0.00     0.000 HD 
HETATM    4  H1  UNL     1     -11.012   8.109  69.229  1.00  0.00     0.000 HD 
HETATM    5  O   UNL     1     -10.401   8.200  72.330  1.00  0.00    -0.260 OA 
ENDROOT
BRANCH   2   6
HETATM    6  C   UNL     1     -11.462   9.915  71.064  1.00  0.00    -0.466 A  
HETATM    7  C   UNL     1     -12.573  10.185  71.881  1.00  0.00    -0.437 A  
HETATM    8  C   UNL     1     -13.254  11.400  71.783  1.00  0.00    -0.472 A  
HETATM    9  C   UNL     1     -12.836  12.360  70.865  1.00  0.00    -0.176 A  
HETATM   10  C   UNL     1     -11.733  12.110  70.048  1.00  0.00    -0.330 A  
HETATM   11  C   UNL     1     -11.045  10.895  70.148  1.00  0.00    -0.161 A  
HETATM   12  O   UNL     1      -9.961  10.690  69.334  1.00  0.00    -0.299 OA 
HETATM   13  H   UNL     1      -9.678  11.354  68.714  1.00  0.00     0.000 HD 
ENDBRANCH   2   6
TORSDOF 1
ENDMDL
MODEL      135
REMARK 921   NORMALIZED FREE ENERGY PREDICTED BY IDOCK:   -2.94 KCAL/MOL
REMARK 922        TOTAL FREE ENERGY PREDICTED BY IDOCK:   -3.34 KCAL/MOL
REMARK 923 INTER-LIGAND FREE ENERGY PREDICTED BY IDOCK:   -3.09 KCAL/MOL
REMARK 924 INTRA-LIGAND FREE ENERGY PREDICTED BY IDOCK:   -0.25 KCAL/MOL
REMARK 927      BINDING AFFINITY PREDICTED BY RF-SCORE:    0.00 PKD
ROOT
HETATM    1  N   UNL     1     -10.460  14.515  70.242  1.00  0.00    -0.297 N  
HETATM    2  C   UNL     1      -9.711  14.937  69.185  1.00  0.00    -0.183 C  
HETATM    3  H2  UNL     1     -10.116  14.649  71.193  1.00  0.00     0.000 HD 
HETATM    4  H1  UNL     1     -11.364  14.067  70.087  1.00  0.00     0.000 HD 
HETATM    5  O   UNL     1      -8.625  15.476  69.372  1.00  0.00    -0.249 OA 
ENDROOT
BRANCH   2   6
HETATM    6  C   UNL     1     -10.258  14.721  67.811  1.00  0.00    -0.232 A  
HETATM    7  C   UNL     1     -11.652  14.577  67.701  1.00  0.00    -0.402 A  
HETATM    8  C   UNL     1     -12.254  14.363  66.460  1.00  0.00    -0.358 A  
HETATM    9  C   UNL     1     -11.470  14.289  65.311  1.00  0.00    -0.344 A  
HETATM   10  C   UNL     1     -10.085  14.434  65.401  1.00  0.00    -0.388 A  
HETATM   11  C   UNL     1      -9.480  14.653  66.644  1.00  0.00    -0.278 A  
HETATM   12  O   UNL     1      -8.117  14.799  66.690  1.00  0.00    -0.361 OA 
HETATM   13  H   UNL     1      -7.591  14.753  65.900  1.00  0.00     0.000 HD 
ENDBRANCH   2   6
TORSDOF 1
ENDMDL
MODEL      136
REMARK 921   NORMALIZED FREE ENERGY PREDICTED BY IDOCK:   -2.91 KCAL/MOL
REMARK 922        TOTAL FREE ENERGY PREDICTED BY IDOCK:   -3.30 KCAL/MOL
REMARK 923 INTER-LIGAND FREE ENERGY PREDICTED BY IDOCK:   -3.11 KCAL/MOL
REMARK 924 INTRA-LIGAND FREE ENERGY PREDICTED BY IDOCK:   -0.19 KCAL/MOL
REMARK 927      BINDING AFFINITY PREDICTED BY RF-SCORE:    0.00 PKD
ROOT
HETATM    1  N   UNL     1      -9.848  11.150  69.302  1.00  0.00    -0.423 N  
HETATM    2  C   UNL     1     -10.538  10.086  69.801  1.00  0.00    -0.267 C  
HETATM    3  H2  UNL     1      -9.764  12.004  69.853  1.00  0.00     0.000 HD 
HETATM    4  H1  UNL     1      -9.414  11.095  68.380  1.00  0.00     0.000 HD 
HETATM    5  O   UNL     1     -11.059  10.152  70.910  1.00  0.00    -0.338 OA 
ENDROOT
BRANCH   2   6
HETATM    6  C   UNL     1     -10.631   8.856  68.958  1.00  0.00    -0.203 A  
HETATM    7  C   UNL     1     -10.780   7.634  69.637  1.00  0.00    -0.230 A  
HETATM    8  C   UNL     1     -10.866   6.431  68.934  1.00  0.00    -0.382 A  
HETATM    9  C   UNL     1     -10.802   6.432  67.543  1.00  0.00    -0.438 A  
HETATM   10  C   UNL     1     -10.657   7.636  66.852  1.00  0.00    -0.359 A  
HETATM   11  C   UNL     1     -10.576   8.844  67.555  1.00  0.00    -0.237 A  
HETATM   12  O   UNL     1     -10.443  10.007  66.840  1.00  0.00    -0.236 OA 
HETATM   13  H   UNL     1     -10.406   9.999  65.890  1.00  0.00     0.000 HD 
ENDBRANCH   2   6
TORSDOF 1
ENDMDL
MODEL      137
REMARK 921   NORMALIZED FREE ENERGY PREDICTED BY IDOCK:   -2.90 KCAL/MOL
REMARK 922        TOTAL FREE ENERGY PREDICTED BY IDOCK:   -3.29 KCAL/MOL
REMARK 923 INTER-LIGAND FREE ENERGY PREDICTED BY IDOCK:   -3.05 KCAL/MOL
REMARK 924 INTRA-LIGAND FREE ENERGY PREDICTED BY IDOCK:   -0.25 KCAL/MOL
REMARK 927      BINDING AFFINITY PREDICTED BY RF-SCORE:    0.00 PKD
ROOT
HETATM    1  N   UNL     1     -11.683   8.412  72.361  1.00  0.00    -0.386 N  
HETATM    2  C   UNL     1     -11.863   9.577  71.677  1.00  0.00    -0.397 C  
HETATM    3  H2  UNL     1     -12.361   8.128  73.068  1.00  0.00     0.000 HD 
HETATM    4  H1  UNL     1     -10.872   7.822  72.168  1.00  0.00     0.000 HD 
HETATM    5  O   UNL     1     -12.837  10.285  71.908  1.00  0.00    -0.425 OA 
ENDROOT
BRANCH   2   6
HETATM    6  C   UNL     1     -10.843   9.948  70.649  1.00  0.00    -0.400 A  
HETATM    7  C   UNL     1      -9.558   9.404  70.809  1.00  0.00    -0.322 A  
HETATM    8  C   UNL     1      -8.537   9.702  69.903  1.00  0.00    -0.218 A  
HETATM    9  C   UNL     1      -8.788  10.549  68.827  1.00  0.00    -0.158 A  
HETATM   10  C   UNL     1     -10.060  11.095  68.651  1.00  0.00    -0.208 A  
HETATM   11  C   UNL     1     -11.085  10.794  69.555  1.00  0.00    -0.278 A  
HETATM   12  O   UNL     1     -12.324  11.344  69.343  1.00  0.00    -0.254 OA 
HETATM   13  H   UNL     1     -12.488  11.917  68.603  1.00  0.00     0.000 HD 
ENDBRANCH   2   6
TORSDOF 1
ENDMDL
MODEL      138
REMARK 921   NORMALIZED FREE ENERGY PREDICTED BY IDOCK:   -2.88 KCAL/MOL
REMARK 922        TOTAL FREE ENERGY PREDICTED BY IDOCK:   -3.27 KCAL/MOL
REMARK 923 INTER-LIGAND FREE ENERGY PREDICTED BY IDOCK:   -3.02 KCAL/MOL
REMARK 924 INTRA-LIGAND FREE ENERGY PREDICTED BY IDOCK:   -0.26 KCAL/MOL
REMARK 927      BINDING AFFINITY PREDICTED BY RF-SCORE:    0.00 PKD
ROOT
HETATM    1  N   UNL     1      -9.967  15.489  65.719  1.00  0.00    -0.335 N  
HETATM    2  C   UNL     1     -10.362  14.247  65.322  1.00  0.00    -0.395 C  
HETATM    3  H2  UNL     1      -9.944  16.253  65.043  1.00  0.00     0.000 HD 
HETATM    4  H1  UNL     1      -9.695  15.658  66.687  1.00  0.00     0.000 HD 
HETATM    5  O   UNL     1     -10.690  14.043  64.158  1.00  0.00    -0.178 OA 
ENDROOT
BRANCH   2   6
HETATM    6  C   UNL     1     -10.382  13.160  66.348  1.00  0.00    -0.289 A  
HETATM    7  C   UNL     1      -9.296  13.110  67.238  1.00  0.00    -0.225 A  
HETATM    8  C   UNL     1      -9.223  12.125  68.225  1.00  0.00    -0.192 A  
HETATM    9  C   UNL     1     -10.235  11.174  68.334  1.00  0.00    -0.200 A  
HETATM   10  C   UNL     1     -11.323  11.210  67.460  1.00  0.00    -0.351 A  
HETATM   11  C   UNL     1     -11.400  12.200  66.474  1.00  0.00    -0.350 A  
HETATM   12  O   UNL     1     -12.489  12.207  65.640  1.00  0.00    -0.501 OA 
HETATM   13  H   UNL     1     -13.178  11.558  65.725  1.00  0.00     0.000 HD 
ENDBRANCH   2   6
TORSDOF 1
ENDMDL
MODEL      139
REMARK 921   NORMALIZED FREE ENERGY PREDICTED BY IDOCK:   -2.88 KCAL/MOL
REMARK 922        TOTAL FREE ENERGY PREDICTED BY IDOCK:   -3.27 KCAL/MOL
REMARK 923 INTER-LIGAND FREE ENERGY PREDICTED BY IDOCK:   -3.02 KCAL/MOL
REMARK 924 INTRA-LIGAND FREE ENERGY PREDICTED BY IDOCK:   -0.26 KCAL/MOL
REMARK 927      BINDING AFFINITY PREDICTED BY RF-SCORE:    0.00 PKD
ROOT
HETATM    1  N   UNL     1      -7.821  13.486  69.009  1.00  0.00    -0.336 N  
HETATM    2  C   UNL     1      -8.535  12.561  68.308  1.00  0.00    -0.165 C  
HETATM    3  H2  UNL     1      -6.958  13.211  69.479  1.00  0.00     0.000 HD 
HETATM    4  H1  UNL     1      -8.146  14.452  69.066  1.00  0.00     0.000 HD 
HETATM    5  O   UNL     1      -8.145  11.400  68.239  1.00  0.00    -0.128 OA 
ENDROOT
BRANCH   2   6
HETATM    6  C   UNL     1      -9.791  13.012  67.634  1.00  0.00    -0.212 A  
HETATM    7  C   UNL     1      -9.908  12.729  66.262  1.00  0.00    -0.269 A  
HETATM    8  C   UNL     1     -11.042  13.119  65.546  1.00  0.00    -0.299 A  
HETATM    9  C   UNL     1     -12.072  13.800  66.191  1.00  0.00    -0.477 A  
HETATM   10  C   UNL     1     -11.973  14.086  67.553  1.00  0.00    -0.430 A  
HETATM   11  C   UNL     1     -10.840  13.691  68.274  1.00  0.00    -0.251 A  
HETATM   12  O   UNL     1     -10.784  13.984  69.613  1.00  0.00    -0.449 OA 
HETATM   13  H   UNL     1     -11.494  14.443  70.046  1.00  0.00     0.000 HD 
ENDBRANCH   2   6
TORSDOF 1
ENDMDL
MODEL      140
REMARK 921   NORMALIZED FREE ENERGY PREDICTED BY IDOCK:   -2.88 KCAL/MOL
REMARK 922        TOTAL FREE ENERGY PREDICTED BY IDOCK:   -3.27 KCAL/MOL
REMARK 923 INTER-LIGAND FREE ENERGY PREDICTED BY IDOCK:   -3.04 KCAL/MOL
REMARK 924 INTRA-LIGAND FREE ENERGY PREDICTED BY IDOCK:   -0.23 KCAL/MOL
REMARK 927      BINDING AFFINITY PREDICTED BY RF-SCORE:    0.00 PKD
ROOT
HETATM    1  N   UNL     1      -9.597   7.813  67.311  1.00  0.00    -0.152 N  
HETATM    2  C   UNL     1     -10.139   8.996  66.906  1.00  0.00    -0.267 C  
HETATM    3  H2  UNL     1      -9.161   7.194  66.627  1.00  0.00     0.000 HD 
HETATM    4  H1  UNL     1      -9.625   7.544  68.295  1.00  0.00     0.000 HD 
HETATM    5  O   UNL     1     -10.106   9.320  65.723  1.00  0.00    -0.268 OA 
ENDROOT
BRANCH   2   6
HETATM    6  C   UNL     1     -10.764   9.870  67.945  1.00  0.00    -0.316 A  
HETATM    7  C   UNL     1     -10.784   9.373  69.260  1.00  0.00    -0.228 A  
HETATM    8  C   UNL     1     -11.354  10.115  70.296  1.00  0.00    -0.387 A  
HETATM    9  C   UNL     1     -11.914  11.363  70.032  1.00  0.00    -0.442 A  
HETATM   10  C   UNL     1     -11.899  11.873  68.733  1.00  0.00    -0.371 A  
HETATM   11  C   UNL     1     -11.323  11.133  67.694  1.00  0.00    -0.284 A  
HETATM   12  O   UNL     1     -11.321  11.672  66.433  1.00  0.00    -0.323 OA 
HETATM   13  H   UNL     1     -11.700  12.527  66.263  1.00  0.00     0.000 HD 
ENDBRANCH   2   6
TORSDOF 1
ENDMDL
MODEL      141
REMARK 921   NORMALIZED FREE ENERGY PREDICTED BY IDOCK:   -2.86 KCAL/MOL
REMARK 922        TOTAL FREE ENERGY PREDICTED BY IDOCK:   -3.26 KCAL/MOL
REMARK 923 INTER-LIGAND FREE ENERGY PREDICTED BY IDOCK:   -3.02 KCAL/MOL
REMARK 924 INTRA-LIGAND FREE ENERGY PREDICTED BY IDOCK:   -0.24 KCAL/MOL
REMARK 927      BINDING AFFINITY PREDICTED BY RF-SCORE:    0.00 PKD
ROOT
HETATM    1  N   UNL     1      -9.417  14.138  66.921  1.00  0.00    -0.257 N  
HETATM    2  C   UNL     1     -10.231  14.358  67.991  1.00  0.00    -0.228 C  
HETATM    3  H2  UNL     1      -8.940  14.923  66.476  1.00  0.00     0.000 HD 
HETATM    4  H1  UNL     1      -9.282  13.192  66.563  1.00  0.00     0.000 HD 
HETATM    5  O   UNL     1     -10.393  15.496  68.422  1.00  0.00    -0.224 OA 
ENDROOT
BRANCH   2   6
HETATM    6  C   UNL     1     -10.904  13.177  68.611  1.00  0.00    -0.287 A  
HETATM    7  C   UNL     1     -10.857  11.972  67.890  1.00  0.00    -0.254 A  
HETATM    8  C   UNL     1     -11.466  10.817  68.385  1.00  0.00    -0.358 A  
HETATM    9  C   UNL     1     -12.132  10.852  69.608  1.00  0.00    -0.400 A  
HETATM   10  C   UNL     1     -12.186  12.039  70.339  1.00  0.00    -0.379 A  
HETATM   11  C   UNL     1     -11.572  13.196  69.847  1.00  0.00    -0.185 A  
HETATM   12  O   UNL     1     -11.639  14.341  70.599  1.00  0.00    -0.449 OA 
HETATM   13  H   UNL     1     -12.091  14.354  71.435  1.00  0.00     0.000 HD 
ENDBRANCH   2   6
TORSDOF 1
ENDMDL
MODEL      142
REMARK 921   NORMALIZED FREE ENERGY PREDICTED BY IDOCK:   -2.84 KCAL/MOL
REMARK 922        TOTAL FREE ENERGY PREDICTED BY IDOCK:   -3.23 KCAL/MOL
REMARK 923 INTER-LIGAND FREE ENERGY PREDICTED BY IDOCK:   -2.99 KCAL/MOL
REMARK 924 INTRA-LIGAND FREE ENERGY PREDICTED BY IDOCK:   -0.24 KCAL/MOL
REMARK 927      BINDING AFFINITY PREDICTED BY RF-SCORE:    0.00 PKD
ROOT
HETATM    1  N   UNL     1     -11.763   6.448  69.132  1.00  0.00    -0.491 N  
HETATM    2  C   UNL     1     -10.795   7.212  69.712  1.00  0.00    -0.240 C  
HETATM    3  H2  UNL     1     -11.934   6.522  68.129  1.00  0.00     0.000 HD 
HETATM    4  H1  UNL     1     -12.316   5.802  69.696  1.00  0.00     0.000 HD 
HETATM    5  O   UNL     1     -10.130   7.988  69.034  1.00  0.00    -0.190 OA 
ENDROOT
BRANCH   2   6
HETATM    6  C   UNL     1     -10.578   7.066  71.183  1.00  0.00    -0.237 A  
HETATM    7  C   UNL     1     -11.147   5.937  71.797  1.00  0.00    -0.324 A  
HETATM    8  C   UNL     1     -11.005   5.720  73.169  1.00  0.00    -0.309 A  
HETATM    9  C   UNL     1     -10.295   6.631  73.947  1.00  0.00    -0.385 A  
HETATM   10  C   UNL     1      -9.720   7.756  73.353  1.00  0.00    -0.353 A  
HETATM   11  C   UNL     1      -9.857   7.972  71.977  1.00  0.00    -0.211 A  
HETATM   12  O   UNL     1      -9.271   9.085  71.430  1.00  0.00    -0.247 OA 
HETATM   13  H   UNL     1      -8.782   9.698  71.967  1.00  0.00     0.000 HD 
ENDBRANCH   2   6
TORSDOF 1
ENDMDL
MODEL      143
REMARK 921   NORMALIZED FREE ENERGY PREDICTED BY IDOCK:   -2.83 KCAL/MOL
REMARK 922        TOTAL FREE ENERGY PREDICTED BY IDOCK:   -3.22 KCAL/MOL
REMARK 923 INTER-LIGAND FREE ENERGY PREDICTED BY IDOCK:   -2.99 KCAL/MOL
REMARK 924 INTRA-LIGAND FREE ENERGY PREDICTED BY IDOCK:   -0.24 KCAL/MOL
REMARK 927      BINDING AFFINITY PREDICTED BY RF-SCORE:    0.00 PKD
ROOT
HETATM    1  N   UNL     1     -11.208   4.664  65.124  1.00  0.00    -0.965 N  
HETATM    2  C   UNL     1     -10.053   4.497  65.827  1.00  0.00    -0.255 C  
HETATM    3  H2  UNL     1     -11.647   3.862  64.670  1.00  0.00     0.000 HD 
HETATM    4  H1  UNL     1     -11.636   5.587  65.049  1.00  0.00     0.000 HD 
HETATM    5  O   UNL     1      -9.539   3.387  65.918  1.00  0.00    -0.148 OA 
ENDROOT
BRANCH   2   6
HETATM    6  C   UNL     1      -9.451   5.701  66.477  1.00  0.00    -0.165 A  
HETATM    7  C   UNL     1      -8.048   5.788  66.467  1.00  0.00    -0.102 A  
HETATM    8  C   UNL     1      -7.395   6.872  67.057  1.00  0.00    -0.086 A  
HETATM    9  C   UNL     1      -8.135   7.882  67.667  1.00  0.00    -0.124 A  
HETATM   10  C   UNL     1      -9.529   7.812  67.683  1.00  0.00    -0.168 A  
HETATM   11  C   UNL     1     -10.185   6.729  67.088  1.00  0.00    -0.225 A  
HETATM   12  O   UNL     1     -11.557   6.702  67.116  1.00  0.00    -0.749 OA 
HETATM   13  H   UNL     1     -12.054   7.398  67.530  1.00  0.00     0.000 HD 
ENDBRANCH   2   6
TORSDOF 1
ENDMDL
MODEL      144
REMARK 921   NORMALIZED FREE ENERGY PREDICTED BY IDOCK:   -2.82 KCAL/MOL
REMARK 922        TOTAL FREE ENERGY PREDICTED BY IDOCK:   -3.21 KCAL/MOL
REMARK 923 INTER-LIGAND FREE ENERGY PREDICTED BY IDOCK:   -3.13 KCAL/MOL
REMARK 924 INTRA-LIGAND FREE ENERGY PREDICTED BY IDOCK:   -0.08 KCAL/MOL
REMARK 927      BINDING AFFINITY PREDICTED BY RF-SCORE:    0.00 PKD
ROOT
HETATM    1  N   UNL     1     -10.742   8.183  68.934  1.00  0.00    -0.403 N  
HETATM    2  C   UNL     1     -10.928   8.608  70.215  1.00  0.00    -0.236 C  
HETATM    3  H2  UNL     1     -10.794   8.851  68.165  1.00  0.00     0.000 HD 
HETATM    4  H1  UNL     1     -10.550   7.200  68.741  1.00  0.00     0.000 HD 
HETATM    5  O   UNL     1     -11.158   9.790  70.448  1.00  0.00    -0.260 OA 
ENDROOT
BRANCH   2   6
HETATM    6  C   UNL     1     -10.838   7.593  71.308  1.00  0.00    -0.252 A  
HETATM    7  C   UNL     1     -10.695   8.084  72.617  1.00  0.00    -0.426 A  
HETATM    8  C   UNL     1     -10.594   7.211  73.702  1.00  0.00    -0.375 A  
HETATM    9  C   UNL     1     -10.633   5.834  73.493  1.00  0.00    -0.295 A  
HETATM   10  C   UNL     1     -10.778   5.329  72.200  1.00  0.00    -0.271 A  
HETATM   11  C   UNL     1     -10.884   6.203  71.112  1.00  0.00    -0.270 A  
HETATM   12  O   UNL     1     -11.035   5.668  69.858  1.00  0.00    -0.339 OA 
HETATM   13  H   UNL     1     -11.066   4.727  69.725  1.00  0.00     0.000 HD 
ENDBRANCH   2   6
TORSDOF 1
ENDMDL
MODEL      145
REMARK 921   NORMALIZED FREE ENERGY PREDICTED BY IDOCK:   -2.80 KCAL/MOL
REMARK 922        TOTAL FREE ENERGY PREDICTED BY IDOCK:   -3.19 KCAL/MOL
REMARK 923 INTER-LIGAND FREE ENERGY PREDICTED BY IDOCK:   -3.03 KCAL/MOL
REMARK 924 INTRA-LIGAND FREE ENERGY PREDICTED BY IDOCK:   -0.16 KCAL/MOL
REMARK 927      BINDING AFFINITY PREDICTED BY RF-SCORE:    0.00 PKD
ROOT
HETATM    1  N   UNL     1     -10.488  16.469  66.473  1.00  0.00    -0.294 N  
HETATM    2  C   UNL     1     -10.297  16.900  67.752  1.00  0.00    -0.327 C  
HETATM    3  H2  UNL     1     -11.311  15.912  66.244  1.00  0.00     0.000 HD 
HETATM    4  H1  UNL     1      -9.812  16.702  65.746  1.00  0.00     0.000 HD 
HETATM    5  O   UNL     1     -11.109  16.621  68.627  1.00  0.00    -0.341 OA 
ENDROOT
BRANCH   2   6
HETATM    6  C   UNL     1      -9.078  17.717  68.039  1.00  0.00    -0.269 A  
HETATM    7  C   UNL     1      -8.014  17.060  68.680  1.00  0.00    -0.258 A  
HETATM    8  C   UNL     1      -6.838  17.744  68.996  1.00  0.00    -0.244 A  
HETATM    9  C   UNL     1      -6.711  19.094  68.679  1.00  0.00    -0.312 A  
HETATM   10  C   UNL     1      -7.757  19.761  68.039  1.00  0.00    -0.339 A  
HETATM   11  C   UNL     1      -8.934  19.076  67.717  1.00  0.00    -0.293 A  
HETATM   12  O   UNL     1      -9.936  19.764  67.081  1.00  0.00    -0.357 OA 
HETATM   13  H   UNL     1      -9.839  20.685  66.863  1.00  0.00     0.000 HD 
ENDBRANCH   2   6
TORSDOF 1
ENDMDL
MODEL      146
REMARK 921   NORMALIZED FREE ENERGY PREDICTED BY IDOCK:   -2.80 KCAL/MOL
REMARK 922        TOTAL FREE ENERGY PREDICTED BY IDOCK:   -3.18 KCAL/MOL
REMARK 923 INTER-LIGAND FREE ENERGY PREDICTED BY IDOCK:   -2.94 KCAL/MOL
REMARK 924 INTRA-LIGAND FREE ENERGY PREDICTED BY IDOCK:   -0.24 KCAL/MOL
REMARK 927      BINDING AFFINITY PREDICTED BY RF-SCORE:    0.00 PKD
ROOT
HETATM    1  N   UNL     1     -12.078  12.372  64.469  1.00  0.00    -0.411 N  
HETATM    2  C   UNL     1     -11.078  11.455  64.600  1.00  0.00    -0.207 C  
HETATM    3  H2  UNL     1     -12.267  12.789  63.558  1.00  0.00     0.000 HD 
HETATM    4  H1  UNL     1     -12.637  12.642  65.279  1.00  0.00     0.000 HD 
HETATM    5  O   UNL     1     -10.405  11.130  63.627  1.00  0.00    -0.344 OA 
ENDROOT
BRANCH   2   6
HETATM    6  C   UNL     1     -10.841  10.869  65.954  1.00  0.00    -0.132 A  
HETATM    7  C   UNL     1     -11.344  11.589  67.051  1.00  0.00    -0.340 A  
HETATM    8  C   UNL     1     -11.163  11.124  68.356  1.00  0.00    -0.325 A  
HETATM    9  C   UNL     1     -10.475   9.934  68.581  1.00  0.00    -0.231 A  
HETATM   10  C   UNL     1      -9.971   9.205  67.503  1.00  0.00    -0.258 A  
HETATM   11  C   UNL     1     -10.156   9.667  66.195  1.00  0.00    -0.258 A  
HETATM   12  O   UNL     1      -9.654   8.917  65.161  1.00  0.00    -0.435 OA 
HETATM   13  H   UNL     1      -9.191   8.103  65.324  1.00  0.00     0.000 HD 
ENDBRANCH   2   6
TORSDOF 1
ENDMDL
MODEL      147
REMARK 921   NORMALIZED FREE ENERGY PREDICTED BY IDOCK:   -2.79 KCAL/MOL
REMARK 922        TOTAL FREE ENERGY PREDICTED BY IDOCK:   -3.18 KCAL/MOL
REMARK 923 INTER-LIGAND FREE ENERGY PREDICTED BY IDOCK:   -2.94 KCAL/MOL
REMARK 924 INTRA-LIGAND FREE ENERGY PREDICTED BY IDOCK:   -0.24 KCAL/MOL
REMARK 927      BINDING AFFINITY PREDICTED BY RF-SCORE:    0.00 PKD
ROOT
HETATM    1  N   UNL     1      -9.050  14.576  66.518  1.00  0.00    -0.394 N  
HETATM    2  C   UNL     1     -10.117  13.807  66.159  1.00  0.00    -0.307 C  
HETATM    3  H2  UNL     1      -9.051  15.574  66.307  1.00  0.00     0.000 HD 
HETATM    4  H1  UNL     1      -8.252  14.157  66.996  1.00  0.00     0.000 HD 
HETATM    5  O   UNL     1     -11.077  14.310  65.584  1.00  0.00    -0.303 OA 
ENDROOT
BRANCH   2   6
HETATM    6  C   UNL     1     -10.071  12.351  66.492  1.00  0.00    -0.246 A  
HETATM    7  C   UNL     1     -10.071  11.455  65.410  1.00  0.00    -0.308 A  
HETATM    8  C   UNL     1     -10.039  10.075  65.623  1.00  0.00    -0.321 A  
HETATM    9  C   UNL     1     -10.009   9.573  66.921  1.00  0.00    -0.278 A  
HETATM   10  C   UNL     1     -10.005  10.448  68.008  1.00  0.00    -0.178 A  
HETATM   11  C   UNL     1     -10.032  11.831  67.796  1.00  0.00    -0.190 A  
HETATM   12  O   UNL     1     -10.019  12.659  68.890  1.00  0.00    -0.417 OA 
HETATM   13  H   UNL     1      -9.992  12.308  69.773  1.00  0.00     0.000 HD 
ENDBRANCH   2   6
TORSDOF 1
ENDMDL
MODEL      148
REMARK 921   NORMALIZED FREE ENERGY PREDICTED BY IDOCK:   -2.79 KCAL/MOL
REMARK 922        TOTAL FREE ENERGY PREDICTED BY IDOCK:   -3.18 KCAL/MOL
REMARK 923 INTER-LIGAND FREE ENERGY PREDICTED BY IDOCK:   -2.95 KCAL/MOL
REMARK 924 INTRA-LIGAND FREE ENERGY PREDICTED BY IDOCK:   -0.23 KCAL/MOL
REMARK 927      BINDING AFFINITY PREDICTED BY RF-SCORE:    0.00 PKD
ROOT
HETATM    1  N   UNL     1     -11.565  13.497  65.454  1.00  0.00    -0.310 N  
HETATM    2  C   UNL     1     -11.387  14.075  66.675  1.00  0.00    -0.335 C  
HETATM    3  H2  UNL     1     -12.445  13.028  65.237  1.00  0.00     0.000 HD 
HETATM    4  H1  UNL     1     -10.821  13.531  64.755  1.00  0.00     0.000 HD 
HETATM    5  O   UNL     1     -12.281  14.035  67.515  1.00  0.00    -0.366 OA 
ENDROOT
BRANCH   2   6
HETATM    6  C   UNL     1     -10.082  14.753  66.944  1.00  0.00    -0.246 A  
HETATM    7  C   UNL     1      -9.708  15.778  66.058  1.00  0.00    -0.377 A  
HETATM    8  C   UNL     1      -8.502  16.462  66.225  1.00  0.00    -0.372 A  
HETATM    9  C   UNL     1      -7.653  16.129  67.277  1.00  0.00    -0.217 A  
HETATM   10  C   UNL     1      -8.011  15.116  68.168  1.00  0.00    -0.125 A  
HETATM   11  C   UNL     1      -9.221  14.432  68.006  1.00  0.00    -0.193 A  
HETATM   12  O   UNL     1      -9.541  13.449  68.907  1.00  0.00    -0.407 OA 
HETATM   13  H   UNL     1      -8.958  13.232  69.626  1.00  0.00     0.000 HD 
ENDBRANCH   2   6
TORSDOF 1
ENDMDL
MODEL      149
REMARK 921   NORMALIZED FREE ENERGY PREDICTED BY IDOCK:   -2.78 KCAL/MOL
REMARK 922        TOTAL FREE ENERGY PREDICTED BY IDOCK:   -3.16 KCAL/MOL
REMARK 923 INTER-LIGAND FREE ENERGY PREDICTED BY IDOCK:   -2.93 KCAL/MOL
REMARK 924 INTRA-LIGAND FREE ENERGY PREDICTED BY IDOCK:   -0.23 KCAL/MOL
REMARK 927      BINDING AFFINITY PREDICTED BY RF-SCORE:    0.00 PKD
ROOT
HETATM    1  N   UNL     1     -11.150   7.140  73.305  1.00  0.00    -0.552 N  
HETATM    2  C   UNL     1     -11.810   6.610  72.238  1.00  0.00    -0.252 C  
HETATM    3  H2  UNL     1     -11.443   6.902  74.253  1.00  0.00     0.000 HD 
HETATM    4  H1  UNL     1     -10.364   7.775  73.161  1.00  0.00     0.000 HD 
HETATM    5  O   UNL     1     -12.755   5.847  72.410  1.00  0.00    -0.025 OA 
ENDROOT
BRANCH   2   6
HETATM    6  C   UNL     1     -11.341   6.987  70.869  1.00  0.00    -0.334 A  
HETATM    7  C   UNL     1     -11.390   5.984  69.886  1.00  0.00    -0.355 A  
HETATM    8  C   UNL     1     -10.965   6.240  68.581  1.00  0.00    -0.423 A  
HETATM    9  C   UNL     1     -10.483   7.502  68.241  1.00  0.00    -0.223 A  
HETATM   10  C   UNL     1     -10.431   8.511  69.205  1.00  0.00    -0.217 A  
HETATM   11  C   UNL     1     -10.861   8.257  70.512  1.00  0.00    -0.232 A  
HETATM   12  O   UNL     1     -10.802   9.277  71.428  1.00  0.00    -0.314 OA 
HETATM   13  H   UNL     1     -10.477  10.137  71.186  1.00  0.00     0.000 HD 
ENDBRANCH   2   6
TORSDOF 1
ENDMDL
MODEL      150
REMARK 921   NORMALIZED FREE ENERGY PREDICTED BY IDOCK:   -2.75 KCAL/MOL
REMARK 922        TOTAL FREE ENERGY PREDICTED BY IDOCK:   -3.13 KCAL/MOL
REMARK 923 INTER-LIGAND FREE ENERGY PREDICTED BY IDOCK:   -2.89 KCAL/MOL
REMARK 924 INTRA-LIGAND FREE ENERGY PREDICTED BY IDOCK:   -0.24 KCAL/MOL
REMARK 927      BINDING AFFINITY PREDICTED BY RF-SCORE:    0.00 PKD
ROOT
HETATM    1  N   UNL     1     -10.999   7.766  68.587  1.00  0.00    -0.419 N  
HETATM    2  C   UNL     1     -10.928   6.570  69.236  1.00  0.00    -0.331 C  
HETATM    3  H2  UNL     1     -11.059   7.788  67.568  1.00  0.00     0.000 HD 
HETATM    4  H1  UNL     1     -10.992   8.639  69.115  1.00  0.00     0.000 HD 
HETATM    5  O   UNL     1     -10.935   5.520  68.601  1.00  0.00    -0.131 OA 
ENDROOT
BRANCH   2   6
HETATM    6  C   UNL     1     -10.844   6.589  70.728  1.00  0.00    -0.311 A  
HETATM    7  C   UNL     1     -11.166   7.800  71.363  1.00  0.00    -0.276 A  
HETATM    8  C   UNL     1     -11.109   7.916  72.754  1.00  0.00    -0.462 A  
HETATM    9  C   UNL     1     -10.726   6.823  73.527  1.00  0.00    -0.319 A  
HETATM   10  C   UNL     1     -10.406   5.612  72.913  1.00  0.00    -0.224 A  
HETATM   11  C   UNL     1     -10.468   5.492  71.520  1.00  0.00    -0.235 A  
HETATM   12  O   UNL     1     -10.155   4.283  70.954  1.00  0.00    -0.185 OA 
HETATM   13  H   UNL     1      -9.901   3.540  71.490  1.00  0.00     0.000 HD 
ENDBRANCH   2   6
TORSDOF 1
ENDMDL
MODEL      151
REMARK 921   NORMALIZED FREE ENERGY PREDICTED BY IDOCK:   -2.73 KCAL/MOL
REMARK 922        TOTAL FREE ENERGY PREDICTED BY IDOCK:   -3.11 KCAL/MOL
REMARK 923 INTER-LIGAND FREE ENERGY PREDICTED BY IDOCK:   -2.87 KCAL/MOL
REMARK 924 INTRA-LIGAND FREE ENERGY PREDICTED BY IDOCK:   -0.24 KCAL/MOL
REMARK 927      BINDING AFFINITY PREDICTED BY RF-SCORE:    0.00 PKD
ROOT
HETATM    1  N   UNL     1      -9.491  17.052  66.159  1.00  0.00    -0.253 N  
HETATM    2  C   UNL     1      -8.154  17.168  66.398  1.00  0.00    -0.302 C  
HETATM    3  H2  UNL     1      -9.907  16.127  66.049  1.00  0.00     0.000 HD 
HETATM    4  H1  UNL     1     -10.076  17.885  66.091  1.00  0.00     0.000 HD 
HETATM    5  O   UNL     1      -7.450  16.167  66.480  1.00  0.00    -0.211 OA 
ENDROOT
BRANCH   2   6
HETATM    6  C   UNL     1      -7.590  18.544  66.556  1.00  0.00    -0.270 A  
HETATM    7  C   UNL     1      -6.636  18.948  65.607  1.00  0.00    -0.303 A  
HETATM    8  C   UNL     1      -6.047  20.213  65.679  1.00  0.00    -0.230 A  
HETATM    9  C   UNL     1      -6.403  21.089  66.701  1.00  0.00    -0.359 A  
HETATM   10  C   UNL     1      -7.352  20.704  67.650  1.00  0.00    -0.330 A  
HETATM   11  C   UNL     1      -7.946  19.439  67.577  1.00  0.00    -0.268 A  
HETATM   12  O   UNL     1      -8.881  19.102  68.523  1.00  0.00    -0.344 OA 
HETATM   13  H   UNL     1      -9.122  19.708  69.214  1.00  0.00     0.000 HD 
ENDBRANCH   2   6
TORSDOF 1
ENDMDL
MODEL      152
REMARK 921   NORMALIZED FREE ENERGY PREDICTED BY IDOCK:   -2.72 KCAL/MOL
REMARK 922        TOTAL FREE ENERGY PREDICTED BY IDOCK:   -3.10 KCAL/MOL
REMARK 923 INTER-LIGAND FREE ENERGY PREDICTED BY IDOCK:   -3.01 KCAL/MOL
REMARK 924 INTRA-LIGAND FREE ENERGY PREDICTED BY IDOCK:   -0.09 KCAL/MOL
REMARK 927      BINDING AFFINITY PREDICTED BY RF-SCORE:    0.00 PKD
ROOT
HETATM    1  N   UNL     1      -9.320   9.463  65.019  1.00  0.00    -0.410 N  
HETATM    2  C   UNL     1     -10.145  10.547  65.062  1.00  0.00    -0.321 C  
HETATM    3  H2  UNL     1      -9.131   9.004  64.128  1.00  0.00     0.000 HD 
HETATM    4  H1  UNL     1      -8.890   9.110  65.875  1.00  0.00     0.000 HD 
HETATM    5  O   UNL     1     -10.662  10.972  64.034  1.00  0.00    -0.379 OA 
ENDROOT
BRANCH   2   6
HETATM    6  C   UNL     1     -10.388  11.188  66.390  1.00  0.00    -0.300 A  
HETATM    7  C   UNL     1     -11.365  10.595  67.208  1.00  0.00    -0.122 A  
HETATM    8  C   UNL     1     -11.668  11.129  68.463  1.00  0.00    -0.368 A  
HETATM    9  C   UNL     1     -10.999  12.263  68.915  1.00  0.00    -0.265 A  
HETATM   10  C   UNL     1     -10.023  12.863  68.118  1.00  0.00    -0.234 A  
HETATM   11  C   UNL     1      -9.716  12.326  66.862  1.00  0.00    -0.212 A  
HETATM   12  O   UNL     1      -8.744  12.939  66.111  1.00  0.00    -0.404 OA 
HETATM   13  H   UNL     1      -8.289  13.710  66.431  1.00  0.00     0.000 HD 
ENDBRANCH   2   6
TORSDOF 1
ENDMDL
MODEL      153
REMARK 921   NORMALIZED FREE ENERGY PREDICTED BY IDOCK:   -2.70 KCAL/MOL
REMARK 922        TOTAL FREE ENERGY PREDICTED BY IDOCK:   -3.09 KCAL/MOL
REMARK 923 INTER-LIGAND FREE ENERGY PREDICTED BY IDOCK:   -2.85 KCAL/MOL
REMARK 924 INTRA-LIGAND FREE ENERGY PREDICTED BY IDOCK:   -0.23 KCAL/MOL
REMARK 927      BINDING AFFINITY PREDICTED BY RF-SCORE:    0.00 PKD
ROOT
HETATM    1  N   UNL     1     -10.729   7.224  70.830  1.00  0.00    -0.228 N  
HETATM    2  C   UNL     1     -10.830   6.975  69.494  1.00  0.00    -0.238 C  
HETATM    3  H2  UNL     1     -10.923   6.480  71.500  1.00  0.00     0.000 HD 
HETATM    4  H1  UNL     1     -10.459   8.150  71.162  1.00  0.00     0.000 HD 
HETATM    5  O   UNL     1     -11.154   5.862  69.094  1.00  0.00    -0.351 OA 
ENDROOT
BRANCH   2   6
HETATM    6  C   UNL     1     -10.532   8.096  68.550  1.00  0.00    -0.199 A  
HETATM    7  C   UNL     1     -10.355   9.369  69.117  1.00  0.00    -0.221 A  
HETATM    8  C   UNL     1     -10.082  10.478  68.314  1.00  0.00    -0.180 A  
HETATM    9  C   UNL     1      -9.984  10.329  66.933  1.00  0.00    -0.259 A  
HETATM   10  C   UNL     1     -10.153   9.071  66.353  1.00  0.00    -0.351 A  
HETATM   11  C   UNL     1     -10.422   7.958  67.157  1.00  0.00    -0.344 A  
HETATM   12  O   UNL     1     -10.574   6.736  66.551  1.00  0.00    -0.484 OA 
HETATM   13  H   UNL     1     -10.499   6.643  65.608  1.00  0.00     0.000 HD 
ENDBRANCH   2   6
TORSDOF 1
ENDMDL
MODEL      154
REMARK 921   NORMALIZED FREE ENERGY PREDICTED BY IDOCK:   -2.68 KCAL/MOL
REMARK 922        TOTAL FREE ENERGY PREDICTED BY IDOCK:   -3.07 KCAL/MOL
REMARK 923 INTER-LIGAND FREE ENERGY PREDICTED BY IDOCK:   -2.98 KCAL/MOL
REMARK 924 INTRA-LIGAND FREE ENERGY PREDICTED BY IDOCK:   -0.09 KCAL/MOL
REMARK 927      BINDING AFFINITY PREDICTED BY RF-SCORE:    0.00 PKD
ROOT
HETATM    1  N   UNL     1     -11.190   4.581  65.134  1.00  0.00    -0.978 N  
HETATM    2  C   UNL     1     -10.171   4.695  66.031  1.00  0.00    -0.277 C  
HETATM    3  H2  UNL     1     -11.259   3.749  64.548  1.00  0.00     0.000 HD 
HETATM    4  H1  UNL     1     -11.884   5.324  65.046  1.00  0.00     0.000 HD 
HETATM    5  O   UNL     1      -9.336   3.802  66.137  1.00  0.00    -0.159 OA 
ENDROOT
BRANCH   2   6
HETATM    6  C   UNL     1     -10.113   5.932  66.870  1.00  0.00    -0.228 A  
HETATM    7  C   UNL     1     -10.888   5.936  68.042  1.00  0.00    -0.321 A  
HETATM    8  C   UNL     1     -10.905   7.050  68.884  1.00  0.00    -0.203 A  
HETATM    9  C   UNL     1     -10.149   8.175  68.564  1.00  0.00    -0.220 A  
HETATM   10  C   UNL     1      -9.371   8.186  67.405  1.00  0.00    -0.171 A  
HETATM   11  C   UNL     1      -9.349   7.069  66.563  1.00  0.00    -0.159 A  
HETATM   12  O   UNL     1      -8.566   7.115  65.438  1.00  0.00    -0.266 OA 
HETATM   13  H   UNL     1      -8.048   7.885  65.230  1.00  0.00     0.000 HD 
ENDBRANCH   2   6
TORSDOF 1
ENDMDL
MODEL      155
REMARK 921   NORMALIZED FREE ENERGY PREDICTED BY IDOCK:   -2.64 KCAL/MOL
REMARK 922        TOTAL FREE ENERGY PREDICTED BY IDOCK:   -3.02 KCAL/MOL
REMARK 923 INTER-LIGAND FREE ENERGY PREDICTED BY IDOCK:   -2.77 KCAL/MOL
REMARK 924 INTRA-LIGAND FREE ENERGY PREDICTED BY IDOCK:   -0.25 KCAL/MOL
REMARK 927      BINDING AFFINITY PREDICTED BY RF-SCORE:    0.00 PKD
ROOT
HETATM    1  N   UNL     1      -9.984   7.174  70.515  1.00  0.00    -0.187 N  
HETATM    2  C   UNL     1     -10.592   7.070  69.300  1.00  0.00    -0.224 C  
HETATM    3  H2  UNL     1     -10.003   6.384  71.160  1.00  0.00     0.000 HD 
HETATM    4  H1  UNL     1      -9.511   8.037  70.782  1.00  0.00     0.000 HD 
HETATM    5  O   UNL     1     -11.161   6.032  68.979  1.00  0.00    -0.367 OA 
ENDROOT
BRANCH   2   6
HETATM    6  C   UNL     1     -10.535   8.253  68.387  1.00  0.00    -0.206 A  
HETATM    7  C   UNL     1      -9.937   8.054  67.131  1.00  0.00    -0.303 A  
HETATM    8  C   UNL     1      -9.830   9.102  66.215  1.00  0.00    -0.359 A  
HETATM    9  C   UNL     1     -10.318  10.365  66.544  1.00  0.00    -0.287 A  
HETATM   10  C   UNL     1     -10.918  10.580  67.785  1.00  0.00    -0.372 A  
HETATM   11  C   UNL     1     -11.030   9.528  68.703  1.00  0.00    -0.072 A  
HETATM   12  O   UNL     1     -11.634   9.777  69.909  1.00  0.00    -0.389 OA 
HETATM   13  H   UNL     1     -11.969  10.641  70.123  1.00  0.00     0.000 HD 
ENDBRANCH   2   6
TORSDOF 1
ENDMDL
MODEL      156
REMARK 921   NORMALIZED FREE ENERGY PREDICTED BY IDOCK:   -2.64 KCAL/MOL
REMARK 922        TOTAL FREE ENERGY PREDICTED BY IDOCK:   -3.02 KCAL/MOL
REMARK 923 INTER-LIGAND FREE ENERGY PREDICTED BY IDOCK:   -2.76 KCAL/MOL
REMARK 924 INTRA-LIGAND FREE ENERGY PREDICTED BY IDOCK:   -0.26 KCAL/MOL
REMARK 927      BINDING AFFINITY PREDICTED BY RF-SCORE:    0.00 PKD
ROOT
HETATM    1  N   UNL     1     -11.313  13.066  69.199  1.00  0.00    -0.292 N  
HETATM    2  C   UNL     1     -10.364  13.664  68.425  1.00  0.00    -0.248 C  
HETATM    3  H2  UNL     1     -11.333  12.049  69.281  1.00  0.00     0.000 HD 
HETATM    4  H1  UNL     1     -12.003  13.630  69.696  1.00  0.00     0.000 HD 
HETATM    5  O   UNL     1      -9.535  12.986  67.827  1.00  0.00    -0.195 OA 
ENDROOT
BRANCH   2   6
HETATM    6  C   UNL     1     -10.374  15.156  68.337  1.00  0.00    -0.229 A  
HETATM    7  C   UNL     1     -10.279  15.715  67.051  1.00  0.00    -0.274 A  
HETATM    8  C   UNL     1     -10.271  17.099  66.871  1.00  0.00    -0.315 A  
HETATM    9  C   UNL     1     -10.355  17.944  67.975  1.00  0.00    -0.394 A  
HETATM   10  C   UNL     1     -10.453  17.407  69.259  1.00  0.00    -0.171 A  
HETATM   11  C   UNL     1     -10.466  16.019  69.441  1.00  0.00    -0.271 A  
HETATM   12  O   UNL     1     -10.573  15.530  70.718  1.00  0.00    -0.372 OA 
HETATM   13  H   UNL     1     -10.636  16.114  71.465  1.00  0.00     0.000 HD 
ENDBRANCH   2   6
TORSDOF 1
ENDMDL
MODEL      157
REMARK 921   NORMALIZED FREE ENERGY PREDICTED BY IDOCK:   -2.62 KCAL/MOL
REMARK 922        TOTAL FREE ENERGY PREDICTED BY IDOCK:   -3.00 KCAL/MOL
REMARK 923 INTER-LIGAND FREE ENERGY PREDICTED BY IDOCK:   -2.75 KCAL/MOL
REMARK 924 INTRA-LIGAND FREE ENERGY PREDICTED BY IDOCK:   -0.25 KCAL/MOL
REMARK 927      BINDING AFFINITY PREDICTED BY RF-SCORE:    0.00 PKD
ROOT
HETATM    1  N   UNL     1      -7.060  13.354  67.041  1.00  0.00    -0.238 N  
HETATM    2  C   UNL     1      -8.081  13.742  67.856  1.00  0.00    -0.166 C  
HETATM    3  H2  UNL     1      -6.094  13.470  67.349  1.00  0.00     0.000 HD 
HETATM    4  H1  UNL     1      -7.257  12.948  66.126  1.00  0.00     0.000 HD 
HETATM    5  O   UNL     1      -7.844  14.230  68.956  1.00  0.00    -0.121 OA 
ENDROOT
BRANCH   2   6
HETATM    6  C   UNL     1      -9.479  13.548  67.364  1.00  0.00    -0.225 A  
HETATM    7  C   UNL     1     -10.323  12.751  68.156  1.00  0.00    -0.243 A  
HETATM    8  C   UNL     1     -11.643  12.507  67.772  1.00  0.00    -0.401 A  
HETATM    9  C   UNL     1     -12.137  13.055  66.591  1.00  0.00    -0.386 A  
HETATM   10  C   UNL     1     -11.314  13.852  65.794  1.00  0.00    -0.308 A  
HETATM   11  C   UNL     1      -9.992  14.102  66.180  1.00  0.00    -0.314 A  
HETATM   12  O   UNL     1      -9.216  14.897  65.375  1.00  0.00    -0.345 OA 
HETATM   13  H   UNL     1      -9.563  15.272  64.573  1.00  0.00     0.000 HD 
ENDBRANCH   2   6
TORSDOF 1
ENDMDL
MODEL      158
REMARK 921   NORMALIZED FREE ENERGY PREDICTED BY IDOCK:   -2.62 KCAL/MOL
REMARK 922        TOTAL FREE ENERGY PREDICTED BY IDOCK:   -3.00 KCAL/MOL
REMARK 923 INTER-LIGAND FREE ENERGY PREDICTED BY IDOCK:   -2.76 KCAL/MOL
REMARK 924 INTRA-LIGAND FREE ENERGY PREDICTED BY IDOCK:   -0.24 KCAL/MOL
REMARK 927      BINDING AFFINITY PREDICTED BY RF-SCORE:    0.00 PKD
ROOT
HETATM    1  N   UNL     1     -11.170   6.841  66.865  1.00  0.00    -0.759 N  
HETATM    2  C   UNL     1     -10.048   6.067  66.844  1.00  0.00    -0.185 C  
HETATM    3  H2  UNL     1     -11.308   7.553  66.147  1.00  0.00     0.000 HD 
HETATM    4  H1  UNL     1     -11.871   6.711  67.594  1.00  0.00     0.000 HD 
HETATM    5  O   UNL     1      -9.205   6.223  65.967  1.00  0.00    -0.152 OA 
ENDROOT
BRANCH   2   6
HETATM    6  C   UNL     1      -9.892   5.036  67.914  1.00  0.00    -0.200 A  
HETATM    7  C   UNL     1      -9.987   5.484  69.243  1.00  0.00    -0.263 A  
HETATM    8  C   UNL     1      -9.846   4.595  70.310  1.00  0.00    -0.314 A  
HETATM    9  C   UNL     1      -9.604   3.246  70.064  1.00  0.00    -0.182 A  
HETATM   10  C   UNL     1      -9.509   2.783  68.750  1.00  0.00    -0.180 A  
HETATM   11  C   UNL     1      -9.656   3.672  67.680  1.00  0.00    -0.140 A  
HETATM   12  O   UNL     1      -9.565   3.177  66.403  1.00  0.00    -0.383 OA 
HETATM   13  H   UNL     1      -9.406   2.253  66.244  1.00  0.00     0.000 HD 
ENDBRANCH   2   6
TORSDOF 1
ENDMDL
MODEL      159
REMARK 921   NORMALIZED FREE ENERGY PREDICTED BY IDOCK:   -2.58 KCAL/MOL
REMARK 922        TOTAL FREE ENERGY PREDICTED BY IDOCK:   -2.96 KCAL/MOL
REMARK 923 INTER-LIGAND FREE ENERGY PREDICTED BY IDOCK:   -2.94 KCAL/MOL
REMARK 924 INTRA-LIGAND FREE ENERGY PREDICTED BY IDOCK:   -0.02 KCAL/MOL
REMARK 927      BINDING AFFINITY PREDICTED BY RF-SCORE:    0.00 PKD
ROOT
HETATM    1  N   UNL     1     -11.953  12.263  64.562  1.00  0.00    -0.388 N  
HETATM    2  C   UNL     1     -10.853  11.463  64.482  1.00  0.00    -0.309 C  
HETATM    3  H2  UNL     1     -12.352  12.663  63.713  1.00  0.00     0.000 HD 
HETATM    4  H1  UNL     1     -12.379  12.463  65.468  1.00  0.00     0.000 HD 
HETATM    5  O   UNL     1     -10.340  11.222  63.394  1.00  0.00    -0.360 OA 
ENDROOT
BRANCH   2   6
HETATM    6  C   UNL     1     -10.306  10.898  65.753  1.00  0.00    -0.303 A  
HETATM    7  C   UNL     1      -9.183  10.060  65.641  1.00  0.00    -0.234 A  
HETATM    8  C   UNL     1      -8.608   9.479  66.773  1.00  0.00    -0.133 A  
HETATM    9  C   UNL     1      -9.149   9.725  68.032  1.00  0.00    -0.127 A  
HETATM   10  C   UNL     1     -10.262  10.557  68.162  1.00  0.00    -0.187 A  
HETATM   11  C   UNL     1     -10.836  11.145  67.029  1.00  0.00    -0.284 A  
HETATM   12  O   UNL     1     -11.924  11.963  67.199  1.00  0.00    -0.611 OA 
HETATM   13  H   UNL     1     -12.284  12.130  68.063  1.00  0.00     0.000 HD 
ENDBRANCH   2   6
TORSDOF 1
ENDMDL
MODEL      160
REMARK 921   NORMALIZED FREE ENERGY PREDICTED BY IDOCK:   -2.57 KCAL/MOL
REMARK 922        TOTAL FREE ENERGY PREDICTED BY IDOCK:   -2.94 KCAL/MOL
REMARK 923 INTER-LIGAND FREE ENERGY PREDICTED BY IDOCK:   -2.69 KCAL/MOL
REMARK 924 INTRA-LIGAND FREE ENERGY PREDICTED BY IDOCK:   -0.25 KCAL/MOL
REMARK 927      BINDING AFFINITY PREDICTED BY RF-SCORE:    0.00 PKD
ROOT
HETATM    1  N   UNL     1      -7.586   6.743  70.594  1.00  0.00    -0.093 N  
HETATM    2  C   UNL     1      -8.671   6.143  71.159  1.00  0.00    -0.132 C  
HETATM    3  H2  UNL     1      -6.727   6.210  70.453  1.00  0.00     0.000 HD 
HETATM    4  H1  UNL     1      -7.629   7.723  70.311  1.00  0.00     0.000 HD 
HETATM    5  O   UNL     1      -8.620   4.966  71.500  1.00  0.00    -0.118 OA 
ENDROOT
BRANCH   2   6
HETATM    6  C   UNL     1      -9.907   6.964  71.341  1.00  0.00    -0.184 A  
HETATM    7  C   UNL     1     -11.120   6.375  70.946  1.00  0.00    -0.354 A  
HETATM    8  C   UNL     1     -12.326   7.069  71.070  1.00  0.00    -0.402 A  
HETATM    9  C   UNL     1     -12.334   8.361  71.589  1.00  0.00    -0.359 A  
HETATM   10  C   UNL     1     -11.139   8.959  71.990  1.00  0.00    -0.421 A  
HETATM   11  C   UNL     1      -9.930   8.264  71.871  1.00  0.00    -0.231 A  
HETATM   12  O   UNL     1      -8.778   8.883  72.284  1.00  0.00    -0.395 OA 
HETATM   13  H   UNL     1      -8.794   9.763  72.643  1.00  0.00     0.000 HD 
ENDBRANCH   2   6
TORSDOF 1
ENDMDL
MODEL      161
REMARK 921   NORMALIZED FREE ENERGY PREDICTED BY IDOCK:   -2.56 KCAL/MOL
REMARK 922        TOTAL FREE ENERGY PREDICTED BY IDOCK:   -2.94 KCAL/MOL
REMARK 923 INTER-LIGAND FREE ENERGY PREDICTED BY IDOCK:   -2.71 KCAL/MOL
REMARK 924 INTRA-LIGAND FREE ENERGY PREDICTED BY IDOCK:   -0.23 KCAL/MOL
REMARK 927      BINDING AFFINITY PREDICTED BY RF-SCORE:    0.00 PKD
ROOT
HETATM    1  N   UNL     1      -7.271  21.137  67.455  1.00  0.00    -0.421 N  
HETATM    2  C   UNL     1      -6.835  20.160  68.300  1.00  0.00    -0.300 C  
HETATM    3  H2  UNL     1      -6.904  22.085  67.543  1.00  0.00     0.000 HD 
HETATM    4  H1  UNL     1      -7.961  20.923  66.734  1.00  0.00     0.000 HD 
HETATM    5  O   UNL     1      -6.005  20.416  69.166  1.00  0.00    -0.307 OA 
ENDROOT
BRANCH   2   6
HETATM    6  C   UNL     1      -7.399  18.787  68.129  1.00  0.00    -0.281 A  
HETATM    7  C   UNL     1      -8.383  18.626  67.139  1.00  0.00    -0.271 A  
HETATM    8  C   UNL     1      -8.974  17.381  66.912  1.00  0.00    -0.260 A  
HETATM    9  C   UNL     1      -8.590  16.280  67.675  1.00  0.00    -0.181 A  
HETATM   10  C   UNL     1      -7.613  16.421  68.661  1.00  0.00    -0.197 A  
HETATM   11  C   UNL     1      -7.016  17.667  68.886  1.00  0.00    -0.251 A  
HETATM   12  O   UNL     1      -6.052  17.764  69.857  1.00  0.00    -0.238 OA 
HETATM   13  H   UNL     1      -5.793  17.006  70.369  1.00  0.00     0.000 HD 
ENDBRANCH   2   6
TORSDOF 1
ENDMDL
MODEL      162
REMARK 921   NORMALIZED FREE ENERGY PREDICTED BY IDOCK:   -2.56 KCAL/MOL
REMARK 922        TOTAL FREE ENERGY PREDICTED BY IDOCK:   -2.94 KCAL/MOL
REMARK 923 INTER-LIGAND FREE ENERGY PREDICTED BY IDOCK:   -2.69 KCAL/MOL
REMARK 924 INTRA-LIGAND FREE ENERGY PREDICTED BY IDOCK:   -0.25 KCAL/MOL
REMARK 927      BINDING AFFINITY PREDICTED BY RF-SCORE:    0.00 PKD
ROOT
HETATM    1  N   UNL     1     -10.426  20.654  65.918  1.00  0.00    -0.123 N  
HETATM    2  C   UNL     1     -10.476  19.644  66.832  1.00  0.00    -0.488 C  
HETATM    3  H2  UNL     1     -11.137  21.385  65.930  1.00  0.00     0.000 HD 
HETATM    4  H1  UNL     1      -9.679  20.682  65.223  1.00  0.00     0.000 HD 
HETATM    5  O   UNL     1     -11.373  19.610  67.668  1.00  0.00    -0.076 OA 
ENDROOT
BRANCH   2   6
HETATM    6  C   UNL     1      -9.409  18.598  66.776  1.00  0.00    -0.312 A  
HETATM    7  C   UNL     1      -8.188  18.972  66.190  1.00  0.00    -0.246 A  
HETATM    8  C   UNL     1      -7.136  18.060  66.086  1.00  0.00    -0.330 A  
HETATM    9  C   UNL     1      -7.291  16.761  66.564  1.00  0.00    -0.306 A  
HETATM   10  C   UNL     1      -8.496  16.374  67.153  1.00  0.00    -0.208 A  
HETATM   11  C   UNL     1      -9.550  17.289  67.263  1.00  0.00    -0.254 A  
HETATM   12  O   UNL     1     -10.715  16.873  67.855  1.00  0.00    -0.347 OA 
HETATM   13  H   UNL     1     -10.811  15.986  68.184  1.00  0.00     0.000 HD 
ENDBRANCH   2   6
TORSDOF 1
ENDMDL
MODEL      163
REMARK 921   NORMALIZED FREE ENERGY PREDICTED BY IDOCK:   -2.55 KCAL/MOL
REMARK 922        TOTAL FREE ENERGY PREDICTED BY IDOCK:   -2.92 KCAL/MOL
REMARK 923 INTER-LIGAND FREE ENERGY PREDICTED BY IDOCK:   -2.67 KCAL/MOL
REMARK 924 INTRA-LIGAND FREE ENERGY PREDICTED BY IDOCK:   -0.25 KCAL/MOL
REMARK 927      BINDING AFFINITY PREDICTED BY RF-SCORE:    0.00 PKD
ROOT
HETATM    1  N   UNL     1      -9.036   6.872  68.382  1.00  0.00    -0.127 N  
HETATM    2  C   UNL     1     -10.310   6.793  68.859  1.00  0.00    -0.192 C  
HETATM    3  H2  UNL     1      -8.655   6.109  67.823  1.00  0.00     0.000 HD 
HETATM    4  H1  UNL     1      -8.462   7.692  68.582  1.00  0.00     0.000 HD 
HETATM    5  O   UNL     1     -11.001   5.807  68.619  1.00  0.00    -0.258 OA 
ENDROOT
BRANCH   2   6
HETATM    6  C   UNL     1     -10.825   7.938  69.670  1.00  0.00    -0.177 A  
HETATM    7  C   UNL     1     -11.533   7.615  70.840  1.00  0.00    -0.299 A  
HETATM    8  C   UNL     1     -12.060   8.617  71.657  1.00  0.00    -0.385 A  
HETATM    9  C   UNL     1     -11.887   9.956  71.315  1.00  0.00    -0.479 A  
HETATM   10  C   UNL     1     -11.184  10.295  70.158  1.00  0.00    -0.387 A  
HETATM   11  C   UNL     1     -10.651   9.291  69.340  1.00  0.00    -0.223 A  
HETATM   12  O   UNL     1      -9.958   9.665  68.217  1.00  0.00    -0.147 OA 
HETATM   13  H   UNL     1      -9.840  10.581  67.993  1.00  0.00     0.000 HD 
ENDBRANCH   2   6
TORSDOF 1
ENDMDL
MODEL      164
REMARK 921   NORMALIZED FREE ENERGY PREDICTED BY IDOCK:   -2.51 KCAL/MOL
REMARK 922        TOTAL FREE ENERGY PREDICTED BY IDOCK:   -2.88 KCAL/MOL
REMARK 923 INTER-LIGAND FREE ENERGY PREDICTED BY IDOCK:   -2.78 KCAL/MOL
REMARK 924 INTRA-LIGAND FREE ENERGY PREDICTED BY IDOCK:   -0.10 KCAL/MOL
REMARK 927      BINDING AFFINITY PREDICTED BY RF-SCORE:    0.00 PKD
ROOT
HETATM    1  N   UNL     1      -9.846   8.906  71.683  1.00  0.00    -0.307 N  
HETATM    2  C   UNL     1     -10.769   9.476  70.859  1.00  0.00    -0.333 C  
HETATM    3  H2  UNL     1     -10.006   8.893  72.691  1.00  0.00     0.000 HD 
HETATM    4  H1  UNL     1      -8.996   8.494  71.297  1.00  0.00     0.000 HD 
HETATM    5  O   UNL     1     -11.791   9.973  71.323  1.00  0.00    -0.354 OA 
ENDROOT
BRANCH   2   6
HETATM    6  C   UNL     1     -10.493   9.469  69.390  1.00  0.00    -0.231 A  
HETATM    7  C   UNL     1     -10.705   8.256  68.713  1.00  0.00    -0.076 A  
HETATM    8  C   UNL     1     -10.465   8.151  67.341  1.00  0.00    -0.356 A  
HETATM    9  C   UNL     1     -10.008   9.257  66.628  1.00  0.00    -0.333 A  
HETATM   10  C   UNL     1      -9.795  10.470  67.284  1.00  0.00    -0.209 A  
HETATM   11  C   UNL     1     -10.039  10.578  68.658  1.00  0.00    -0.180 A  
HETATM   12  O   UNL     1      -9.826  11.790  69.265  1.00  0.00    -0.402 OA 
HETATM   13  H   UNL     1      -9.519  12.541  68.770  1.00  0.00     0.000 HD 
ENDBRANCH   2   6
TORSDOF 1
ENDMDL
MODEL      165
REMARK 921   NORMALIZED FREE ENERGY PREDICTED BY IDOCK:   -2.50 KCAL/MOL
REMARK 922        TOTAL FREE ENERGY PREDICTED BY IDOCK:   -2.87 KCAL/MOL
REMARK 923 INTER-LIGAND FREE ENERGY PREDICTED BY IDOCK:   -2.62 KCAL/MOL
REMARK 924 INTRA-LIGAND FREE ENERGY PREDICTED BY IDOCK:   -0.26 KCAL/MOL
REMARK 927      BINDING AFFINITY PREDICTED BY RF-SCORE:    0.00 PKD
ROOT
HETATM    1  N   UNL     1      -6.899  20.256  66.972  1.00  0.00    -0.227 N  
HETATM    2  C   UNL     1      -6.739  19.863  68.267  1.00  0.00    -0.288 C  
HETATM    3  H2  UNL     1      -6.629  21.199  66.691  1.00  0.00     0.000 HD 
HETATM    4  H1  UNL     1      -7.287  19.611  66.283  1.00  0.00     0.000 HD 
HETATM    5  O   UNL     1      -6.273  20.638  69.096  1.00  0.00    -0.318 OA 
ENDROOT
BRANCH   2   6
HETATM    6  C   UNL     1      -7.145  18.471  68.630  1.00  0.00    -0.298 A  
HETATM    7  C   UNL     1      -6.195  17.694  69.313  1.00  0.00    -0.239 A  
HETATM    8  C   UNL     1      -6.481  16.379  69.686  1.00  0.00    -0.201 A  
HETATM    9  C   UNL     1      -7.720  15.823  69.379  1.00  0.00    -0.213 A  
HETATM   10  C   UNL     1      -8.678  16.582  68.704  1.00  0.00    -0.244 A  
HETATM   11  C   UNL     1      -8.394  17.902  68.335  1.00  0.00    -0.304 A  
HETATM   12  O   UNL     1      -9.364  18.619  67.680  1.00  0.00    -0.284 OA 
HETATM   13  H   UNL     1     -10.209  18.233  67.480  1.00  0.00     0.000 HD 
ENDBRANCH   2   6
TORSDOF 1
ENDMDL
MODEL      166
REMARK 921   NORMALIZED FREE ENERGY PREDICTED BY IDOCK:   -2.49 KCAL/MOL
REMARK 922        TOTAL FREE ENERGY PREDICTED BY IDOCK:   -2.86 KCAL/MOL
REMARK 923 INTER-LIGAND FREE ENERGY PREDICTED BY IDOCK:   -2.68 KCAL/MOL
REMARK 924 INTRA-LIGAND FREE ENERGY PREDICTED BY IDOCK:   -0.18 KCAL/MOL
REMARK 927      BINDING AFFINITY PREDICTED BY RF-SCORE:    0.00 PKD
ROOT
HETATM    1  N   UNL     1      -7.746  12.675  66.865  1.00  0.00    -0.390 N  
HETATM    2  C   UNL     1      -8.787  12.448  67.715  1.00  0.00    -0.176 C  
HETATM    3  H2  UNL     1      -7.122  11.909  66.611  1.00  0.00     0.000 HD 
HETATM    4  H1  UNL     1      -7.589  13.608  66.482  1.00  0.00     0.000 HD 
HETATM    5  O   UNL     1      -8.977  11.327  68.176  1.00  0.00    -0.152 OA 
ENDROOT
BRANCH   2   6
HETATM    6  C   UNL     1      -9.676  13.601  68.055  1.00  0.00    -0.226 A  
HETATM    7  C   UNL     1      -9.104  14.638  68.812  1.00  0.00    -0.178 A  
HETATM    8  C   UNL     1      -9.858  15.752  69.185  1.00  0.00    -0.247 A  
HETATM    9  C   UNL     1     -11.196  15.843  68.808  1.00  0.00    -0.359 A  
HETATM   10  C   UNL     1     -11.780  14.823  68.054  1.00  0.00    -0.360 A  
HETATM   11  C   UNL     1     -11.023  13.709  67.675  1.00  0.00    -0.267 A  
HETATM   12  O   UNL     1     -11.630  12.732  66.927  1.00  0.00    -0.327 OA 
HETATM   13  H   UNL     1     -12.542  12.805  66.670  1.00  0.00     0.000 HD 
ENDBRANCH   2   6
TORSDOF 1
ENDMDL
MODEL      167
REMARK 921   NORMALIZED FREE ENERGY PREDICTED BY IDOCK:   -2.47 KCAL/MOL
REMARK 922        TOTAL FREE ENERGY PREDICTED BY IDOCK:   -2.84 KCAL/MOL
REMARK 923 INTER-LIGAND FREE ENERGY PREDICTED BY IDOCK:   -2.58 KCAL/MOL
REMARK 924 INTRA-LIGAND FREE ENERGY PREDICTED BY IDOCK:   -0.26 KCAL/MOL
REMARK 927      BINDING AFFINITY PREDICTED BY RF-SCORE:    0.00 PKD
ROOT
HETATM    1  N   UNL     1      -9.646  17.262  66.007  1.00  0.00    -0.192 N  
HETATM    2  C   UNL     1      -8.338  17.206  66.382  1.00  0.00    -0.280 C  
HETATM    3  H2  UNL     1     -10.174  16.399  65.876  1.00  0.00     0.000 HD 
HETATM    4  H1  UNL     1     -10.100  18.164  65.856  1.00  0.00     0.000 HD 
HETATM    5  O   UNL     1      -7.791  16.122  66.563  1.00  0.00    -0.260 OA 
ENDROOT
BRANCH   2   6
HETATM    6  C   UNL     1      -7.607  18.497  66.564  1.00  0.00    -0.270 A  
HETATM    7  C   UNL     1      -8.347  19.574  67.082  1.00  0.00    -0.321 A  
HETATM    8  C   UNL     1      -7.752  20.822  67.279  1.00  0.00    -0.332 A  
HETATM    9  C   UNL     1      -6.410  21.011  66.959  1.00  0.00    -0.386 A  
HETATM   10  C   UNL     1      -5.659  19.951  66.446  1.00  0.00    -0.179 A  
HETATM   11  C   UNL     1      -6.253  18.699  66.253  1.00  0.00    -0.183 A  
HETATM   12  O   UNL     1      -5.480  17.680  65.756  1.00  0.00    -0.179 OA 
HETATM   13  H   UNL     1      -4.563  17.816  65.545  1.00  0.00     0.000 HD 
ENDBRANCH   2   6
TORSDOF 1
ENDMDL
MODEL      168
REMARK 921   NORMALIZED FREE ENERGY PREDICTED BY IDOCK:   -2.40 KCAL/MOL
REMARK 922        TOTAL FREE ENERGY PREDICTED BY IDOCK:   -2.77 KCAL/MOL
REMARK 923 INTER-LIGAND FREE ENERGY PREDICTED BY IDOCK:   -2.56 KCAL/MOL
REMARK 924 INTRA-LIGAND FREE ENERGY PREDICTED BY IDOCK:   -0.21 KCAL/MOL
REMARK 927      BINDING AFFINITY PREDICTED BY RF-SCORE:    0.00 PKD
ROOT
HETATM    1  N   UNL     1      -8.678   4.717  70.724  1.00  0.00    -0.107 N  
HETATM    2  C   UNL     1      -9.813   5.306  70.253  1.00  0.00    -0.215 C  
HETATM    3  H2  UNL     1      -8.218   3.991  70.175  1.00  0.00     0.000 HD 
HETATM    4  H1  UNL     1      -8.287   5.000  71.623  1.00  0.00     0.000 HD 
HETATM    5  O   UNL     1     -10.284   4.966  69.173  1.00  0.00    -0.195 OA 
ENDROOT
BRANCH   2   6
HETATM    6  C   UNL     1     -10.449   6.367  71.092  1.00  0.00    -0.265 A  
HETATM    7  C   UNL     1     -11.147   7.378  70.409  1.00  0.00    -0.284 A  
HETATM    8  C   UNL     1     -11.767   8.417  71.108  1.00  0.00    -0.315 A  
HETATM    9  C   UNL     1     -11.695   8.460  72.498  1.00  0.00    -0.429 A  
HETATM   10  C   UNL     1     -11.008   7.463  73.192  1.00  0.00    -0.408 A  
HETATM   11  C   UNL     1     -10.391   6.418  72.494  1.00  0.00    -0.191 A  
HETATM   12  O   UNL     1      -9.734   5.452  73.212  1.00  0.00    -0.148 OA 
HETATM   13  H   UNL     1      -9.695   5.486  74.162  1.00  0.00     0.000 HD 
ENDBRANCH   2   6
TORSDOF 1
ENDMDL
MODEL      169
REMARK 921   NORMALIZED FREE ENERGY PREDICTED BY IDOCK:   -2.39 KCAL/MOL
REMARK 922        TOTAL FREE ENERGY PREDICTED BY IDOCK:   -2.76 KCAL/MOL
REMARK 923 INTER-LIGAND FREE ENERGY PREDICTED BY IDOCK:   -2.50 KCAL/MOL
REMARK 924 INTRA-LIGAND FREE ENERGY PREDICTED BY IDOCK:   -0.26 KCAL/MOL
REMARK 927      BINDING AFFINITY PREDICTED BY RF-SCORE:    0.00 PKD
ROOT
HETATM    1  N   UNL     1      -7.990  13.117  67.197  1.00  0.00    -0.358 N  
HETATM    2  C   UNL     1      -9.264  13.121  67.681  1.00  0.00    -0.207 C  
HETATM    3  H2  UNL     1      -7.610  13.959  66.764  1.00  0.00     0.000 HD 
HETATM    4  H1  UNL     1      -7.416  12.277  67.266  1.00  0.00     0.000 HD 
HETATM    5  O   UNL     1      -9.955  14.131  67.598  1.00  0.00    -0.228 OA 
ENDROOT
BRANCH   2   6
HETATM    6  C   UNL     1      -9.776  11.865  68.309  1.00  0.00    -0.200 A  
HETATM    7  C   UNL     1      -8.837  11.070  68.989  1.00  0.00    -0.068 A  
HETATM    8  C   UNL     1      -9.220   9.875  69.600  1.00  0.00    -0.246 A  
HETATM    9  C   UNL     1     -10.547   9.456  69.537  1.00  0.00    -0.237 A  
HETATM   10  C   UNL     1     -11.493  10.234  68.869  1.00  0.00    -0.190 A  
HETATM   11  C   UNL     1     -11.112  11.435  68.260  1.00  0.00    -0.244 A  
HETATM   12  O   UNL     1     -12.073  12.176  67.620  1.00  0.00    -0.522 OA 
HETATM   13  H   UNL     1     -12.977  11.885  67.587  1.00  0.00     0.000 HD 
ENDBRANCH   2   6
TORSDOF 1
ENDMDL
MODEL      170
REMARK 921   NORMALIZED FREE ENERGY PREDICTED BY IDOCK:   -2.37 KCAL/MOL
REMARK 922        TOTAL FREE ENERGY PREDICTED BY IDOCK:   -2.73 KCAL/MOL
REMARK 923 INTER-LIGAND FREE ENERGY PREDICTED BY IDOCK:   -2.50 KCAL/MOL
REMARK 924 INTRA-LIGAND FREE ENERGY PREDICTED BY IDOCK:   -0.23 KCAL/MOL
REMARK 927      BINDING AFFINITY PREDICTED BY RF-SCORE:    0.00 PKD
ROOT
HETATM    1  N   UNL     1     -11.410   6.197  66.621  1.00  0.00    -0.706 N  
HETATM    2  C   UNL     1     -10.204   6.482  67.187  1.00  0.00    -0.198 C  
HETATM    3  H2  UNL     1     -11.626   6.543  65.685  1.00  0.00     0.000 HD 
HETATM    4  H1  UNL     1     -12.098   5.640  67.128  1.00  0.00     0.000 HD 
HETATM    5  O   UNL     1      -9.377   7.152  66.577  1.00  0.00    -0.164 OA 
ENDROOT
BRANCH   2   6
HETATM    6  C   UNL     1      -9.933   5.951  68.558  1.00  0.00    -0.185 A  
HETATM    7  C   UNL     1     -10.855   6.293  69.562  1.00  0.00    -0.404 A  
HETATM    8  C   UNL     1     -10.681   5.851  70.874  1.00  0.00    -0.338 A  
HETATM    9  C   UNL     1      -9.580   5.062  71.202  1.00  0.00    -0.226 A  
HETATM   10  C   UNL     1      -8.657   4.710  70.216  1.00  0.00    -0.105 A  
HETATM   11  C   UNL     1      -8.833   5.148  68.899  1.00  0.00    -0.092 A  
HETATM   12  O   UNL     1      -7.908   4.774  67.958  1.00  0.00    -0.082 OA 
HETATM   13  H   UNL     1      -7.163   4.230  68.189  1.00  0.00     0.000 HD 
ENDBRANCH   2   6
TORSDOF 1
ENDMDL
MODEL      171
REMARK 921   NORMALIZED FREE ENERGY PREDICTED BY IDOCK:   -2.34 KCAL/MOL
REMARK 922        TOTAL FREE ENERGY PREDICTED BY IDOCK:   -2.71 KCAL/MOL
REMARK 923 INTER-LIGAND FREE ENERGY PREDICTED BY IDOCK:   -2.45 KCAL/MOL
REMARK 924 INTRA-LIGAND FREE ENERGY PREDICTED BY IDOCK:   -0.26 KCAL/MOL
REMARK 927      BINDING AFFINITY PREDICTED BY RF-SCORE:    0.00 PKD
ROOT
HETATM    1  N   UNL     1      -7.189  10.940  69.767  1.00  0.00    -0.318 N  
HETATM    2  C   UNL     1      -8.249  10.086  69.838  1.00  0.00    -0.159 C  
HETATM    3  H2  UNL     1      -6.278  10.648  70.122  1.00  0.00     0.000 HD 
HETATM    4  H1  UNL     1      -7.303  11.869  69.361  1.00  0.00     0.000 HD 
HETATM    5  O   UNL     1      -8.112   8.969  70.327  1.00  0.00    -0.105 OA 
ENDROOT
BRANCH   2   6
HETATM    6  C   UNL     1      -9.562  10.557  69.302  1.00  0.00    -0.199 A  
HETATM    7  C   UNL     1      -9.539  11.210  68.058  1.00  0.00    -0.181 A  
HETATM    8  C   UNL     1     -10.716  11.693  67.482  1.00  0.00    -0.257 A  
HETATM    9  C   UNL     1     -11.931  11.531  68.143  1.00  0.00    -0.206 A  
HETATM   10  C   UNL     1     -11.973  10.882  69.377  1.00  0.00    -0.393 A  
HETATM   11  C   UNL     1     -10.795  10.393  69.954  1.00  0.00    -0.298 A  
HETATM   12  O   UNL     1     -10.878   9.753  71.165  1.00  0.00    -0.334 OA 
HETATM   13  H   UNL     1     -11.713   9.642  71.606  1.00  0.00     0.000 HD 
ENDBRANCH   2   6
TORSDOF 1
ENDMDL
MODEL      172
REMARK 921   NORMALIZED FREE ENERGY PREDICTED BY IDOCK:   -2.34 KCAL/MOL
REMARK 922        TOTAL FREE ENERGY PREDICTED BY IDOCK:   -2.70 KCAL/MOL
REMARK 923 INTER-LIGAND FREE ENERGY PREDICTED BY IDOCK:   -2.45 KCAL/MOL
REMARK 924 INTRA-LIGAND FREE ENERGY PREDICTED BY IDOCK:   -0.25 KCAL/MOL
REMARK 927      BINDING AFFINITY PREDICTED BY RF-SCORE:    0.00 PKD
ROOT
HETATM    1  N   UNL     1      -9.195   7.544  68.460  1.00  0.00    -0.143 N  
HETATM    2  C   UNL     1     -10.077   8.370  67.830  1.00  0.00    -0.207 C  
HETATM    3  H2  UNL     1      -9.314   6.533  68.398  1.00  0.00     0.000 HD 
HETATM    4  H1  UNL     1      -8.417   7.933  68.994  1.00  0.00     0.000 HD 
HETATM    5  O   UNL     1     -11.013   7.903  67.189  1.00  0.00    -0.219 OA 
ENDROOT
BRANCH   2   6
HETATM    6  C   UNL     1      -9.860   9.844  67.947  1.00  0.00    -0.170 A  
HETATM    7  C   UNL     1      -8.551  10.309  67.732  1.00  0.00    -0.118 A  
HETATM    8  C   UNL     1      -8.250  11.669  67.829  1.00  0.00    -0.141 A  
HETATM    9  C   UNL     1      -9.253  12.583  68.145  1.00  0.00    -0.209 A  
HETATM   10  C   UNL     1     -10.559  12.138  68.358  1.00  0.00    -0.243 A  
HETATM   11  C   UNL     1     -10.863  10.776  68.257  1.00  0.00    -0.229 A  
HETATM   12  O   UNL     1     -12.160  10.380  68.465  1.00  0.00    -0.767 OA 
HETATM   13  H   UNL     1     -12.839  11.011  68.675  1.00  0.00     0.000 HD 
ENDBRANCH   2   6
TORSDOF 1
ENDMDL
MODEL      173
REMARK 921   NORMALIZED FREE ENERGY PREDICTED BY IDOCK:   -2.33 KCAL/MOL
REMARK 922        TOTAL FREE ENERGY PREDICTED BY IDOCK:   -2.69 KCAL/MOL
REMARK 923 INTER-LIGAND FREE ENERGY PREDICTED BY IDOCK:   -2.60 KCAL/MOL
REMARK 924 INTRA-LIGAND FREE ENERGY PREDICTED BY IDOCK:   -0.09 KCAL/MOL
REMARK 927      BINDING AFFINITY PREDICTED BY RF-SCORE:    0.00 PKD
ROOT
HETATM    1  N   UNL     1      -9.629   6.859  71.855  1.00  0.00    -0.155 N  
HETATM    2  C   UNL     1     -10.457   5.870  71.416  1.00  0.00    -0.236 C  
HETATM    3  H2  UNL     1      -9.765   7.259  72.784  1.00  0.00     0.000 HD 
HETATM    4  H1  UNL     1      -8.874   7.200  71.260  1.00  0.00     0.000 HD 
HETATM    5  O   UNL     1     -11.366   5.460  72.131  1.00  0.00    -0.191 OA 
ENDROOT
BRANCH   2   6
HETATM    6  C   UNL     1     -10.217   5.313  70.050  1.00  0.00    -0.358 A  
HETATM    7  C   UNL     1      -9.391   4.179  69.966  1.00  0.00    -0.237 A  
HETATM    8  C   UNL     1      -9.102   3.593  68.732  1.00  0.00    -0.200 A  
HETATM    9  C   UNL     1      -9.632   4.135  67.564  1.00  0.00    -0.219 A  
HETATM   10  C   UNL     1     -10.457   5.260  67.629  1.00  0.00    -0.176 A  
HETATM   11  C   UNL     1     -10.752   5.845  68.865  1.00  0.00    -0.300 A  
HETATM   12  O   UNL     1     -11.573   6.943  68.888  1.00  0.00    -0.532 OA 
HETATM   13  H   UNL     1     -11.935   7.303  68.087  1.00  0.00     0.000 HD 
ENDBRANCH   2   6
TORSDOF 1
ENDMDL
MODEL      174
REMARK 921   NORMALIZED FREE ENERGY PREDICTED BY IDOCK:   -2.30 KCAL/MOL
REMARK 922        TOTAL FREE ENERGY PREDICTED BY IDOCK:   -2.66 KCAL/MOL
REMARK 923 INTER-LIGAND FREE ENERGY PREDICTED BY IDOCK:   -2.43 KCAL/MOL
REMARK 924 INTRA-LIGAND FREE ENERGY PREDICTED BY IDOCK:   -0.24 KCAL/MOL
REMARK 927      BINDING AFFINITY PREDICTED BY RF-SCORE:    0.00 PKD
ROOT
HETATM    1  N   UNL     1      -7.449   3.898  65.184  1.00  0.00    -0.076 N  
HETATM    2  C   UNL     1      -8.479   4.759  64.950  1.00  0.00    -0.140 C  
HETATM    3  H2  UNL     1      -6.986   3.436  64.401  1.00  0.00     0.000 HD 
HETATM    4  H1  UNL     1      -7.139   3.714  66.139  1.00  0.00     0.000 HD 
HETATM    5  O   UNL     1      -8.852   4.980  63.802  1.00  0.00    -0.124 OA 
ENDROOT
BRANCH   2   6
HETATM    6  C   UNL     1      -9.123   5.414  66.129  1.00  0.00    -0.154 A  
HETATM    7  C   UNL     1      -8.274   6.103  67.011  1.00  0.00    -0.106 A  
HETATM    8  C   UNL     1      -8.784   6.739  68.145  1.00  0.00    -0.122 A  
HETATM    9  C   UNL     1     -10.150   6.693  68.413  1.00  0.00    -0.163 A  
HETATM   10  C   UNL     1     -11.008   6.017  67.545  1.00  0.00    -0.335 A  
HETATM   11  C   UNL     1     -10.499   5.383  66.405  1.00  0.00    -0.267 A  
HETATM   12  O   UNL     1     -11.377   4.736  65.572  1.00  0.00    -0.940 OA 
HETATM   13  H   UNL     1     -12.308   4.715  65.760  1.00  0.00     0.000 HD 
ENDBRANCH   2   6
TORSDOF 1
ENDMDL
MODEL      175
REMARK 921   NORMALIZED FREE ENERGY PREDICTED BY IDOCK:   -2.28 KCAL/MOL
REMARK 922        TOTAL FREE ENERGY PREDICTED BY IDOCK:   -2.64 KCAL/MOL
REMARK 923 INTER-LIGAND FREE ENERGY PREDICTED BY IDOCK:   -2.39 KCAL/MOL
REMARK 924 INTRA-LIGAND FREE ENERGY PREDICTED BY IDOCK:   -0.26 KCAL/MOL
REMARK 927      BINDING AFFINITY PREDICTED BY RF-SCORE:    0.00 PKD
ROOT
HETATM    1  N   UNL     1     -11.269  13.948  67.261  1.00  0.00    -0.302 N  
HETATM    2  C   UNL     1     -10.961  15.077  67.960  1.00  0.00    -0.284 C  
HETATM    3  H2  UNL     1     -12.221  13.583  67.283  1.00  0.00     0.000 HD 
HETATM    4  H1  UNL     1     -10.552  13.468  66.717  1.00  0.00     0.000 HD 
HETATM    5  O   UNL     1     -11.823  15.655  68.614  1.00  0.00    -0.372 OA 
ENDROOT
BRANCH   2   6
HETATM    6  C   UNL     1      -9.553  15.576  67.895  1.00  0.00    -0.206 A  
HETATM    7  C   UNL     1      -8.537  14.606  67.930  1.00  0.00    -0.165 A  
HETATM    8  C   UNL     1      -7.192  14.978  67.883  1.00  0.00    -0.162 A  
HETATM    9  C   UNL     1      -6.844  16.324  67.803  1.00  0.00    -0.155 A  
HETATM   10  C   UNL     1      -7.841  17.300  67.763  1.00  0.00    -0.194 A  
HETATM   11  C   UNL     1      -9.190  16.929  67.805  1.00  0.00    -0.230 A  
HETATM   12  O   UNL     1     -10.140  17.918  67.755  1.00  0.00    -0.315 OA 
HETATM   13  H   UNL     1      -9.894  18.834  67.695  1.00  0.00     0.000 HD 
ENDBRANCH   2   6
TORSDOF 1
ENDMDL
MODEL      176
REMARK 921   NORMALIZED FREE ENERGY PREDICTED BY IDOCK:   -2.26 KCAL/MOL
REMARK 922        TOTAL FREE ENERGY PREDICTED BY IDOCK:   -2.62 KCAL/MOL
REMARK 923 INTER-LIGAND FREE ENERGY PREDICTED BY IDOCK:   -2.36 KCAL/MOL
REMARK 924 INTRA-LIGAND FREE ENERGY PREDICTED BY IDOCK:   -0.25 KCAL/MOL
REMARK 927      BINDING AFFINITY PREDICTED BY RF-SCORE:    0.00 PKD
ROOT
HETATM    1  N   UNL     1     -10.883   8.275  67.481  1.00  0.00    -0.503 N  
HETATM    2  C   UNL     1     -10.555   6.955  67.392  1.00  0.00    -0.303 C  
HETATM    3  H2  UNL     1     -11.559   8.583  68.181  1.00  0.00     0.000 HD 
HETATM    4  H1  UNL     1     -10.456   8.955  66.852  1.00  0.00     0.000 HD 
HETATM    5  O   UNL     1     -11.068   6.137  68.148  1.00  0.00    -0.332 OA 
ENDROOT
BRANCH   2   6
HETATM    6  C   UNL     1      -9.558   6.552  66.353  1.00  0.00    -0.151 A  
HETATM    7  C   UNL     1      -8.589   7.509  66.003  1.00  0.00    -0.164 A  
HETATM    8  C   UNL     1      -7.622   7.226  65.036  1.00  0.00    -0.107 A  
HETATM    9  C   UNL     1      -7.612   5.984  64.405  1.00  0.00    -0.093 A  
HETATM   10  C   UNL     1      -8.564   5.022  64.743  1.00  0.00    -0.150 A  
HETATM   11  C   UNL     1      -9.531   5.302  65.716  1.00  0.00    -0.117 A  
HETATM   12  O   UNL     1     -10.444   4.327  66.027  1.00  0.00    -0.444 OA 
HETATM   13  H   UNL     1     -10.426   3.480  65.595  1.00  0.00     0.000 HD 
ENDBRANCH   2   6
TORSDOF 1
ENDMDL
MODEL      177
REMARK 921   NORMALIZED FREE ENERGY PREDICTED BY IDOCK:   -2.26 KCAL/MOL
REMARK 922        TOTAL FREE ENERGY PREDICTED BY IDOCK:   -2.62 KCAL/MOL
REMARK 923 INTER-LIGAND FREE ENERGY PREDICTED BY IDOCK:   -2.51 KCAL/MOL
REMARK 924 INTRA-LIGAND FREE ENERGY PREDICTED BY IDOCK:   -0.11 KCAL/MOL
REMARK 927      BINDING AFFINITY PREDICTED BY RF-SCORE:    0.00 PKD
ROOT
HETATM    1  N   UNL     1      -8.347   8.465  69.300  1.00  0.00    -0.120 N  
HETATM    2  C   UNL     1      -8.799   7.673  70.313  1.00  0.00    -0.145 C  
HETATM    3  H2  UNL     1      -7.466   8.243  68.837  1.00  0.00     0.000 HD 
HETATM    4  H1  UNL     1      -8.887   9.280  69.005  1.00  0.00     0.000 HD 
HETATM    5  O   UNL     1      -8.151   6.694  70.669  1.00  0.00    -0.109 OA 
ENDROOT
BRANCH   2   6
HETATM    6  C   UNL     1     -10.096   8.038  70.960  1.00  0.00    -0.213 A  
HETATM    7  C   UNL     1     -10.335   7.507  72.239  1.00  0.00    -0.263 A  
HETATM    8  C   UNL     1     -11.523   7.785  72.918  1.00  0.00    -0.359 A  
HETATM    9  C   UNL     1     -12.489   8.596  72.327  1.00  0.00    -0.460 A  
HETATM   10  C   UNL     1     -12.266   9.134  71.058  1.00  0.00    -0.302 A  
HETATM   11  C   UNL     1     -11.074   8.860  70.378  1.00  0.00    -0.239 A  
HETATM   12  O   UNL     1     -10.888   9.415  69.138  1.00  0.00    -0.297 OA 
HETATM   13  H   UNL     1     -11.551   9.972  68.744  1.00  0.00     0.000 HD 
ENDBRANCH   2   6
TORSDOF 1
ENDMDL
MODEL      178
REMARK 921   NORMALIZED FREE ENERGY PREDICTED BY IDOCK:   -2.22 KCAL/MOL
REMARK 922        TOTAL FREE ENERGY PREDICTED BY IDOCK:   -2.58 KCAL/MOL
REMARK 923 INTER-LIGAND FREE ENERGY PREDICTED BY IDOCK:   -2.33 KCAL/MOL
REMARK 924 INTRA-LIGAND FREE ENERGY PREDICTED BY IDOCK:   -0.25 KCAL/MOL
REMARK 927      BINDING AFFINITY PREDICTED BY RF-SCORE:    0.00 PKD
ROOT
HETATM    1  N   UNL     1      -7.169   8.782  68.175  1.00  0.00    -0.082 N  
HETATM    2  C   UNL     1      -8.510   8.709  67.945  1.00  0.00    -0.129 C  
HETATM    3  H2  UNL     1      -6.609   9.485  67.693  1.00  0.00     0.000 HD 
HETATM    4  H1  UNL     1      -6.723   8.136  68.828  1.00  0.00     0.000 HD 
HETATM    5  O   UNL     1      -9.047   9.485  67.161  1.00  0.00    -0.133 OA 
ENDROOT
BRANCH   2   6
HETATM    6  C   UNL     1      -9.289   7.664  68.677  1.00  0.00    -0.147 A  
HETATM    7  C   UNL     1      -8.741   7.197  69.884  1.00  0.00    -0.142 A  
HETATM    8  C   UNL     1      -9.392   6.215  70.634  1.00  0.00    -0.177 A  
HETATM    9  C   UNL     1     -10.599   5.685  70.185  1.00  0.00    -0.380 A  
HETATM   10  C   UNL     1     -11.159   6.139  68.990  1.00  0.00    -0.437 A  
HETATM   11  C   UNL     1     -10.510   7.127  68.241  1.00  0.00    -0.198 A  
HETATM   12  O   UNL     1     -11.097   7.553  67.076  1.00  0.00    -0.506 OA 
HETATM   13  H   UNL     1     -11.924   7.190  66.781  1.00  0.00     0.000 HD 
ENDBRANCH   2   6
TORSDOF 1
ENDMDL
MODEL      179
REMARK 921   NORMALIZED FREE ENERGY PREDICTED BY IDOCK:   -2.21 KCAL/MOL
REMARK 922        TOTAL FREE ENERGY PREDICTED BY IDOCK:   -2.56 KCAL/MOL
REMARK 923 INTER-LIGAND FREE ENERGY PREDICTED BY IDOCK:   -2.31 KCAL/MOL
REMARK 924 INTRA-LIGAND FREE ENERGY PREDICTED BY IDOCK:   -0.26 KCAL/MOL
REMARK 927      BINDING AFFINITY PREDICTED BY RF-SCORE:    0.00 PKD
ROOT
HETATM    1  N   UNL     1     -11.070   6.081  68.392  1.00  0.00    -0.274 N  
HETATM    2  C   UNL     1     -10.377   6.969  67.626  1.00  0.00    -0.211 C  
HETATM    3  H2  UNL     1     -11.184   5.118  68.075  1.00  0.00     0.000 HD 
HETATM    4  H1  UNL     1     -11.474   6.374  69.282  1.00  0.00     0.000 HD 
HETATM    5  O   UNL     1      -9.890   6.617  66.557  1.00  0.00    -0.166 OA 
ENDROOT
BRANCH   2   6
HETATM    6  C   UNL     1     -10.234   8.367  68.135  1.00  0.00    -0.253 A  
HETATM    7  C   UNL     1     -10.528   9.402  67.231  1.00  0.00    -0.332 A  
HETATM    8  C   UNL     1     -10.415  10.740  67.613  1.00  0.00    -0.252 A  
HETATM    9  C   UNL     1     -10.003  11.062  68.904  1.00  0.00    -0.201 A  
HETATM   10  C   UNL     1      -9.709  10.047  69.816  1.00  0.00    -0.259 A  
HETATM   11  C   UNL     1      -9.827   8.705  69.436  1.00  0.00    -0.184 A  
HETATM   12  O   UNL     1      -9.538   7.737  70.363  1.00  0.00    -0.174 OA 
HETATM   13  H   UNL     1      -9.263   7.965  71.244  1.00  0.00     0.000 HD 
ENDBRANCH   2   6
TORSDOF 1
ENDMDL
MODEL      180
REMARK 921   NORMALIZED FREE ENERGY PREDICTED BY IDOCK:   -2.19 KCAL/MOL
REMARK 922        TOTAL FREE ENERGY PREDICTED BY IDOCK:   -2.54 KCAL/MOL
REMARK 923 INTER-LIGAND FREE ENERGY PREDICTED BY IDOCK:   -2.43 KCAL/MOL
REMARK 924 INTRA-LIGAND FREE ENERGY PREDICTED BY IDOCK:   -0.12 KCAL/MOL
REMARK 927      BINDING AFFINITY PREDICTED BY RF-SCORE:    0.00 PKD
ROOT
HETATM    1  N   UNL     1     -10.605   7.611  71.945  1.00  0.00    -0.213 N  
HETATM    2  C   UNL     1     -10.241   6.649  71.051  1.00  0.00    -0.191 C  
HETATM    3  H2  UNL     1     -10.650   8.587  71.651  1.00  0.00     0.000 HD 
HETATM    4  H1  UNL     1     -10.832   7.359  72.908  1.00  0.00     0.000 HD 
HETATM    5  O   UNL     1      -9.969   6.952  69.894  1.00  0.00    -0.174 OA 
ENDROOT
BRANCH   2   6
HETATM    6  C   UNL     1     -10.193   5.234  71.529  1.00  0.00    -0.276 A  
HETATM    7  C   UNL     1      -9.413   4.339  70.775  1.00  0.00    -0.241 A  
HETATM    8  C   UNL     1      -9.314   2.995  71.139  1.00  0.00    -0.212 A  
HETATM    9  C   UNL     1      -9.995   2.526  72.260  1.00  0.00    -0.230 A  
HETATM   10  C   UNL     1     -10.771   3.401  73.022  1.00  0.00    -0.229 A  
HETATM   11  C   UNL     1     -10.867   4.750  72.661  1.00  0.00    -0.175 A  
HETATM   12  O   UNL     1     -11.632   5.581  73.440  1.00  0.00    -0.484 OA 
HETATM   13  H   UNL     1     -12.089   5.253  74.207  1.00  0.00     0.000 HD 
ENDBRANCH   2   6
TORSDOF 1
ENDMDL
MODEL      181
REMARK 921   NORMALIZED FREE ENERGY PREDICTED BY IDOCK:   -2.13 KCAL/MOL
REMARK 922        TOTAL FREE ENERGY PREDICTED BY IDOCK:   -2.48 KCAL/MOL
REMARK 923 INTER-LIGAND FREE ENERGY PREDICTED BY IDOCK:   -2.24 KCAL/MOL
REMARK 924 INTRA-LIGAND FREE ENERGY PREDICTED BY IDOCK:   -0.24 KCAL/MOL
REMARK 927      BINDING AFFINITY PREDICTED BY RF-SCORE:    0.00 PKD
ROOT
HETATM    1  N   UNL     1     -10.751  13.541  65.813  1.00  0.00    -0.272 N  
HETATM    2  C   UNL     1     -10.636  13.749  67.155  1.00  0.00    -0.277 C  
HETATM    3  H2  UNL     1     -11.675  13.464  65.389  1.00  0.00     0.000 HD 
HETATM    4  H1  UNL     1      -9.916  13.462  65.231  1.00  0.00     0.000 HD 
HETATM    5  O   UNL     1     -11.639  13.844  67.855  1.00  0.00    -0.302 OA 
ENDROOT
BRANCH   2   6
HETATM    6  C   UNL     1      -9.260  13.857  67.730  1.00  0.00    -0.197 A  
HETATM    7  C   UNL     1      -9.068  14.826  68.729  1.00  0.00    -0.191 A  
HETATM    8  C   UNL     1      -7.815  15.007  69.319  1.00  0.00    -0.190 A  
HETATM    9  C   UNL     1      -6.737  14.222  68.915  1.00  0.00    -0.100 A  
HETATM   10  C   UNL     1      -6.911  13.253  67.926  1.00  0.00    -0.140 A  
HETATM   11  C   UNL     1      -8.167  13.068  67.338  1.00  0.00    -0.183 A  
HETATM   12  O   UNL     1      -8.300  12.099  66.376  1.00  0.00    -0.387 OA 
HETATM   13  H   UNL     1      -7.560  11.564  66.110  1.00  0.00     0.000 HD 
ENDBRANCH   2   6
TORSDOF 1
ENDMDL
MODEL      182
REMARK 921   NORMALIZED FREE ENERGY PREDICTED BY IDOCK:   -2.05 KCAL/MOL
REMARK 922        TOTAL FREE ENERGY PREDICTED BY IDOCK:   -2.39 KCAL/MOL
REMARK 923 INTER-LIGAND FREE ENERGY PREDICTED BY IDOCK:   -2.16 KCAL/MOL
REMARK 924 INTRA-LIGAND FREE ENERGY PREDICTED BY IDOCK:   -0.23 KCAL/MOL
REMARK 927      BINDING AFFINITY PREDICTED BY RF-SCORE:    0.00 PKD
ROOT
HETATM    1  N   UNL     1     -10.668   5.755  69.949  1.00  0.00    -0.322 N  
HETATM    2  C   UNL     1     -10.761   5.702  68.591  1.00  0.00    -0.179 C  
HETATM    3  H2  UNL     1     -11.160   6.485  70.464  1.00  0.00     0.000 HD 
HETATM    4  H1  UNL     1     -10.107   5.067  70.453  1.00  0.00     0.000 HD 
HETATM    5  O   UNL     1     -11.435   6.529  67.984  1.00  0.00    -0.145 OA 
ENDROOT
BRANCH   2   6
HETATM    6  C   UNL     1     -10.024   4.613  67.881  1.00  0.00    -0.138 A  
HETATM    7  C   UNL     1      -9.254   3.748  68.678  1.00  0.00    -0.216 A  
HETATM    8  C   UNL     1      -8.524   2.706  68.103  1.00  0.00    -0.100 A  
HETATM    9  C   UNL     1      -8.552   2.515  66.724  1.00  0.00    -0.117 A  
HETATM   10  C   UNL     1      -9.313   3.363  65.918  1.00  0.00    -0.145 A  
HETATM   11  C   UNL     1     -10.050   4.404  66.493  1.00  0.00    -0.189 A  
HETATM   12  O   UNL     1     -10.793   5.210  65.668  1.00  0.00    -0.610 OA 
HETATM   13  H   UNL     1     -10.811   5.070  64.728  1.00  0.00     0.000 HD 
ENDBRANCH   2   6
TORSDOF 1
ENDMDL
MODEL      183
REMARK 921   NORMALIZED FREE ENERGY PREDICTED BY IDOCK:   -2.04 KCAL/MOL
REMARK 922        TOTAL FREE ENERGY PREDICTED BY IDOCK:   -2.38 KCAL/MOL
REMARK 923 INTER-LIGAND FREE ENERGY PREDICTED BY IDOCK:   -2.15 KCAL/MOL
REMARK 924 INTRA-LIGAND FREE ENERGY PREDICTED BY IDOCK:   -0.23 KCAL/MOL
REMARK 927      BINDING AFFINITY PREDICTED BY RF-SCORE:    0.00 PKD
ROOT
HETATM    1  N   UNL     1     -10.604   7.606  71.941  1.00  0.00    -0.213 N  
HETATM    2  C   UNL     1     -10.221   6.670  71.028  1.00  0.00    -0.191 C  
HETATM    3  H2  UNL     1     -10.648   8.589  71.672  1.00  0.00     0.000 HD 
HETATM    4  H1  UNL     1     -10.847   7.328  72.892  1.00  0.00     0.000 HD 
HETATM    5  O   UNL     1      -9.928   7.004  69.884  1.00  0.00    -0.175 OA 
ENDROOT
BRANCH   2   6
HETATM    6  C   UNL     1     -10.175   5.243  71.468  1.00  0.00    -0.276 A  
HETATM    7  C   UNL     1     -10.592   4.973  72.783  1.00  0.00    -0.274 A  
HETATM    8  C   UNL     1     -10.576   3.671  73.286  1.00  0.00    -0.276 A  
HETATM    9  C   UNL     1     -10.139   2.620  72.482  1.00  0.00    -0.232 A  
HETATM   10  C   UNL     1      -9.724   2.869  71.173  1.00  0.00    -0.187 A  
HETATM   11  C   UNL     1      -9.745   4.174  70.666  1.00  0.00    -0.203 A  
HETATM   12  O   UNL     1      -9.338   4.376  69.372  1.00  0.00    -0.125 OA 
HETATM   13  H   UNL     1      -9.047   3.653  68.828  1.00  0.00     0.000 HD 
ENDBRANCH   2   6
TORSDOF 1
ENDMDL
MODEL      184
REMARK 921   NORMALIZED FREE ENERGY PREDICTED BY IDOCK:   -2.03 KCAL/MOL
REMARK 922        TOTAL FREE ENERGY PREDICTED BY IDOCK:   -2.38 KCAL/MOL
REMARK 923 INTER-LIGAND FREE ENERGY PREDICTED BY IDOCK:   -2.12 KCAL/MOL
REMARK 924 INTRA-LIGAND FREE ENERGY PREDICTED BY IDOCK:   -0.26 KCAL/MOL
REMARK 927      BINDING AFFINITY PREDICTED BY RF-SCORE:    0.00 PKD
ROOT
HETATM    1  N   UNL     1      -9.422  13.761  66.709  1.00  0.00    -0.267 N  
HETATM    2  C   UNL     1     -10.319  12.739  66.798  1.00  0.00    -0.240 C  
HETATM    3  H2  UNL     1      -9.624  14.563  66.111  1.00  0.00     0.000 HD 
HETATM    4  H1  UNL     1      -8.550  13.728  67.238  1.00  0.00     0.000 HD 
HETATM    5  O   UNL     1     -11.368  12.779  66.163  1.00  0.00    -0.299 OA 
ENDROOT
BRANCH   2   6
HETATM    6  C   UNL     1      -9.981  11.589  67.690  1.00  0.00    -0.199 A  
HETATM    7  C   UNL     1     -10.947  11.222  68.643  1.00  0.00    -0.266 A  
HETATM    8  C   UNL     1     -10.716  10.165  69.525  1.00  0.00    -0.277 A  
HETATM    9  C   UNL     1      -9.516   9.461  69.469  1.00  0.00    -0.187 A  
HETATM   10  C   UNL     1      -8.547   9.809  68.527  1.00  0.00    -0.120 A  
HETATM   11  C   UNL     1      -8.779  10.866  67.638  1.00  0.00    -0.127 A  
HETATM   12  O   UNL     1      -7.805  11.172  66.721  1.00  0.00    -0.140 OA 
HETATM   13  H   UNL     1      -6.991  10.682  66.686  1.00  0.00     0.000 HD 
ENDBRANCH   2   6
TORSDOF 1
ENDMDL
MODEL      185
REMARK 921   NORMALIZED FREE ENERGY PREDICTED BY IDOCK:   -1.99 KCAL/MOL
REMARK 922        TOTAL FREE ENERGY PREDICTED BY IDOCK:   -2.34 KCAL/MOL
REMARK 923 INTER-LIGAND FREE ENERGY PREDICTED BY IDOCK:   -2.08 KCAL/MOL
REMARK 924 INTRA-LIGAND FREE ENERGY PREDICTED BY IDOCK:   -0.26 KCAL/MOL
REMARK 927      BINDING AFFINITY PREDICTED BY RF-SCORE:    0.00 PKD
ROOT
HETATM    1  N   UNL     1     -11.612   6.714  67.299  1.00  0.00    -0.646 N  
HETATM    2  C   UNL     1     -10.451   7.427  67.315  1.00  0.00    -0.315 C  
HETATM    3  H2  UNL     1     -12.265   6.825  66.523  1.00  0.00     0.000 HD 
HETATM    4  H1  UNL     1     -11.831   6.069  68.059  1.00  0.00     0.000 HD 
HETATM    5  O   UNL     1     -10.188   8.202  66.401  1.00  0.00    -0.239 OA 
ENDROOT
BRANCH   2   6
HETATM    6  C   UNL     1      -9.525   7.227  68.471  1.00  0.00    -0.140 A  
HETATM    7  C   UNL     1      -9.051   8.387  69.108  1.00  0.00    -0.147 A  
HETATM    8  C   UNL     1      -8.174   8.300  70.192  1.00  0.00    -0.118 A  
HETATM    9  C   UNL     1      -7.758   7.053  70.651  1.00  0.00    -0.095 A  
HETATM   10  C   UNL     1      -8.221   5.891  70.032  1.00  0.00    -0.121 A  
HETATM   11  C   UNL     1      -9.104   5.976  68.949  1.00  0.00    -0.121 A  
HETATM   12  O   UNL     1      -9.543   4.811  68.373  1.00  0.00    -0.136 OA 
HETATM   13  H   UNL     1      -9.259   3.964  68.697  1.00  0.00     0.000 HD 
ENDBRANCH   2   6
TORSDOF 1
ENDMDL
MODEL      186
REMARK 921   NORMALIZED FREE ENERGY PREDICTED BY IDOCK:   -1.99 KCAL/MOL
REMARK 922        TOTAL FREE ENERGY PREDICTED BY IDOCK:   -2.33 KCAL/MOL
REMARK 923 INTER-LIGAND FREE ENERGY PREDICTED BY IDOCK:   -2.10 KCAL/MOL
REMARK 924 INTRA-LIGAND FREE ENERGY PREDICTED BY IDOCK:   -0.23 KCAL/MOL
REMARK 927      BINDING AFFINITY PREDICTED BY RF-SCORE:    0.00 PKD
ROOT
HETATM    1  N   UNL     1      -7.782   3.711  70.017  1.00  0.00    -0.048 N  
HETATM    2  C   UNL     1      -8.573   4.782  69.727  1.00  0.00    -0.081 C  
HETATM    3  H2  UNL     1      -7.053   3.426  69.363  1.00  0.00     0.000 HD 
HETATM    4  H1  UNL     1      -7.916   3.193  70.886  1.00  0.00     0.000 HD 
HETATM    5  O   UNL     1      -8.412   5.405  68.682  1.00  0.00    -0.093 OA 
ENDROOT
BRANCH   2   6
HETATM    6  C   UNL     1      -9.625   5.162  70.718  1.00  0.00    -0.241 A  
HETATM    7  C   UNL     1      -9.608   4.486  71.949  1.00  0.00    -0.211 A  
HETATM    8  C   UNL     1     -10.557   4.767  72.934  1.00  0.00    -0.278 A  
HETATM    9  C   UNL     1     -11.538   5.728  72.700  1.00  0.00    -0.304 A  
HETATM   10  C   UNL     1     -11.568   6.412  71.484  1.00  0.00    -0.364 A  
HETATM   11  C   UNL     1     -10.614   6.134  70.498  1.00  0.00    -0.253 A  
HETATM   12  O   UNL     1     -10.672   6.834  69.319  1.00  0.00    -0.222 OA 
HETATM   13  H   UNL     1     -11.341   7.492  69.170  1.00  0.00     0.000 HD 
ENDBRANCH   2   6
TORSDOF 1
ENDMDL
MODEL      187
REMARK 921   NORMALIZED FREE ENERGY PREDICTED BY IDOCK:   -1.98 KCAL/MOL
REMARK 922        TOTAL FREE ENERGY PREDICTED BY IDOCK:   -2.32 KCAL/MOL
REMARK 923 INTER-LIGAND FREE ENERGY PREDICTED BY IDOCK:   -2.18 KCAL/MOL
REMARK 924 INTRA-LIGAND FREE ENERGY PREDICTED BY IDOCK:   -0.14 KCAL/MOL
REMARK 927      BINDING AFFINITY PREDICTED BY RF-SCORE:    0.00 PKD
ROOT
HETATM    1  N   UNL     1     -11.898   6.587  69.915  1.00  0.00    -0.615 N  
HETATM    2  C   UNL     1     -10.722   5.929  70.114  1.00  0.00    -0.318 C  
HETATM    3  H2  UNL     1     -12.552   6.253  69.207  1.00  0.00     0.000 HD 
HETATM    4  H1  UNL     1     -12.127   7.412  70.470  1.00  0.00     0.000 HD 
HETATM    5  O   UNL     1     -10.447   4.937  69.447  1.00  0.00    -0.167 OA 
ENDROOT
BRANCH   2   6
HETATM    6  C   UNL     1      -9.797   6.454  71.165  1.00  0.00    -0.198 A  
HETATM    7  C   UNL     1     -10.172   6.238  72.502  1.00  0.00    -0.203 A  
HETATM    8  C   UNL     1      -9.375   6.700  73.552  1.00  0.00    -0.165 A  
HETATM    9  C   UNL     1      -8.194   7.386  73.279  1.00  0.00    -0.146 A  
HETATM   10  C   UNL     1      -7.805   7.606  71.957  1.00  0.00    -0.106 A  
HETATM   11  C   UNL     1      -8.600   7.139  70.903  1.00  0.00    -0.138 A  
HETATM   12  O   UNL     1      -8.179   7.368  69.618  1.00  0.00    -0.126 OA 
HETATM   13  H   UNL     1      -7.368   7.832  69.441  1.00  0.00     0.000 HD 
ENDBRANCH   2   6
TORSDOF 1
ENDMDL
MODEL      188
REMARK 921   NORMALIZED FREE ENERGY PREDICTED BY IDOCK:   -1.97 KCAL/MOL
REMARK 922        TOTAL FREE ENERGY PREDICTED BY IDOCK:   -2.31 KCAL/MOL
REMARK 923 INTER-LIGAND FREE ENERGY PREDICTED BY IDOCK:   -2.07 KCAL/MOL
REMARK 924 INTRA-LIGAND FREE ENERGY PREDICTED BY IDOCK:   -0.24 KCAL/MOL
REMARK 927      BINDING AFFINITY PREDICTED BY RF-SCORE:    0.00 PKD
ROOT
HETATM    1  N   UNL     1      -6.692   8.604  67.720  1.00  0.00    -0.065 N  
HETATM    2  C   UNL     1      -7.987   9.019  67.627  1.00  0.00    -0.101 C  
HETATM    3  H2  UNL     1      -5.936   9.248  67.487  1.00  0.00     0.000 HD 
HETATM    4  H1  UNL     1      -6.476   7.654  68.021  1.00  0.00     0.000 HD 
HETATM    5  O   UNL     1      -8.247  10.162  67.265  1.00  0.00    -0.117 OA 
ENDROOT
BRANCH   2   6
HETATM    6  C   UNL     1      -9.060   8.041  67.982  1.00  0.00    -0.130 A  
HETATM    7  C   UNL     1      -9.959   7.691  66.960  1.00  0.00    -0.310 A  
HETATM    8  C   UNL     1     -11.000   6.792  67.200  1.00  0.00    -0.458 A  
HETATM    9  C   UNL     1     -11.158   6.232  68.465  1.00  0.00    -0.397 A  
HETATM   10  C   UNL     1     -10.272   6.565  69.491  1.00  0.00    -0.219 A  
HETATM   11  C   UNL     1      -9.225   7.463  69.251  1.00  0.00    -0.147 A  
HETATM   12  O   UNL     1      -8.370   7.759  70.282  1.00  0.00    -0.123 OA 
HETATM   13  H   UNL     1      -8.482   7.367  71.141  1.00  0.00     0.000 HD 
ENDBRANCH   2   6
TORSDOF 1
ENDMDL
MODEL      189
REMARK 921   NORMALIZED FREE ENERGY PREDICTED BY IDOCK:   -1.95 KCAL/MOL
REMARK 922        TOTAL FREE ENERGY PREDICTED BY IDOCK:   -2.29 KCAL/MOL
REMARK 923 INTER-LIGAND FREE ENERGY PREDICTED BY IDOCK:   -2.05 KCAL/MOL
REMARK 924 INTRA-LIGAND FREE ENERGY PREDICTED BY IDOCK:   -0.24 KCAL/MOL
REMARK 927      BINDING AFFINITY PREDICTED BY RF-SCORE:    0.00 PKD
ROOT
HETATM    1  N   UNL     1      -9.671   8.922  71.516  1.00  0.00    -0.288 N  
HETATM    2  C   UNL     1     -10.005   9.459  70.309  1.00  0.00    -0.237 C  
HETATM    3  H2  UNL     1      -9.873   9.437  72.374  1.00  0.00     0.000 HD 
HETATM    4  H1  UNL     1      -9.220   8.008  71.566  1.00  0.00     0.000 HD 
HETATM    5  O   UNL     1     -10.547  10.557  70.249  1.00  0.00    -0.212 OA 
ENDROOT
BRANCH   2   6
HETATM    6  C   UNL     1      -9.692   8.665  69.081  1.00  0.00    -0.173 A  
HETATM    7  C   UNL     1     -10.642   8.702  68.046  1.00  0.00    -0.205 A  
HETATM    8  C   UNL     1     -10.440   7.986  66.865  1.00  0.00    -0.387 A  
HETATM    9  C   UNL     1      -9.287   7.221  66.703  1.00  0.00    -0.215 A  
HETATM   10  C   UNL     1      -8.332   7.176  67.720  1.00  0.00    -0.118 A  
HETATM   11  C   UNL     1      -8.530   7.897  68.903  1.00  0.00    -0.128 A  
HETATM   12  O   UNL     1      -7.565   7.834  69.875  1.00  0.00    -0.086 OA 
HETATM   13  H   UNL     1      -6.778   7.314  69.754  1.00  0.00     0.000 HD 
ENDBRANCH   2   6
TORSDOF 1
ENDMDL
MODEL      190
REMARK 921   NORMALIZED FREE ENERGY PREDICTED BY IDOCK:   -1.94 KCAL/MOL
REMARK 922        TOTAL FREE ENERGY PREDICTED BY IDOCK:   -2.28 KCAL/MOL
REMARK 923 INTER-LIGAND FREE ENERGY PREDICTED BY IDOCK:   -2.09 KCAL/MOL
REMARK 924 INTRA-LIGAND FREE ENERGY PREDICTED BY IDOCK:   -0.19 KCAL/MOL
REMARK 927      BINDING AFFINITY PREDICTED BY RF-SCORE:    0.00 PKD
ROOT
HETATM    1  N   UNL     1      -9.264   9.218  67.648  1.00  0.00    -0.125 N  
HETATM    2  C   UNL     1      -8.456  10.072  66.959  1.00  0.00    -0.125 C  
HETATM    3  H2  UNL     1      -8.969   8.866  68.559  1.00  0.00     0.000 HD 
HETATM    4  H1  UNL     1     -10.161   8.929  67.257  1.00  0.00     0.000 HD 
HETATM    5  O   UNL     1      -7.378  10.419  67.429  1.00  0.00    -0.091 OA 
ENDROOT
BRANCH   2   6
HETATM    6  C   UNL     1      -8.932  10.563  65.629  1.00  0.00    -0.200 A  
HETATM    7  C   UNL     1     -10.086  11.365  65.628  1.00  0.00    -0.293 A  
HETATM    8  C   UNL     1     -10.610  11.862  64.433  1.00  0.00    -0.366 A  
HETATM    9  C   UNL     1      -9.988  11.564  63.223  1.00  0.00    -0.435 A  
HETATM   10  C   UNL     1      -8.839  10.772  63.207  1.00  0.00    -0.185 A  
HETATM   11  C   UNL     1      -8.310  10.276  64.404  1.00  0.00    -0.166 A  
HETATM   12  O   UNL     1      -7.174   9.509  64.347  1.00  0.00    -0.102 OA 
HETATM   13  H   UNL     1      -6.753   9.315  63.517  1.00  0.00     0.000 HD 
ENDBRANCH   2   6
TORSDOF 1
ENDMDL
MODEL      191
REMARK 921   NORMALIZED FREE ENERGY PREDICTED BY IDOCK:   -1.93 KCAL/MOL
REMARK 922        TOTAL FREE ENERGY PREDICTED BY IDOCK:   -2.27 KCAL/MOL
REMARK 923 INTER-LIGAND FREE ENERGY PREDICTED BY IDOCK:   -2.03 KCAL/MOL
REMARK 924 INTRA-LIGAND FREE ENERGY PREDICTED BY IDOCK:   -0.24 KCAL/MOL
REMARK 927      BINDING AFFINITY PREDICTED BY RF-SCORE:    0.00 PKD
ROOT
HETATM    1  N   UNL     1      -8.796   6.273  65.295  1.00  0.00    -0.360 N  
HETATM    2  C   UNL     1      -9.205   6.730  66.512  1.00  0.00    -0.162 C  
HETATM    3  H2  UNL     1      -8.632   5.276  65.157  1.00  0.00     0.000 HD 
HETATM    4  H1  UNL     1      -8.654   6.924  64.522  1.00  0.00     0.000 HD 
HETATM    5  O   UNL     1      -9.377   5.948  67.441  1.00  0.00    -0.112 OA 
ENDROOT
BRANCH   2   6
HETATM    6  C   UNL     1      -9.436   8.199  66.665  1.00  0.00    -0.274 A  
HETATM    7  C   UNL     1      -9.608   8.938  65.482  1.00  0.00    -0.088 A  
HETATM    8  C   UNL     1      -9.820  10.318  65.524  1.00  0.00    -0.347 A  
HETATM    9  C   UNL     1      -9.860  10.977  66.750  1.00  0.00    -0.229 A  
HETATM   10  C   UNL     1      -9.695  10.258  67.935  1.00  0.00    -0.165 A  
HETATM   11  C   UNL     1      -9.487   8.875  67.894  1.00  0.00    -0.142 A  
HETATM   12  O   UNL     1      -9.338   8.202  69.080  1.00  0.00    -0.151 OA 
HETATM   13  H   UNL     1      -9.372   8.660  69.913  1.00  0.00     0.000 HD 
ENDBRANCH   2   6
TORSDOF 1
ENDMDL
MODEL      192
REMARK 921   NORMALIZED FREE ENERGY PREDICTED BY IDOCK:   -1.93 KCAL/MOL
REMARK 922        TOTAL FREE ENERGY PREDICTED BY IDOCK:   -2.27 KCAL/MOL
REMARK 923 INTER-LIGAND FREE ENERGY PREDICTED BY IDOCK:   -2.14 KCAL/MOL
REMARK 924 INTRA-LIGAND FREE ENERGY PREDICTED BY IDOCK:   -0.13 KCAL/MOL
REMARK 927      BINDING AFFINITY PREDICTED BY RF-SCORE:    0.00 PKD
ROOT
HETATM    1  N   UNL     1      -9.726   3.561  68.002  1.00  0.00    -0.096 N  
HETATM    2  C   UNL     1      -9.404   4.236  66.863  1.00  0.00    -0.166 C  
HETATM    3  H2  UNL     1      -9.637   4.023  68.908  1.00  0.00     0.000 HD 
HETATM    4  H1  UNL     1     -10.054   2.596  67.953  1.00  0.00     0.000 HD 
HETATM    5  O   UNL     1      -9.009   5.396  66.921  1.00  0.00    -0.111 OA 
ENDROOT
BRANCH   2   6
HETATM    6  C   UNL     1      -9.553   3.518  65.560  1.00  0.00    -0.125 A  
HETATM    7  C   UNL     1      -8.596   2.532  65.269  1.00  0.00    -0.110 A  
HETATM    8  C   UNL     1      -8.648   1.815  64.072  1.00  0.00    -0.079 A  
HETATM    9  C   UNL     1      -9.658   2.076  63.149  1.00  0.00    -0.094 A  
HETATM   10  C   UNL     1     -10.619   3.050  63.423  1.00  0.00    -0.235 A  
HETATM   11  C   UNL     1     -10.570   3.766  64.625  1.00  0.00    -0.107 A  
HETATM   12  O   UNL     1     -11.538   4.710  64.861  1.00  0.00    -1.016 OA 
HETATM   13  H   UNL     1     -12.227   4.877  64.228  1.00  0.00     0.000 HD 
ENDBRANCH   2   6
TORSDOF 1
ENDMDL
MODEL      193
REMARK 921   NORMALIZED FREE ENERGY PREDICTED BY IDOCK:   -1.92 KCAL/MOL
REMARK 922        TOTAL FREE ENERGY PREDICTED BY IDOCK:   -2.26 KCAL/MOL
REMARK 923 INTER-LIGAND FREE ENERGY PREDICTED BY IDOCK:   -2.18 KCAL/MOL
REMARK 924 INTRA-LIGAND FREE ENERGY PREDICTED BY IDOCK:   -0.09 KCAL/MOL
REMARK 927      BINDING AFFINITY PREDICTED BY RF-SCORE:    0.00 PKD
ROOT
HETATM    1  N   UNL     1     -10.517   2.532  64.343  1.00  0.00    -0.363 N  
HETATM    2  C   UNL     1      -9.712   3.632  64.350  1.00  0.00    -0.177 C  
HETATM    3  H2  UNL     1     -10.875   2.172  63.458  1.00  0.00     0.000 HD 
HETATM    4  H1  UNL     1     -10.762   2.069  65.218  1.00  0.00     0.000 HD 
HETATM    5  O   UNL     1      -9.416   4.190  63.298  1.00  0.00    -0.144 OA 
ENDROOT
BRANCH   2   6
HETATM    6  C   UNL     1      -9.210   4.121  65.670  1.00  0.00    -0.149 A  
HETATM    7  C   UNL     1      -7.944   3.663  66.074  1.00  0.00    -0.093 A  
HETATM    8  C   UNL     1      -7.396   4.059  67.296  1.00  0.00    -0.068 A  
HETATM    9  C   UNL     1      -8.107   4.917  68.131  1.00  0.00    -0.086 A  
HETATM   10  C   UNL     1      -9.364   5.384  67.745  1.00  0.00    -0.124 A  
HETATM   11  C   UNL     1      -9.912   4.992  66.518  1.00  0.00    -0.224 A  
HETATM   12  O   UNL     1     -11.147   5.480  66.170  1.00  0.00    -0.747 OA 
HETATM   13  H   UNL     1     -11.622   6.069  66.744  1.00  0.00     0.000 HD 
ENDBRANCH   2   6
TORSDOF 1
ENDMDL
MODEL      194
REMARK 921   NORMALIZED FREE ENERGY PREDICTED BY IDOCK:   -1.91 KCAL/MOL
REMARK 922        TOTAL FREE ENERGY PREDICTED BY IDOCK:   -2.25 KCAL/MOL
REMARK 923 INTER-LIGAND FREE ENERGY PREDICTED BY IDOCK:   -2.03 KCAL/MOL
REMARK 924 INTRA-LIGAND FREE ENERGY PREDICTED BY IDOCK:   -0.21 KCAL/MOL
REMARK 927      BINDING AFFINITY PREDICTED BY RF-SCORE:    0.00 PKD
ROOT
HETATM    1  N   UNL     1     -11.240   2.164  63.521  1.00  0.00    -0.453 N  
HETATM    2  C   UNL     1     -10.566   3.340  63.657  1.00  0.00    -0.258 C  
HETATM    3  H2  UNL     1     -11.569   1.871  62.601  1.00  0.00     0.000 HD 
HETATM    4  H1  UNL     1     -11.418   1.576  64.336  1.00  0.00     0.000 HD 
HETATM    5  O   UNL     1     -10.352   4.048  62.678  1.00  0.00    -0.180 OA 
ENDROOT
BRANCH   2   6
HETATM    6  C   UNL     1     -10.101   3.725  65.025  1.00  0.00    -0.119 A  
HETATM    7  C   UNL     1     -10.739   4.826  65.622  1.00  0.00    -0.188 A  
HETATM    8  C   UNL     1     -10.367   5.264  66.895  1.00  0.00    -0.303 A  
HETATM    9  C   UNL     1      -9.351   4.610  67.586  1.00  0.00    -0.170 A  
HETATM   10  C   UNL     1      -8.709   3.513  67.009  1.00  0.00    -0.128 A  
HETATM   11  C   UNL     1      -9.084   3.069  65.736  1.00  0.00    -0.145 A  
HETATM   12  O   UNL     1      -8.436   1.982  65.207  1.00  0.00    -0.090 OA 
HETATM   13  H   UNL     1      -7.747   1.537  65.689  1.00  0.00     0.000 HD 
ENDBRANCH   2   6
TORSDOF 1
ENDMDL
MODEL      195
REMARK 921   NORMALIZED FREE ENERGY PREDICTED BY IDOCK:   -1.90 KCAL/MOL
REMARK 922        TOTAL FREE ENERGY PREDICTED BY IDOCK:   -2.23 KCAL/MOL
REMARK 923 INTER-LIGAND FREE ENERGY PREDICTED BY IDOCK:   -2.15 KCAL/MOL
REMARK 924 INTRA-LIGAND FREE ENERGY PREDICTED BY IDOCK:   -0.08 KCAL/MOL
REMARK 927      BINDING AFFINITY PREDICTED BY RF-SCORE:    0.00 PKD
ROOT
HETATM    1  N   UNL     1     -11.609   7.808  72.236  1.00  0.00    -0.317 N  
HETATM    2  C   UNL     1     -10.945   6.757  71.678  1.00  0.00    -0.235 C  
HETATM    3  H2  UNL     1     -12.027   8.520  71.636  1.00  0.00     0.000 HD 
HETATM    4  H1  UNL     1     -11.690   7.886  73.250  1.00  0.00     0.000 HD 
HETATM    5  O   UNL     1     -10.848   6.663  70.459  1.00  0.00    -0.233 OA 
ENDROOT
BRANCH   2   6
HETATM    6  C   UNL     1     -10.352   5.738  72.598  1.00  0.00    -0.229 A  
HETATM    7  C   UNL     1     -11.233   4.785  73.137  1.00  0.00    -0.390 A  
HETATM    8  C   UNL     1     -10.772   3.800  74.012  1.00  0.00    -0.289 A  
HETATM    9  C   UNL     1      -9.425   3.755  74.362  1.00  0.00    -0.128 A  
HETATM   10  C   UNL     1      -8.536   4.692  73.834  1.00  0.00    -0.104 A  
HETATM   11  C   UNL     1      -8.995   5.677  72.952  1.00  0.00    -0.123 A  
HETATM   12  O   UNL     1      -8.089   6.575  72.447  1.00  0.00    -0.102 OA 
HETATM   13  H   UNL     1      -7.170   6.533  72.687  1.00  0.00     0.000 HD 
ENDBRANCH   2   6
TORSDOF 1
ENDMDL
MODEL      196
REMARK 921   NORMALIZED FREE ENERGY PREDICTED BY IDOCK:   -1.89 KCAL/MOL
REMARK 922        TOTAL FREE ENERGY PREDICTED BY IDOCK:   -2.23 KCAL/MOL
REMARK 923 INTER-LIGAND FREE ENERGY PREDICTED BY IDOCK:   -1.99 KCAL/MOL
REMARK 924 INTRA-LIGAND FREE ENERGY PREDICTED BY IDOCK:   -0.24 KCAL/MOL
REMARK 927      BINDING AFFINITY PREDICTED BY RF-SCORE:    0.00 PKD
ROOT
HETATM    1  N   UNL     1      -6.229  10.388  70.338  1.00  0.00    -0.116 N  
HETATM    2  C   UNL     1      -7.038   9.299  70.467  1.00  0.00    -0.100 C  
HETATM    3  H2  UNL     1      -5.223  10.293  70.480  1.00  0.00     0.000 HD 
HETATM    4  H1  UNL     1      -6.625  11.298  70.099  1.00  0.00     0.000 HD 
HETATM    5  O   UNL     1      -6.562   8.205  70.754  1.00  0.00    -0.036 OA 
ENDROOT
BRANCH   2   6
HETATM    6  C   UNL     1      -8.504   9.487  70.245  1.00  0.00    -0.237 A  
HETATM    7  C   UNL     1      -8.887  10.096  69.037  1.00  0.00    -0.166 A  
HETATM    8  C   UNL     1     -10.234  10.321  68.746  1.00  0.00    -0.205 A  
HETATM    9  C   UNL     1     -11.216   9.944  69.659  1.00  0.00    -0.251 A  
HETATM   10  C   UNL     1     -10.853   9.335  70.861  1.00  0.00    -0.365 A  
HETATM   11  C   UNL     1      -9.504   9.104  71.153  1.00  0.00    -0.261 A  
HETATM   12  O   UNL     1      -9.188   8.495  72.341  1.00  0.00    -0.251 OA 
HETATM   13  H   UNL     1      -9.865   8.235  72.956  1.00  0.00     0.000 HD 
ENDBRANCH   2   6
TORSDOF 1
ENDMDL
MODEL      197
REMARK 921   NORMALIZED FREE ENERGY PREDICTED BY IDOCK:   -1.89 KCAL/MOL
REMARK 922        TOTAL FREE ENERGY PREDICTED BY IDOCK:   -2.23 KCAL/MOL
REMARK 923 INTER-LIGAND FREE ENERGY PREDICTED BY IDOCK:   -1.98 KCAL/MOL
REMARK 924 INTRA-LIGAND FREE ENERGY PREDICTED BY IDOCK:   -0.25 KCAL/MOL
REMARK 927      BINDING AFFINITY PREDICTED BY RF-SCORE:    0.00 PKD
ROOT
HETATM    1  N   UNL     1      -8.188   2.317  69.155  1.00  0.00    -0.050 N  
HETATM    2  C   UNL     1      -8.122   3.627  68.787  1.00  0.00    -0.065 C  
HETATM    3  H2  UNL     1      -7.420   1.686  68.924  1.00  0.00     0.000 HD 
HETATM    4  H1  UNL     1      -9.001   1.965  69.662  1.00  0.00     0.000 HD 
HETATM    5  O   UNL     1      -7.145   4.051  68.178  1.00  0.00    -0.057 OA 
ENDROOT
BRANCH   2   6
HETATM    6  C   UNL     1      -9.269   4.513  69.151  1.00  0.00    -0.194 A  
HETATM    7  C   UNL     1      -9.951   5.133  68.090  1.00  0.00    -0.203 A  
HETATM    8  C   UNL     1     -11.030   5.985  68.333  1.00  0.00    -0.340 A  
HETATM    9  C   UNL     1     -11.441   6.231  69.641  1.00  0.00    -0.425 A  
HETATM   10  C   UNL     1     -10.777   5.622  70.707  1.00  0.00    -0.320 A  
HETATM   11  C   UNL     1      -9.698   4.764  70.464  1.00  0.00    -0.211 A  
HETATM   12  O   UNL     1      -9.078   4.177  71.538  1.00  0.00    -0.114 OA 
HETATM   13  H   UNL     1      -9.368   4.346  72.427  1.00  0.00     0.000 HD 
ENDBRANCH   2   6
TORSDOF 1
ENDMDL
MODEL      198
REMARK 921   NORMALIZED FREE ENERGY PREDICTED BY IDOCK:   -1.89 KCAL/MOL
REMARK 922        TOTAL FREE ENERGY PREDICTED BY IDOCK:   -2.23 KCAL/MOL
REMARK 923 INTER-LIGAND FREE ENERGY PREDICTED BY IDOCK:   -1.97 KCAL/MOL
REMARK 924 INTRA-LIGAND FREE ENERGY PREDICTED BY IDOCK:   -0.26 KCAL/MOL
REMARK 927      BINDING AFFINITY PREDICTED BY RF-SCORE:    0.00 PKD
ROOT
HETATM    1  N   UNL     1      -6.529  13.850  68.437  1.00  0.00    -0.093 N  
HETATM    2  C   UNL     1      -7.796  13.896  67.937  1.00  0.00    -0.161 C  
HETATM    3  H2  UNL     1      -5.901  13.096  68.159  1.00  0.00     0.000 HD 
HETATM    4  H1  UNL     1      -6.206  14.567  69.087  1.00  0.00     0.000 HD 
HETATM    5  O   UNL     1      -8.184  13.034  67.156  1.00  0.00    -0.177 OA 
ENDROOT
BRANCH   2   6
HETATM    6  C   UNL     1      -8.677  15.022  68.372  1.00  0.00    -0.175 A  
HETATM    7  C   UNL     1      -9.922  14.673  68.924  1.00  0.00    -0.228 A  
HETATM    8  C   UNL     1     -10.816  15.657  69.350  1.00  0.00    -0.264 A  
HETATM    9  C   UNL     1     -10.480  17.003  69.227  1.00  0.00    -0.293 A  
HETATM   10  C   UNL     1      -9.247  17.367  68.683  1.00  0.00    -0.265 A  
HETATM   11  C   UNL     1      -8.347  16.382  68.261  1.00  0.00    -0.189 A  
HETATM   12  O   UNL     1      -7.142  16.780  67.739  1.00  0.00    -0.125 OA 
HETATM   13  H   UNL     1      -6.918  17.700  67.664  1.00  0.00     0.000 HD 
ENDBRANCH   2   6
TORSDOF 1
ENDMDL
MODEL      199
REMARK 921   NORMALIZED FREE ENERGY PREDICTED BY IDOCK:   -1.86 KCAL/MOL
REMARK 922        TOTAL FREE ENERGY PREDICTED BY IDOCK:   -2.20 KCAL/MOL
REMARK 923 INTER-LIGAND FREE ENERGY PREDICTED BY IDOCK:   -1.96 KCAL/MOL
REMARK 924 INTRA-LIGAND FREE ENERGY PREDICTED BY IDOCK:   -0.24 KCAL/MOL
REMARK 927      BINDING AFFINITY PREDICTED BY RF-SCORE:    0.00 PKD
ROOT
HETATM    1  N   UNL     1      -8.668  12.147  68.715  1.00  0.00    -0.372 N  
HETATM    2  C   UNL     1      -9.206  10.896  68.678  1.00  0.00    -0.187 C  
HETATM    3  H2  UNL     1      -8.671  12.675  69.587  1.00  0.00     0.000 HD 
HETATM    4  H1  UNL     1      -8.263  12.558  67.873  1.00  0.00     0.000 HD 
HETATM    5  O   UNL     1      -9.693  10.401  69.690  1.00  0.00    -0.205 OA 
ENDROOT
BRANCH   2   6
HETATM    6  C   UNL     1      -9.177  10.160  67.377  1.00  0.00    -0.156 A  
HETATM    7  C   UNL     1      -8.889   8.785  67.435  1.00  0.00    -0.140 A  
HETATM    8  C   UNL     1      -8.831   8.017  66.271  1.00  0.00    -0.191 A  
HETATM    9  C   UNL     1      -9.057   8.613  65.032  1.00  0.00     0.023 A  
HETATM   10  C   UNL     1      -9.347   9.976  64.957  1.00  0.00    -0.314 A  
HETATM   11  C   UNL     1      -9.411  10.747  66.124  1.00  0.00    -0.183 A  
HETATM   12  O   UNL     1      -9.707  12.081  66.009  1.00  0.00    -0.232 OA 
HETATM   13  H   UNL     1      -9.865  12.479  65.160  1.00  0.00     0.000 HD 
ENDBRANCH   2   6
TORSDOF 1
ENDMDL
MODEL      200
REMARK 921   NORMALIZED FREE ENERGY PREDICTED BY IDOCK:   -1.83 KCAL/MOL
REMARK 922        TOTAL FREE ENERGY PREDICTED BY IDOCK:   -2.16 KCAL/MOL
REMARK 923 INTER-LIGAND FREE ENERGY PREDICTED BY IDOCK:   -1.91 KCAL/MOL
REMARK 924 INTRA-LIGAND FREE ENERGY PREDICTED BY IDOCK:   -0.25 KCAL/MOL
REMARK 927      BINDING AFFINITY PREDICTED BY RF-SCORE:    0.00 PKD
ROOT
HETATM    1  N   UNL     1      -5.845  12.268  67.584  1.00  0.00    -0.102 N  
HETATM    2  C   UNL     1      -6.807  12.231  68.549  1.00  0.00    -0.081 C  
HETATM    3  H2  UNL     1      -4.877  12.463  67.840  1.00  0.00     0.000 HD 
HETATM    4  H1  UNL     1      -6.090  12.102  66.608  1.00  0.00     0.000 HD 
HETATM    5  O   UNL     1      -6.513  12.431  69.723  1.00  0.00    -0.109 OA 
ENDROOT
BRANCH   2   6
HETATM    6  C   UNL     1      -8.210  11.939  68.126  1.00  0.00    -0.158 A  
HETATM    7  C   UNL     1      -8.698  12.653  67.018  1.00  0.00    -0.198 A  
HETATM    8  C   UNL     1     -10.000  12.454  66.555  1.00  0.00    -0.242 A  
HETATM    9  C   UNL     1     -10.833  11.540  67.195  1.00  0.00    -0.314 A  
HETATM   10  C   UNL     1     -10.364  10.819  68.294  1.00  0.00    -0.195 A  
HETATM   11  C   UNL     1      -9.058  11.014  68.757  1.00  0.00    -0.157 A  
HETATM   12  O   UNL     1      -8.631  10.281  69.835  1.00  0.00    -0.355 OA 
HETATM   13  H   UNL     1      -9.205   9.655  70.262  1.00  0.00     0.000 HD 
ENDBRANCH   2   6
TORSDOF 1
ENDMDL
MODEL      201
REMARK 921   NORMALIZED FREE ENERGY PREDICTED BY IDOCK:   -1.78 KCAL/MOL
REMARK 922        TOTAL FREE ENERGY PREDICTED BY IDOCK:   -2.11 KCAL/MOL
REMARK 923 INTER-LIGAND FREE ENERGY PREDICTED BY IDOCK:   -1.89 KCAL/MOL
REMARK 924 INTRA-LIGAND FREE ENERGY PREDICTED BY IDOCK:   -0.22 KCAL/MOL
REMARK 927      BINDING AFFINITY PREDICTED BY RF-SCORE:    0.00 PKD
ROOT
HETATM    1  N   UNL     1      -8.883   2.915  66.338  1.00  0.00    -0.139 N  
HETATM    2  C   UNL     1      -9.334   3.624  67.411  1.00  0.00    -0.203 C  
HETATM    3  H2  UNL     1      -8.849   1.897  66.381  1.00  0.00     0.000 HD 
HETATM    4  H1  UNL     1      -8.579   3.399  65.493  1.00  0.00     0.000 HD 
HETATM    5  O   UNL     1      -9.700   3.042  68.428  1.00  0.00    -0.116 OA 
ENDROOT
BRANCH   2   6
HETATM    6  C   UNL     1      -9.368   5.114  67.300  1.00  0.00    -0.129 A  
HETATM    7  C   UNL     1     -10.637   5.717  67.280  1.00  0.00    -0.353 A  
HETATM    8  C   UNL     1     -10.768   7.103  67.170  1.00  0.00    -0.422 A  
HETATM    9  C   UNL     1      -9.633   7.904  67.076  1.00  0.00    -0.247 A  
HETATM   10  C   UNL     1      -8.365   7.322  67.098  1.00  0.00    -0.118 A  
HETATM   11  C   UNL     1      -8.231   5.933  67.213  1.00  0.00    -0.105 A  
HETATM   12  O   UNL     1      -6.968   5.400  67.240  1.00  0.00    -0.062 OA 
HETATM   13  H   UNL     1      -6.198   5.954  67.181  1.00  0.00     0.000 HD 
ENDBRANCH   2   6
TORSDOF 1
ENDMDL
MODEL      202
REMARK 921   NORMALIZED FREE ENERGY PREDICTED BY IDOCK:   -1.77 KCAL/MOL
REMARK 922        TOTAL FREE ENERGY PREDICTED BY IDOCK:   -2.10 KCAL/MOL
REMARK 923 INTER-LIGAND FREE ENERGY PREDICTED BY IDOCK:   -1.93 KCAL/MOL
REMARK 924 INTRA-LIGAND FREE ENERGY PREDICTED BY IDOCK:   -0.17 KCAL/MOL
REMARK 927      BINDING AFFINITY PREDICTED BY RF-SCORE:    0.00 PKD
ROOT
HETATM    1  N   UNL     1     -10.956   8.450  71.697  1.00  0.00    -0.260 N  
HETATM    2  C   UNL     1      -9.745   8.960  71.337  1.00  0.00    -0.300 C  
HETATM    3  H2  UNL     1     -11.805   8.792  71.246  1.00  0.00     0.000 HD 
HETATM    4  H1  UNL     1     -11.018   7.727  72.414  1.00  0.00     0.000 HD 
HETATM    5  O   UNL     1      -9.671   9.829  70.474  1.00  0.00    -0.249 OA 
ENDROOT
BRANCH   2   6
HETATM    6  C   UNL     1      -8.530   8.424  72.023  1.00  0.00    -0.245 A  
HETATM    7  C   UNL     1      -7.319   8.498  71.313  1.00  0.00    -0.095 A  
HETATM    8  C   UNL     1      -6.133   8.014  71.869  1.00  0.00    -0.042 A  
HETATM    9  C   UNL     1      -6.142   7.449  73.141  1.00  0.00    -0.055 A  
HETATM   10  C   UNL     1      -7.334   7.371  73.862  1.00  0.00    -0.118 A  
HETATM   11  C   UNL     1      -8.523   7.860  73.308  1.00  0.00    -0.205 A  
HETATM   12  O   UNL     1      -9.673   7.773  74.052  1.00  0.00    -0.363 OA 
HETATM   13  H   UNL     1      -9.668   7.391  74.922  1.00  0.00     0.000 HD 
ENDBRANCH   2   6
TORSDOF 1
ENDMDL
MODEL      203
REMARK 921   NORMALIZED FREE ENERGY PREDICTED BY IDOCK:   -1.77 KCAL/MOL
REMARK 922        TOTAL FREE ENERGY PREDICTED BY IDOCK:   -2.10 KCAL/MOL
REMARK 923 INTER-LIGAND FREE ENERGY PREDICTED BY IDOCK:   -1.86 KCAL/MOL
REMARK 924 INTRA-LIGAND FREE ENERGY PREDICTED BY IDOCK:   -0.24 KCAL/MOL
REMARK 927      BINDING AFFINITY PREDICTED BY RF-SCORE:    0.00 PKD
ROOT
HETATM    1  N   UNL     1      -9.470   2.146  67.346  1.00  0.00    -0.399 N  
HETATM    2  C   UNL     1      -9.328   3.500  67.296  1.00  0.00    -0.205 C  
HETATM    3  H2  UNL     1      -9.795   1.702  68.205  1.00  0.00     0.000 HD 
HETATM    4  H1  UNL     1      -9.253   1.575  66.529  1.00  0.00     0.000 HD 
HETATM    5  O   UNL     1      -9.589   4.187  68.278  1.00  0.00    -0.158 OA 
ENDROOT
BRANCH   2   6
HETATM    6  C   UNL     1      -8.852   4.106  66.014  1.00  0.00    -0.121 A  
HETATM    7  C   UNL     1      -7.630   4.798  66.058  1.00  0.00    -0.090 A  
HETATM    8  C   UNL     1      -7.110   5.404  64.913  1.00  0.00    -0.058 A  
HETATM    9  C   UNL     1      -7.805   5.328  63.709  1.00  0.00    -0.091 A  
HETATM   10  C   UNL     1      -9.019   4.641  63.646  1.00  0.00    -0.105 A  
HETATM   11  C   UNL     1      -9.539   4.029  64.792  1.00  0.00    -0.178 A  
HETATM   12  O   UNL     1     -10.730   3.356  64.689  1.00  0.00    -0.452 OA 
HETATM   13  H   UNL     1     -11.196   3.304  63.861  1.00  0.00     0.000 HD 
ENDBRANCH   2   6
TORSDOF 1
ENDMDL
MODEL      204
REMARK 921   NORMALIZED FREE ENERGY PREDICTED BY IDOCK:   -1.76 KCAL/MOL
REMARK 922        TOTAL FREE ENERGY PREDICTED BY IDOCK:   -2.09 KCAL/MOL
REMARK 923 INTER-LIGAND FREE ENERGY PREDICTED BY IDOCK:   -1.84 KCAL/MOL
REMARK 924 INTRA-LIGAND FREE ENERGY PREDICTED BY IDOCK:   -0.26 KCAL/MOL
REMARK 927      BINDING AFFINITY PREDICTED BY RF-SCORE:    0.00 PKD
ROOT
HETATM    1  N   UNL     1      -7.554   8.544  71.366  1.00  0.00    -0.096 N  
HETATM    2  C   UNL     1      -7.464   9.402  70.311  1.00  0.00    -0.128 C  
HETATM    3  H2  UNL     1      -6.713   8.282  71.880  1.00  0.00     0.000 HD 
HETATM    4  H1  UNL     1      -8.459   8.163  71.644  1.00  0.00     0.000 HD 
HETATM    5  O   UNL     1      -6.376   9.860  69.977  1.00  0.00    -0.053 OA 
ENDROOT
BRANCH   2   6
HETATM    6  C   UNL     1      -8.724   9.759  69.591  1.00  0.00    -0.211 A  
HETATM    7  C   UNL     1      -9.900   9.805  70.360  1.00  0.00    -0.269 A  
HETATM    8  C   UNL     1     -11.127  10.120  69.773  1.00  0.00    -0.328 A  
HETATM    9  C   UNL     1     -11.195  10.392  68.409  1.00  0.00    -0.318 A  
HETATM   10  C   UNL     1     -10.037  10.354  67.631  1.00  0.00    -0.223 A  
HETATM   11  C   UNL     1      -8.806  10.043  68.219  1.00  0.00    -0.116 A  
HETATM   12  O   UNL     1      -7.689  10.024  67.422  1.00  0.00    -0.095 OA 
HETATM   13  H   UNL     1      -7.744  10.217  66.493  1.00  0.00     0.000 HD 
ENDBRANCH   2   6
TORSDOF 1
ENDMDL
MODEL      205
REMARK 921   NORMALIZED FREE ENERGY PREDICTED BY IDOCK:   -1.76 KCAL/MOL
REMARK 922        TOTAL FREE ENERGY PREDICTED BY IDOCK:   -2.09 KCAL/MOL
REMARK 923 INTER-LIGAND FREE ENERGY PREDICTED BY IDOCK:   -2.00 KCAL/MOL
REMARK 924 INTRA-LIGAND FREE ENERGY PREDICTED BY IDOCK:   -0.09 KCAL/MOL
REMARK 927      BINDING AFFINITY PREDICTED BY RF-SCORE:    0.00 PKD
ROOT
HETATM    1  N   UNL     1      -7.125   9.994  69.271  1.00  0.00    -0.067 N  
HETATM    2  C   UNL     1      -8.403  10.147  68.824  1.00  0.00    -0.122 C  
HETATM    3  H2  UNL     1      -6.375  10.557  68.869  1.00  0.00     0.000 HD 
HETATM    4  H1  UNL     1      -6.915   9.319  70.007  1.00  0.00     0.000 HD 
HETATM    5  O   UNL     1      -8.656  10.958  67.939  1.00  0.00    -0.126 OA 
ENDROOT
BRANCH   2   6
HETATM    6  C   UNL     1      -9.467   9.301  69.446  1.00  0.00    -0.169 A  
HETATM    7  C   UNL     1     -10.110   9.829  70.579  1.00  0.00    -0.289 A  
HETATM    8  C   UNL     1     -11.111   9.108  71.234  1.00  0.00    -0.405 A  
HETATM    9  C   UNL     1     -11.480   7.849  70.766  1.00  0.00    -0.273 A  
HETATM   10  C   UNL     1     -10.855   7.312  69.640  1.00  0.00    -0.238 A  
HETATM   11  C   UNL     1      -9.855   8.035  68.980  1.00  0.00    -0.178 A  
HETATM   12  O   UNL     1      -9.270   7.477  67.872  1.00  0.00    -0.136 OA 
HETATM   13  H   UNL     1      -9.532   6.620  67.556  1.00  0.00     0.000 HD 
ENDBRANCH   2   6
TORSDOF 1
ENDMDL
MODEL      206
REMARK 921   NORMALIZED FREE ENERGY PREDICTED BY IDOCK:   -1.74 KCAL/MOL
REMARK 922        TOTAL FREE ENERGY PREDICTED BY IDOCK:   -2.07 KCAL/MOL
REMARK 923 INTER-LIGAND FREE ENERGY PREDICTED BY IDOCK:   -1.82 KCAL/MOL
REMARK 924 INTRA-LIGAND FREE ENERGY PREDICTED BY IDOCK:   -0.26 KCAL/MOL
REMARK 927      BINDING AFFINITY PREDICTED BY RF-SCORE:    0.00 PKD
ROOT
HETATM    1  N   UNL     1     -10.628   7.590  66.707  1.00  0.00    -0.494 N  
HETATM    2  C   UNL     1     -10.189   8.338  67.757  1.00  0.00    -0.223 C  
HETATM    3  H2  UNL     1     -11.265   6.810  66.871  1.00  0.00     0.000 HD 
HETATM    4  H1  UNL     1     -10.323   7.806  65.757  1.00  0.00     0.000 HD 
HETATM    5  O   UNL     1     -10.556   8.078  68.899  1.00  0.00    -0.210 OA 
ENDROOT
BRANCH   2   6
HETATM    6  C   UNL     1      -9.260   9.472  67.467  1.00  0.00    -0.142 A  
HETATM    7  C   UNL     1      -9.568  10.273  66.354  1.00  0.00    -0.233 A  
HETATM    8  C   UNL     1      -8.753  11.350  65.999  1.00  0.00    -0.131 A  
HETATM    9  C   UNL     1      -7.617  11.640  66.751  1.00  0.00    -0.104 A  
HETATM   10  C   UNL     1      -7.298  10.857  67.861  1.00  0.00    -0.088 A  
HETATM   11  C   UNL     1      -8.116   9.780  68.221  1.00  0.00    -0.104 A  
HETATM   12  O   UNL     1      -7.773   9.040  69.324  1.00  0.00    -0.086 OA 
HETATM   13  H   UNL     1      -6.999   9.248  69.835  1.00  0.00     0.000 HD 
ENDBRANCH   2   6
TORSDOF 1
ENDMDL
MODEL      207
REMARK 921   NORMALIZED FREE ENERGY PREDICTED BY IDOCK:   -1.71 KCAL/MOL
REMARK 922        TOTAL FREE ENERGY PREDICTED BY IDOCK:   -2.04 KCAL/MOL
REMARK 923 INTER-LIGAND FREE ENERGY PREDICTED BY IDOCK:   -1.78 KCAL/MOL
REMARK 924 INTRA-LIGAND FREE ENERGY PREDICTED BY IDOCK:   -0.26 KCAL/MOL
REMARK 927      BINDING AFFINITY PREDICTED BY RF-SCORE:    0.00 PKD
ROOT
HETATM    1  N   UNL     1      -7.276  20.329  71.637  1.00  0.00     0.170 N  
HETATM    2  C   UNL     1      -6.209  20.484  70.804  1.00  0.00     0.039 C  
HETATM    3  H2  UNL     1      -7.190  20.576  72.623  1.00  0.00     0.000 HD 
HETATM    4  H1  UNL     1      -8.161  19.968  71.278  1.00  0.00     0.000 HD 
HETATM    5  O   UNL     1      -5.146  20.919  71.235  1.00  0.00    -0.455 OA 
ENDROOT
BRANCH   2   6
HETATM    6  C   UNL     1      -6.385  20.113  69.367  1.00  0.00    -0.353 A  
HETATM    7  C   UNL     1      -6.091  21.106  68.417  1.00  0.00    -0.236 A  
HETATM    8  C   UNL     1      -6.234  20.854  67.051  1.00  0.00    -0.348 A  
HETATM    9  C   UNL     1      -6.674  19.606  66.616  1.00  0.00    -0.202 A  
HETATM   10  C   UNL     1      -6.967  18.607  67.546  1.00  0.00    -0.210 A  
HETATM   11  C   UNL     1      -6.819  18.856  68.915  1.00  0.00    -0.300 A  
HETATM   12  O   UNL     1      -7.109  17.846  69.797  1.00  0.00     0.112 OA 
HETATM   13  H   UNL     1      -7.403  16.996  69.492  1.00  0.00     0.000 HD 
ENDBRANCH   2   6
TORSDOF 1
ENDMDL
MODEL      208
REMARK 921   NORMALIZED FREE ENERGY PREDICTED BY IDOCK:   -1.68 KCAL/MOL
REMARK 922        TOTAL FREE ENERGY PREDICTED BY IDOCK:   -2.01 KCAL/MOL
REMARK 923 INTER-LIGAND FREE ENERGY PREDICTED BY IDOCK:   -1.75 KCAL/MOL
REMARK 924 INTRA-LIGAND FREE ENERGY PREDICTED BY IDOCK:   -0.25 KCAL/MOL
REMARK 927      BINDING AFFINITY PREDICTED BY RF-SCORE:    0.00 PKD
ROOT
HETATM    1  N   UNL     1      -5.886   9.671  69.285  1.00  0.00    -0.035 N  
HETATM    2  C   UNL     1      -7.197   9.904  68.994  1.00  0.00    -0.077 C  
HETATM    3  H2  UNL     1      -5.157  10.121  68.732  1.00  0.00     0.000 HD 
HETATM    4  H1  UNL     1      -5.632   9.050  70.054  1.00  0.00     0.000 HD 
HETATM    5  O   UNL     1      -7.503  10.650  68.070  1.00  0.00    -0.088 OA 
ENDROOT
BRANCH   2   6
HETATM    6  C   UNL     1      -8.230   9.226  69.835  1.00  0.00    -0.148 A  
HETATM    7  C   UNL     1      -7.862   8.004  70.425  1.00  0.00    -0.091 A  
HETATM    8  C   UNL     1      -8.764   7.294  71.221  1.00  0.00    -0.127 A  
HETATM    9  C   UNL     1     -10.046   7.793  71.434  1.00  0.00    -0.211 A  
HETATM   10  C   UNL     1     -10.427   9.006  70.859  1.00  0.00    -0.321 A  
HETATM   11  C   UNL     1      -9.523   9.722  70.065  1.00  0.00    -0.238 A  
HETATM   12  O   UNL     1      -9.932  10.914  69.524  1.00  0.00    -0.418 OA 
HETATM   13  H   UNL     1     -10.808  11.251  69.680  1.00  0.00     0.000 HD 
ENDBRANCH   2   6
TORSDOF 1
ENDMDL
MODEL      209
REMARK 921   NORMALIZED FREE ENERGY PREDICTED BY IDOCK:   -1.68 KCAL/MOL
REMARK 922        TOTAL FREE ENERGY PREDICTED BY IDOCK:   -2.00 KCAL/MOL
REMARK 923 INTER-LIGAND FREE ENERGY PREDICTED BY IDOCK:   -1.77 KCAL/MOL
REMARK 924 INTRA-LIGAND FREE ENERGY PREDICTED BY IDOCK:   -0.23 KCAL/MOL
REMARK 927      BINDING AFFINITY PREDICTED BY RF-SCORE:    0.00 PKD
ROOT
HETATM    1  N   UNL     1      -9.461   8.755  67.504  1.00  0.00    -0.139 N  
HETATM    2  C   UNL     1      -9.255   7.769  66.586  1.00  0.00    -0.177 C  
HETATM    3  H2  UNL     1      -9.389   9.733  67.223  1.00  0.00     0.000 HD 
HETATM    4  H1  UNL     1      -9.688   8.519  68.470  1.00  0.00     0.000 HD 
HETATM    5  O   UNL     1      -8.982   8.052  65.424  1.00  0.00    -0.080 OA 
ENDROOT
BRANCH   2   6
HETATM    6  C   UNL     1      -9.375   6.351  67.045  1.00  0.00    -0.143 A  
HETATM    7  C   UNL     1      -9.614   6.149  68.415  1.00  0.00    -0.123 A  
HETATM    8  C   UNL     1      -9.732   4.859  68.938  1.00  0.00    -0.242 A  
HETATM    9  C   UNL     1      -9.611   3.755  68.098  1.00  0.00    -0.176 A  
HETATM   10  C   UNL     1      -9.377   3.938  66.735  1.00  0.00    -0.203 A  
HETATM   11  C   UNL     1      -9.263   5.229  66.208  1.00  0.00    -0.149 A  
HETATM   12  O   UNL     1      -9.042   5.368  64.862  1.00  0.00    -0.337 OA 
HETATM   13  H   UNL     1      -8.966   4.609  64.295  1.00  0.00     0.000 HD 
ENDBRANCH   2   6
TORSDOF 1
ENDMDL
MODEL      210
REMARK 921   NORMALIZED FREE ENERGY PREDICTED BY IDOCK:   -1.67 KCAL/MOL
REMARK 922        TOTAL FREE ENERGY PREDICTED BY IDOCK:   -2.00 KCAL/MOL
REMARK 923 INTER-LIGAND FREE ENERGY PREDICTED BY IDOCK:   -1.75 KCAL/MOL
REMARK 924 INTRA-LIGAND FREE ENERGY PREDICTED BY IDOCK:   -0.24 KCAL/MOL
REMARK 927      BINDING AFFINITY PREDICTED BY RF-SCORE:    0.00 PKD
ROOT
HETATM    1  N   UNL     1      -5.271  13.412  68.554  1.00  0.00    -0.073 N  
HETATM    2  C   UNL     1      -6.305  13.050  67.744  1.00  0.00    -0.149 C  
HETATM    3  H2  UNL     1      -4.479  12.781  68.678  1.00  0.00     0.000 HD 
HETATM    4  H1  UNL     1      -5.286  14.310  69.037  1.00  0.00     0.000 HD 
HETATM    5  O   UNL     1      -6.288  11.969  67.163  1.00  0.00    -0.138 OA 
ENDROOT
BRANCH   2   6
HETATM    6  C   UNL     1      -7.442  14.008  67.591  1.00  0.00    -0.186 A  
HETATM    7  C   UNL     1      -7.188  15.348  67.931  1.00  0.00    -0.160 A  
HETATM    8  C   UNL     1      -8.191  16.314  67.829  1.00  0.00    -0.158 A  
HETATM    9  C   UNL     1      -9.462  15.953  67.389  1.00  0.00    -0.220 A  
HETATM   10  C   UNL     1      -9.731  14.628  67.044  1.00  0.00    -0.247 A  
HETATM   11  C   UNL     1      -8.725  13.659  67.141  1.00  0.00    -0.216 A  
HETATM   12  O   UNL     1      -9.025  12.369  66.784  1.00  0.00    -0.207 OA 
HETATM   13  H   UNL     1      -9.894  12.132  66.479  1.00  0.00     0.000 HD 
ENDBRANCH   2   6
TORSDOF 1
ENDMDL
MODEL      211
REMARK 921   NORMALIZED FREE ENERGY PREDICTED BY IDOCK:   -1.67 KCAL/MOL
REMARK 922        TOTAL FREE ENERGY PREDICTED BY IDOCK:   -1.99 KCAL/MOL
REMARK 923 INTER-LIGAND FREE ENERGY PREDICTED BY IDOCK:   -1.74 KCAL/MOL
REMARK 924 INTRA-LIGAND FREE ENERGY PREDICTED BY IDOCK:   -0.26 KCAL/MOL
REMARK 927      BINDING AFFINITY PREDICTED BY RF-SCORE:    0.00 PKD
ROOT
HETATM    1  N   UNL     1     -10.415   6.001  72.962  1.00  0.00    -0.211 N  
HETATM    2  C   UNL     1     -10.656   6.514  71.723  1.00  0.00    -0.215 C  
HETATM    3  H2  UNL     1     -11.130   5.439  73.426  1.00  0.00     0.000 HD 
HETATM    4  H1  UNL     1      -9.524   6.176  73.427  1.00  0.00     0.000 HD 
HETATM    5  O   UNL     1     -11.727   6.304  71.163  1.00  0.00    -0.315 OA 
ENDROOT
BRANCH   2   6
HETATM    6  C   UNL     1      -9.578   7.328  71.082  1.00  0.00    -0.160 A  
HETATM    7  C   UNL     1      -9.922   8.631  70.685  1.00  0.00    -0.230 A  
HETATM    8  C   UNL     1      -8.983   9.463  70.070  1.00  0.00    -0.234 A  
HETATM    9  C   UNL     1      -7.689   9.001  69.842  1.00  0.00    -0.076 A  
HETATM   10  C   UNL     1      -7.330   7.710  70.233  1.00  0.00    -0.071 A  
HETATM   11  C   UNL     1      -8.268   6.878  70.854  1.00  0.00    -0.118 A  
HETATM   12  O   UNL     1      -7.874   5.619  71.231  1.00  0.00    -0.105 OA 
HETATM   13  H   UNL     1      -6.987   5.314  71.077  1.00  0.00     0.000 HD 
ENDBRANCH   2   6
TORSDOF 1
ENDMDL
MODEL      212
REMARK 921   NORMALIZED FREE ENERGY PREDICTED BY IDOCK:   -1.65 KCAL/MOL
REMARK 922        TOTAL FREE ENERGY PREDICTED BY IDOCK:   -1.97 KCAL/MOL
REMARK 923 INTER-LIGAND FREE ENERGY PREDICTED BY IDOCK:   -1.72 KCAL/MOL
REMARK 924 INTRA-LIGAND FREE ENERGY PREDICTED BY IDOCK:   -0.26 KCAL/MOL
REMARK 927      BINDING AFFINITY PREDICTED BY RF-SCORE:    0.00 PKD
ROOT
HETATM    1  N   UNL     1      -6.625   3.946  65.281  1.00  0.00    -0.043 N  
HETATM    2  C   UNL     1      -7.924   4.159  64.931  1.00  0.00    -0.093 C  
HETATM    3  H2  UNL     1      -6.073   3.247  64.783  1.00  0.00     0.000 HD 
HETATM    4  H1  UNL     1      -6.201   4.483  66.038  1.00  0.00     0.000 HD 
HETATM    5  O   UNL     1      -8.434   3.514  64.020  1.00  0.00    -0.090 OA 
ENDROOT
BRANCH   2   6
HETATM    6  C   UNL     1      -8.690   5.196  65.687  1.00  0.00    -0.143 A  
HETATM    7  C   UNL     1      -9.963   4.826  66.155  1.00  0.00    -0.261 A  
HETATM    8  C   UNL     1     -10.756   5.731  66.864  1.00  0.00    -0.381 A  
HETATM    9  C   UNL     1     -10.288   7.019  67.112  1.00  0.00    -0.351 A  
HETATM   10  C   UNL     1      -9.026   7.403  66.657  1.00  0.00    -0.168 A  
HETATM   11  C   UNL     1      -8.228   6.496  65.951  1.00  0.00    -0.131 A  
HETATM   12  O   UNL     1      -6.990   6.908  65.527  1.00  0.00    -0.057 OA 
HETATM   13  H   UNL     1      -6.677   7.787  65.706  1.00  0.00     0.000 HD 
ENDBRANCH   2   6
TORSDOF 1
ENDMDL
MODEL      213
REMARK 921   NORMALIZED FREE ENERGY PREDICTED BY IDOCK:   -1.64 KCAL/MOL
REMARK 922        TOTAL FREE ENERGY PREDICTED BY IDOCK:   -1.96 KCAL/MOL
REMARK 923 INTER-LIGAND FREE ENERGY PREDICTED BY IDOCK:   -1.73 KCAL/MOL
REMARK 924 INTRA-LIGAND FREE ENERGY PREDICTED BY IDOCK:   -0.23 KCAL/MOL
REMARK 927      BINDING AFFINITY PREDICTED BY RF-SCORE:    0.00 PKD
ROOT
HETATM    1  N   UNL     1     -10.214   6.351  68.948  1.00  0.00    -0.171 N  
HETATM    2  C   UNL     1     -10.609   7.141  69.986  1.00  0.00    -0.232 C  
HETATM    3  H2  UNL     1     -10.823   6.236  68.138  1.00  0.00     0.000 HD 
HETATM    4  H1  UNL     1      -9.312   5.874  68.979  1.00  0.00     0.000 HD 
HETATM    5  O   UNL     1     -11.693   7.715  69.950  1.00  0.00     0.066 OA 
ENDROOT
BRANCH   2   6
HETATM    6  C   UNL     1      -9.681   7.282  71.149  1.00  0.00    -0.171 A  
HETATM    7  C   UNL     1      -8.491   6.536  71.102  1.00  0.00    -0.126 A  
HETATM    8  C   UNL     1      -7.567   6.596  72.148  1.00  0.00    -0.095 A  
HETATM    9  C   UNL     1      -7.822   7.402  73.255  1.00  0.00    -0.126 A  
HETATM   10  C   UNL     1      -8.997   8.152  73.317  1.00  0.00    -0.332 A  
HETATM   11  C   UNL     1      -9.922   8.096  72.268  1.00  0.00    -0.263 A  
HETATM   12  O   UNL     1     -11.061   8.855  72.361  1.00  0.00    -0.280 OA 
HETATM   13  H   UNL     1     -11.224   9.407  73.118  1.00  0.00     0.000 HD 
ENDBRANCH   2   6
TORSDOF 1
ENDMDL
MODEL      214
REMARK 921   NORMALIZED FREE ENERGY PREDICTED BY IDOCK:   -1.63 KCAL/MOL
REMARK 922        TOTAL FREE ENERGY PREDICTED BY IDOCK:   -1.96 KCAL/MOL
REMARK 923 INTER-LIGAND FREE ENERGY PREDICTED BY IDOCK:   -1.70 KCAL/MOL
REMARK 924 INTRA-LIGAND FREE ENERGY PREDICTED BY IDOCK:   -0.25 KCAL/MOL
REMARK 927      BINDING AFFINITY PREDICTED BY RF-SCORE:    0.00 PKD
ROOT
HETATM    1  N   UNL     1      -9.650   6.656  65.906  1.00  0.00    -0.385 N  
HETATM    2  C   UNL     1      -9.385   5.323  66.010  1.00  0.00    -0.158 C  
HETATM    3  H2  UNL     1      -9.999   7.036  65.026  1.00  0.00     0.000 HD 
HETATM    4  H1  UNL     1      -9.500   7.274  66.704  1.00  0.00     0.000 HD 
HETATM    5  O   UNL     1      -9.564   4.579  65.051  1.00  0.00    -0.164 OA 
ENDROOT
BRANCH   2   6
HETATM    6  C   UNL     1      -8.877   4.812  67.320  1.00  0.00    -0.104 A  
HETATM    7  C   UNL     1      -8.164   5.722  68.119  1.00  0.00    -0.104 A  
HETATM    8  C   UNL     1      -7.644   5.333  69.356  1.00  0.00    -0.069 A  
HETATM    9  C   UNL     1      -7.828   4.028  69.808  1.00  0.00    -0.052 A  
HETATM   10  C   UNL     1      -8.537   3.113  69.029  1.00  0.00    -0.113 A  
HETATM   11  C   UNL     1      -9.063   3.503  67.792  1.00  0.00    -0.159 A  
HETATM   12  O   UNL     1      -9.762   2.577  67.059  1.00  0.00    -0.396 OA 
HETATM   13  H   UNL     1      -9.888   1.691  67.379  1.00  0.00     0.000 HD 
ENDBRANCH   2   6
TORSDOF 1
ENDMDL
MODEL      215
REMARK 921   NORMALIZED FREE ENERGY PREDICTED BY IDOCK:   -1.56 KCAL/MOL
REMARK 922        TOTAL FREE ENERGY PREDICTED BY IDOCK:   -1.88 KCAL/MOL
REMARK 923 INTER-LIGAND FREE ENERGY PREDICTED BY IDOCK:   -1.63 KCAL/MOL
REMARK 924 INTRA-LIGAND FREE ENERGY PREDICTED BY IDOCK:   -0.25 KCAL/MOL
REMARK 927      BINDING AFFINITY PREDICTED BY RF-SCORE:    0.00 PKD
ROOT
HETATM    1  N   UNL     1     -10.672   5.991  69.727  1.00  0.00    -0.296 N  
HETATM    2  C   UNL     1      -9.769   6.752  70.406  1.00  0.00    -0.175 C  
HETATM    3  H2  UNL     1     -11.103   6.353  68.876  1.00  0.00     0.000 HD 
HETATM    4  H1  UNL     1     -10.919   5.060  70.065  1.00  0.00     0.000 HD 
HETATM    5  O   UNL     1      -9.472   7.871  69.999  1.00  0.00    -0.157 OA 
ENDROOT
BRANCH   2   6
HETATM    6  C   UNL     1      -9.162   6.177  71.645  1.00  0.00    -0.150 A  
HETATM    7  C   UNL     1      -7.765   6.028  71.653  1.00  0.00    -0.101 A  
HETATM    8  C   UNL     1      -7.109   5.492  72.764  1.00  0.00    -0.089 A  
HETATM    9  C   UNL     1      -7.842   5.095  73.879  1.00  0.00    -0.098 A  
HETATM   10  C   UNL     1      -9.230   5.239  73.889  1.00  0.00    -0.125 A  
HETATM   11  C   UNL     1      -9.888   5.781  72.779  1.00  0.00    -0.160 A  
HETATM   12  O   UNL     1     -11.253   5.914  72.831  1.00  0.00    -0.283 OA 
HETATM   13  H   UNL     1     -11.744   5.646  73.599  1.00  0.00     0.000 HD 
ENDBRANCH   2   6
TORSDOF 1
ENDMDL
MODEL      216
REMARK 921   NORMALIZED FREE ENERGY PREDICTED BY IDOCK:   -1.52 KCAL/MOL
REMARK 922        TOTAL FREE ENERGY PREDICTED BY IDOCK:   -1.84 KCAL/MOL
REMARK 923 INTER-LIGAND FREE ENERGY PREDICTED BY IDOCK:   -1.66 KCAL/MOL
REMARK 924 INTRA-LIGAND FREE ENERGY PREDICTED BY IDOCK:   -0.18 KCAL/MOL
REMARK 927      BINDING AFFINITY PREDICTED BY RF-SCORE:    0.00 PKD
ROOT
HETATM    1  N   UNL     1     -10.169   7.334  68.095  1.00  0.00    -0.180 N  
HETATM    2  C   UNL     1     -10.177   5.972  68.057  1.00  0.00    -0.181 C  
HETATM    3  H2  UNL     1     -10.506   7.820  68.926  1.00  0.00     0.000 HD 
HETATM    4  H1  UNL     1      -9.828   7.869  67.295  1.00  0.00     0.000 HD 
HETATM    5  O   UNL     1     -10.586   5.328  69.018  1.00  0.00    -0.188 OA 
ENDROOT
BRANCH   2   6
HETATM    6  C   UNL     1      -9.670   5.304  66.819  1.00  0.00    -0.174 A  
HETATM    7  C   UNL     1     -10.634   4.740  65.966  1.00  0.00    -0.300 A  
HETATM    8  C   UNL     1     -10.256   4.088  64.791  1.00  0.00    -0.223 A  
HETATM    9  C   UNL     1      -8.908   3.989  64.454  1.00  0.00    -0.129 A  
HETATM   10  C   UNL     1      -7.938   4.546  65.288  1.00  0.00    -0.098 A  
HETATM   11  C   UNL     1      -8.316   5.205  66.464  1.00  0.00    -0.108 A  
HETATM   12  O   UNL     1      -7.333   5.747  67.252  1.00  0.00    -0.074 OA 
HETATM   13  H   UNL     1      -6.416   5.680  67.012  1.00  0.00     0.000 HD 
ENDBRANCH   2   6
TORSDOF 1
ENDMDL
MODEL      217
REMARK 921   NORMALIZED FREE ENERGY PREDICTED BY IDOCK:   -1.47 KCAL/MOL
REMARK 922        TOTAL FREE ENERGY PREDICTED BY IDOCK:   -1.78 KCAL/MOL
REMARK 923 INTER-LIGAND FREE ENERGY PREDICTED BY IDOCK:   -1.52 KCAL/MOL
REMARK 924 INTRA-LIGAND FREE ENERGY PREDICTED BY IDOCK:   -0.25 KCAL/MOL
REMARK 927      BINDING AFFINITY PREDICTED BY RF-SCORE:    0.00 PKD
ROOT
HETATM    1  N   UNL     1      -8.595   7.250  68.602  1.00  0.00    -0.128 N  
HETATM    2  C   UNL     1      -8.956   6.029  68.116  1.00  0.00    -0.112 C  
HETATM    3  H2  UNL     1      -8.538   8.050  67.972  1.00  0.00     0.000 HD 
HETATM    4  H1  UNL     1      -8.383   7.367  69.593  1.00  0.00     0.000 HD 
HETATM    5  O   UNL     1      -9.211   5.888  66.925  1.00  0.00    -0.120 OA 
ENDROOT
BRANCH   2   6
HETATM    6  C   UNL     1      -9.030   4.888  69.079  1.00  0.00    -0.134 A  
HETATM    7  C   UNL     1      -8.409   3.690  68.686  1.00  0.00    -0.093 A  
HETATM    8  C   UNL     1      -8.433   2.567  69.516  1.00  0.00    -0.097 A  
HETATM    9  C   UNL     1      -9.080   2.626  70.748  1.00  0.00    -0.189 A  
HETATM   10  C   UNL     1      -9.699   3.809  71.155  1.00  0.00    -0.245 A  
HETATM   11  C   UNL     1      -9.671   4.937  70.327  1.00  0.00    -0.217 A  
HETATM   12  O   UNL     1     -10.283   6.084  70.766  1.00  0.00    -0.189 OA 
HETATM   13  H   UNL     1     -10.717   6.117  71.611  1.00  0.00     0.000 HD 
ENDBRANCH   2   6
TORSDOF 1
ENDMDL
MODEL      218
REMARK 921   NORMALIZED FREE ENERGY PREDICTED BY IDOCK:   -1.46 KCAL/MOL
REMARK 922        TOTAL FREE ENERGY PREDICTED BY IDOCK:   -1.78 KCAL/MOL
REMARK 923 INTER-LIGAND FREE ENERGY PREDICTED BY IDOCK:   -1.52 KCAL/MOL
REMARK 924 INTRA-LIGAND FREE ENERGY PREDICTED BY IDOCK:   -0.26 KCAL/MOL
REMARK 927      BINDING AFFINITY PREDICTED BY RF-SCORE:    0.00 PKD
ROOT
HETATM    1  N   UNL     1      -7.830   2.012  69.030  1.00  0.00    -0.046 N  
HETATM    2  C   UNL     1      -7.713   3.350  68.801  1.00  0.00    -0.051 C  
HETATM    3  H2  UNL     1      -7.119   1.373  68.673  1.00  0.00     0.000 HD 
HETATM    4  H1  UNL     1      -8.625   1.647  69.555  1.00  0.00     0.000 HD 
HETATM    5  O   UNL     1      -6.757   3.789  68.170  1.00  0.00    -0.044 OA 
ENDROOT
BRANCH   2   6
HETATM    6  C   UNL     1      -8.777   4.248  69.346  1.00  0.00    -0.124 A  
HETATM    7  C   UNL     1      -9.271   3.939  70.625  1.00  0.00    -0.197 A  
HETATM    8  C   UNL     1     -10.272   4.715  71.212  1.00  0.00    -0.205 A  
HETATM    9  C   UNL     1     -10.795   5.809  70.527  1.00  0.00    -0.348 A  
HETATM   10  C   UNL     1     -10.314   6.132  69.258  1.00  0.00    -0.276 A  
HETATM   11  C   UNL     1      -9.307   5.359  68.670  1.00  0.00    -0.118 A  
HETATM   12  O   UNL     1      -8.854   5.714  67.425  1.00  0.00    -0.109 OA 
HETATM   13  H   UNL     1      -9.212   6.466  66.967  1.00  0.00     0.000 HD 
ENDBRANCH   2   6
TORSDOF 1
ENDMDL
MODEL      219
REMARK 921   NORMALIZED FREE ENERGY PREDICTED BY IDOCK:   -1.45 KCAL/MOL
REMARK 922        TOTAL FREE ENERGY PREDICTED BY IDOCK:   -1.76 KCAL/MOL
REMARK 923 INTER-LIGAND FREE ENERGY PREDICTED BY IDOCK:   -1.55 KCAL/MOL
REMARK 924 INTRA-LIGAND FREE ENERGY PREDICTED BY IDOCK:   -0.21 KCAL/MOL
REMARK 927      BINDING AFFINITY PREDICTED BY RF-SCORE:    0.00 PKD
ROOT
HETATM    1  N   UNL     1      -9.579   8.861  71.620  1.00  0.00    -0.295 N  
HETATM    2  C   UNL     1      -9.864   8.766  70.290  1.00  0.00    -0.175 C  
HETATM    3  H2  UNL     1     -10.163   9.440  72.223  1.00  0.00     0.000 HD 
HETATM    4  H1  UNL     1      -8.785   8.355  72.013  1.00  0.00     0.000 HD 
HETATM    5  O   UNL     1     -10.819   9.374  69.817  1.00  0.00    -0.229 OA 
ENDROOT
BRANCH   2   6
HETATM    6  C   UNL     1      -8.982   7.903  69.447  1.00  0.00    -0.145 A  
HETATM    7  C   UNL     1      -7.625   8.263  69.379  1.00  0.00    -0.096 A  
HETATM    8  C   UNL     1      -6.726   7.521  68.609  1.00  0.00    -0.054 A  
HETATM    9  C   UNL     1      -7.173   6.412  67.895  1.00  0.00    -0.087 A  
HETATM   10  C   UNL     1      -8.516   6.039  67.954  1.00  0.00    -0.115 A  
HETATM   11  C   UNL     1      -9.417   6.778  68.729  1.00  0.00    -0.130 A  
HETATM   12  O   UNL     1     -10.728   6.374  68.769  1.00  0.00    -0.227 OA 
HETATM   13  H   UNL     1     -11.022   5.612  68.283  1.00  0.00     0.000 HD 
ENDBRANCH   2   6
TORSDOF 1
ENDMDL
MODEL      220
REMARK 921   NORMALIZED FREE ENERGY PREDICTED BY IDOCK:   -1.39 KCAL/MOL
REMARK 922        TOTAL FREE ENERGY PREDICTED BY IDOCK:   -1.70 KCAL/MOL
REMARK 923 INTER-LIGAND FREE ENERGY PREDICTED BY IDOCK:   -1.44 KCAL/MOL
REMARK 924 INTRA-LIGAND FREE ENERGY PREDICTED BY IDOCK:   -0.25 KCAL/MOL
REMARK 927      BINDING AFFINITY PREDICTED BY RF-SCORE:    0.00 PKD
ROOT
HETATM    1  N   UNL     1      -9.478   8.351  67.153  1.00  0.00    -0.154 N  
HETATM    2  C   UNL     1      -9.011   7.678  66.064  1.00  0.00    -0.139 C  
HETATM    3  H2  UNL     1      -9.885   7.835  67.933  1.00  0.00     0.000 HD 
HETATM    4  H1  UNL     1      -9.421   9.369  67.192  1.00  0.00     0.000 HD 
HETATM    5  O   UNL     1      -9.079   6.454  66.017  1.00  0.00    -0.154 OA 
ENDROOT
BRANCH   2   6
HETATM    6  C   UNL     1      -8.420   8.478  64.949  1.00  0.00    -0.166 A  
HETATM    7  C   UNL     1      -9.127   9.626  64.550  1.00  0.00    -0.287 A  
HETATM    8  C   UNL     1      -8.656  10.431  63.511  1.00  0.00    -0.188 A  
HETATM    9  C   UNL     1      -7.474  10.099  62.854  1.00  0.00    -0.143 A  
HETATM   10  C   UNL     1      -6.757   8.965  63.239  1.00  0.00    -0.090 A  
HETATM   11  C   UNL     1      -7.225   8.159  64.284  1.00  0.00    -0.089 A  
HETATM   12  O   UNL     1      -6.488   7.058  64.639  1.00  0.00    -0.036 OA 
HETATM   13  H   UNL     1      -5.679   6.842  64.189  1.00  0.00     0.000 HD 
ENDBRANCH   2   6
TORSDOF 1
ENDMDL
MODEL      221
REMARK 921   NORMALIZED FREE ENERGY PREDICTED BY IDOCK:   -1.38 KCAL/MOL
REMARK 922        TOTAL FREE ENERGY PREDICTED BY IDOCK:   -1.68 KCAL/MOL
REMARK 923 INTER-LIGAND FREE ENERGY PREDICTED BY IDOCK:   -1.44 KCAL/MOL
REMARK 924 INTRA-LIGAND FREE ENERGY PREDICTED BY IDOCK:   -0.24 KCAL/MOL
REMARK 927      BINDING AFFINITY PREDICTED BY RF-SCORE:    0.00 PKD
ROOT
HETATM    1  N   UNL     1      -8.575   6.924  71.981  1.00  0.00    -0.121 N  
HETATM    2  C   UNL     1      -9.569   6.167  71.436  1.00  0.00    -0.159 C  
HETATM    3  H2  UNL     1      -8.811   7.722  72.570  1.00  0.00     0.000 HD 
HETATM    4  H1  UNL     1      -7.597   6.695  71.802  1.00  0.00     0.000 HD 
HETATM    5  O   UNL     1     -10.745   6.441  71.651  1.00  0.00    -0.221 OA 
ENDROOT
BRANCH   2   6
HETATM    6  C   UNL     1      -9.173   5.005  70.582  1.00  0.00    -0.195 A  
HETATM    7  C   UNL     1      -9.577   5.044  69.237  1.00  0.00    -0.230 A  
HETATM    8  C   UNL     1      -9.262   4.000  68.365  1.00  0.00    -0.204 A  
HETATM    9  C   UNL     1      -8.540   2.902  68.827  1.00  0.00    -0.112 A  
HETATM   10  C   UNL     1      -8.129   2.849  70.159  1.00  0.00    -0.056 A  
HETATM   11  C   UNL     1      -8.440   3.897  71.033  1.00  0.00    -0.072 A  
HETATM   12  O   UNL     1      -8.010   3.811  72.333  1.00  0.00    -0.070 OA 
HETATM   13  H   UNL     1      -7.513   3.061  72.639  1.00  0.00     0.000 HD 
ENDBRANCH   2   6
TORSDOF 1
ENDMDL
MODEL      222
REMARK 921   NORMALIZED FREE ENERGY PREDICTED BY IDOCK:   -1.37 KCAL/MOL
REMARK 922        TOTAL FREE ENERGY PREDICTED BY IDOCK:   -1.67 KCAL/MOL
REMARK 923 INTER-LIGAND FREE ENERGY PREDICTED BY IDOCK:   -1.60 KCAL/MOL
REMARK 924 INTRA-LIGAND FREE ENERGY PREDICTED BY IDOCK:   -0.08 KCAL/MOL
REMARK 927      BINDING AFFINITY PREDICTED BY RF-SCORE:    0.00 PKD
ROOT
HETATM    1  N   UNL     1     -10.089   7.765  66.133  1.00  0.00    -0.420 N  
HETATM    2  C   UNL     1      -9.034   6.975  65.784  1.00  0.00    -0.005 C  
HETATM    3  H2  UNL     1     -10.244   8.647  65.646  1.00  0.00     0.000 HD 
HETATM    4  H1  UNL     1     -10.723   7.477  66.879  1.00  0.00     0.000 HD 
HETATM    5  O   UNL     1      -8.272   7.321  64.888  1.00  0.00    -0.130 OA 
ENDROOT
BRANCH   2   6
HETATM    6  C   UNL     1      -8.849   5.690  66.525  1.00  0.00    -0.123 A  
HETATM    7  C   UNL     1      -7.595   5.066  66.404  1.00  0.00    -0.088 A  
HETATM    8  C   UNL     1      -7.332   3.858  67.053  1.00  0.00    -0.072 A  
HETATM    9  C   UNL     1      -8.319   3.256  67.829  1.00  0.00    -0.095 A  
HETATM   10  C   UNL     1      -9.569   3.863  67.963  1.00  0.00    -0.189 A  
HETATM   11  C   UNL     1      -9.832   5.077  67.318  1.00  0.00    -0.179 A  
HETATM   12  O   UNL     1     -11.069   5.647  67.481  1.00  0.00    -0.295 OA 
HETATM   13  H   UNL     1     -11.735   5.232  68.017  1.00  0.00     0.000 HD 
ENDBRANCH   2   6
TORSDOF 1
ENDMDL
MODEL      223
REMARK 921   NORMALIZED FREE ENERGY PREDICTED BY IDOCK:   -1.28 KCAL/MOL
REMARK 922        TOTAL FREE ENERGY PREDICTED BY IDOCK:   -1.58 KCAL/MOL
REMARK 923 INTER-LIGAND FREE ENERGY PREDICTED BY IDOCK:   -1.43 KCAL/MOL
REMARK 924 INTRA-LIGAND FREE ENERGY PREDICTED BY IDOCK:   -0.14 KCAL/MOL
REMARK 927      BINDING AFFINITY PREDICTED BY RF-SCORE:    0.00 PKD
ROOT
HETATM    1  N   UNL     1     -10.271   6.424  68.451  1.00  0.00    -0.160 N  
HETATM    2  C   UNL     1     -10.333   6.674  67.113  1.00  0.00    -0.252 C  
HETATM    3  H2  UNL     1     -11.046   5.952  68.915  1.00  0.00     0.000 HD 
HETATM    4  H1  UNL     1      -9.452   6.707  68.989  1.00  0.00     0.000 HD 
HETATM    5  O   UNL     1     -11.318   6.334  66.465  1.00  0.00    -0.053 OA 
ENDROOT
BRANCH   2   6
HETATM    6  C   UNL     1      -9.171   7.365  66.476  1.00  0.00    -0.206 A  
HETATM    7  C   UNL     1      -9.318   8.738  66.215  1.00  0.00    -0.283 A  
HETATM    8  C   UNL     1      -8.289   9.467  65.614  1.00  0.00    -0.129 A  
HETATM    9  C   UNL     1      -7.100   8.832  65.265  1.00  0.00    -0.083 A  
HETATM   10  C   UNL     1      -6.935   7.470  65.521  1.00  0.00    -0.060 A  
HETATM   11  C   UNL     1      -7.964   6.739  66.127  1.00  0.00    -0.110 A  
HETATM   12  O   UNL     1      -7.760   5.404  66.370  1.00  0.00    -0.097 OA 
HETATM   13  H   UNL     1      -6.943   4.980  66.133  1.00  0.00     0.000 HD 
ENDBRANCH   2   6
TORSDOF 1
ENDMDL
MODEL      224
REMARK 921   NORMALIZED FREE ENERGY PREDICTED BY IDOCK:   -1.07 KCAL/MOL
REMARK 922        TOTAL FREE ENERGY PREDICTED BY IDOCK:   -1.36 KCAL/MOL
REMARK 923 INTER-LIGAND FREE ENERGY PREDICTED BY IDOCK:   -1.26 KCAL/MOL
REMARK 924 INTRA-LIGAND FREE ENERGY PREDICTED BY IDOCK:   -0.10 KCAL/MOL
REMARK 927      BINDING AFFINITY PREDICTED BY RF-SCORE:    0.00 PKD
ROOT
HETATM    1  N   UNL     1      -7.507   1.846  68.220  1.00  0.00    -0.050 N  
HETATM    2  C   UNL     1      -7.362   2.925  67.400  1.00  0.00    -0.057 C  
HETATM    3  H2  UNL     1      -6.802   1.109  68.217  1.00  0.00     0.000 HD 
HETATM    4  H1  UNL     1      -8.317   1.773  68.837  1.00  0.00     0.000 HD 
HETATM    5  O   UNL     1      -6.389   3.013  66.659  1.00  0.00    -0.027 OA 
ENDROOT
BRANCH   2   6
HETATM    6  C   UNL     1      -8.419   3.981  67.443  1.00  0.00    -0.102 A  
HETATM    7  C   UNL     1      -8.490   4.849  66.339  1.00  0.00    -0.111 A  
HETATM    8  C   UNL     1      -9.440   5.872  66.293  1.00  0.00    -0.161 A  
HETATM    9  C   UNL     1     -10.329   6.043  67.351  1.00  0.00    -0.268 A  
HETATM   10  C   UNL     1     -10.275   5.189  68.453  1.00  0.00    -0.175 A  
HETATM   11  C   UNL     1      -9.328   4.159  68.498  1.00  0.00    -0.156 A  
HETATM   12  O   UNL     1      -9.312   3.335  69.595  1.00  0.00    -0.149 OA 
HETATM   13  H   UNL     1      -9.927   3.456  70.310  1.00  0.00     0.000 HD 
ENDBRANCH   2   6
TORSDOF 1
ENDMDL
MODEL      225
REMARK 921   NORMALIZED FREE ENERGY PREDICTED BY IDOCK:   -1.07 KCAL/MOL
REMARK 922        TOTAL FREE ENERGY PREDICTED BY IDOCK:   -1.36 KCAL/MOL
REMARK 923 INTER-LIGAND FREE ENERGY PREDICTED BY IDOCK:   -1.10 KCAL/MOL
REMARK 924 INTRA-LIGAND FREE ENERGY PREDICTED BY IDOCK:   -0.25 KCAL/MOL
REMARK 927      BINDING AFFINITY PREDICTED BY RF-SCORE:    0.00 PKD
ROOT
HETATM    1  N   UNL     1      -7.941   7.173  68.116  1.00  0.00    -0.118 N  
HETATM    2  C   UNL     1      -8.155   6.799  66.823  1.00  0.00    -0.109 C  
HETATM    3  H2  UNL     1      -7.814   8.159  68.344  1.00  0.00     0.000 HD 
HETATM    4  H1  UNL     1      -7.909   6.471  68.856  1.00  0.00     0.000 HD 
HETATM    5  O   UNL     1      -8.193   7.642  65.933  1.00  0.00    -0.117 OA 
ENDROOT
BRANCH   2   6
HETATM    6  C   UNL     1      -8.340   5.343  66.538  1.00  0.00    -0.109 A  
HETATM    7  C   UNL     1      -9.398   4.996  65.681  1.00  0.00    -0.163 A  
HETATM    8  C   UNL     1      -9.654   3.661  65.364  1.00  0.00    -0.156 A  
HETATM    9  C   UNL     1      -8.856   2.653  65.902  1.00  0.00    -0.135 A  
HETATM   10  C   UNL     1      -7.799   2.980  66.753  1.00  0.00    -0.076 A  
HETATM   11  C   UNL     1      -7.539   4.319  67.067  1.00  0.00    -0.081 A  
HETATM   12  O   UNL     1      -6.485   4.600  67.900  1.00  0.00    -0.039 OA 
HETATM   13  H   UNL     1      -5.943   3.906  68.258  1.00  0.00     0.000 HD 
ENDBRANCH   2   6
TORSDOF 1
ENDMDL
MODEL      226
REMARK 921   NORMALIZED FREE ENERGY PREDICTED BY IDOCK:   -1.06 KCAL/MOL
REMARK 922        TOTAL FREE ENERGY PREDICTED BY IDOCK:   -1.35 KCAL/MOL
REMARK 923 INTER-LIGAND FREE ENERGY PREDICTED BY IDOCK:   -1.10 KCAL/MOL
REMARK 924 INTRA-LIGAND FREE ENERGY PREDICTED BY IDOCK:   -0.25 KCAL/MOL
REMARK 927      BINDING AFFINITY PREDICTED BY RF-SCORE:    0.00 PKD
ROOT
HETATM    1  N   UNL     1     -10.409   8.254  70.534  1.00  0.00    -0.199 N  
HETATM    2  C   UNL     1      -9.758   8.233  69.337  1.00  0.00    -0.177 C  
HETATM    3  H2  UNL     1     -11.326   8.695  70.605  1.00  0.00     0.000 HD 
HETATM    4  H1  UNL     1      -9.983   7.830  71.359  1.00  0.00     0.000 HD 
HETATM    5  O   UNL     1     -10.270   8.742  68.345  1.00  0.00    -0.186 OA 
ENDROOT
BRANCH   2   6
HETATM    6  C   UNL     1      -8.419   7.572  69.282  1.00  0.00    -0.136 A  
HETATM    7  C   UNL     1      -8.280   6.498  68.386  1.00  0.00    -0.114 A  
HETATM    8  C   UNL     1      -7.068   5.814  68.271  1.00  0.00    -0.074 A  
HETATM    9  C   UNL     1      -5.979   6.192  69.053  1.00  0.00    -0.024 A  
HETATM   10  C   UNL     1      -6.098   7.258  69.945  1.00  0.00    -0.027 A  
HETATM   11  C   UNL     1      -7.311   7.949  70.058  1.00  0.00    -0.070 A  
HETATM   12  O   UNL     1      -7.385   8.997  70.940  1.00  0.00    -0.089 OA 
HETATM   13  H   UNL     1      -6.635   9.252  71.465  1.00  0.00     0.000 HD 
ENDBRANCH   2   6
TORSDOF 1
ENDMDL
MODEL      227
REMARK 921   NORMALIZED FREE ENERGY PREDICTED BY IDOCK:   -1.04 KCAL/MOL
REMARK 922        TOTAL FREE ENERGY PREDICTED BY IDOCK:   -1.33 KCAL/MOL
REMARK 923 INTER-LIGAND FREE ENERGY PREDICTED BY IDOCK:   -1.10 KCAL/MOL
REMARK 924 INTRA-LIGAND FREE ENERGY PREDICTED BY IDOCK:   -0.23 KCAL/MOL
REMARK 927      BINDING AFFINITY PREDICTED BY RF-SCORE:    0.00 PKD
ROOT
HETATM    1  N   UNL     1     -10.477   6.892  69.611  1.00  0.00    -0.209 N  
HETATM    2  C   UNL     1      -9.819   6.857  68.418  1.00  0.00    -0.143 C  
HETATM    3  H2  UNL     1     -11.398   7.326  69.670  1.00  0.00     0.000 HD 
HETATM    4  H1  UNL     1     -10.051   6.486  70.445  1.00  0.00     0.000 HD 
HETATM    5  O   UNL     1     -10.330   7.344  67.415  1.00  0.00    -0.215 OA 
ENDROOT
BRANCH   2   6
HETATM    6  C   UNL     1      -8.473   6.207  68.381  1.00  0.00    -0.114 A  
HETATM    7  C   UNL     1      -7.498   6.725  69.250  1.00  0.00    -0.095 A  
HETATM    8  C   UNL     1      -6.209   6.189  69.279  1.00  0.00    -0.033 A  
HETATM    9  C   UNL     1      -5.877   5.129  68.439  1.00  0.00    -0.017 A  
HETATM   10  C   UNL     1      -6.835   4.600  67.572  1.00  0.00    -0.059 A  
HETATM   11  C   UNL     1      -8.129   5.133  67.545  1.00  0.00    -0.099 A  
HETATM   12  O   UNL     1      -9.044   4.580  66.686  1.00  0.00    -0.115 OA 
HETATM   13  H   UNL     1      -8.811   3.853  66.120  1.00  0.00     0.000 HD 
ENDBRANCH   2   6
TORSDOF 1
ENDMDL
MODEL      228
REMARK 921   NORMALIZED FREE ENERGY PREDICTED BY IDOCK:   -1.03 KCAL/MOL
REMARK 922        TOTAL FREE ENERGY PREDICTED BY IDOCK:   -1.32 KCAL/MOL
REMARK 923 INTER-LIGAND FREE ENERGY PREDICTED BY IDOCK:   -1.06 KCAL/MOL
REMARK 924 INTRA-LIGAND FREE ENERGY PREDICTED BY IDOCK:   -0.26 KCAL/MOL
REMARK 927      BINDING AFFINITY PREDICTED BY RF-SCORE:    0.00 PKD
ROOT
HETATM    1  N   UNL     1      -9.223   7.417  71.006  1.00  0.00    -0.153 N  
HETATM    2  C   UNL     1      -8.057   8.043  71.332  1.00  0.00    -0.107 C  
HETATM    3  H2  UNL     1      -9.884   7.873  70.378  1.00  0.00     0.000 HD 
HETATM    4  H1  UNL     1      -9.436   6.496  71.389  1.00  0.00     0.000 HD 
HETATM    5  O   UNL     1      -7.799   9.151  70.872  1.00  0.00    -0.129 OA 
ENDROOT
BRANCH   2   6
HETATM    6  C   UNL     1      -7.117   7.334  72.254  1.00  0.00    -0.067 A  
HETATM    7  C   UNL     1      -7.067   5.934  72.150  1.00  0.00    -0.087 A  
HETATM    8  C   UNL     1      -6.225   5.185  72.976  1.00  0.00    -0.042 A  
HETATM    9  C   UNL     1      -5.426   5.827  73.918  1.00  0.00    -0.032 A  
HETATM   10  C   UNL     1      -5.461   7.217  74.033  1.00  0.00    -0.050 A  
HETATM   11  C   UNL     1      -6.300   7.969  73.202  1.00  0.00    -0.077 A  
HETATM   12  O   UNL     1      -6.300   9.334  73.339  1.00  0.00    -0.317 OA 
HETATM   13  H   UNL     1      -5.746   9.764  73.981  1.00  0.00     0.000 HD 
ENDBRANCH   2   6
TORSDOF 1
ENDMDL
