MODEL        1
REMARK 921   NORMALIZED FREE ENERGY PREDICTED BY IDOCK:   -6.48 KCAL/MOL
REMARK 922        TOTAL FREE ENERGY PREDICTED BY IDOCK:  -14.88 KCAL/MOL
REMARK 923 INTER-LIGAND FREE ENERGY PREDICTED BY IDOCK:  -12.54 KCAL/MOL
REMARK 924 INTRA-LIGAND FREE ENERGY PREDICTED BY IDOCK:   -2.35 KCAL/MOL
REMARK 927      BINDING AFFINITY PREDICTED BY RF-SCORE:    0.00 PKD
ROOT
HETATM    1  O   UNL     1      -8.819  11.719  62.723  1.00  0.00    -0.647 OA 
HETATM    2  C   UNL     1      -9.714  10.789  63.335  1.00  0.00    -0.351 C  
HETATM    3  H   UNL     1      -8.332  11.295  62.025  1.00  0.00     0.000 HD 
ENDROOT
BRANCH   2   4
HETATM    4  C   UNL     1     -10.485  11.460  64.441  1.00  0.00    -0.388 A  
HETATM    5  C   UNL     1     -11.471  12.424  64.201  1.00  0.00    -0.381 A  
HETATM    6  O   UNL     1     -11.753  12.867  62.939  1.00  0.00    -0.776 OA 
HETATM    7  C   UNL     1     -12.193  12.999  65.241  1.00  0.00    -0.513 A  
HETATM    8  C   UNL     1     -11.921  12.633  66.557  1.00  0.00    -0.401 A  
HETATM    9  H   UNL     1     -12.422  13.522  62.775  1.00  0.00     0.000 HD 
HETATM   10  C   UNL     1     -10.938  11.673  66.843  1.00  0.00    -0.342 A  
HETATM   11  C   UNL     1     -10.245  11.078  65.774  1.00  0.00    -0.316 A  
BRANCH  10  12
HETATM   12  C   UNL     1     -10.594  11.293  68.271  1.00  0.00    -0.197 C  
HETATM   13  O   UNL     1      -9.338  11.879  68.650  1.00  0.00    -0.324 OA 
HETATM   14  H   UNL     1      -9.123  11.641  69.544  1.00  0.00     0.000 HD 
BRANCH  12  15
HETATM   15  C   UNL     1     -11.678  11.745  69.272  1.00  0.00    -0.335 C  
BRANCH  15  16
HETATM   16  N   UNL     1     -11.978  10.684  70.248  1.00  0.00    -0.309 NA 
HETATM   17  H   UNL     1     -11.138  10.179  70.533  1.00  0.00     0.000 HD 
BRANCH  16  18
HETATM   18  C   UNL     1     -12.693  11.242  71.391  1.00  0.00    -0.396 C  
BRANCH  18  19
HETATM   19  C   UNL     1     -12.757  12.760  71.277  1.00  0.00    -0.364 C  
BRANCH  19  20
HETATM   20  C   UNL     1     -13.670  13.332  72.359  1.00  0.00    -0.678 C  
BRANCH  20  21
HETATM   21  C   UNL     1     -13.992  14.792  72.074  1.00  0.00    -0.582 C  
BRANCH  21  22
HETATM   22  C   UNL     1     -13.238  15.723  73.016  1.00  0.00    -0.671 C  
BRANCH  22  23
HETATM   23  C   UNL     1     -11.938  16.183  72.376  1.00  0.00    -0.554 C  
BRANCH  23  24
HETATM   24  O   UNL     1     -12.095  16.144  70.963  1.00  0.00    -0.376 OA 
BRANCH  24  25
HETATM   25  C   UNL     1     -10.882  15.772  70.313  1.00  0.00    -0.351 C  
BRANCH  25  26
HETATM   26  C   UNL     1     -11.189  15.424  68.862  1.00  0.00    -0.296 C  
BRANCH  26  27
HETATM   27  C   UNL     1      -9.905  15.339  68.035  1.00  0.00    -0.216 C  
BRANCH  27  28
HETATM   28  C   UNL     1     -10.006  16.140  66.739  1.00  0.00    -0.264 C  
BRANCH  28  29
HETATM   29  C   UNL     1      -9.790  17.607  67.022  1.00  0.00    -0.307 A  
HETATM   30  C   UNL     1     -10.493  18.579  66.303  1.00  0.00    -0.441 A  
HETATM   31  C   UNL     1     -10.233  19.934  66.510  1.00  0.00    -0.611 A  
HETATM   32  C   UNL     1      -9.267  20.327  67.434  1.00  0.00    -0.507 A  
HETATM   33  C   UNL     1      -8.564  19.365  68.159  1.00  0.00    -0.374 A  
HETATM   34  C   UNL     1      -8.823  18.010  67.955  1.00  0.00    -0.269 A  
ENDBRANCH  28  29
ENDBRANCH  27  28
ENDBRANCH  26  27
ENDBRANCH  25  26
ENDBRANCH  24  25
ENDBRANCH  23  24
ENDBRANCH  22  23
ENDBRANCH  21  22
ENDBRANCH  20  21
ENDBRANCH  19  20
ENDBRANCH  18  19
ENDBRANCH  16  18
ENDBRANCH  15  16
ENDBRANCH  12  15
ENDBRANCH  10  12
ENDBRANCH   2   4
TORSDOF 16
ENDMDL
MODEL        2
REMARK 921   NORMALIZED FREE ENERGY PREDICTED BY IDOCK:   -6.35 KCAL/MOL
REMARK 922        TOTAL FREE ENERGY PREDICTED BY IDOCK:  -14.63 KCAL/MOL
REMARK 923 INTER-LIGAND FREE ENERGY PREDICTED BY IDOCK:  -12.44 KCAL/MOL
REMARK 924 INTRA-LIGAND FREE ENERGY PREDICTED BY IDOCK:   -2.19 KCAL/MOL
REMARK 927      BINDING AFFINITY PREDICTED BY RF-SCORE:    0.00 PKD
ROOT
HETATM    1  O   UNL     1     -10.925   7.342  73.604  1.00  0.00    -0.540 OA 
HETATM    2  C   UNL     1     -11.749   7.235  72.442  1.00  0.00    -0.239 C  
HETATM    3  H   UNL     1     -10.748   6.479  73.961  1.00  0.00     0.000 HD 
ENDROOT
BRANCH   2   4
HETATM    4  C   UNL     1     -12.030   8.602  71.877  1.00  0.00    -0.424 A  
HETATM    5  C   UNL     1     -13.105   9.392  72.302  1.00  0.00    -0.428 A  
HETATM    6  O   UNL     1     -14.012   8.940  73.220  1.00  0.00    -1.203 OA 
HETATM    7  C   UNL     1     -13.318  10.666  71.788  1.00  0.00    -0.437 A  
HETATM    8  C   UNL     1     -12.463  11.169  70.810  1.00  0.00    -0.479 A  
HETATM    9  H   UNL     1     -14.742   9.476  73.508  1.00  0.00     0.000 HD 
HETATM   10  C   UNL     1     -11.375  10.409  70.352  1.00  0.00    -0.417 A  
HETATM   11  C   UNL     1     -11.158   9.138  70.912  1.00  0.00    -0.356 A  
BRANCH  10  12
HETATM   12  C   UNL     1     -10.459  10.919  69.255  1.00  0.00    -0.202 C  
HETATM   13  O   UNL     1      -9.119  10.448  69.472  1.00  0.00    -0.310 OA 
HETATM   14  H   UNL     1      -8.545  10.767  68.786  1.00  0.00     0.000 HD 
BRANCH  12  15
HETATM   15  C   UNL     1     -10.924  10.474  67.852  1.00  0.00    -0.295 C  
BRANCH  15  16
HETATM   16  N   UNL     1      -9.862  10.671  66.852  1.00  0.00    -0.182 NA 
HETATM   17  H   UNL     1      -9.454   9.787  66.549  1.00  0.00     0.000 HD 
BRANCH  16  18
HETATM   18  C   UNL     1     -10.371  11.451  65.728  1.00  0.00    -0.255 C  
BRANCH  18  19
HETATM   19  C   UNL     1     -11.713  12.075  66.090  1.00  0.00    -0.313 C  
BRANCH  19  20
HETATM   20  C   UNL     1     -12.468  12.473  64.824  1.00  0.00    -0.532 C  
BRANCH  20  21
HETATM   21  C   UNL     1     -11.673  13.495  64.024  1.00  0.00    -0.440 C  
BRANCH  21  22
HETATM   22  C   UNL     1     -11.847  14.900  64.587  1.00  0.00    -0.412 C  
BRANCH  22  23
HETATM   23  C   UNL     1     -10.509  15.449  65.059  1.00  0.00    -0.381 C  
BRANCH  23  24
HETATM   24  O   UNL     1     -10.754  16.575  65.893  1.00  0.00    -0.285 OA 
BRANCH  24  25
HETATM   25  C   UNL     1     -10.172  16.404  67.183  1.00  0.00    -0.282 C  
BRANCH  25  26
HETATM   26  C   UNL     1     -11.285  16.368  68.222  1.00  0.00    -0.300 C  
BRANCH  26  27
HETATM   27  C   UNL     1     -11.803  14.943  68.421  1.00  0.00    -0.309 C  
BRANCH  27  28
HETATM   28  C   UNL     1     -11.302  14.330  69.728  1.00  0.00    -0.279 C  
BRANCH  28  29
HETATM   29  C   UNL     1     -12.070  14.907  70.894  1.00  0.00    -0.377 A  
HETATM   30  C   UNL     1     -11.391  15.413  72.008  1.00  0.00    -0.466 A  
HETATM   31  C   UNL     1     -12.102  15.871  73.117  1.00  0.00    -0.611 A  
HETATM   32  C   UNL     1     -13.494  15.824  73.123  1.00  0.00    -0.652 A  
HETATM   33  C   UNL     1     -14.180  15.324  72.016  1.00  0.00    -0.679 A  
HETATM   34  C   UNL     1     -13.471  14.866  70.905  1.00  0.00    -0.356 A  
ENDBRANCH  28  29
ENDBRANCH  27  28
ENDBRANCH  26  27
ENDBRANCH  25  26
ENDBRANCH  24  25
ENDBRANCH  23  24
ENDBRANCH  22  23
ENDBRANCH  21  22
ENDBRANCH  20  21
ENDBRANCH  19  20
ENDBRANCH  18  19
ENDBRANCH  16  18
ENDBRANCH  15  16
ENDBRANCH  12  15
ENDBRANCH  10  12
ENDBRANCH   2   4
TORSDOF 16
ENDMDL
MODEL        3
REMARK 921   NORMALIZED FREE ENERGY PREDICTED BY IDOCK:   -6.33 KCAL/MOL
REMARK 922        TOTAL FREE ENERGY PREDICTED BY IDOCK:  -14.60 KCAL/MOL
REMARK 923 INTER-LIGAND FREE ENERGY PREDICTED BY IDOCK:  -12.29 KCAL/MOL
REMARK 924 INTRA-LIGAND FREE ENERGY PREDICTED BY IDOCK:   -2.31 KCAL/MOL
REMARK 927      BINDING AFFINITY PREDICTED BY RF-SCORE:    0.00 PKD
ROOT
HETATM    1  O   UNL     1     -12.178  15.032  63.993  1.00  0.00    -0.870 OA 
HETATM    2  C   UNL     1     -12.769  14.202  64.993  1.00  0.00    -0.312 C  
HETATM    3  H   UNL     1     -12.705  15.811  63.860  1.00  0.00     0.000 HD 
ENDROOT
BRANCH   2   4
HETATM    4  C   UNL     1     -11.934  12.966  65.205  1.00  0.00    -0.452 A  
HETATM    5  C   UNL     1     -11.310  12.284  64.154  1.00  0.00    -0.376 A  
HETATM    6  O   UNL     1     -11.475  12.663  62.850  1.00  0.00    -0.709 OA 
HETATM    7  C   UNL     1     -10.514  11.168  64.384  1.00  0.00    -0.418 A  
HETATM    8  C   UNL     1     -10.345  10.694  65.683  1.00  0.00    -0.285 A  
HETATM    9  H   UNL     1     -11.052  12.200  62.137  1.00  0.00     0.000 HD 
HETATM   10  C   UNL     1     -10.957  11.346  66.766  1.00  0.00    -0.347 A  
HETATM   11  C   UNL     1     -11.728  12.494  66.514  1.00  0.00    -0.454 A  
BRANCH  10  12
HETATM   12  C   UNL     1     -10.823  10.821  68.183  1.00  0.00    -0.236 C  
HETATM   13  O   UNL     1      -9.627  11.334  68.790  1.00  0.00    -0.224 OA 
HETATM   14  H   UNL     1      -9.544  11.006  69.678  1.00  0.00     0.000 HD 
BRANCH  12  15
HETATM   15  C   UNL     1     -12.034  11.202  69.063  1.00  0.00    -0.320 C  
BRANCH  15  16
HETATM   16  N   UNL     1     -12.372  10.120  70.002  1.00  0.00    -0.515 NA 
HETATM   17  H   UNL     1     -11.856   9.263  69.799  1.00  0.00     0.000 HD 
BRANCH  16  18
HETATM   18  C   UNL     1     -12.169  10.567  71.376  1.00  0.00    -0.327 C  
BRANCH  18  19
HETATM   19  C   UNL     1     -13.367  11.385  71.841  1.00  0.00    -0.409 C  
BRANCH  19  20
HETATM   20  C   UNL     1     -12.924  12.793  72.232  1.00  0.00    -0.289 C  
BRANCH  20  21
HETATM   21  C   UNL     1     -14.125  13.720  72.353  1.00  0.00    -0.593 C  
BRANCH  21  22
HETATM   22  C   UNL     1     -13.706  15.184  72.303  1.00  0.00    -0.596 C  
BRANCH  22  23
HETATM   23  C   UNL     1     -12.207  15.297  72.074  1.00  0.00    -0.367 C  
BRANCH  23  24
HETATM   24  O   UNL     1     -11.986  16.141  70.951  1.00  0.00    -0.375 OA 
BRANCH  24  25
HETATM   25  C   UNL     1     -12.028  15.406  69.730  1.00  0.00    -0.358 C  
BRANCH  25  26
HETATM   26  C   UNL     1     -10.718  14.645  69.571  1.00  0.00    -0.202 C  
BRANCH  26  27
HETATM   27  C   UNL     1      -9.727  15.432  68.711  1.00  0.00    -0.210 C  
BRANCH  27  28
HETATM   28  C   UNL     1     -10.397  16.042  67.481  1.00  0.00    -0.287 C  
BRANCH  28  29
HETATM   29  C   UNL     1     -10.118  17.525  67.426  1.00  0.00    -0.325 A  
HETATM   30  C   UNL     1      -9.848  18.239  68.598  1.00  0.00    -0.400 A  
HETATM   31  C   UNL     1      -9.670  19.622  68.555  1.00  0.00    -0.493 A  
HETATM   32  C   UNL     1      -9.764  20.301  67.341  1.00  0.00    -0.584 A  
HETATM   33  C   UNL     1     -10.029  19.597  66.167  1.00  0.00    -0.554 A  
HETATM   34  C   UNL     1     -10.206  18.214  66.208  1.00  0.00    -0.401 A  
ENDBRANCH  28  29
ENDBRANCH  27  28
ENDBRANCH  26  27
ENDBRANCH  25  26
ENDBRANCH  24  25
ENDBRANCH  23  24
ENDBRANCH  22  23
ENDBRANCH  21  22
ENDBRANCH  20  21
ENDBRANCH  19  20
ENDBRANCH  18  19
ENDBRANCH  16  18
ENDBRANCH  15  16
ENDBRANCH  12  15
ENDBRANCH  10  12
ENDBRANCH   2   4
TORSDOF 16
ENDMDL
MODEL        4
REMARK 921   NORMALIZED FREE ENERGY PREDICTED BY IDOCK:   -6.28 KCAL/MOL
REMARK 922        TOTAL FREE ENERGY PREDICTED BY IDOCK:  -14.50 KCAL/MOL
REMARK 923 INTER-LIGAND FREE ENERGY PREDICTED BY IDOCK:  -12.67 KCAL/MOL
REMARK 924 INTRA-LIGAND FREE ENERGY PREDICTED BY IDOCK:   -1.83 KCAL/MOL
REMARK 927      BINDING AFFINITY PREDICTED BY RF-SCORE:    0.00 PKD
ROOT
HETATM    1  O   UNL     1     -11.433  16.351  63.764  1.00  0.00    -1.590 OA 
HETATM    2  C   UNL     1     -11.271  15.754  65.051  1.00  0.00    -0.308 C  
HETATM    3  H   UNL     1     -11.541  17.291  63.849  1.00  0.00     0.000 HD 
ENDROOT
BRANCH   2   4
HETATM    4  C   UNL     1     -11.099  14.264  64.917  1.00  0.00    -0.396 A  
HETATM    5  C   UNL     1     -11.766  13.509  63.944  1.00  0.00    -0.368 A  
HETATM    6  O   UNL     1     -12.672  14.073  63.090  1.00  0.00    -0.928 OA 
HETATM    7  C   UNL     1     -11.558  12.140  63.820  1.00  0.00    -0.557 A  
HETATM    8  C   UNL     1     -10.688  11.490  64.692  1.00  0.00    -0.379 A  
HETATM    9  H   UNL     1     -13.125  13.561  62.431  1.00  0.00     0.000 HD 
HETATM   10  C   UNL     1     -10.003  12.208  65.685  1.00  0.00    -0.271 A  
HETATM   11  C   UNL     1     -10.200  13.597  65.769  1.00  0.00    -0.317 A  
BRANCH  10  12
HETATM   12  C   UNL     1      -9.085  11.513  66.674  1.00  0.00    -0.190 C  
HETATM   13  O   UNL     1      -7.763  11.398  66.125  1.00  0.00    -0.352 OA 
HETATM   14  H   UNL     1      -7.188  10.963  66.744  1.00  0.00     0.000 HD 
BRANCH  12  15
HETATM   15  C   UNL     1      -9.004  12.264  68.020  1.00  0.00    -0.190 C  
BRANCH  15  16
HETATM   16  N   UNL     1      -8.671  11.346  69.122  1.00  0.00    -0.374 NA 
HETATM   17  H   UNL     1      -8.682  11.816  70.027  1.00  0.00     0.000 HD 
BRANCH  16  18
HETATM   18  C   UNL     1      -9.560  10.189  69.097  1.00  0.00    -0.212 C  
BRANCH  18  19
HETATM   19  C   UNL     1      -9.424   9.397  70.392  1.00  0.00    -0.319 C  
BRANCH  19  20
HETATM   20  C   UNL     1      -9.263   7.910  70.086  1.00  0.00    -0.153 C  
BRANCH  20  21
HETATM   21  C   UNL     1     -10.553   7.336  69.518  1.00  0.00    -0.244 C  
BRANCH  21  22
HETATM   22  C   UNL     1     -11.399   6.685  70.605  1.00  0.00    -0.401 C  
BRANCH  22  23
HETATM   23  C   UNL     1     -12.673   7.483  70.832  1.00  0.00    -0.067 C  
BRANCH  23  24
HETATM   24  O   UNL     1     -12.752   7.824  72.210  1.00  0.00    -0.229 OA 
BRANCH  24  25
HETATM   25  C   UNL     1     -13.050   9.206  72.389  1.00  0.00    -0.423 C  
BRANCH  25  26
HETATM   26  C   UNL     1     -13.131   9.871  71.021  1.00  0.00    -0.406 C  
BRANCH  26  27
HETATM   27  C   UNL     1     -12.598  11.304  71.075  1.00  0.00    -0.495 C  
BRANCH  27  28
HETATM   28  C   UNL     1     -13.402  12.177  72.037  1.00  0.00    -0.470 C  
BRANCH  28  29
HETATM   29  C   UNL     1     -12.918  13.605  71.961  1.00  0.00    -0.427 A  
HETATM   30  C   UNL     1     -12.256  14.069  70.820  1.00  0.00    -0.438 A  
HETATM   31  C   UNL     1     -11.739  15.365  70.783  1.00  0.00    -0.385 A  
HETATM   32  C   UNL     1     -11.879  16.204  71.886  1.00  0.00    -0.605 A  
HETATM   33  C   UNL     1     -12.541  15.752  73.027  1.00  0.00    -0.592 A  
HETATM   34  C   UNL     1     -13.059  14.457  73.066  1.00  0.00    -0.581 A  
ENDBRANCH  28  29
ENDBRANCH  27  28
ENDBRANCH  26  27
ENDBRANCH  25  26
ENDBRANCH  24  25
ENDBRANCH  23  24
ENDBRANCH  22  23
ENDBRANCH  21  22
ENDBRANCH  20  21
ENDBRANCH  19  20
ENDBRANCH  18  19
ENDBRANCH  16  18
ENDBRANCH  15  16
ENDBRANCH  12  15
ENDBRANCH  10  12
ENDBRANCH   2   4
TORSDOF 16
ENDMDL
MODEL        5
REMARK 921   NORMALIZED FREE ENERGY PREDICTED BY IDOCK:   -6.23 KCAL/MOL
REMARK 922        TOTAL FREE ENERGY PREDICTED BY IDOCK:  -14.40 KCAL/MOL
REMARK 923 INTER-LIGAND FREE ENERGY PREDICTED BY IDOCK:  -11.34 KCAL/MOL
REMARK 924 INTRA-LIGAND FREE ENERGY PREDICTED BY IDOCK:   -3.05 KCAL/MOL
REMARK 927      BINDING AFFINITY PREDICTED BY RF-SCORE:    0.00 PKD
ROOT
HETATM    1  O   UNL     1     -11.837  16.709  63.937  1.00  0.00    -1.334 OA 
HETATM    2  C   UNL     1     -10.840  16.176  64.809  1.00  0.00    -0.262 C  
HETATM    3  H   UNL     1     -11.571  17.563  63.617  1.00  0.00     0.000 HD 
ENDROOT
BRANCH   2   4
HETATM    4  C   UNL     1     -11.263  14.822  65.317  1.00  0.00    -0.366 A  
HETATM    5  C   UNL     1     -11.929  13.887  64.517  1.00  0.00    -0.437 A  
HETATM    6  O   UNL     1     -12.299  14.171  63.231  1.00  0.00    -1.140 OA 
HETATM    7  C   UNL     1     -12.274  12.630  65.002  1.00  0.00    -0.535 A  
HETATM    8  C   UNL     1     -11.976  12.292  66.320  1.00  0.00    -0.307 A  
HETATM    9  H   UNL     1     -12.751  13.537  62.688  1.00  0.00     0.000 HD 
HETATM   10  C   UNL     1     -11.312  13.202  67.158  1.00  0.00    -0.354 A  
HETATM   11  C   UNL     1     -10.941  14.453  66.636  1.00  0.00    -0.318 A  
BRANCH  10  12
HETATM   12  C   UNL     1     -11.018  12.872  68.610  1.00  0.00    -0.261 C  
HETATM   13  O   UNL     1      -9.755  13.434  68.999  1.00  0.00    -0.409 OA 
HETATM   14  H   UNL     1      -9.571  13.228  69.908  1.00  0.00     0.000 HD 
BRANCH  12  15
HETATM   15  C   UNL     1     -12.114  13.397  69.561  1.00  0.00    -0.278 C  
BRANCH  15  16
HETATM   16  N   UNL     1     -12.109  12.663  70.837  1.00  0.00    -0.445 NA 
HETATM   17  H   UNL     1     -12.901  12.918  71.428  1.00  0.00     0.000 HD 
BRANCH  16  18
HETATM   18  C   UNL     1     -12.052  11.226  70.589  1.00  0.00    -0.383 C  
BRANCH  18  19
HETATM   19  C   UNL     1     -12.812  10.478  71.676  1.00  0.00    -0.581 C  
BRANCH  19  20
HETATM   20  C   UNL     1     -12.483   8.988  71.618  1.00  0.00    -0.418 C  
BRANCH  20  21
HETATM   21  C   UNL     1     -11.050   8.736  72.062  1.00  0.00    -0.441 C  
BRANCH  21  22
HETATM   22  C   UNL     1     -10.975   7.618  73.095  1.00  0.00    -0.411 C  
BRANCH  22  23
HETATM   23  C   UNL     1     -10.272   6.403  72.508  1.00  0.00    -0.183 C  
BRANCH  23  24
HETATM   24  O   UNL     1     -11.080   5.879  71.462  1.00  0.00    -0.270 OA 
BRANCH  24  25
HETATM   25  C   UNL     1     -10.285   5.302  70.429  1.00  0.00    -0.268 C  
BRANCH  25  26
HETATM   26  C   UNL     1     -10.656   5.954  69.102  1.00  0.00    -0.369 C  
BRANCH  26  27
HETATM   27  C   UNL     1      -9.718   7.119  68.783  1.00  0.00    -0.145 C  
BRANCH  27  28
HETATM   28  C   UNL     1     -10.486   8.407  68.491  1.00  0.00    -0.201 C  
BRANCH  28  29
HETATM   29  C   UNL     1      -9.719   9.250  67.500  1.00  0.00    -0.201 A  
HETATM   30  C   UNL     1      -8.776  10.183  67.945  1.00  0.00    -0.122 A  
HETATM   31  C   UNL     1      -8.127  11.017  67.034  1.00  0.00    -0.136 A  
HETATM   32  C   UNL     1      -8.418  10.927  65.674  1.00  0.00    -0.139 A  
HETATM   33  C   UNL     1      -9.354   9.997  65.222  1.00  0.00    -0.294 A  
HETATM   34  C   UNL     1     -10.004   9.162  66.130  1.00  0.00    -0.338 A  
ENDBRANCH  28  29
ENDBRANCH  27  28
ENDBRANCH  26  27
ENDBRANCH  25  26
ENDBRANCH  24  25
ENDBRANCH  23  24
ENDBRANCH  22  23
ENDBRANCH  21  22
ENDBRANCH  20  21
ENDBRANCH  19  20
ENDBRANCH  18  19
ENDBRANCH  16  18
ENDBRANCH  15  16
ENDBRANCH  12  15
ENDBRANCH  10  12
ENDBRANCH   2   4
TORSDOF 16
ENDMDL
MODEL        6
REMARK 921   NORMALIZED FREE ENERGY PREDICTED BY IDOCK:   -6.22 KCAL/MOL
REMARK 922        TOTAL FREE ENERGY PREDICTED BY IDOCK:  -14.38 KCAL/MOL
REMARK 923 INTER-LIGAND FREE ENERGY PREDICTED BY IDOCK:  -11.59 KCAL/MOL
REMARK 924 INTRA-LIGAND FREE ENERGY PREDICTED BY IDOCK:   -2.79 KCAL/MOL
REMARK 927      BINDING AFFINITY PREDICTED BY RF-SCORE:    0.00 PKD
ROOT
HETATM    1  O   UNL     1     -11.388   6.291  67.697  1.00  0.00    -0.585 OA 
HETATM    2  C   UNL     1     -10.107   6.820  67.351  1.00  0.00    -0.175 C  
HETATM    3  H   UNL     1     -11.315   5.368  67.910  1.00  0.00     0.000 HD 
ENDROOT
BRANCH   2   4
HETATM    4  C   UNL     1     -10.222   8.283  67.013  1.00  0.00    -0.380 A  
HETATM    5  C   UNL     1     -10.748   9.227  67.903  1.00  0.00    -0.188 A  
HETATM    6  O   UNL     1     -11.255   8.866  69.121  1.00  0.00    -0.437 OA 
HETATM    7  C   UNL     1     -10.808  10.578  67.578  1.00  0.00    -0.357 A  
HETATM    8  C   UNL     1     -10.358  11.010  66.332  1.00  0.00    -0.302 A  
HETATM    9  H   UNL     1     -11.612   9.506  69.725  1.00  0.00     0.000 HD 
HETATM   10  C   UNL     1      -9.827  10.096  65.408  1.00  0.00    -0.375 A  
HETATM   11  C   UNL     1      -9.744   8.740  65.772  1.00  0.00    -0.122 A  
BRANCH  10  12
HETATM   12  C   UNL     1      -9.374  10.537  64.029  1.00  0.00    -0.267 C  
HETATM   13  O   UNL     1      -9.506   9.454  63.095  1.00  0.00    -0.497 OA 
HETATM   14  H   UNL     1      -9.222   9.730  62.231  1.00  0.00     0.000 HD 
BRANCH  12  15
HETATM   15  C   UNL     1     -10.181  11.746  63.509  1.00  0.00    -0.450 C  
BRANCH  15  16
HETATM   16  N   UNL     1     -11.518  11.336  63.048  1.00  0.00    -0.818 NA 
HETATM   17  H   UNL     1     -11.708  10.355  63.253  1.00  0.00     0.000 HD 
BRANCH  16  18
HETATM   18  C   UNL     1     -12.535  12.218  63.612  1.00  0.00    -0.541 C  
BRANCH  18  19
HETATM   19  C   UNL     1     -11.891  13.505  64.112  1.00  0.00    -0.483 C  
BRANCH  19  20
HETATM   20  C   UNL     1     -12.781  14.167  65.162  1.00  0.00    -0.387 C  
BRANCH  20  21
HETATM   21  C   UNL     1     -12.028  14.336  66.473  1.00  0.00    -0.448 C  
BRANCH  21  22
HETATM   22  C   UNL     1     -10.525  14.431  66.245  1.00  0.00    -0.292 C  
BRANCH  22  23
HETATM   23  C   UNL     1     -10.112  15.880  66.038  1.00  0.00    -0.337 C  
BRANCH  23  24
HETATM   24  O   UNL     1     -10.672  16.661  67.087  1.00  0.00    -0.294 OA 
BRANCH  24  25
HETATM   25  C   UNL     1      -9.668  17.116  67.991  1.00  0.00    -0.274 C  
BRANCH  25  26
HETATM   26  C   UNL     1     -10.246  17.129  69.400  1.00  0.00    -0.164 C  
BRANCH  26  27
HETATM   27  C   UNL     1     -10.665  15.724  69.834  1.00  0.00    -0.332 C  
BRANCH  27  28
HETATM   28  C   UNL     1     -12.178  15.608  70.010  1.00  0.00    -0.351 C  
BRANCH  28  29
HETATM   29  C   UNL     1     -12.524  14.270  70.619  1.00  0.00    -0.428 A  
HETATM   30  C   UNL     1     -13.332  14.199  71.759  1.00  0.00    -0.459 A  
HETATM   31  C   UNL     1     -13.584  12.969  72.368  1.00  0.00    -0.628 A  
HETATM   32  C   UNL     1     -13.028  11.803  71.844  1.00  0.00    -0.435 A  
HETATM   33  C   UNL     1     -12.225  11.864  70.706  1.00  0.00    -0.401 A  
HETATM   34  C   UNL     1     -11.972  13.092  70.095  1.00  0.00    -0.381 A  
ENDBRANCH  28  29
ENDBRANCH  27  28
ENDBRANCH  26  27
ENDBRANCH  25  26
ENDBRANCH  24  25
ENDBRANCH  23  24
ENDBRANCH  22  23
ENDBRANCH  21  22
ENDBRANCH  20  21
ENDBRANCH  19  20
ENDBRANCH  18  19
ENDBRANCH  16  18
ENDBRANCH  15  16
ENDBRANCH  12  15
ENDBRANCH  10  12
ENDBRANCH   2   4
TORSDOF 16
ENDMDL
MODEL        7
REMARK 921   NORMALIZED FREE ENERGY PREDICTED BY IDOCK:   -6.13 KCAL/MOL
REMARK 922        TOTAL FREE ENERGY PREDICTED BY IDOCK:  -14.21 KCAL/MOL
REMARK 923 INTER-LIGAND FREE ENERGY PREDICTED BY IDOCK:  -12.08 KCAL/MOL
REMARK 924 INTRA-LIGAND FREE ENERGY PREDICTED BY IDOCK:   -2.13 KCAL/MOL
REMARK 927      BINDING AFFINITY PREDICTED BY RF-SCORE:    0.00 PKD
ROOT
HETATM    1  O   UNL     1     -13.813   9.077  73.409  1.00  0.00    -1.173 OA 
HETATM    2  C   UNL     1     -13.323   8.681  72.127  1.00  0.00    -0.396 C  
HETATM    3  H   UNL     1     -14.149   8.323  73.879  1.00  0.00     0.000 HD 
ENDROOT
BRANCH   2   4
HETATM    4  C   UNL     1     -12.791   9.876  71.381  1.00  0.00    -0.505 A  
HETATM    5  C   UNL     1     -11.862   9.768  70.340  1.00  0.00    -0.193 A  
HETATM    6  O   UNL     1     -11.326   8.564  69.975  1.00  0.00    -0.434 OA 
HETATM    7  C   UNL     1     -11.417  10.887  69.644  1.00  0.00    -0.377 A  
HETATM    8  C   UNL     1     -11.881  12.151  69.999  1.00  0.00    -0.383 A  
HETATM    9  H   UNL     1     -10.695   8.491  69.268  1.00  0.00     0.000 HD 
HETATM   10  C   UNL     1     -12.810  12.306  71.040  1.00  0.00    -0.251 A  
HETATM   11  C   UNL     1     -13.274  11.157  71.706  1.00  0.00    -0.486 A  
BRANCH  10  12
HETATM   12  C   UNL     1     -13.294  13.677  71.472  1.00  0.00    -0.297 C  
HETATM   13  O   UNL     1     -14.153  13.560  72.617  1.00  0.00    -0.762 OA 
HETATM   14  H   UNL     1     -14.456  14.419  72.889  1.00  0.00     0.000 HD 
BRANCH  12  15
HETATM   15  C   UNL     1     -12.126  14.626  71.818  1.00  0.00    -0.319 C  
BRANCH  15  16
HETATM   16  N   UNL     1     -12.305  15.943  71.184  1.00  0.00    -0.512 NA 
HETATM   17  H   UNL     1     -11.700  16.651  71.600  1.00  0.00     0.000 HD 
BRANCH  16  18
HETATM   18  C   UNL     1     -12.110  15.836  69.742  1.00  0.00    -0.281 C  
BRANCH  18  19
HETATM   19  C   UNL     1     -10.635  16.000  69.400  1.00  0.00    -0.275 C  
BRANCH  19  20
HETATM   20  C   UNL     1     -10.244  17.475  69.448  1.00  0.00    -0.089 C  
BRANCH  20  21
HETATM   21  C   UNL     1      -9.608  17.905  68.133  1.00  0.00    -0.306 C  
BRANCH  21  22
HETATM   22  C   UNL     1     -10.614  18.614  67.234  1.00  0.00    -0.480 C  
BRANCH  22  23
HETATM   23  C   UNL     1     -10.509  18.091  65.810  1.00  0.00    -0.198 C  
BRANCH  23  24
HETATM   24  O   UNL     1      -9.845  16.834  65.840  1.00  0.00    -0.446 OA 
BRANCH  24  25
HETATM   25  C   UNL     1     -10.680  15.792  65.341  1.00  0.00    -0.404 C  
BRANCH  25  26
HETATM   26  C   UNL     1     -10.516  14.565  66.229  1.00  0.00    -0.303 C  
BRANCH  26  27
HETATM   27  C   UNL     1     -11.872  13.932  66.546  1.00  0.00    -0.440 C  
BRANCH  27  28
HETATM   28  C   UNL     1     -12.410  13.118  65.371  1.00  0.00    -0.532 C  
BRANCH  28  29
HETATM   29  C   UNL     1     -11.432  12.024  65.012  1.00  0.00    -0.343 A  
HETATM   30  C   UNL     1     -10.835  11.252  66.014  1.00  0.00    -0.273 A  
HETATM   31  C   UNL     1      -9.872  10.297  65.687  1.00  0.00    -0.332 A  
HETATM   32  C   UNL     1      -9.498  10.110  64.358  1.00  0.00    -0.368 A  
HETATM   33  C   UNL     1     -10.091  10.872  63.352  1.00  0.00    -0.398 A  
HETATM   34  C   UNL     1     -11.054  11.827  63.677  1.00  0.00    -0.518 A  
ENDBRANCH  28  29
ENDBRANCH  27  28
ENDBRANCH  26  27
ENDBRANCH  25  26
ENDBRANCH  24  25
ENDBRANCH  23  24
ENDBRANCH  22  23
ENDBRANCH  21  22
ENDBRANCH  20  21
ENDBRANCH  19  20
ENDBRANCH  18  19
ENDBRANCH  16  18
ENDBRANCH  15  16
ENDBRANCH  12  15
ENDBRANCH  10  12
ENDBRANCH   2   4
TORSDOF 16
ENDMDL
MODEL        8
REMARK 921   NORMALIZED FREE ENERGY PREDICTED BY IDOCK:   -6.09 KCAL/MOL
REMARK 922        TOTAL FREE ENERGY PREDICTED BY IDOCK:  -14.13 KCAL/MOL
REMARK 923 INTER-LIGAND FREE ENERGY PREDICTED BY IDOCK:  -11.76 KCAL/MOL
REMARK 924 INTRA-LIGAND FREE ENERGY PREDICTED BY IDOCK:   -2.37 KCAL/MOL
REMARK 927      BINDING AFFINITY PREDICTED BY RF-SCORE:    0.00 PKD
ROOT
HETATM    1  O   UNL     1      -9.015   7.811  65.144  1.00  0.00    -0.382 OA 
HETATM    2  C   UNL     1      -8.628   9.159  64.870  1.00  0.00    -0.184 C  
HETATM    3  H   UNL     1      -8.358   7.208  64.815  1.00  0.00     0.000 HD 
ENDROOT
BRANCH   2   4
HETATM    4  C   UNL     1      -9.669  10.115  65.391  1.00  0.00    -0.355 A  
HETATM    5  C   UNL     1     -10.062  10.150  66.734  1.00  0.00    -0.219 A  
HETATM    6  O   UNL     1      -9.567   9.266  67.653  1.00  0.00    -0.138 OA 
HETATM    7  C   UNL     1     -10.998  11.070  67.193  1.00  0.00    -0.344 A  
HETATM    8  C   UNL     1     -11.583  11.965  66.301  1.00  0.00    -0.317 A  
HETATM    9  H   UNL     1      -9.834   9.290  68.564  1.00  0.00     0.000 HD 
HETATM   10  C   UNL     1     -11.221  11.961  64.944  1.00  0.00    -0.350 A  
HETATM   11  C   UNL     1     -10.246  11.047  64.509  1.00  0.00    -0.406 A  
BRANCH  10  12
HETATM   12  C   UNL     1     -11.878  12.897  63.947  1.00  0.00    -0.473 C  
HETATM   13  O   UNL     1     -13.100  12.320  63.459  1.00  0.00    -0.766 OA 
HETATM   14  H   UNL     1     -13.512  12.906  62.834  1.00  0.00     0.000 HD 
BRANCH  12  15
HETATM   15  C   UNL     1     -12.188  14.279  64.560  1.00  0.00    -0.455 C  
BRANCH  15  16
HETATM   16  N   UNL     1     -11.043  15.194  64.418  1.00  0.00    -0.671 NA 
HETATM   17  H   UNL     1     -11.182  15.865  63.663  1.00  0.00     0.000 HD 
BRANCH  16  18
HETATM   18  C   UNL     1     -10.767  15.853  65.691  1.00  0.00    -0.339 C  
BRANCH  18  19
HETATM   19  C   UNL     1      -9.581  15.187  66.377  1.00  0.00    -0.309 C  
BRANCH  19  20
HETATM   20  C   UNL     1     -10.035  14.493  67.659  1.00  0.00    -0.224 C  
BRANCH  20  21
HETATM   21  C   UNL     1     -10.127  15.490  68.805  1.00  0.00    -0.211 C  
BRANCH  21  22
HETATM   22  C   UNL     1     -11.463  15.382  69.531  1.00  0.00    -0.330 C  
BRANCH  22  23
HETATM   23  C   UNL     1     -11.412  16.144  70.846  1.00  0.00    -0.386 C  
BRANCH  23  24
HETATM   24  O   UNL     1     -12.677  16.021  71.485  1.00  0.00    -0.442 OA 
BRANCH  24  25
HETATM   25  C   UNL     1     -13.490  15.039  70.847  1.00  0.00    -0.349 C  
BRANCH  25  26
HETATM   26  C   UNL     1     -14.250  14.263  71.915  1.00  0.00    -0.597 C  
BRANCH  26  27
HETATM   27  C   UNL     1     -13.533  12.956  72.258  1.00  0.00    -0.631 C  
BRANCH  27  28
HETATM   28  C   UNL     1     -12.709  12.431  71.083  1.00  0.00    -0.336 C  
BRANCH  28  29
HETATM   29  C   UNL     1     -12.411  10.964  71.279  1.00  0.00    -0.493 A  
HETATM   30  C   UNL     1     -11.321  10.370  70.633  1.00  0.00    -0.411 A  
HETATM   31  C   UNL     1     -11.095   8.999  70.750  1.00  0.00    -0.328 A  
HETATM   32  C   UNL     1     -11.957   8.211  71.511  1.00  0.00    -0.334 A  
HETATM   33  C   UNL     1     -13.044   8.794  72.161  1.00  0.00    -0.451 A  
HETATM   34  C   UNL     1     -13.272  10.166  72.045  1.00  0.00    -0.534 A  
ENDBRANCH  28  29
ENDBRANCH  27  28
ENDBRANCH  26  27
ENDBRANCH  25  26
ENDBRANCH  24  25
ENDBRANCH  23  24
ENDBRANCH  22  23
ENDBRANCH  21  22
ENDBRANCH  20  21
ENDBRANCH  19  20
ENDBRANCH  18  19
ENDBRANCH  16  18
ENDBRANCH  15  16
ENDBRANCH  12  15
ENDBRANCH  10  12
ENDBRANCH   2   4
TORSDOF 16
ENDMDL
MODEL        9
REMARK 921   NORMALIZED FREE ENERGY PREDICTED BY IDOCK:   -6.08 KCAL/MOL
REMARK 922        TOTAL FREE ENERGY PREDICTED BY IDOCK:  -14.12 KCAL/MOL
REMARK 923 INTER-LIGAND FREE ENERGY PREDICTED BY IDOCK:  -11.26 KCAL/MOL
REMARK 924 INTRA-LIGAND FREE ENERGY PREDICTED BY IDOCK:   -2.86 KCAL/MOL
REMARK 927      BINDING AFFINITY PREDICTED BY RF-SCORE:    0.00 PKD
ROOT
HETATM    1  O   UNL     1     -14.332  14.050  72.107  1.00  0.00    -0.525 OA 
HETATM    2  C   UNL     1     -13.085  13.477  71.711  1.00  0.00    -0.387 C  
HETATM    3  H   UNL     1     -14.677  13.593  72.865  1.00  0.00     0.000 HD 
ENDROOT
BRANCH   2   4
HETATM    4  C   UNL     1     -12.538  14.201  70.509  1.00  0.00    -0.410 A  
HETATM    5  C   UNL     1     -12.164  15.550  70.542  1.00  0.00    -0.404 A  
HETATM    6  O   UNL     1     -12.336  16.318  71.660  1.00  0.00    -0.593 OA 
HETATM    7  C   UNL     1     -11.627  16.182  69.426  1.00  0.00    -0.261 A  
HETATM    8  C   UNL     1     -11.474  15.474  68.237  1.00  0.00    -0.359 A  
HETATM    9  H   UNL     1     -12.083  17.234  71.682  1.00  0.00     0.000 HD 
HETATM   10  C   UNL     1     -11.839  14.120  68.159  1.00  0.00    -0.387 A  
HETATM   11  C   UNL     1     -12.347  13.492  69.310  1.00  0.00    -0.125 A  
BRANCH  10  12
HETATM   12  C   UNL     1     -11.724  13.342  66.861  1.00  0.00    -0.389 C  
HETATM   13  O   UNL     1     -11.954  11.945  67.101  1.00  0.00    -0.611 OA 
HETATM   14  H   UNL     1     -11.882  11.458  66.288  1.00  0.00     0.000 HD 
BRANCH  12  15
HETATM   15  C   UNL     1     -12.721  13.838  65.793  1.00  0.00    -0.446 C  
BRANCH  15  16
HETATM   16  N   UNL     1     -12.991  12.794  64.790  1.00  0.00    -0.844 NA 
HETATM   17  H   UNL     1     -13.956  12.820  64.462  1.00  0.00     0.000 HD 
BRANCH  16  18
HETATM   18  C   UNL     1     -12.036  12.897  63.691  1.00  0.00    -0.541 C  
BRANCH  18  19
HETATM   19  C   UNL     1     -11.326  11.564  63.490  1.00  0.00    -0.375 C  
BRANCH  19  20
HETATM   20  C   UNL     1      -9.957  11.588  64.166  1.00  0.00    -0.327 C  
BRANCH  20  21
HETATM   21  C   UNL     1      -9.747  10.332  64.999  1.00  0.00    -0.370 C  
BRANCH  21  22
HETATM   22  C   UNL     1      -8.387  10.342  65.687  1.00  0.00    -0.159 C  
BRANCH  22  23
HETATM   23  C   UNL     1      -8.412  11.267  66.893  1.00  0.00    -0.152 C  
BRANCH  23  24
HETATM   24  O   UNL     1      -7.210  12.026  66.903  1.00  0.00    -0.125 OA 
BRANCH  24  25
HETATM   25  C   UNL     1      -7.330  13.183  67.727  1.00  0.00    -0.143 C  
BRANCH  25  26
HETATM   26  C   UNL     1      -8.334  14.136  67.092  1.00  0.00    -0.189 C  
BRANCH  26  27
HETATM   27  C   UNL     1      -7.857  15.586  67.198  1.00  0.00    -0.256 C  
BRANCH  27  28
HETATM   28  C   UNL     1      -8.546  16.489  66.177  1.00  0.00    -0.334 C  
BRANCH  28  29
HETATM   29  C   UNL     1      -9.053  17.739  66.856  1.00  0.00    -0.266 A  
HETATM   30  C   UNL     1      -8.434  18.215  68.017  1.00  0.00    -0.268 A  
HETATM   31  C   UNL     1      -8.953  19.323  68.688  1.00  0.00    -0.419 A  
HETATM   32  C   UNL     1     -10.094  19.960  68.206  1.00  0.00    -0.571 A  
HETATM   33  C   UNL     1     -10.716  19.495  67.048  1.00  0.00    -0.592 A  
HETATM   34  C   UNL     1     -10.199  18.388  66.375  1.00  0.00    -0.431 A  
ENDBRANCH  28  29
ENDBRANCH  27  28
ENDBRANCH  26  27
ENDBRANCH  25  26
ENDBRANCH  24  25
ENDBRANCH  23  24
ENDBRANCH  22  23
ENDBRANCH  21  22
ENDBRANCH  20  21
ENDBRANCH  19  20
ENDBRANCH  18  19
ENDBRANCH  16  18
ENDBRANCH  15  16
ENDBRANCH  12  15
ENDBRANCH  10  12
ENDBRANCH   2   4
TORSDOF 16
ENDMDL
MODEL       10
REMARK 921   NORMALIZED FREE ENERGY PREDICTED BY IDOCK:   -6.07 KCAL/MOL
REMARK 922        TOTAL FREE ENERGY PREDICTED BY IDOCK:  -14.10 KCAL/MOL
REMARK 923 INTER-LIGAND FREE ENERGY PREDICTED BY IDOCK:  -12.02 KCAL/MOL
REMARK 924 INTRA-LIGAND FREE ENERGY PREDICTED BY IDOCK:   -2.09 KCAL/MOL
REMARK 927      BINDING AFFINITY PREDICTED BY RF-SCORE:    0.00 PKD
ROOT
HETATM    1  O   UNL     1     -14.247  15.509  70.794  1.00  0.00    -0.863 OA 
HETATM    2  C   UNL     1     -12.850  15.213  70.772  1.00  0.00    -0.416 C  
HETATM    3  H   UNL     1     -14.383  16.450  70.797  1.00  0.00     0.000 HD 
ENDROOT
BRANCH   2   4
HETATM    4  C   UNL     1     -12.634  13.722  70.766  1.00  0.00    -0.410 A  
HETATM    5  C   UNL     1     -13.230  12.867  71.700  1.00  0.00    -0.324 A  
HETATM    6  O   UNL     1     -14.001  13.343  72.725  1.00  0.00    -0.724 OA 
HETATM    7  C   UNL     1     -13.042  11.490  71.647  1.00  0.00    -0.478 A  
HETATM    8  C   UNL     1     -12.226  10.941  70.662  1.00  0.00    -0.472 A  
HETATM    9  H   UNL     1     -14.405  12.762  73.359  1.00  0.00     0.000 HD 
HETATM   10  C   UNL     1     -11.605  11.763  69.708  1.00  0.00    -0.372 A  
HETATM   11  C   UNL     1     -11.838  13.149  69.758  1.00  0.00    -0.386 A  
BRANCH  10  12
HETATM   12  C   UNL     1     -10.676  11.191  68.654  1.00  0.00    -0.198 C  
HETATM   13  O   UNL     1      -9.346  11.701  68.838  1.00  0.00    -0.384 OA 
HETATM   14  H   UNL     1      -8.764  11.342  68.178  1.00  0.00     0.000 HD 
BRANCH  12  15
HETATM   15  C   UNL     1     -10.630   9.648  68.692  1.00  0.00    -0.217 C  
BRANCH  15  16
HETATM   16  N   UNL     1      -9.498   9.130  67.906  1.00  0.00    -0.140 NA 
HETATM   17  H   UNL     1      -9.042   8.342  68.367  1.00  0.00     0.000 HD 
BRANCH  16  18
HETATM   18  C   UNL     1      -9.938   8.793  66.556  1.00  0.00    -0.290 C  
BRANCH  18  19
HETATM   19  C   UNL     1      -8.884   9.219  65.542  1.00  0.00    -0.224 C  
BRANCH  19  20
HETATM   20  C   UNL     1      -9.529  10.037  64.425  1.00  0.00    -0.349 C  
BRANCH  20  21
HETATM   21  C   UNL     1     -10.629  10.930  64.979  1.00  0.00    -0.287 C  
BRANCH  21  22
HETATM   22  C   UNL     1     -11.291  11.747  63.876  1.00  0.00    -0.494 C  
BRANCH  22  23
HETATM   23  C   UNL     1     -12.389  12.625  64.455  1.00  0.00    -0.464 C  
BRANCH  23  24
HETATM   24  O   UNL     1     -12.157  12.772  65.851  1.00  0.00    -0.432 OA 
BRANCH  24  25
HETATM   25  C   UNL     1     -11.803  14.113  66.181  1.00  0.00    -0.407 C  
BRANCH  25  26
HETATM   26  C   UNL     1     -10.320  14.156  66.531  1.00  0.00    -0.284 C  
BRANCH  26  27
HETATM   27  C   UNL     1      -9.643  15.373  65.898  1.00  0.00    -0.386 C  
BRANCH  27  28
HETATM   28  C   UNL     1     -10.647  16.473  65.557  1.00  0.00    -0.310 C  
BRANCH  28  29
HETATM   29  C   UNL     1     -10.473  17.638  66.502  1.00  0.00    -0.283 A  
HETATM   30  C   UNL     1     -10.471  18.950  66.015  1.00  0.00    -0.507 A  
HETATM   31  C   UNL     1     -10.230  20.020  66.876  1.00  0.00    -0.595 A  
HETATM   32  C   UNL     1      -9.987  19.788  68.228  1.00  0.00    -0.557 A  
HETATM   33  C   UNL     1      -9.990  18.484  68.723  1.00  0.00    -0.417 A  
HETATM   34  C   UNL     1     -10.232  17.412  67.864  1.00  0.00    -0.348 A  
ENDBRANCH  28  29
ENDBRANCH  27  28
ENDBRANCH  26  27
ENDBRANCH  25  26
ENDBRANCH  24  25
ENDBRANCH  23  24
ENDBRANCH  22  23
ENDBRANCH  21  22
ENDBRANCH  20  21
ENDBRANCH  19  20
ENDBRANCH  18  19
ENDBRANCH  16  18
ENDBRANCH  15  16
ENDBRANCH  12  15
ENDBRANCH  10  12
ENDBRANCH   2   4
TORSDOF 16
ENDMDL
MODEL       11
REMARK 921   NORMALIZED FREE ENERGY PREDICTED BY IDOCK:   -6.07 KCAL/MOL
REMARK 922        TOTAL FREE ENERGY PREDICTED BY IDOCK:  -14.10 KCAL/MOL
REMARK 923 INTER-LIGAND FREE ENERGY PREDICTED BY IDOCK:  -12.30 KCAL/MOL
REMARK 924 INTRA-LIGAND FREE ENERGY PREDICTED BY IDOCK:   -1.80 KCAL/MOL
REMARK 927      BINDING AFFINITY PREDICTED BY RF-SCORE:    0.00 PKD
ROOT
HETATM    1  O   UNL     1     -11.559  16.370  63.773  1.00  0.00    -1.605 OA 
HETATM    2  C   UNL     1     -11.367  15.841  65.086  1.00  0.00    -0.154 C  
HETATM    3  H   UNL     1     -11.717  17.306  63.816  1.00  0.00     0.000 HD 
ENDROOT
BRANCH   2   4
HETATM    4  C   UNL     1     -11.117  14.358  65.018  1.00  0.00    -0.385 A  
HETATM    5  C   UNL     1     -11.733  13.528  64.074  1.00  0.00    -0.395 A  
HETATM    6  O   UNL     1     -12.658  14.006  63.188  1.00  0.00    -1.062 OA 
HETATM    7  C   UNL     1     -11.454  12.167  64.012  1.00  0.00    -0.488 A  
HETATM    8  C   UNL     1     -10.561  11.602  64.919  1.00  0.00    -0.349 A  
HETATM    9  H   UNL     1     -13.076  13.443  62.548  1.00  0.00     0.000 HD 
HETATM   10  C   UNL     1      -9.924  12.397  65.885  1.00  0.00    -0.271 A  
HETATM   11  C   UNL     1     -10.194  13.777  65.906  1.00  0.00    -0.322 A  
BRANCH  10  12
HETATM   12  C   UNL     1      -8.983  11.795  66.911  1.00  0.00    -0.195 C  
HETATM   13  O   UNL     1      -8.391  12.833  67.708  1.00  0.00    -0.151 OA 
HETATM   14  H   UNL     1      -7.802  12.455  68.351  1.00  0.00     0.000 HD 
BRANCH  12  15
HETATM   15  C   UNL     1      -9.700  10.796  67.845  1.00  0.00    -0.167 C  
BRANCH  15  16
HETATM   16  N   UNL     1      -9.808  11.328  69.213  1.00  0.00    -0.422 NA 
HETATM   17  H   UNL     1      -9.266  12.183  69.334  1.00  0.00     0.000 HD 
BRANCH  16  18
HETATM   18  C   UNL     1     -11.211  11.516  69.568  1.00  0.00    -0.236 C  
BRANCH  18  19
HETATM   19  C   UNL     1     -11.605  10.545  70.674  1.00  0.00    -0.445 C  
BRANCH  19  20
HETATM   20  C   UNL     1     -12.725  11.140  71.524  1.00  0.00    -0.499 C  
BRANCH  20  21
HETATM   21  C   UNL     1     -12.779  12.652  71.359  1.00  0.00    -0.347 C  
BRANCH  21  22
HETATM   22  C   UNL     1     -13.721  13.289  72.373  1.00  0.00    -0.678 C  
BRANCH  22  23
HETATM   23  C   UNL     1     -13.352  14.748  72.593  1.00  0.00    -0.464 C  
BRANCH  23  24
HETATM   24  O   UNL     1     -11.956  14.898  72.363  1.00  0.00    -0.341 OA 
BRANCH  24  25
HETATM   25  C   UNL     1     -11.669  16.114  71.677  1.00  0.00    -0.484 C  
BRANCH  25  26
HETATM   26  C   UNL     1     -11.367  15.796  70.219  1.00  0.00    -0.371 C  
BRANCH  26  27
HETATM   27  C   UNL     1     -10.291  16.732  69.664  1.00  0.00    -0.151 C  
BRANCH  27  28
HETATM   28  C   UNL     1     -10.737  17.410  68.370  1.00  0.00    -0.301 C  
BRANCH  28  29
HETATM   29  C   UNL     1      -9.651  18.336  67.875  1.00  0.00    -0.297 A  
HETATM   30  C   UNL     1      -9.682  18.828  66.566  1.00  0.00    -0.380 A  
HETATM   31  C   UNL     1      -8.637  19.617  66.085  1.00  0.00    -0.357 A  
HETATM   32  C   UNL     1      -7.553  19.917  66.907  1.00  0.00    -0.300 A  
HETATM   33  C   UNL     1      -7.515  19.434  68.215  1.00  0.00    -0.341 A  
HETATM   34  C   UNL     1      -8.559  18.645  68.698  1.00  0.00    -0.338 A  
ENDBRANCH  28  29
ENDBRANCH  27  28
ENDBRANCH  26  27
ENDBRANCH  25  26
ENDBRANCH  24  25
ENDBRANCH  23  24
ENDBRANCH  22  23
ENDBRANCH  21  22
ENDBRANCH  20  21
ENDBRANCH  19  20
ENDBRANCH  18  19
ENDBRANCH  16  18
ENDBRANCH  15  16
ENDBRANCH  12  15
ENDBRANCH  10  12
ENDBRANCH   2   4
TORSDOF 16
ENDMDL
MODEL       12
REMARK 921   NORMALIZED FREE ENERGY PREDICTED BY IDOCK:   -5.97 KCAL/MOL
REMARK 922        TOTAL FREE ENERGY PREDICTED BY IDOCK:  -13.89 KCAL/MOL
REMARK 923 INTER-LIGAND FREE ENERGY PREDICTED BY IDOCK:  -10.71 KCAL/MOL
REMARK 924 INTRA-LIGAND FREE ENERGY PREDICTED BY IDOCK:   -3.18 KCAL/MOL
REMARK 927      BINDING AFFINITY PREDICTED BY RF-SCORE:    0.00 PKD
ROOT
HETATM    1  O   UNL     1     -13.653  14.359  65.462  1.00  0.00    -0.576 OA 
HETATM    2  C   UNL     1     -12.301  14.336  65.001  1.00  0.00    -0.428 C  
HETATM    3  H   UNL     1     -14.063  15.186  65.235  1.00  0.00     0.000 HD 
ENDROOT
BRANCH   2   4
HETATM    4  C   UNL     1     -11.651  13.026  65.361  1.00  0.00    -0.374 A  
HETATM    5  C   UNL     1     -11.056  12.188  64.410  1.00  0.00    -0.333 A  
HETATM    6  O   UNL     1     -11.087  12.480  63.075  1.00  0.00    -0.695 OA 
HETATM    7  C   UNL     1     -10.431  11.003  64.777  1.00  0.00    -0.384 A  
HETATM    8  C   UNL     1     -10.409  10.617  66.115  1.00  0.00    -0.291 A  
HETATM    9  H   UNL     1     -10.684  11.911  62.429  1.00  0.00     0.000 HD 
HETATM   10  C   UNL     1     -10.997  11.425  67.101  1.00  0.00    -0.340 A  
HETATM   11  C   UNL     1     -11.593  12.638  66.712  1.00  0.00    -0.438 A  
BRANCH  10  12
HETATM   12  C   UNL     1     -11.025  11.003  68.558  1.00  0.00    -0.228 C  
HETATM   13  O   UNL     1     -12.333  10.527  68.910  1.00  0.00    -0.779 OA 
HETATM   14  H   UNL     1     -12.351  10.262  69.823  1.00  0.00     0.000 HD 
BRANCH  12  15
HETATM   15  C   UNL     1      -9.991   9.898  68.866  1.00  0.00    -0.181 C  
BRANCH  15  16
HETATM   16  N   UNL     1      -8.858  10.429  69.641  1.00  0.00    -0.376 NA 
HETATM   17  H   UNL     1      -8.806  10.016  70.572  1.00  0.00     0.000 HD 
BRANCH  16  18
HETATM   18  C   UNL     1      -7.616  10.255  68.896  1.00  0.00    -0.094 C  
BRANCH  18  19
HETATM   19  C   UNL     1      -7.464  11.367  67.866  1.00  0.00    -0.095 C  
BRANCH  19  20
HETATM   20  C   UNL     1      -7.160  12.692  68.562  1.00  0.00    -0.101 C  
BRANCH  20  21
HETATM   21  C   UNL     1      -8.350  13.635  68.466  1.00  0.00    -0.110 C  
BRANCH  21  22
HETATM   22  C   UNL     1      -8.331  14.426  67.164  1.00  0.00    -0.214 C  
BRANCH  22  23
HETATM   23  C   UNL     1      -7.495  15.687  67.325  1.00  0.00    -0.222 C  
BRANCH  23  24
HETATM   24  O   UNL     1      -8.361  16.813  67.248  1.00  0.00    -0.170 OA 
BRANCH  24  25
HETATM   25  C   UNL     1      -9.635  16.455  66.719  1.00  0.00    -0.248 C  
BRANCH  25  26
HETATM   26  C   UNL     1     -10.719  17.111  67.564  1.00  0.00    -0.276 C  
BRANCH  26  27
HETATM   27  C   UNL     1     -11.404  16.086  68.470  1.00  0.00    -0.382 C  
BRANCH  27  28
HETATM   28  C   UNL     1     -10.829  16.101  69.885  1.00  0.00    -0.355 C  
BRANCH  28  29
HETATM   29  C   UNL     1     -11.755  15.363  70.824  1.00  0.00    -0.385 A  
HETATM   30  C   UNL     1     -12.122  15.931  72.048  1.00  0.00    -0.591 A  
HETATM   31  C   UNL     1     -12.911  15.215  72.948  1.00  0.00    -0.561 A  
HETATM   32  C   UNL     1     -13.337  13.926  72.633  1.00  0.00    -0.640 A  
HETATM   33  C   UNL     1     -12.979  13.353  71.413  1.00  0.00    -0.412 A  
HETATM   34  C   UNL     1     -12.190  14.068  70.511  1.00  0.00    -0.435 A  
ENDBRANCH  28  29
ENDBRANCH  27  28
ENDBRANCH  26  27
ENDBRANCH  25  26
ENDBRANCH  24  25
ENDBRANCH  23  24
ENDBRANCH  22  23
ENDBRANCH  21  22
ENDBRANCH  20  21
ENDBRANCH  19  20
ENDBRANCH  18  19
ENDBRANCH  16  18
ENDBRANCH  15  16
ENDBRANCH  12  15
ENDBRANCH  10  12
ENDBRANCH   2   4
TORSDOF 16
ENDMDL
MODEL       13
REMARK 921   NORMALIZED FREE ENERGY PREDICTED BY IDOCK:   -5.96 KCAL/MOL
REMARK 922        TOTAL FREE ENERGY PREDICTED BY IDOCK:  -13.88 KCAL/MOL
REMARK 923 INTER-LIGAND FREE ENERGY PREDICTED BY IDOCK:  -12.25 KCAL/MOL
REMARK 924 INTRA-LIGAND FREE ENERGY PREDICTED BY IDOCK:   -1.64 KCAL/MOL
REMARK 927      BINDING AFFINITY PREDICTED BY RF-SCORE:    0.00 PKD
ROOT
HETATM    1  O   UNL     1     -13.843   9.051  73.213  1.00  0.00    -1.159 OA 
HETATM    2  C   UNL     1     -13.539   8.995  71.819  1.00  0.00    -0.413 C  
HETATM    3  H   UNL     1     -14.784   9.076  73.343  1.00  0.00     0.000 HD 
ENDROOT
BRANCH   2   4
HETATM    4  C   UNL     1     -12.048   8.956  71.611  1.00  0.00    -0.415 A  
HETATM    5  C   UNL     1     -11.184   8.245  72.453  1.00  0.00    -0.381 A  
HETATM    6  O   UNL     1     -11.638   7.590  73.564  1.00  0.00    -0.568 OA 
HETATM    7  C   UNL     1      -9.815   8.197  72.215  1.00  0.00    -0.329 A  
HETATM    8  C   UNL     1      -9.277   8.887  71.131  1.00  0.00    -0.324 A  
HETATM    9  H   UNL     1     -11.052   7.108  74.135  1.00  0.00     0.000 HD 
HETATM   10  C   UNL     1     -10.107   9.615  70.264  1.00  0.00    -0.331 A  
HETATM   11  C   UNL     1     -11.492   9.621  70.503  1.00  0.00    -0.352 A  
BRANCH  10  12
HETATM   12  C   UNL     1      -9.537  10.411  69.105  1.00  0.00    -0.213 C  
HETATM   13  O   UNL     1      -8.241  10.927  69.449  1.00  0.00    -0.347 OA 
HETATM   14  H   UNL     1      -7.884  11.425  68.723  1.00  0.00     0.000 HD 
BRANCH  12  15
HETATM   15  C   UNL     1      -9.412   9.563  67.821  1.00  0.00    -0.131 C  
BRANCH  15  16
HETATM   16  N   UNL     1      -8.892  10.364  66.701  1.00  0.00    -0.133 NA 
HETATM   17  H   UNL     1      -7.874  10.425  66.715  1.00  0.00     0.000 HD 
BRANCH  16  18
HETATM   18  C   UNL     1      -9.391   9.839  65.434  1.00  0.00    -0.252 C  
BRANCH  18  19
HETATM   19  C   UNL     1      -8.838  10.658  64.275  1.00  0.00    -0.175 C  
BRANCH  19  20
HETATM   20  C   UNL     1      -9.953  10.993  63.287  1.00  0.00    -0.414 C  
BRANCH  20  21
HETATM   21  C   UNL     1     -11.197  11.470  64.022  1.00  0.00    -0.414 C  
BRANCH  21  22
HETATM   22  C   UNL     1     -11.877  12.615  63.281  1.00  0.00    -0.504 C  
BRANCH  22  23
HETATM   23  C   UNL     1     -12.387  13.654  64.268  1.00  0.00    -0.335 C  
BRANCH  23  24
HETATM   24  O   UNL     1     -12.456  13.055  65.556  1.00  0.00    -0.469 OA 
BRANCH  24  25
HETATM   25  C   UNL     1     -12.208  14.008  66.587  1.00  0.00    -0.428 C  
BRANCH  25  26
HETATM   26  C   UNL     1     -11.246  13.396  67.598  1.00  0.00    -0.302 C  
BRANCH  26  27
HETATM   27  C   UNL     1     -11.750  13.601  69.028  1.00  0.00    -0.375 C  
BRANCH  27  28
HETATM   28  C   UNL     1     -11.550  15.039  69.503  1.00  0.00    -0.337 C  
BRANCH  28  29
HETATM   29  C   UNL     1     -12.237  15.242  70.833  1.00  0.00    -0.409 A  
HETATM   30  C   UNL     1     -13.586  14.906  70.991  1.00  0.00    -0.402 A  
HETATM   31  C   UNL     1     -14.241  15.168  72.195  1.00  0.00    -0.656 A  
HETATM   32  C   UNL     1     -13.553  15.770  73.247  1.00  0.00    -0.495 A  
HETATM   33  C   UNL     1     -12.208  16.105  73.100  1.00  0.00    -0.643 A  
HETATM   34  C   UNL     1     -11.551  15.843  71.897  1.00  0.00    -0.542 A  
ENDBRANCH  28  29
ENDBRANCH  27  28
ENDBRANCH  26  27
ENDBRANCH  25  26
ENDBRANCH  24  25
ENDBRANCH  23  24
ENDBRANCH  22  23
ENDBRANCH  21  22
ENDBRANCH  20  21
ENDBRANCH  19  20
ENDBRANCH  18  19
ENDBRANCH  16  18
ENDBRANCH  15  16
ENDBRANCH  12  15
ENDBRANCH  10  12
ENDBRANCH   2   4
TORSDOF 16
ENDMDL
MODEL       14
REMARK 921   NORMALIZED FREE ENERGY PREDICTED BY IDOCK:   -5.95 KCAL/MOL
REMARK 922        TOTAL FREE ENERGY PREDICTED BY IDOCK:  -13.86 KCAL/MOL
REMARK 923 INTER-LIGAND FREE ENERGY PREDICTED BY IDOCK:  -11.65 KCAL/MOL
REMARK 924 INTRA-LIGAND FREE ENERGY PREDICTED BY IDOCK:   -2.21 KCAL/MOL
REMARK 927      BINDING AFFINITY PREDICTED BY RF-SCORE:    0.00 PKD
ROOT
HETATM    1  O   UNL     1     -13.292  15.912  72.677  1.00  0.00    -0.487 OA 
HETATM    2  C   UNL     1     -14.128  14.818  72.296  1.00  0.00    -0.488 C  
HETATM    3  H   UNL     1     -13.772  16.514  73.233  1.00  0.00     0.000 HD 
ENDROOT
BRANCH   2   4
HETATM    4  C   UNL     1     -13.366  13.864  71.414  1.00  0.00    -0.363 A  
HETATM    5  C   UNL     1     -12.752  14.260  70.221  1.00  0.00    -0.249 A  
HETATM    6  O   UNL     1     -12.861  15.537  69.744  1.00  0.00    -0.616 OA 
HETATM    7  C   UNL     1     -12.024  13.363  69.447  1.00  0.00    -0.369 A  
HETATM    8  C   UNL     1     -11.917  12.033  69.845  1.00  0.00    -0.391 A  
HETATM    9  H   UNL     1     -12.444  15.806  68.934  1.00  0.00     0.000 HD 
HETATM   10  C   UNL     1     -12.521  11.592  71.033  1.00  0.00    -0.436 A  
HETATM   11  C   UNL     1     -13.222  12.524  71.819  1.00  0.00    -0.444 A  
BRANCH  10  12
HETATM   12  C   UNL     1     -12.455  10.139  71.463  1.00  0.00    -0.427 C  
HETATM   13  O   UNL     1     -13.611   9.430  70.988  1.00  0.00    -0.567 OA 
HETATM   14  H   UNL     1     -13.570   8.519  71.257  1.00  0.00     0.000 HD 
BRANCH  12  15
HETATM   15  C   UNL     1     -11.186   9.433  70.940  1.00  0.00    -0.325 C  
BRANCH  15  16
HETATM   16  N   UNL     1     -11.492   8.078  70.452  1.00  0.00    -0.436 NA 
HETATM   17  H   UNL     1     -12.485   7.961  70.249  1.00  0.00     0.000 HD 
BRANCH  16  18
HETATM   18  C   UNL     1     -10.657   7.760  69.299  1.00  0.00    -0.192 C  
BRANCH  18  19
HETATM   19  C   UNL     1     -10.320   9.032  68.532  1.00  0.00    -0.233 C  
BRANCH  19  20
HETATM   20  C   UNL     1     -10.434   8.787  67.029  1.00  0.00    -0.338 C  
BRANCH  20  21
HETATM   21  C   UNL     1      -9.688   9.862  66.251  1.00  0.00    -0.281 C  
BRANCH  21  22
HETATM   22  C   UNL     1     -10.326  11.232  66.443  1.00  0.00    -0.291 C  
BRANCH  22  23
HETATM   23  C   UNL     1     -11.152  11.607  65.222  1.00  0.00    -0.236 C  
BRANCH  23  24
HETATM   24  O   UNL     1     -12.293  12.335  65.658  1.00  0.00    -0.619 OA 
BRANCH  24  25
HETATM   25  C   UNL     1     -12.352  13.624  65.052  1.00  0.00    -0.427 C  
BRANCH  25  26
HETATM   26  C   UNL     1     -12.274  14.683  66.144  1.00  0.00    -0.167 C  
BRANCH  26  27
HETATM   27  C   UNL     1     -11.135  15.667  65.874  1.00  0.00    -0.155 C  
BRANCH  27  28
HETATM   28  C   UNL     1     -10.396  16.051  67.155  1.00  0.00    -0.295 C  
BRANCH  28  29
HETATM   29  C   UNL     1     -10.266  17.553  67.243  1.00  0.00    -0.335 A  
HETATM   30  C   UNL     1     -10.485  18.350  66.114  1.00  0.00    -0.422 A  
HETATM   31  C   UNL     1     -10.285  19.729  66.177  1.00  0.00    -0.618 A  
HETATM   32  C   UNL     1      -9.863  20.321  67.366  1.00  0.00    -0.586 A  
HETATM   33  C   UNL     1      -9.646  19.535  68.497  1.00  0.00    -0.476 A  
HETATM   34  C   UNL     1      -9.845  18.155  68.437  1.00  0.00    -0.380 A  
ENDBRANCH  28  29
ENDBRANCH  27  28
ENDBRANCH  26  27
ENDBRANCH  25  26
ENDBRANCH  24  25
ENDBRANCH  23  24
ENDBRANCH  22  23
ENDBRANCH  21  22
ENDBRANCH  20  21
ENDBRANCH  19  20
ENDBRANCH  18  19
ENDBRANCH  16  18
ENDBRANCH  15  16
ENDBRANCH  12  15
ENDBRANCH  10  12
ENDBRANCH   2   4
TORSDOF 16
ENDMDL
MODEL       15
REMARK 921   NORMALIZED FREE ENERGY PREDICTED BY IDOCK:   -5.93 KCAL/MOL
REMARK 922        TOTAL FREE ENERGY PREDICTED BY IDOCK:  -13.83 KCAL/MOL
REMARK 923 INTER-LIGAND FREE ENERGY PREDICTED BY IDOCK:  -11.20 KCAL/MOL
REMARK 924 INTRA-LIGAND FREE ENERGY PREDICTED BY IDOCK:   -2.63 KCAL/MOL
REMARK 927      BINDING AFFINITY PREDICTED BY RF-SCORE:    0.00 PKD
ROOT
HETATM    1  O   UNL     1     -11.103   5.316  66.015  1.00  0.00    -0.762 OA 
HETATM    2  C   UNL     1     -10.906   6.486  66.811  1.00  0.00    -0.275 C  
HETATM    3  H   UNL     1     -11.188   5.554  65.099  1.00  0.00     0.000 HD 
ENDROOT
BRANCH   2   4
HETATM    4  C   UNL     1     -10.771   6.110  68.263  1.00  0.00    -0.361 A  
HETATM    5  C   UNL     1      -9.765   5.260  68.736  1.00  0.00    -0.146 A  
HETATM    6  O   UNL     1      -8.872   4.660  67.891  1.00  0.00    -0.103 OA 
HETATM    7  C   UNL     1      -9.642   4.961  70.088  1.00  0.00    -0.263 A  
HETATM    8  C   UNL     1     -10.550   5.494  70.999  1.00  0.00    -0.300 A  
HETATM    9  H   UNL     1      -8.189   4.083  68.211  1.00  0.00     0.000 HD 
HETATM   10  C   UNL     1     -11.578   6.348  70.568  1.00  0.00    -0.424 A  
HETATM   11  C   UNL     1     -11.661   6.666  69.201  1.00  0.00    -0.079 A  
BRANCH  10  12
HETATM   12  C   UNL     1     -12.605   6.903  71.537  1.00  0.00    -0.367 C  
HETATM   13  O   UNL     1     -13.007   5.886  72.467  1.00  0.00    -0.427 OA 
HETATM   14  H   UNL     1     -13.650   6.234  73.075  1.00  0.00     0.000 HD 
BRANCH  12  15
HETATM   15  C   UNL     1     -12.067   8.118  72.324  1.00  0.00    -0.364 C  
BRANCH  15  16
HETATM   16  N   UNL     1     -13.154   9.046  72.679  1.00  0.00    -0.550 NA 
HETATM   17  H   UNL     1     -13.148   9.279  73.672  1.00  0.00     0.000 HD 
BRANCH  16  18
HETATM   18  C   UNL     1     -13.090  10.237  71.838  1.00  0.00    -0.463 C  
BRANCH  18  19
HETATM   19  C   UNL     1     -11.712  10.351  71.198  1.00  0.00    -0.387 C  
BRANCH  19  20
HETATM   20  C   UNL     1     -11.846  10.677  69.712  1.00  0.00    -0.377 C  
BRANCH  20  21
HETATM   21  C   UNL     1     -10.669  10.113  68.930  1.00  0.00    -0.249 C  
BRANCH  21  22
HETATM   22  C   UNL     1     -10.814  10.379  67.437  1.00  0.00    -0.344 C  
BRANCH  22  23
HETATM   23  C   UNL     1      -9.648  11.216  66.933  1.00  0.00    -0.186 C  
BRANCH  23  24
HETATM   24  O   UNL     1     -10.035  12.585  66.957  1.00  0.00    -0.210 OA 
BRANCH  24  25
HETATM   25  C   UNL     1     -11.321  12.773  66.373  1.00  0.00    -0.323 C  
BRANCH  25  26
HETATM   26  C   UNL     1     -12.159  13.643  67.301  1.00  0.00    -0.385 C  
BRANCH  26  27
HETATM   27  C   UNL     1     -11.370  14.028  68.553  1.00  0.00    -0.308 C  
BRANCH  27  28
HETATM   28  C   UNL     1     -11.891  15.319  69.182  1.00  0.00    -0.345 C  
BRANCH  28  29
HETATM   29  C   UNL     1     -12.175  15.098  70.648  1.00  0.00    -0.401 A  
HETATM   30  C   UNL     1     -12.973  14.025  71.061  1.00  0.00    -0.378 A  
HETATM   31  C   UNL     1     -13.300  13.869  72.408  1.00  0.00    -0.629 A  
HETATM   32  C   UNL     1     -12.837  14.784  73.351  1.00  0.00    -0.597 A  
HETATM   33  C   UNL     1     -12.038  15.854  72.949  1.00  0.00    -0.612 A  
HETATM   34  C   UNL     1     -11.708  16.013  71.603  1.00  0.00    -0.583 A  
ENDBRANCH  28  29
ENDBRANCH  27  28
ENDBRANCH  26  27
ENDBRANCH  25  26
ENDBRANCH  24  25
ENDBRANCH  23  24
ENDBRANCH  22  23
ENDBRANCH  21  22
ENDBRANCH  20  21
ENDBRANCH  19  20
ENDBRANCH  18  19
ENDBRANCH  16  18
ENDBRANCH  15  16
ENDBRANCH  12  15
ENDBRANCH  10  12
ENDBRANCH   2   4
TORSDOF 16
ENDMDL
MODEL       16
REMARK 921   NORMALIZED FREE ENERGY PREDICTED BY IDOCK:   -5.93 KCAL/MOL
REMARK 922        TOTAL FREE ENERGY PREDICTED BY IDOCK:  -13.82 KCAL/MOL
REMARK 923 INTER-LIGAND FREE ENERGY PREDICTED BY IDOCK:  -11.14 KCAL/MOL
REMARK 924 INTRA-LIGAND FREE ENERGY PREDICTED BY IDOCK:   -2.67 KCAL/MOL
REMARK 927      BINDING AFFINITY PREDICTED BY RF-SCORE:    0.00 PKD
ROOT
HETATM    1  O   UNL     1     -11.839  16.530  63.686  1.00  0.00    -1.303 OA 
HETATM    2  C   UNL     1     -10.935  16.114  64.711  1.00  0.00    -0.313 C  
HETATM    3  H   UNL     1     -11.533  17.336  63.286  1.00  0.00     0.000 HD 
ENDROOT
BRANCH   2   4
HETATM    4  C   UNL     1     -11.420  14.836  65.345  1.00  0.00    -0.341 A  
HETATM    5  C   UNL     1     -12.010  13.802  64.610  1.00  0.00    -0.416 A  
HETATM    6  O   UNL     1     -12.245  13.914  63.268  1.00  0.00    -1.061 OA 
HETATM    7  C   UNL     1     -12.414  12.619  65.218  1.00  0.00    -0.483 A  
HETATM    8  C   UNL     1     -12.255  12.457  66.592  1.00  0.00     0.081 A  
HETATM    9  H   UNL     1     -12.646  13.212  62.769  1.00  0.00     0.000 HD 
HETATM   10  C   UNL     1     -11.671  13.471  67.368  1.00  0.00    -0.419 A  
HETATM   11  C   UNL     1     -11.237  14.645  66.727  1.00  0.00    -0.344 A  
BRANCH  10  12
HETATM   12  C   UNL     1     -11.529  13.335  68.872  1.00  0.00    -0.298 C  
HETATM   13  O   UNL     1     -10.169  13.025  69.214  1.00  0.00    -0.401 OA 
HETATM   14  H   UNL     1     -10.080  12.940  70.157  1.00  0.00     0.000 HD 
BRANCH  12  15
HETATM   15  C   UNL     1     -11.952  14.620  69.617  1.00  0.00    -0.323 C  
BRANCH  15  16
HETATM   16  N   UNL     1     -13.144  14.385  70.449  1.00  0.00    -0.470 NA 
HETATM   17  H   UNL     1     -13.798  13.741  70.006  1.00  0.00     0.000 HD 
BRANCH  16  18
HETATM   18  C   UNL     1     -12.745  13.932  71.778  1.00  0.00    -0.304 C  
BRANCH  18  19
HETATM   19  C   UNL     1     -13.495  12.656  72.141  1.00  0.00    -0.561 C  
BRANCH  19  20
HETATM   20  C   UNL     1     -12.850  11.453  71.457  1.00  0.00    -0.508 C  
BRANCH  20  21
HETATM   21  C   UNL     1     -13.281  10.158  72.130  1.00  0.00    -0.463 C  
BRANCH  21  22
HETATM   22  C   UNL     1     -13.534   9.056  71.108  1.00  0.00    -0.150 C  
BRANCH  22  23
HETATM   23  C   UNL     1     -13.297   7.690  71.733  1.00  0.00    -0.315 C  
BRANCH  23  24
HETATM   24  O   UNL     1     -12.485   6.927  70.850  1.00  0.00    -0.378 OA 
BRANCH  24  25
HETATM   25  C   UNL     1     -11.496   6.186  71.561  1.00  0.00    -0.264 C  
BRANCH  25  26
HETATM   26  C   UNL     1     -10.900   7.077  72.643  1.00  0.00    -0.303 C  
BRANCH  26  27
HETATM   27  C   UNL     1      -9.559   7.662  72.195  1.00  0.00    -0.207 C  
BRANCH  27  28
HETATM   28  C   UNL     1      -9.716   9.063  71.607  1.00  0.00    -0.347 C  
BRANCH  28  29
HETATM   29  C   UNL     1      -9.689   8.992  70.098  1.00  0.00    -0.213 A  
HETATM   30  C   UNL     1     -10.688   9.615  69.342  1.00  0.00    -0.248 A  
HETATM   31  C   UNL     1     -10.706   9.481  67.953  1.00  0.00    -0.285 A  
HETATM   32  C   UNL     1      -9.728   8.723  67.312  1.00  0.00    -0.238 A  
HETATM   33  C   UNL     1      -8.727   8.102  68.057  1.00  0.00    -0.128 A  
HETATM   34  C   UNL     1      -8.706   8.235  69.446  1.00  0.00    -0.142 A  
ENDBRANCH  28  29
ENDBRANCH  27  28
ENDBRANCH  26  27
ENDBRANCH  25  26
ENDBRANCH  24  25
ENDBRANCH  23  24
ENDBRANCH  22  23
ENDBRANCH  21  22
ENDBRANCH  20  21
ENDBRANCH  19  20
ENDBRANCH  18  19
ENDBRANCH  16  18
ENDBRANCH  15  16
ENDBRANCH  12  15
ENDBRANCH  10  12
ENDBRANCH   2   4
TORSDOF 16
ENDMDL
MODEL       17
REMARK 921   NORMALIZED FREE ENERGY PREDICTED BY IDOCK:   -5.88 KCAL/MOL
REMARK 922        TOTAL FREE ENERGY PREDICTED BY IDOCK:  -13.72 KCAL/MOL
REMARK 923 INTER-LIGAND FREE ENERGY PREDICTED BY IDOCK:  -12.29 KCAL/MOL
REMARK 924 INTRA-LIGAND FREE ENERGY PREDICTED BY IDOCK:   -1.43 KCAL/MOL
REMARK 927      BINDING AFFINITY PREDICTED BY RF-SCORE:    0.00 PKD
ROOT
HETATM    1  O   UNL     1      -8.436  16.206  66.832  1.00  0.00    -0.188 OA 
HETATM    2  C   UNL     1      -9.494  16.602  65.957  1.00  0.00    -0.251 C  
HETATM    3  H   UNL     1      -7.875  16.948  67.025  1.00  0.00     0.000 HD 
ENDROOT
BRANCH   2   4
HETATM    4  C   UNL     1     -10.384  15.426  65.650  1.00  0.00    -0.395 A  
HETATM    5  C   UNL     1     -11.342  15.447  64.631  1.00  0.00    -0.355 A  
HETATM    6  O   UNL     1     -11.577  16.568  63.885  1.00  0.00    -1.598 OA 
HETATM    7  C   UNL     1     -12.124  14.332  64.346  1.00  0.00    -0.490 A  
HETATM    8  C   UNL     1     -11.975  13.172  65.102  1.00  0.00    -0.431 A  
HETATM    9  H   UNL     1     -12.228  16.583  63.193  1.00  0.00     0.000 HD 
HETATM   10  C   UNL     1     -11.028  13.109  66.136  1.00  0.00    -0.299 A  
HETATM   11  C   UNL     1     -10.223  14.236  66.383  1.00  0.00    -0.295 A  
BRANCH  10  12
HETATM   12  C   UNL     1     -10.880  11.871  67.001  1.00  0.00    -0.259 C  
HETATM   13  O   UNL     1     -12.156  11.489  67.538  1.00  0.00    -0.614 OA 
HETATM   14  H   UNL     1     -12.064  10.713  68.080  1.00  0.00     0.000 HD 
BRANCH  12  15
HETATM   15  C   UNL     1     -10.290  10.679  66.217  1.00  0.00    -0.234 C  
BRANCH  15  16
HETATM   16  N   UNL     1      -9.798   9.633  67.129  1.00  0.00    -0.176 NA 
HETATM   17  H   UNL     1      -9.969   9.868  68.107  1.00  0.00     0.000 HD 
BRANCH  16  18
HETATM   18  C   UNL     1     -10.376   8.342  66.769  1.00  0.00    -0.287 C  
BRANCH  18  19
HETATM   19  C   UNL     1      -9.758   7.239  67.618  1.00  0.00    -0.173 C  
BRANCH  19  20
HETATM   20  C   UNL     1     -10.854   6.361  68.219  1.00  0.00    -0.384 C  
BRANCH  20  21
HETATM   21  C   UNL     1     -10.271   5.404  69.249  1.00  0.00    -0.315 C  
BRANCH  21  22
HETATM   22  C   UNL     1     -10.713   5.769  70.661  1.00  0.00    -0.351 C  
BRANCH  22  23
HETATM   23  C   UNL     1     -11.893   6.728  70.614  1.00  0.00    -0.387 C  
BRANCH  23  24
HETATM   24  O   UNL     1     -12.445   6.825  71.921  1.00  0.00    -0.346 OA 
BRANCH  24  25
HETATM   25  C   UNL     1     -12.773   8.174  72.249  1.00  0.00    -0.255 C  
BRANCH  25  26
HETATM   26  C   UNL     1     -12.332   9.078  71.105  1.00  0.00    -0.306 C  
BRANCH  26  27
HETATM   27  C   UNL     1     -12.940  10.475  71.244  1.00  0.00    -0.532 C  
BRANCH  27  28
HETATM   28  C   UNL     1     -11.990  11.563  70.746  1.00  0.00    -0.317 C  
BRANCH  28  29
HETATM   29  C   UNL     1     -12.592  12.925  70.998  1.00  0.00    -0.376 A  
HETATM   30  C   UNL     1     -12.228  14.018  70.204  1.00  0.00    -0.425 A  
HETATM   31  C   UNL     1     -12.723  15.291  70.489  1.00  0.00    -0.440 A  
HETATM   32  C   UNL     1     -13.582  15.481  71.569  1.00  0.00    -0.571 A  
HETATM   33  C   UNL     1     -13.953  14.397  72.364  1.00  0.00    -0.585 A  
HETATM   34  C   UNL     1     -13.460  13.123  72.081  1.00  0.00    -0.653 A  
ENDBRANCH  28  29
ENDBRANCH  27  28
ENDBRANCH  26  27
ENDBRANCH  25  26
ENDBRANCH  24  25
ENDBRANCH  23  24
ENDBRANCH  22  23
ENDBRANCH  21  22
ENDBRANCH  20  21
ENDBRANCH  19  20
ENDBRANCH  18  19
ENDBRANCH  16  18
ENDBRANCH  15  16
ENDBRANCH  12  15
ENDBRANCH  10  12
ENDBRANCH   2   4
TORSDOF 16
ENDMDL
MODEL       18
REMARK 921   NORMALIZED FREE ENERGY PREDICTED BY IDOCK:   -5.87 KCAL/MOL
REMARK 922        TOTAL FREE ENERGY PREDICTED BY IDOCK:  -13.72 KCAL/MOL
REMARK 923 INTER-LIGAND FREE ENERGY PREDICTED BY IDOCK:  -11.00 KCAL/MOL
REMARK 924 INTRA-LIGAND FREE ENERGY PREDICTED BY IDOCK:   -2.71 KCAL/MOL
REMARK 927      BINDING AFFINITY PREDICTED BY RF-SCORE:    0.00 PKD
ROOT
HETATM    1  O   UNL     1      -8.856  11.690  62.710  1.00  0.00    -0.623 OA 
HETATM    2  C   UNL     1      -9.179  11.025  63.931  1.00  0.00    -0.166 C  
HETATM    3  H   UNL     1      -8.188  11.205  62.238  1.00  0.00     0.000 HD 
ENDROOT
BRANCH   2   4
HETATM    4  C   UNL     1     -10.236  11.794  64.679  1.00  0.00    -0.326 A  
HETATM    5  C   UNL     1     -11.541  11.955  64.197  1.00  0.00    -0.351 A  
HETATM    6  O   UNL     1     -11.921  11.473  62.975  1.00  0.00    -0.917 OA 
HETATM    7  C   UNL     1     -12.506  12.639  64.927  1.00  0.00    -0.564 A  
HETATM    8  C   UNL     1     -12.173  13.202  66.156  1.00  0.00    -0.451 A  
HETATM    9  H   UNL     1     -12.806  11.582  62.647  1.00  0.00     0.000 HD 
HETATM   10  C   UNL     1     -10.875  13.069  66.675  1.00  0.00    -0.291 A  
HETATM   11  C   UNL     1      -9.925  12.342  65.937  1.00  0.00    -0.271 A  
BRANCH  10  12
HETATM   12  C   UNL     1     -10.479  13.713  67.991  1.00  0.00    -0.248 C  
HETATM   13  O   UNL     1      -9.393  12.987  68.589  1.00  0.00    -0.383 OA 
HETATM   14  H   UNL     1      -9.144  13.391  69.413  1.00  0.00     0.000 HD 
BRANCH  12  15
HETATM   15  C   UNL     1     -10.058  15.188  67.815  1.00  0.00    -0.230 C  
BRANCH  15  16
HETATM   16  N   UNL     1     -10.276  15.955  69.052  1.00  0.00    -0.214 NA 
HETATM   17  H   UNL     1     -10.073  16.947  68.927  1.00  0.00     0.000 HD 
BRANCH  16  18
HETATM   18  C   UNL     1     -11.631  15.733  69.547  1.00  0.00    -0.363 C  
BRANCH  18  19
HETATM   19  C   UNL     1     -11.692  16.010  71.044  1.00  0.00    -0.458 C  
BRANCH  19  20
HETATM   20  C   UNL     1     -13.076  15.665  71.588  1.00  0.00    -0.554 C  
BRANCH  20  21
HETATM   21  C   UNL     1     -12.970  14.684  72.746  1.00  0.00    -0.564 C  
BRANCH  21  22
HETATM   22  C   UNL     1     -13.723  13.392  72.451  1.00  0.00    -0.698 C  
BRANCH  22  23
HETATM   23  C   UNL     1     -12.828  12.419  71.700  1.00  0.00    -0.270 C  
BRANCH  23  24
HETATM   24  O   UNL     1     -13.094  11.105  72.175  1.00  0.00    -0.463 OA 
BRANCH  24  25
HETATM   25  C   UNL     1     -13.050  10.150  71.118  1.00  0.00    -0.392 C  
BRANCH  25  26
HETATM   26  C   UNL     1     -12.171   8.982  71.548  1.00  0.00    -0.403 C  
BRANCH  26  27
HETATM   27  C   UNL     1     -10.747   9.140  71.011  1.00  0.00    -0.363 C  
BRANCH  27  28
HETATM   28  C   UNL     1     -10.687  10.102  69.827  1.00  0.00    -0.317 C  
BRANCH  28  29
HETATM   29  C   UNL     1      -9.965   9.450  68.671  1.00  0.00    -0.187 A  
HETATM   30  C   UNL     1      -8.567   9.390  68.652  1.00  0.00    -0.123 A  
HETATM   31  C   UNL     1      -7.900   8.861  67.548  1.00  0.00    -0.101 A  
HETATM   32  C   UNL     1      -8.624   8.391  66.454  1.00  0.00    -0.139 A  
HETATM   33  C   UNL     1     -10.017   8.443  66.465  1.00  0.00    -0.335 A  
HETATM   34  C   UNL     1     -10.687   8.971  67.569  1.00  0.00    -0.239 A  
ENDBRANCH  28  29
ENDBRANCH  27  28
ENDBRANCH  26  27
ENDBRANCH  25  26
ENDBRANCH  24  25
ENDBRANCH  23  24
ENDBRANCH  22  23
ENDBRANCH  21  22
ENDBRANCH  20  21
ENDBRANCH  19  20
ENDBRANCH  18  19
ENDBRANCH  16  18
ENDBRANCH  15  16
ENDBRANCH  12  15
ENDBRANCH  10  12
ENDBRANCH   2   4
TORSDOF 16
ENDMDL
MODEL       19
REMARK 921   NORMALIZED FREE ENERGY PREDICTED BY IDOCK:   -5.87 KCAL/MOL
REMARK 922        TOTAL FREE ENERGY PREDICTED BY IDOCK:  -13.70 KCAL/MOL
REMARK 923 INTER-LIGAND FREE ENERGY PREDICTED BY IDOCK:  -11.29 KCAL/MOL
REMARK 924 INTRA-LIGAND FREE ENERGY PREDICTED BY IDOCK:   -2.41 KCAL/MOL
REMARK 927      BINDING AFFINITY PREDICTED BY RF-SCORE:    0.00 PKD
ROOT
HETATM    1  O   UNL     1     -10.865  10.990  62.936  1.00  0.00    -0.797 OA 
HETATM    2  C   UNL     1     -10.204  12.173  63.387  1.00  0.00    -0.388 C  
HETATM    3  H   UNL     1     -10.417  10.633  62.177  1.00  0.00     0.000 HD 
ENDROOT
BRANCH   2   4
HETATM    4  C   UNL     1     -10.913  12.740  64.589  1.00  0.00    -0.355 A  
HETATM    5  C   UNL     1     -12.010  13.603  64.485  1.00  0.00    -0.418 A  
HETATM    6  O   UNL     1     -12.469  14.041  63.274  1.00  0.00    -1.139 OA 
HETATM    7  C   UNL     1     -12.667  14.080  65.613  1.00  0.00    -0.515 A  
HETATM    8  C   UNL     1     -12.219  13.718  66.880  1.00  0.00    -0.408 A  
HETATM    9  H   UNL     1     -13.214  14.627  63.203  1.00  0.00     0.000 HD 
HETATM   10  C   UNL     1     -11.120  12.857  67.030  1.00  0.00    -0.309 A  
HETATM   11  C   UNL     1     -10.492  12.358  65.876  1.00  0.00    -0.284 A  
BRANCH  10  12
HETATM   12  C   UNL     1     -10.587  12.486  68.401  1.00  0.00    -0.242 C  
HETATM   13  O   UNL     1     -10.079  13.652  69.067  1.00  0.00    -0.421 OA 
HETATM   14  H   UNL     1      -9.745  13.420  69.926  1.00  0.00     0.000 HD 
BRANCH  12  15
HETATM   15  C   UNL     1     -11.667  11.833  69.290  1.00  0.00    -0.335 C  
BRANCH  15  16
HETATM   16  N   UNL     1     -12.018  12.702  70.426  1.00  0.00    -0.522 NA 
HETATM   17  H   UNL     1     -12.425  13.585  70.119  1.00  0.00     0.000 HD 
BRANCH  16  18
HETATM   18  C   UNL     1     -12.895  11.989  71.350  1.00  0.00    -0.288 C  
BRANCH  18  19
HETATM   19  C   UNL     1     -13.010  10.527  70.937  1.00  0.00    -0.455 C  
BRANCH  19  20
HETATM   20  C   UNL     1     -13.313   9.657  72.155  1.00  0.00    -0.545 C  
BRANCH  20  21
HETATM   21  C   UNL     1     -12.351   8.481  72.228  1.00  0.00    -0.450 C  
BRANCH  21  22
HETATM   22  C   UNL     1     -10.932   8.898  71.859  1.00  0.00    -0.439 C  
BRANCH  22  23
HETATM   23  C   UNL     1      -9.925   8.200  72.760  1.00  0.00    -0.291 C  
BRANCH  23  24
HETATM   24  O   UNL     1     -10.509   6.993  73.235  1.00  0.00    -0.264 OA 
BRANCH  24  25
HETATM   25  C   UNL     1      -9.758   5.853  72.821  1.00  0.00    -0.156 C  
BRANCH  25  26
HETATM   26  C   UNL     1     -10.554   5.100  71.762  1.00  0.00    -0.238 C  
BRANCH  26  27
HETATM   27  C   UNL     1     -10.044   5.427  70.358  1.00  0.00    -0.314 C  
BRANCH  27  28
HETATM   28  C   UNL     1     -11.113   6.112  69.508  1.00  0.00    -0.490 C  
BRANCH  28  29
HETATM   29  C   UNL     1     -10.463   6.851  68.362  1.00  0.00    -0.235 A  
HETATM   30  C   UNL     1     -10.568   8.243  68.267  1.00  0.00    -0.157 A  
HETATM   31  C   UNL     1     -10.037   8.915  67.166  1.00  0.00    -0.316 A  
HETATM   32  C   UNL     1      -9.399   8.202  66.153  1.00  0.00    -0.232 A  
HETATM   33  C   UNL     1      -9.286   6.816  66.241  1.00  0.00    -0.141 A  
HETATM   34  C   UNL     1      -9.816   6.141  67.341  1.00  0.00    -0.151 A  
ENDBRANCH  28  29
ENDBRANCH  27  28
ENDBRANCH  26  27
ENDBRANCH  25  26
ENDBRANCH  24  25
ENDBRANCH  23  24
ENDBRANCH  22  23
ENDBRANCH  21  22
ENDBRANCH  20  21
ENDBRANCH  19  20
ENDBRANCH  18  19
ENDBRANCH  16  18
ENDBRANCH  15  16
ENDBRANCH  12  15
ENDBRANCH  10  12
ENDBRANCH   2   4
TORSDOF 16
ENDMDL
MODEL       20
REMARK 921   NORMALIZED FREE ENERGY PREDICTED BY IDOCK:   -5.85 KCAL/MOL
REMARK 922        TOTAL FREE ENERGY PREDICTED BY IDOCK:  -13.67 KCAL/MOL
REMARK 923 INTER-LIGAND FREE ENERGY PREDICTED BY IDOCK:  -11.37 KCAL/MOL
REMARK 924 INTRA-LIGAND FREE ENERGY PREDICTED BY IDOCK:   -2.30 KCAL/MOL
REMARK 927      BINDING AFFINITY PREDICTED BY RF-SCORE:    0.00 PKD
ROOT
HETATM    1  O   UNL     1     -11.535  16.590  63.810  1.00  0.00    -1.615 OA 
HETATM    2  C   UNL     1     -10.591  16.313  64.846  1.00  0.00    -0.133 C  
HETATM    3  H   UNL     1     -11.226  17.307  63.268  1.00  0.00     0.000 HD 
ENDROOT
BRANCH   2   4
HETATM    4  C   UNL     1     -11.080  15.177  65.706  1.00  0.00    -0.330 A  
HETATM    5  C   UNL     1     -11.620  14.001  65.173  1.00  0.00    -0.342 A  
HETATM    6  O   UNL     1     -11.798  13.835  63.827  1.00  0.00    -0.641 OA 
HETATM    7  C   UNL     1     -12.028  12.954  65.991  1.00  0.00    -0.505 A  
HETATM    8  C   UNL     1     -11.926  13.076  67.374  1.00  0.00    -0.372 A  
HETATM    9  H   UNL     1     -12.164  13.037  63.465  1.00  0.00     0.000 HD 
HETATM   10  C   UNL     1     -11.394  14.240  67.951  1.00  0.00    -0.320 A  
HETATM   11  C   UNL     1     -10.954  15.272  67.104  1.00  0.00    -0.331 A  
BRANCH  10  12
HETATM   12  C   UNL     1     -11.315  14.413  69.457  1.00  0.00    -0.276 C  
HETATM   13  O   UNL     1     -10.089  15.068  69.815  1.00  0.00    -0.397 OA 
HETATM   14  H   UNL     1     -10.039  15.177  70.758  1.00  0.00     0.000 HD 
BRANCH  12  15
HETATM   15  C   UNL     1     -12.500  15.230  70.013  1.00  0.00    -0.293 C  
BRANCH  15  16
HETATM   16  N   UNL     1     -13.351  14.407  70.889  1.00  0.00    -0.402 NA 
HETATM   17  H   UNL     1     -14.205  14.108  70.420  1.00  0.00     0.000 HD 
BRANCH  16  18
HETATM   18  C   UNL     1     -12.588  13.277  71.410  1.00  0.00    -0.271 C  
BRANCH  18  19
HETATM   19  C   UNL     1     -13.532  12.234  71.993  1.00  0.00    -0.418 C  
BRANCH  19  20
HETATM   20  C   UNL     1     -13.162  10.843  71.482  1.00  0.00    -0.420 C  
BRANCH  20  21
HETATM   21  C   UNL     1     -12.257  10.943  70.262  1.00  0.00    -0.432 C  
BRANCH  21  22
HETATM   22  C   UNL     1     -10.956  10.177  70.470  1.00  0.00    -0.380 C  
BRANCH  22  23
HETATM   23  C   UNL     1      -9.957  10.527  69.378  1.00  0.00    -0.196 C  
BRANCH  23  24
HETATM   24  O   UNL     1      -9.468   9.318  68.812  1.00  0.00    -0.147 OA 
BRANCH  24  25
HETATM   25  C   UNL     1     -10.008   9.096  67.511  1.00  0.00    -0.205 C  
BRANCH  25  26
HETATM   26  C   UNL     1      -9.578   7.715  67.031  1.00  0.00    -0.228 C  
BRANCH  26  27
HETATM   27  C   UNL     1     -10.672   6.679  67.290  1.00  0.00    -0.427 C  
BRANCH  27  28
HETATM   28  C   UNL     1     -10.206   5.584  68.247  1.00  0.00    -0.237 C  
BRANCH  28  29
HETATM   29  C   UNL     1     -10.676   5.893  69.649  1.00  0.00    -0.415 A  
HETATM   30  C   UNL     1     -10.081   5.266  70.750  1.00  0.00    -0.294 A  
HETATM   31  C   UNL     1     -10.570   5.491  72.037  1.00  0.00    -0.284 A  
HETATM   32  C   UNL     1     -11.656   6.341  72.233  1.00  0.00    -0.355 A  
HETATM   33  C   UNL     1     -12.253   6.973  71.143  1.00  0.00    -0.427 A  
HETATM   34  C   UNL     1     -11.766   6.750  69.855  1.00  0.00    -0.279 A  
ENDBRANCH  28  29
ENDBRANCH  27  28
ENDBRANCH  26  27
ENDBRANCH  25  26
ENDBRANCH  24  25
ENDBRANCH  23  24
ENDBRANCH  22  23
ENDBRANCH  21  22
ENDBRANCH  20  21
ENDBRANCH  19  20
ENDBRANCH  18  19
ENDBRANCH  16  18
ENDBRANCH  15  16
ENDBRANCH  12  15
ENDBRANCH  10  12
ENDBRANCH   2   4
TORSDOF 16
ENDMDL
MODEL       21
REMARK 921   NORMALIZED FREE ENERGY PREDICTED BY IDOCK:   -5.84 KCAL/MOL
REMARK 922        TOTAL FREE ENERGY PREDICTED BY IDOCK:  -13.65 KCAL/MOL
REMARK 923 INTER-LIGAND FREE ENERGY PREDICTED BY IDOCK:  -10.96 KCAL/MOL
REMARK 924 INTRA-LIGAND FREE ENERGY PREDICTED BY IDOCK:   -2.69 KCAL/MOL
REMARK 927      BINDING AFFINITY PREDICTED BY RF-SCORE:    0.00 PKD
ROOT
HETATM    1  O   UNL     1     -13.657  14.118  65.492  1.00  0.00    -0.685 OA 
HETATM    2  C   UNL     1     -12.384  13.900  66.101  1.00  0.00    -0.465 C  
HETATM    3  H   UNL     1     -14.127  14.807  65.949  1.00  0.00     0.000 HD 
ENDROOT
BRANCH   2   4
HETATM    4  C   UNL     1     -11.641  12.809  65.376  1.00  0.00    -0.393 A  
HETATM    5  C   UNL     1     -11.594  12.722  63.980  1.00  0.00    -0.424 A  
HETATM    6  O   UNL     1     -12.281  13.593  63.181  1.00  0.00    -1.003 OA 
HETATM    7  C   UNL     1     -10.868  11.725  63.339  1.00  0.00    -0.460 A  
HETATM    8  C   UNL     1     -10.187  10.772  64.092  1.00  0.00    -0.412 A  
HETATM    9  H   UNL     1     -12.250  13.534  62.233  1.00  0.00     0.000 HD 
HETATM   10  C   UNL     1     -10.211  10.819  65.495  1.00  0.00    -0.330 A  
HETATM   11  C   UNL     1     -10.922  11.857  66.122  1.00  0.00    -0.352 A  
BRANCH  10  12
HETATM   12  C   UNL     1      -9.514   9.765  66.335  1.00  0.00    -0.184 C  
HETATM   13  O   UNL     1      -8.809  10.385  67.421  1.00  0.00    -0.132 OA 
HETATM   14  H   UNL     1      -8.373   9.725  67.948  1.00  0.00     0.000 HD 
BRANCH  12  15
HETATM   15  C   UNL     1     -10.504   8.728  66.908  1.00  0.00    -0.249 C  
BRANCH  15  16
HETATM   16  N   UNL     1     -10.232   7.382  66.376  1.00  0.00    -0.480 NA 
HETATM   17  H   UNL     1      -9.233   7.205  66.276  1.00  0.00     0.000 HD 
BRANCH  16  18
HETATM   18  C   UNL     1     -10.886   6.375  67.204  1.00  0.00    -0.393 C  
BRANCH  18  19
HETATM   19  C   UNL     1     -11.022   6.883  68.634  1.00  0.00    -0.203 C  
BRANCH  19  20
HETATM   20  C   UNL     1     -10.764   5.748  69.623  1.00  0.00    -0.416 C  
BRANCH  20  21
HETATM   21  C   UNL     1      -9.648   4.843  69.123  1.00  0.00    -0.231 C  
BRANCH  21  22
HETATM   22  C   UNL     1      -9.282   3.785  70.157  1.00  0.00    -0.218 C  
BRANCH  22  23
HETATM   23  C   UNL     1      -9.650   4.263  71.554  1.00  0.00    -0.165 C  
BRANCH  23  24
HETATM   24  O   UNL     1      -8.469   4.730  72.194  1.00  0.00    -0.116 OA 
BRANCH  24  25
HETATM   25  C   UNL     1      -8.774   5.613  73.271  1.00  0.00    -0.118 C  
BRANCH  25  26
HETATM   26  C   UNL     1     -10.283   5.814  73.328  1.00  0.00    -0.217 C  
BRANCH  26  27
HETATM   27  C   UNL     1     -10.634   7.298  73.446  1.00  0.00    -0.435 C  
BRANCH  27  28
HETATM   28  C   UNL     1      -9.886   8.146  72.419  1.00  0.00    -0.346 C  
BRANCH  28  29
HETATM   29  C   UNL     1     -10.857   9.038  71.683  1.00  0.00    -0.437 A  
HETATM   30  C   UNL     1     -10.427   9.811  70.600  1.00  0.00    -0.358 A  
HETATM   31  C   UNL     1     -11.306  10.694  69.972  1.00  0.00    -0.400 A  
HETATM   32  C   UNL     1     -12.618  10.813  70.424  1.00  0.00    -0.395 A  
HETATM   33  C   UNL     1     -13.057  10.044  71.501  1.00  0.00    -0.531 A  
HETATM   34  C   UNL     1     -12.181   9.159  72.130  1.00  0.00    -0.408 A  
ENDBRANCH  28  29
ENDBRANCH  27  28
ENDBRANCH  26  27
ENDBRANCH  25  26
ENDBRANCH  24  25
ENDBRANCH  23  24
ENDBRANCH  22  23
ENDBRANCH  21  22
ENDBRANCH  20  21
ENDBRANCH  19  20
ENDBRANCH  18  19
ENDBRANCH  16  18
ENDBRANCH  15  16
ENDBRANCH  12  15
ENDBRANCH  10  12
ENDBRANCH   2   4
TORSDOF 16
ENDMDL
MODEL       22
REMARK 921   NORMALIZED FREE ENERGY PREDICTED BY IDOCK:   -5.82 KCAL/MOL
REMARK 922        TOTAL FREE ENERGY PREDICTED BY IDOCK:  -13.61 KCAL/MOL
REMARK 923 INTER-LIGAND FREE ENERGY PREDICTED BY IDOCK:  -10.80 KCAL/MOL
REMARK 924 INTRA-LIGAND FREE ENERGY PREDICTED BY IDOCK:   -2.81 KCAL/MOL
REMARK 927      BINDING AFFINITY PREDICTED BY RF-SCORE:    0.00 PKD
ROOT
HETATM    1  O   UNL     1     -11.039  13.984  69.943  1.00  0.00    -0.448 OA 
HETATM    2  C   UNL     1     -12.151  14.102  69.054  1.00  0.00    -0.313 C  
HETATM    3  H   UNL     1     -11.334  13.703  70.801  1.00  0.00     0.000 HD 
ENDROOT
BRANCH   2   4
HETATM    4  C   UNL     1     -11.685  14.549  67.693  1.00  0.00    -0.410 A  
HETATM    5  C   UNL     1     -10.968  15.734  67.489  1.00  0.00    -0.293 A  
HETATM    6  O   UNL     1     -10.700  16.600  68.513  1.00  0.00    -0.314 OA 
HETATM    7  C   UNL     1     -10.519  16.102  66.226  1.00  0.00    -0.321 A  
HETATM    8  C   UNL     1     -10.802  15.294  65.128  1.00  0.00    -0.441 A  
HETATM    9  H   UNL     1     -10.214  17.404  68.375  1.00  0.00     0.000 HD 
HETATM   10  C   UNL     1     -11.522  14.099  65.287  1.00  0.00    -0.330 A  
HETATM   11  C   UNL     1     -11.936  13.728  66.579  1.00  0.00    -0.470 A  
BRANCH  10  12
HETATM   12  C   UNL     1     -11.881  13.227  64.099  1.00  0.00    -0.443 C  
HETATM   13  O   UNL     1     -12.522  14.014  63.083  1.00  0.00    -1.137 OA 
HETATM   14  H   UNL     1     -12.746  13.468  62.339  1.00  0.00     0.000 HD 
BRANCH  12  15
HETATM   15  C   UNL     1     -10.644  12.534  63.489  1.00  0.00    -0.355 C  
BRANCH  15  16
HETATM   16  N   UNL     1      -9.778  11.970  64.537  1.00  0.00    -0.457 NA 
HETATM   17  H   UNL     1      -9.861  12.480  65.416  1.00  0.00     0.000 HD 
BRANCH  16  18
HETATM   18  C   UNL     1     -10.055  10.546  64.704  1.00  0.00    -0.338 C  
BRANCH  18  19
HETATM   19  C   UNL     1     -10.345  10.238  66.168  1.00  0.00    -0.253 C  
BRANCH  19  20
HETATM   20  C   UNL     1      -9.465  11.099  67.071  1.00  0.00    -0.193 C  
BRANCH  20  21
HETATM   21  C   UNL     1      -9.855  10.919  68.531  1.00  0.00    -0.188 C  
BRANCH  21  22
HETATM   22  C   UNL     1     -11.338  10.599  68.675  1.00  0.00    -0.345 C  
BRANCH  22  23
HETATM   23  C   UNL     1     -11.693  10.391  70.139  1.00  0.00    -0.312 C  
BRANCH  23  24
HETATM   24  O   UNL     1     -10.576   9.802  70.794  1.00  0.00    -0.304 OA 
BRANCH  24  25
HETATM   25  C   UNL     1     -10.988   8.880  71.799  1.00  0.00    -0.361 C  
BRANCH  25  26
HETATM   26  C   UNL     1     -12.362   8.333  71.430  1.00  0.00    -0.326 C  
BRANCH  26  27
HETATM   27  C   UNL     1     -12.264   6.884  70.950  1.00  0.00    -0.404 C  
BRANCH  27  28
HETATM   28  C   UNL     1     -10.814   6.429  70.797  1.00  0.00    -0.321 C  
BRANCH  28  29
HETATM   29  C   UNL     1     -10.565   5.972  69.379  1.00  0.00    -0.365 A  
HETATM   30  C   UNL     1      -9.941   4.745  69.130  1.00  0.00    -0.233 A  
HETATM   31  C   UNL     1      -9.639   4.361  67.824  1.00  0.00    -0.211 A  
HETATM   32  C   UNL     1      -9.956   5.200  66.758  1.00  0.00    -0.231 A  
HETATM   33  C   UNL     1     -10.581   6.424  66.996  1.00  0.00    -0.396 A  
HETATM   34  C   UNL     1     -10.884   6.810  68.302  1.00  0.00    -0.290 A  
ENDBRANCH  28  29
ENDBRANCH  27  28
ENDBRANCH  26  27
ENDBRANCH  25  26
ENDBRANCH  24  25
ENDBRANCH  23  24
ENDBRANCH  22  23
ENDBRANCH  21  22
ENDBRANCH  20  21
ENDBRANCH  19  20
ENDBRANCH  18  19
ENDBRANCH  16  18
ENDBRANCH  15  16
ENDBRANCH  12  15
ENDBRANCH  10  12
ENDBRANCH   2   4
TORSDOF 16
ENDMDL
MODEL       23
REMARK 921   NORMALIZED FREE ENERGY PREDICTED BY IDOCK:   -5.80 KCAL/MOL
REMARK 922        TOTAL FREE ENERGY PREDICTED BY IDOCK:  -13.58 KCAL/MOL
REMARK 923 INTER-LIGAND FREE ENERGY PREDICTED BY IDOCK:  -10.98 KCAL/MOL
REMARK 924 INTRA-LIGAND FREE ENERGY PREDICTED BY IDOCK:   -2.60 KCAL/MOL
REMARK 927      BINDING AFFINITY PREDICTED BY RF-SCORE:    0.00 PKD
ROOT
HETATM    1  O   UNL     1      -9.266  19.689  68.740  1.00  0.00    -0.348 OA 
HETATM    2  C   UNL     1      -9.550  19.594  67.344  1.00  0.00    -0.343 C  
HETATM    3  H   UNL     1      -9.324  20.594  69.026  1.00  0.00     0.000 HD 
ENDROOT
BRANCH   2   4
HETATM    4  C   UNL     1      -9.457  18.160  66.891  1.00  0.00    -0.286 A  
HETATM    5  C   UNL     1      -8.355  17.345  67.174  1.00  0.00    -0.214 A  
HETATM    6  O   UNL     1      -7.255  17.824  67.831  1.00  0.00    -0.201 OA 
HETATM    7  C   UNL     1      -8.315  16.014  66.775  1.00  0.00    -0.305 A  
HETATM    8  C   UNL     1      -9.378  15.475  66.055  1.00  0.00    -0.379 A  
HETATM    9  H   UNL     1      -6.507  17.271  68.023  1.00  0.00     0.000 HD 
HETATM   10  C   UNL     1     -10.501  16.259  65.745  1.00  0.00    -0.379 A  
HETATM   11  C   UNL     1     -10.537  17.592  66.191  1.00  0.00    -0.211 A  
BRANCH  10  12
HETATM   12  C   UNL     1     -11.651  15.705  64.924  1.00  0.00    -0.156 C  
HETATM   13  O   UNL     1     -11.691  16.344  63.638  1.00  0.00    -1.520 OA 
HETATM   14  H   UNL     1     -12.411  15.998  63.123  1.00  0.00     0.000 HD 
BRANCH  12  15
HETATM   15  C   UNL     1     -11.541  14.179  64.721  1.00  0.00    -0.396 C  
BRANCH  15  16
HETATM   16  N   UNL     1     -12.225  13.755  63.488  1.00  0.00    -1.000 NA 
HETATM   17  H   UNL     1     -11.868  14.243  62.666  1.00  0.00     0.000 HD 
BRANCH  16  18
HETATM   18  C   UNL     1     -12.141  12.305  63.342  1.00  0.00    -0.516 C  
BRANCH  18  19
HETATM   19  C   UNL     1     -11.478  11.694  64.569  1.00  0.00    -0.272 C  
BRANCH  19  20
HETATM   20  C   UNL     1     -10.243  10.895  64.158  1.00  0.00    -0.424 C  
BRANCH  20  21
HETATM   21  C   UNL     1      -9.810   9.961  65.279  1.00  0.00    -0.373 C  
BRANCH  21  22
HETATM   22  C   UNL     1      -8.393  10.271  65.746  1.00  0.00    -0.152 C  
BRANCH  22  23
HETATM   23  C   UNL     1      -8.139   9.649  67.111  1.00  0.00    -0.110 C  
BRANCH  23  24
HETATM   24  O   UNL     1      -9.350   9.062  67.569  1.00  0.00    -0.134 OA 
BRANCH  24  25
HETATM   25  C   UNL     1      -9.602   9.386  68.935  1.00  0.00    -0.155 C  
BRANCH  25  26
HETATM   26  C   UNL     1      -9.784  10.894  69.055  1.00  0.00    -0.181 C  
BRANCH  26  27
HETATM   27  C   UNL     1     -11.211  11.242  69.481  1.00  0.00    -0.337 C  
BRANCH  27  28
HETATM   28  C   UNL     1     -11.780  12.408  68.675  1.00  0.00    -0.372 C  
BRANCH  28  29
HETATM   29  C   UNL     1     -11.720  13.676  69.493  1.00  0.00    -0.380 A  
HETATM   30  C   UNL     1     -10.714  14.620  69.263  1.00  0.00    -0.254 A  
HETATM   31  C   UNL     1     -10.612  15.752  70.072  1.00  0.00    -0.333 A  
HETATM   32  C   UNL     1     -11.513  15.947  71.117  1.00  0.00    -0.471 A  
HETATM   33  C   UNL     1     -12.522  15.013  71.352  1.00  0.00    -0.397 A  
HETATM   34  C   UNL     1     -12.626  13.881  70.544  1.00  0.00    -0.382 A  
ENDBRANCH  28  29
ENDBRANCH  27  28
ENDBRANCH  26  27
ENDBRANCH  25  26
ENDBRANCH  24  25
ENDBRANCH  23  24
ENDBRANCH  22  23
ENDBRANCH  21  22
ENDBRANCH  20  21
ENDBRANCH  19  20
ENDBRANCH  18  19
ENDBRANCH  16  18
ENDBRANCH  15  16
ENDBRANCH  12  15
ENDBRANCH  10  12
ENDBRANCH   2   4
TORSDOF 16
ENDMDL
MODEL       24
REMARK 921   NORMALIZED FREE ENERGY PREDICTED BY IDOCK:   -5.80 KCAL/MOL
REMARK 922        TOTAL FREE ENERGY PREDICTED BY IDOCK:  -13.58 KCAL/MOL
REMARK 923 INTER-LIGAND FREE ENERGY PREDICTED BY IDOCK:  -11.13 KCAL/MOL
REMARK 924 INTRA-LIGAND FREE ENERGY PREDICTED BY IDOCK:   -2.45 KCAL/MOL
REMARK 927      BINDING AFFINITY PREDICTED BY RF-SCORE:    0.00 PKD
ROOT
HETATM    1  O   UNL     1     -11.549  16.606  70.926  1.00  0.00    -0.558 OA 
HETATM    2  C   UNL     1     -12.177  15.722  69.997  1.00  0.00    -0.285 C  
HETATM    3  H   UNL     1     -11.316  17.422  70.498  1.00  0.00     0.000 HD 
ENDROOT
BRANCH   2   4
HETATM    4  C   UNL     1     -12.545  14.429  70.675  1.00  0.00    -0.424 A  
HETATM    5  C   UNL     1     -13.405  14.369  71.778  1.00  0.00    -0.366 A  
HETATM    6  O   UNL     1     -13.917  15.499  72.355  1.00  0.00    -0.521 OA 
HETATM    7  C   UNL     1     -13.756  13.157  72.360  1.00  0.00    -0.640 A  
HETATM    8  C   UNL     1     -13.228  11.970  71.858  1.00  0.00    -0.469 A  
HETATM    9  H   UNL     1     -14.499  15.459  73.104  1.00  0.00     0.000 HD 
HETATM   10  C   UNL     1     -12.360  11.984  70.755  1.00  0.00    -0.403 A  
HETATM   11  C   UNL     1     -12.047  13.218  70.160  1.00  0.00    -0.403 A  
BRANCH  10  12
HETATM   12  C   UNL     1     -11.738  10.707  70.220  1.00  0.00    -0.344 C  
HETATM   13  O   UNL     1     -10.420  10.973  69.717  1.00  0.00    -0.444 OA 
HETATM   14  H   UNL     1     -10.030  10.174  69.382  1.00  0.00     0.000 HD 
BRANCH  12  15
HETATM   15  C   UNL     1     -11.649   9.606  71.298  1.00  0.00    -0.393 C  
BRANCH  15  16
HETATM   16  N   UNL     1     -12.665   8.563  71.079  1.00  0.00    -0.494 NA 
HETATM   17  H   UNL     1     -13.072   8.616  70.145  1.00  0.00     0.000 HD 
BRANCH  16  18
HETATM   18  C   UNL     1     -12.100   7.246  71.355  1.00  0.00    -0.335 C  
BRANCH  18  19
HETATM   19  C   UNL     1     -10.831   7.041  70.538  1.00  0.00    -0.279 C  
BRANCH  19  20
HETATM   20  C   UNL     1     -11.006   5.866  69.579  1.00  0.00    -0.438 C  
BRANCH  20  21
HETATM   21  C   UNL     1     -11.046   6.350  68.137  1.00  0.00    -0.358 C  
BRANCH  21  22
HETATM   22  C   UNL     1      -9.902   7.312  67.841  1.00  0.00    -0.172 C  
BRANCH  22  23
HETATM   23  C   UNL     1     -10.440   8.605  67.247  1.00  0.00    -0.289 C  
BRANCH  23  24
HETATM   24  O   UNL     1      -9.380   9.551  67.197  1.00  0.00    -0.139 OA 
BRANCH  24  25
HETATM   25  C   UNL     1      -8.372   9.157  66.268  1.00  0.00    -0.119 C  
BRANCH  25  26
HETATM   26  C   UNL     1      -8.942   9.250  64.858  1.00  0.00    -0.229 C  
BRANCH  26  27
HETATM   27  C   UNL     1      -8.956  10.698  64.366  1.00  0.00    -0.212 C  
BRANCH  27  28
HETATM   28  C   UNL     1     -10.323  11.100  63.814  1.00  0.00    -0.447 C  
BRANCH  28  29
HETATM   29  C   UNL     1     -10.947  12.151  64.701  1.00  0.00    -0.359 A  
HETATM   30  C   UNL     1     -10.249  12.649  65.807  1.00  0.00    -0.288 A  
HETATM   31  C   UNL     1     -10.858  13.560  66.671  1.00  0.00    -0.283 A  
HETATM   32  C   UNL     1     -12.167  13.976  66.438  1.00  0.00    -0.492 A  
HETATM   33  C   UNL     1     -12.869  13.488  65.337  1.00  0.00    -0.420 A  
HETATM   34  C   UNL     1     -12.262  12.577  64.471  1.00  0.00    -0.528 A  
ENDBRANCH  28  29
ENDBRANCH  27  28
ENDBRANCH  26  27
ENDBRANCH  25  26
ENDBRANCH  24  25
ENDBRANCH  23  24
ENDBRANCH  22  23
ENDBRANCH  21  22
ENDBRANCH  20  21
ENDBRANCH  19  20
ENDBRANCH  18  19
ENDBRANCH  16  18
ENDBRANCH  15  16
ENDBRANCH  12  15
ENDBRANCH  10  12
ENDBRANCH   2   4
TORSDOF 16
ENDMDL
MODEL       25
REMARK 921   NORMALIZED FREE ENERGY PREDICTED BY IDOCK:   -5.80 KCAL/MOL
REMARK 922        TOTAL FREE ENERGY PREDICTED BY IDOCK:  -13.57 KCAL/MOL
REMARK 923 INTER-LIGAND FREE ENERGY PREDICTED BY IDOCK:  -11.68 KCAL/MOL
REMARK 924 INTRA-LIGAND FREE ENERGY PREDICTED BY IDOCK:   -1.90 KCAL/MOL
REMARK 927      BINDING AFFINITY PREDICTED BY RF-SCORE:    0.00 PKD
ROOT
HETATM    1  O   UNL     1     -10.456  10.691  62.915  1.00  0.00    -0.705 OA 
HETATM    2  C   UNL     1     -10.137  12.062  63.156  1.00  0.00    -0.228 C  
HETATM    3  H   UNL     1     -10.089  10.410  62.085  1.00  0.00     0.000 HD 
ENDROOT
BRANCH   2   4
HETATM    4  C   UNL     1     -10.718  12.509  64.472  1.00  0.00    -0.360 A  
HETATM    5  C   UNL     1     -11.829  13.356  64.562  1.00  0.00    -0.398 A  
HETATM    6  O   UNL     1     -12.420  13.888  63.450  1.00  0.00    -1.068 OA 
HETATM    7  C   UNL     1     -12.366  13.721  65.791  1.00  0.00    -0.523 A  
HETATM    8  C   UNL     1     -11.781  13.258  66.967  1.00  0.00    -0.439 A  
HETATM    9  H   UNL     1     -13.174  14.464  63.511  1.00  0.00     0.000 HD 
HETATM   10  C   UNL     1     -10.663  12.410  66.923  1.00  0.00    -0.269 A  
HETATM   11  C   UNL     1     -10.158  12.025  65.669  1.00  0.00    -0.272 A  
BRANCH  10  12
HETATM   12  C   UNL     1      -9.982  11.931  68.191  1.00  0.00    -0.197 C  
HETATM   13  O   UNL     1     -10.555  12.582  69.336  1.00  0.00    -0.437 OA 
HETATM   14  H   UNL     1     -10.129  12.282  70.131  1.00  0.00     0.000 HD 
BRANCH  12  15
HETATM   15  C   UNL     1     -10.097  10.402  68.374  1.00  0.00    -0.163 C  
BRANCH  15  16
HETATM   16  N   UNL     1      -9.912  10.019  69.784  1.00  0.00    -0.237 NA 
HETATM   17  H   UNL     1      -9.891  10.831  70.401  1.00  0.00     0.000 HD 
BRANCH  16  18
HETATM   18  C   UNL     1     -10.936   9.058  70.180  1.00  0.00    -0.233 C  
BRANCH  18  19
HETATM   19  C   UNL     1     -11.699   9.578  71.392  1.00  0.00    -0.465 C  
BRANCH  19  20
HETATM   20  C   UNL     1     -12.903  10.403  70.943  1.00  0.00    -0.482 C  
BRANCH  20  21
HETATM   21  C   UNL     1     -13.248  11.459  71.983  1.00  0.00    -0.432 C  
BRANCH  21  22
HETATM   22  C   UNL     1     -12.980  12.865  71.460  1.00  0.00    -0.388 C  
BRANCH  22  23
HETATM   23  C   UNL     1     -13.324  13.898  72.522  1.00  0.00    -0.554 C  
BRANCH  23  24
HETATM   24  O   UNL     1     -12.668  15.116  72.192  1.00  0.00    -0.307 OA 
BRANCH  24  25
HETATM   25  C   UNL     1     -12.760  15.397  70.797  1.00  0.00    -0.459 C  
BRANCH  25  26
HETATM   26  C   UNL     1     -11.511  16.153  70.365  1.00  0.00    -0.344 C  
BRANCH  26  27
HETATM   27  C   UNL     1     -11.477  16.335  68.846  1.00  0.00    -0.282 C  
BRANCH  27  28
HETATM   28  C   UNL     1     -10.050  16.333  68.302  1.00  0.00    -0.243 C  
BRANCH  28  29
HETATM   29  C   UNL     1      -9.791  17.607  67.533  1.00  0.00    -0.299 A  
HETATM   30  C   UNL     1      -8.496  17.931  67.115  1.00  0.00    -0.242 A  
HETATM   31  C   UNL     1      -8.245  19.145  66.476  1.00  0.00    -0.315 A  
HETATM   32  C   UNL     1      -9.286  20.044  66.253  1.00  0.00    -0.426 A  
HETATM   33  C   UNL     1     -10.581  19.729  66.663  1.00  0.00    -0.578 A  
HETATM   34  C   UNL     1     -10.834  18.515  67.302  1.00  0.00    -0.330 A  
ENDBRANCH  28  29
ENDBRANCH  27  28
ENDBRANCH  26  27
ENDBRANCH  25  26
ENDBRANCH  24  25
ENDBRANCH  23  24
ENDBRANCH  22  23
ENDBRANCH  21  22
ENDBRANCH  20  21
ENDBRANCH  19  20
ENDBRANCH  18  19
ENDBRANCH  16  18
ENDBRANCH  15  16
ENDBRANCH  12  15
ENDBRANCH  10  12
ENDBRANCH   2   4
TORSDOF 16
ENDMDL
MODEL       26
REMARK 921   NORMALIZED FREE ENERGY PREDICTED BY IDOCK:   -5.80 KCAL/MOL
REMARK 922        TOTAL FREE ENERGY PREDICTED BY IDOCK:  -13.56 KCAL/MOL
REMARK 923 INTER-LIGAND FREE ENERGY PREDICTED BY IDOCK:  -11.27 KCAL/MOL
REMARK 924 INTRA-LIGAND FREE ENERGY PREDICTED BY IDOCK:   -2.29 KCAL/MOL
REMARK 927      BINDING AFFINITY PREDICTED BY RF-SCORE:    0.00 PKD
ROOT
HETATM    1  O   UNL     1      -9.053  11.385  63.605  1.00  0.00    -0.418 OA 
HETATM    2  C   UNL     1     -10.009  10.933  64.564  1.00  0.00    -0.317 C  
HETATM    3  H   UNL     1      -8.534  10.653  63.290  1.00  0.00     0.000 HD 
ENDROOT
BRANCH   2   4
HETATM    4  C   UNL     1     -10.832  12.092  65.064  1.00  0.00    -0.344 A  
HETATM    5  C   UNL     1     -11.550  12.936  64.209  1.00  0.00    -0.378 A  
HETATM    6  O   UNL     1     -11.497  12.799  62.850  1.00  0.00    -0.716 OA 
HETATM    7  C   UNL     1     -12.331  13.975  64.702  1.00  0.00    -0.425 A  
HETATM    8  C   UNL     1     -12.388  14.207  66.074  1.00  0.00    -0.470 A  
HETATM    9  H   UNL     1     -11.984  13.372  62.269  1.00  0.00     0.000 HD 
HETATM   10  C   UNL     1     -11.680  13.387  66.967  1.00  0.00    -0.426 A  
HETATM   11  C   UNL     1     -10.926  12.319  66.449  1.00  0.00    -0.326 A  
BRANCH  10  12
HETATM   12  C   UNL     1     -11.692  13.648  68.462  1.00  0.00    -0.357 C  
HETATM   13  O   UNL     1     -10.516  13.093  69.070  1.00  0.00    -0.409 OA 
HETATM   14  H   UNL     1     -10.523  13.257  70.006  1.00  0.00     0.000 HD 
BRANCH  12  15
HETATM   15  C   UNL     1     -11.762  15.155  68.790  1.00  0.00    -0.342 C  
BRANCH  15  16
HETATM   16  N   UNL     1     -12.713  15.419  69.882  1.00  0.00    -0.630 NA 
HETATM   17  H   UNL     1     -13.292  14.605  70.090  1.00  0.00     0.000 HD 
BRANCH  16  18
HETATM   18  C   UNL     1     -12.001  15.898  71.063  1.00  0.00    -0.412 C  
BRANCH  18  19
HETATM   19  C   UNL     1     -12.523  15.194  72.309  1.00  0.00    -0.431 C  
BRANCH  19  20
HETATM   20  C   UNL     1     -13.725  14.321  71.956  1.00  0.00    -0.542 C  
BRANCH  20  21
HETATM   21  C   UNL     1     -13.539  12.909  72.493  1.00  0.00    -0.460 C  
BRANCH  21  22
HETATM   22  C   UNL     1     -12.964  11.981  71.430  1.00  0.00    -0.362 C  
BRANCH  22  23
HETATM   23  C   UNL     1     -13.141  10.528  71.845  1.00  0.00    -0.462 C  
BRANCH  23  24
HETATM   24  O   UNL     1     -11.903   9.854  71.662  1.00  0.00    -0.379 OA 
BRANCH  24  25
HETATM   25  C   UNL     1     -11.494   9.877  70.296  1.00  0.00    -0.281 C  
BRANCH  25  26
HETATM   26  C   UNL     1      -9.982   9.703  70.234  1.00  0.00    -0.326 C  
BRANCH  26  27
HETATM   27  C   UNL     1      -9.504   9.572  68.787  1.00  0.00    -0.147 C  
BRANCH  27  28
HETATM   28  C   UNL     1     -10.616   9.082  67.860  1.00  0.00    -0.256 C  
BRANCH  28  29
HETATM   29  C   UNL     1     -10.178   7.821  67.154  1.00  0.00    -0.365 A  
HETATM   30  C   UNL     1     -10.878   6.625  67.341  1.00  0.00    -0.434 A  
HETATM   31  C   UNL     1     -10.426   5.444  66.752  1.00  0.00    -0.347 A  
HETATM   32  C   UNL     1      -9.269   5.450  65.975  1.00  0.00    -0.166 A  
HETATM   33  C   UNL     1      -8.566   6.638  65.780  1.00  0.00    -0.147 A  
HETATM   34  C   UNL     1      -9.017   7.820  66.368  1.00  0.00    -0.196 A  
ENDBRANCH  28  29
ENDBRANCH  27  28
ENDBRANCH  26  27
ENDBRANCH  25  26
ENDBRANCH  24  25
ENDBRANCH  23  24
ENDBRANCH  22  23
ENDBRANCH  21  22
ENDBRANCH  20  21
ENDBRANCH  19  20
ENDBRANCH  18  19
ENDBRANCH  16  18
ENDBRANCH  15  16
ENDBRANCH  12  15
ENDBRANCH  10  12
ENDBRANCH   2   4
TORSDOF 16
ENDMDL
MODEL       27
REMARK 921   NORMALIZED FREE ENERGY PREDICTED BY IDOCK:   -5.79 KCAL/MOL
REMARK 922        TOTAL FREE ENERGY PREDICTED BY IDOCK:  -13.56 KCAL/MOL
REMARK 923 INTER-LIGAND FREE ENERGY PREDICTED BY IDOCK:  -11.13 KCAL/MOL
REMARK 924 INTRA-LIGAND FREE ENERGY PREDICTED BY IDOCK:   -2.42 KCAL/MOL
REMARK 927      BINDING AFFINITY PREDICTED BY RF-SCORE:    0.00 PKD
ROOT
HETATM    1  O   UNL     1      -9.324  16.614  66.992  1.00  0.00    -0.216 OA 
HETATM    2  C   UNL     1      -8.907  15.686  65.990  1.00  0.00    -0.174 C  
HETATM    3  H   UNL     1      -8.570  16.953  67.460  1.00  0.00     0.000 HD 
ENDROOT
BRANCH   2   4
HETATM    4  C   UNL     1     -10.103  15.149  65.248  1.00  0.00    -0.365 A  
HETATM    5  C   UNL     1     -11.145  15.968  64.797  1.00  0.00    -0.365 A  
HETATM    6  O   UNL     1     -11.175  17.309  65.063  1.00  0.00    -0.502 OA 
HETATM    7  C   UNL     1     -12.218  15.449  64.082  1.00  0.00    -0.075 A  
HETATM    8  C   UNL     1     -12.280  14.082  63.821  1.00  0.00    -0.250 A  
HETATM    9  H   UNL     1     -11.882  17.864  64.758  1.00  0.00     0.000 HD 
HETATM   10  C   UNL     1     -11.258  13.225  64.258  1.00  0.00    -0.417 A  
HETATM   11  C   UNL     1     -10.164  13.776  64.949  1.00  0.00    -0.374 A  
BRANCH  10  12
HETATM   12  C   UNL     1     -11.327  11.727  64.025  1.00  0.00    -0.381 C  
HETATM   13  O   UNL     1     -12.316  11.427  63.028  1.00  0.00    -0.952 OA 
HETATM   14  H   UNL     1     -12.360  10.489  62.881  1.00  0.00     0.000 HD 
BRANCH  12  15
HETATM   15  C   UNL     1      -9.971  11.143  63.575  1.00  0.00    -0.379 C  
BRANCH  15  16
HETATM   16  N   UNL     1      -9.669   9.889  64.286  1.00  0.00    -0.395 NA 
HETATM   17  H   UNL     1      -8.725   9.556  64.088  1.00  0.00     0.000 HD 
BRANCH  16  18
HETATM   18  C   UNL     1      -9.900  10.057  65.717  1.00  0.00    -0.278 C  
BRANCH  18  19
HETATM   19  C   UNL     1      -9.436   8.816  66.470  1.00  0.00    -0.281 C  
BRANCH  19  20
HETATM   20  C   UNL     1     -10.525   8.343  67.429  1.00  0.00    -0.354 C  
BRANCH  20  21
HETATM   21  C   UNL     1     -10.010   7.217  68.314  1.00  0.00    -0.177 C  
BRANCH  21  22
HETATM   22  C   UNL     1     -11.151   6.350  68.833  1.00  0.00    -0.420 C  
BRANCH  22  23
HETATM   23  C   UNL     1     -11.113   6.281  70.352  1.00  0.00    -0.352 C  
BRANCH  23  24
HETATM   24  O   UNL     1     -12.386   6.670  70.851  1.00  0.00    -0.353 OA 
BRANCH  24  25
HETATM   25  C   UNL     1     -12.279   7.774  71.748  1.00  0.00    -0.306 C  
BRANCH  25  26
HETATM   26  C   UNL     1     -13.596   8.540  71.742  1.00  0.00    -0.419 C  
BRANCH  26  27
HETATM   27  C   UNL     1     -13.362  10.031  71.491  1.00  0.00    -0.451 C  
BRANCH  27  28
HETATM   28  C   UNL     1     -11.969  10.303  70.926  1.00  0.00    -0.473 C  
BRANCH  28  29
HETATM   29  C   UNL     1     -11.998  11.541  70.061  1.00  0.00    -0.435 A  
HETATM   30  C   UNL     1     -11.734  11.453  68.690  1.00  0.00    -0.394 A  
HETATM   31  C   UNL     1     -11.682  12.607  67.908  1.00  0.00    -0.412 A  
HETATM   32  C   UNL     1     -11.889  13.856  68.490  1.00  0.00    -0.401 A  
HETATM   33  C   UNL     1     -12.156  13.953  69.855  1.00  0.00    -0.406 A  
HETATM   34  C   UNL     1     -12.210  12.800  70.640  1.00  0.00    -0.374 A  
ENDBRANCH  28  29
ENDBRANCH  27  28
ENDBRANCH  26  27
ENDBRANCH  25  26
ENDBRANCH  24  25
ENDBRANCH  23  24
ENDBRANCH  22  23
ENDBRANCH  21  22
ENDBRANCH  20  21
ENDBRANCH  19  20
ENDBRANCH  18  19
ENDBRANCH  16  18
ENDBRANCH  15  16
ENDBRANCH  12  15
ENDBRANCH  10  12
ENDBRANCH   2   4
TORSDOF 16
ENDMDL
MODEL       28
REMARK 921   NORMALIZED FREE ENERGY PREDICTED BY IDOCK:   -5.79 KCAL/MOL
REMARK 922        TOTAL FREE ENERGY PREDICTED BY IDOCK:  -13.54 KCAL/MOL
REMARK 923 INTER-LIGAND FREE ENERGY PREDICTED BY IDOCK:  -10.70 KCAL/MOL
REMARK 924 INTRA-LIGAND FREE ENERGY PREDICTED BY IDOCK:   -2.84 KCAL/MOL
REMARK 927      BINDING AFFINITY PREDICTED BY RF-SCORE:    0.00 PKD
ROOT
HETATM    1  O   UNL     1      -7.718   8.538  70.237  1.00  0.00    -0.071 OA 
HETATM    2  C   UNL     1      -8.394   8.706  71.484  1.00  0.00    -0.166 C  
HETATM    3  H   UNL     1      -6.841   8.901  70.288  1.00  0.00     0.000 HD 
ENDROOT
BRANCH   2   4
HETATM    4  C   UNL     1      -9.784   8.131  71.404  1.00  0.00    -0.219 A  
HETATM    5  C   UNL     1     -10.031   6.773  71.173  1.00  0.00    -0.181 A  
HETATM    6  O   UNL     1      -9.017   5.886  70.939  1.00  0.00    -0.143 OA 
HETATM    7  C   UNL     1     -11.325   6.266  71.141  1.00  0.00    -0.364 A  
HETATM    8  C   UNL     1     -12.408   7.122  71.318  1.00  0.00    -0.418 A  
HETATM    9  H   UNL     1      -9.184   4.964  70.782  1.00  0.00     0.000 HD 
HETATM   10  C   UNL     1     -12.206   8.492  71.549  1.00  0.00    -0.355 A  
HETATM   11  C   UNL     1     -10.888   8.978  71.612  1.00  0.00    -0.437 A  
BRANCH  10  12
HETATM   12  C   UNL     1     -13.373   9.450  71.699  1.00  0.00    -0.404 C  
HETATM   13  O   UNL     1     -14.014   9.253  72.969  1.00  0.00    -0.978 OA 
HETATM   14  H   UNL     1     -14.745   9.853  73.063  1.00  0.00     0.000 HD 
BRANCH  12  15
HETATM   15  C   UNL     1     -12.935  10.926  71.584  1.00  0.00    -0.464 C  
BRANCH  15  16
HETATM   16  N   UNL     1     -13.636  11.768  72.567  1.00  0.00    -0.415 NA 
HETATM   17  H   UNL     1     -13.330  11.577  73.521  1.00  0.00     0.000 HD 
BRANCH  16  18
HETATM   18  C   UNL     1     -13.486  13.177  72.217  1.00  0.00    -0.568 C  
BRANCH  18  19
HETATM   19  C   UNL     1     -12.451  13.333  71.109  1.00  0.00    -0.397 C  
BRANCH  19  20
HETATM   20  C   UNL     1     -12.568  14.714  70.469  1.00  0.00    -0.409 C  
BRANCH  20  21
HETATM   21  C   UNL     1     -11.304  15.527  70.710  1.00  0.00    -0.384 C  
BRANCH  21  22
HETATM   22  C   UNL     1     -10.423  15.566  69.467  1.00  0.00    -0.263 C  
BRANCH  22  23
HETATM   23  C   UNL     1     -10.724  16.811  68.646  1.00  0.00    -0.352 C  
BRANCH  23  24
HETATM   24  O   UNL     1     -11.021  16.410  67.314  1.00  0.00    -0.249 OA 
BRANCH  24  25
HETATM   25  C   UNL     1     -10.594  15.072  67.065  1.00  0.00    -0.293 C  
BRANCH  25  26
HETATM   26  C   UNL     1     -11.427  14.495  65.928  1.00  0.00    -0.345 C  
BRANCH  26  27
HETATM   27  C   UNL     1     -12.150  13.221  66.370  1.00  0.00    -0.454 C  
BRANCH  27  28
HETATM   28  C   UNL     1     -11.458  12.555  67.558  1.00  0.00    -0.397 C  
BRANCH  28  29
HETATM   29  C   UNL     1     -10.978  11.177  67.167  1.00  0.00    -0.350 A  
HETATM   30  C   UNL     1     -11.027  10.123  68.085  1.00  0.00    -0.313 A  
HETATM   31  C   UNL     1     -10.509   8.872  67.749  1.00  0.00    -0.300 A  
HETATM   32  C   UNL     1      -9.938   8.666  66.495  1.00  0.00    -0.353 A  
HETATM   33  C   UNL     1      -9.889   9.710  65.572  1.00  0.00    -0.352 A  
HETATM   34  C   UNL     1     -10.406  10.962  65.905  1.00  0.00    -0.310 A  
ENDBRANCH  28  29
ENDBRANCH  27  28
ENDBRANCH  26  27
ENDBRANCH  25  26
ENDBRANCH  24  25
ENDBRANCH  23  24
ENDBRANCH  22  23
ENDBRANCH  21  22
ENDBRANCH  20  21
ENDBRANCH  19  20
ENDBRANCH  18  19
ENDBRANCH  16  18
ENDBRANCH  15  16
ENDBRANCH  12  15
ENDBRANCH  10  12
ENDBRANCH   2   4
TORSDOF 16
ENDMDL
MODEL       29
REMARK 921   NORMALIZED FREE ENERGY PREDICTED BY IDOCK:   -5.78 KCAL/MOL
REMARK 922        TOTAL FREE ENERGY PREDICTED BY IDOCK:  -13.54 KCAL/MOL
REMARK 923 INTER-LIGAND FREE ENERGY PREDICTED BY IDOCK:  -10.73 KCAL/MOL
REMARK 924 INTRA-LIGAND FREE ENERGY PREDICTED BY IDOCK:   -2.81 KCAL/MOL
REMARK 927      BINDING AFFINITY PREDICTED BY RF-SCORE:    0.00 PKD
ROOT
HETATM    1  O   UNL     1     -12.344  14.615  63.458  1.00  0.00    -1.059 OA 
HETATM    2  C   UNL     1     -12.334  13.198  63.284  1.00  0.00    -0.283 C  
HETATM    3  H   UNL     1     -12.646  15.042  62.665  1.00  0.00     0.000 HD 
ENDROOT
BRANCH   2   4
HETATM    4  C   UNL     1     -11.854  12.522  64.541  1.00  0.00    -0.448 A  
HETATM    5  C   UNL     1     -12.273  12.912  65.819  1.00  0.00    -0.439 A  
HETATM    6  O   UNL     1     -13.101  13.983  66.009  1.00  0.00    -0.453 OA 
HETATM    7  C   UNL     1     -11.843  12.244  66.959  1.00  0.00    -0.329 A  
HETATM    8  C   UNL     1     -10.956  11.177  66.843  1.00  0.00    -0.333 A  
HETATM    9  H   UNL     1     -13.385  14.249  66.876  1.00  0.00     0.000 HD 
HETATM   10  C   UNL     1     -10.507  10.755  65.582  1.00  0.00    -0.255 A  
HETATM   11  C   UNL     1     -10.983  11.422  64.439  1.00  0.00    -0.371 A  
BRANCH  10  12
HETATM   12  C   UNL     1      -9.506   9.624  65.435  1.00  0.00    -0.278 C  
HETATM   13  O   UNL     1      -9.186   9.425  64.049  1.00  0.00    -0.426 OA 
HETATM   14  H   UNL     1      -8.559   8.717  63.957  1.00  0.00     0.000 HD 
BRANCH  12  15
HETATM   15  C   UNL     1      -8.202   9.894  66.216  1.00  0.00    -0.114 C  
BRANCH  15  16
HETATM   16  N   UNL     1      -7.612  11.188  65.835  1.00  0.00    -0.358 NA 
HETATM   17  H   UNL     1      -8.324  11.875  65.588  1.00  0.00     0.000 HD 
BRANCH  16  18
HETATM   18  C   UNL     1      -6.733  11.670  66.897  1.00  0.00    -0.124 C  
BRANCH  18  19
HETATM   19  C   UNL     1      -7.545  12.413  67.950  1.00  0.00    -0.130 C  
BRANCH  19  20
HETATM   20  C   UNL     1      -8.380  13.511  67.293  1.00  0.00    -0.188 C  
BRANCH  20  21
HETATM   21  C   UNL     1      -9.302  14.166  68.311  1.00  0.00    -0.203 C  
BRANCH  21  22
HETATM   22  C   UNL     1      -9.930  15.439  67.755  1.00  0.00    -0.225 C  
BRANCH  22  23
HETATM   23  C   UNL     1     -11.275  15.697  68.417  1.00  0.00    -0.352 C  
BRANCH  23  24
HETATM   24  O   UNL     1     -11.417  14.799  69.511  1.00  0.00    -0.266 OA 
BRANCH  24  25
HETATM   25  C   UNL     1     -12.201  15.371  70.556  1.00  0.00    -0.394 C  
BRANCH  25  26
HETATM   26  C   UNL     1     -12.468  14.304  71.610  1.00  0.00    -0.419 C  
BRANCH  26  27
HETATM   27  C   UNL     1     -12.426  12.904  70.995  1.00  0.00    -0.374 C  
BRANCH  27  28
HETATM   28  C   UNL     1     -13.244  11.900  71.804  1.00  0.00    -0.426 C  
BRANCH  28  29
HETATM   29  C   UNL     1     -12.712  10.504  71.583  1.00  0.00    -0.550 A  
HETATM   30  C   UNL     1     -11.614  10.290  70.743  1.00  0.00    -0.446 A  
HETATM   31  C   UNL     1     -11.174   8.994  70.476  1.00  0.00    -0.301 A  
HETATM   32  C   UNL     1     -11.829   7.903  71.043  1.00  0.00    -0.285 A  
HETATM   33  C   UNL     1     -12.922   8.106  71.884  1.00  0.00    -0.356 A  
HETATM   34  C   UNL     1     -13.364   9.402  72.153  1.00  0.00    -0.545 A  
ENDBRANCH  28  29
ENDBRANCH  27  28
ENDBRANCH  26  27
ENDBRANCH  25  26
ENDBRANCH  24  25
ENDBRANCH  23  24
ENDBRANCH  22  23
ENDBRANCH  21  22
ENDBRANCH  20  21
ENDBRANCH  19  20
ENDBRANCH  18  19
ENDBRANCH  16  18
ENDBRANCH  15  16
ENDBRANCH  12  15
ENDBRANCH  10  12
ENDBRANCH   2   4
TORSDOF 16
ENDMDL
MODEL       30
REMARK 921   NORMALIZED FREE ENERGY PREDICTED BY IDOCK:   -5.78 KCAL/MOL
REMARK 922        TOTAL FREE ENERGY PREDICTED BY IDOCK:  -13.53 KCAL/MOL
REMARK 923 INTER-LIGAND FREE ENERGY PREDICTED BY IDOCK:  -10.33 KCAL/MOL
REMARK 924 INTRA-LIGAND FREE ENERGY PREDICTED BY IDOCK:   -3.20 KCAL/MOL
REMARK 927      BINDING AFFINITY PREDICTED BY RF-SCORE:    0.00 PKD
ROOT
HETATM    1  O   UNL     1     -11.630   6.523  67.647  1.00  0.00    -0.670 OA 
HETATM    2  C   UNL     1     -10.299   7.003  67.457  1.00  0.00    -0.225 C  
HETATM    3  H   UNL     1     -11.618   5.596  67.858  1.00  0.00     0.000 HD 
ENDROOT
BRANCH   2   4
HETATM    4  C   UNL     1     -10.317   8.471  67.123  1.00  0.00    -0.377 A  
HETATM    5  C   UNL     1     -10.751   9.449  68.027  1.00  0.00    -0.190 A  
HETATM    6  O   UNL     1     -11.250   9.122  69.257  1.00  0.00    -0.440 OA 
HETATM    7  C   UNL     1     -10.722  10.800  67.704  1.00  0.00    -0.305 A  
HETATM    8  C   UNL     1     -10.276  11.202  66.447  1.00  0.00    -0.279 A  
HETATM    9  H   UNL     1     -11.545   9.785  69.870  1.00  0.00     0.000 HD 
HETATM   10  C   UNL     1      -9.836  10.255  65.509  1.00  0.00    -0.347 A  
HETATM   11  C   UNL     1      -9.840   8.896  65.870  1.00  0.00    -0.200 A  
BRANCH  10  12
HETATM   12  C   UNL     1      -9.388  10.666  64.118  1.00  0.00    -0.258 C  
HETATM   13  O   UNL     1      -9.566   9.576  63.200  1.00  0.00    -0.505 OA 
HETATM   14  H   UNL     1      -9.286   9.833  62.329  1.00  0.00     0.000 HD 
BRANCH  12  15
HETATM   15  C   UNL     1     -10.164  11.893  63.595  1.00  0.00    -0.438 C  
BRANCH  15  16
HETATM   16  N   UNL     1     -11.439  11.493  62.977  1.00  0.00    -0.844 NA 
HETATM   17  H   UNL     1     -11.536  10.479  62.923  1.00  0.00     0.000 HD 
BRANCH  16  18
HETATM   18  C   UNL     1     -12.555  12.111  63.686  1.00  0.00    -0.504 C  
BRANCH  18  19
HETATM   19  C   UNL     1     -12.190  13.532  64.098  1.00  0.00    -0.449 C  
BRANCH  19  20
HETATM   20  C   UNL     1     -12.510  13.751  65.575  1.00  0.00    -0.548 C  
BRANCH  20  21
HETATM   21  C   UNL     1     -11.501  14.697  66.209  1.00  0.00    -0.351 C  
BRANCH  21  22
HETATM   22  C   UNL     1     -10.631  15.371  65.155  1.00  0.00    -0.458 C  
BRANCH  22  23
HETATM   23  C   UNL     1      -9.932  16.587  65.744  1.00  0.00    -0.274 C  
BRANCH  23  24
HETATM   24  O   UNL     1     -10.727  17.087  66.812  1.00  0.00    -0.234 OA 
BRANCH  24  25
HETATM   25  C   UNL     1     -10.504  18.480  67.019  1.00  0.00    -0.402 C  
BRANCH  25  26
HETATM   26  C   UNL     1      -9.004  18.746  66.992  1.00  0.00    -0.299 C  
BRANCH  26  27
HETATM   27  C   UNL     1      -8.442  18.862  68.410  1.00  0.00    -0.385 C  
BRANCH  27  28
HETATM   28  C   UNL     1      -7.207  17.984  68.609  1.00  0.00    -0.276 C  
BRANCH  28  29
HETATM   29  C   UNL     1      -7.585  16.528  68.471  1.00  0.00    -0.200 A  
HETATM   30  C   UNL     1      -6.941  15.716  67.531  1.00  0.00    -0.218 A  
HETATM   31  C   UNL     1      -7.346  14.393  67.349  1.00  0.00    -0.167 A  
HETATM   32  C   UNL     1      -8.397  13.874  68.102  1.00  0.00    -0.163 A  
HETATM   33  C   UNL     1      -9.042  14.675  69.044  1.00  0.00    -0.097 A  
HETATM   34  C   UNL     1      -8.638  15.998  69.228  1.00  0.00    -0.224 A  
ENDBRANCH  28  29
ENDBRANCH  27  28
ENDBRANCH  26  27
ENDBRANCH  25  26
ENDBRANCH  24  25
ENDBRANCH  23  24
ENDBRANCH  22  23
ENDBRANCH  21  22
ENDBRANCH  20  21
ENDBRANCH  19  20
ENDBRANCH  18  19
ENDBRANCH  16  18
ENDBRANCH  15  16
ENDBRANCH  12  15
ENDBRANCH  10  12
ENDBRANCH   2   4
TORSDOF 16
ENDMDL
MODEL       31
REMARK 921   NORMALIZED FREE ENERGY PREDICTED BY IDOCK:   -5.77 KCAL/MOL
REMARK 922        TOTAL FREE ENERGY PREDICTED BY IDOCK:  -13.52 KCAL/MOL
REMARK 923 INTER-LIGAND FREE ENERGY PREDICTED BY IDOCK:  -11.34 KCAL/MOL
REMARK 924 INTRA-LIGAND FREE ENERGY PREDICTED BY IDOCK:   -2.18 KCAL/MOL
REMARK 927      BINDING AFFINITY PREDICTED BY RF-SCORE:    0.00 PKD
ROOT
HETATM    1  O   UNL     1     -11.040   5.387  66.032  1.00  0.00    -0.761 OA 
HETATM    2  C   UNL     1     -10.959   6.475  66.953  1.00  0.00    -0.338 C  
HETATM    3  H   UNL     1     -11.245   5.708  65.162  1.00  0.00     0.000 HD 
ENDROOT
BRANCH   2   4
HETATM    4  C   UNL     1     -10.635   5.967  68.334  1.00  0.00    -0.314 A  
HETATM    5  C   UNL     1      -9.591   5.068  68.584  1.00  0.00    -0.148 A  
HETATM    6  O   UNL     1      -8.835   4.542  67.574  1.00  0.00    -0.104 OA 
HETATM    7  C   UNL     1      -9.292   4.645  69.874  1.00  0.00    -0.214 A  
HETATM    8  C   UNL     1     -10.055   5.100  70.946  1.00  0.00    -0.302 A  
HETATM    9  H   UNL     1      -8.127   3.932  67.744  1.00  0.00     0.000 HD 
HETATM   10  C   UNL     1     -11.114   5.998  70.739  1.00  0.00    -0.355 A  
HETATM   11  C   UNL     1     -11.376   6.441  69.431  1.00  0.00    -0.443 A  
BRANCH  10  12
HETATM   12  C   UNL     1     -11.987   6.471  71.887  1.00  0.00    -0.341 C  
HETATM   13  O   UNL     1     -11.769   5.650  73.044  1.00  0.00    -0.516 OA 
HETATM   14  H   UNL     1     -12.316   5.946  73.763  1.00  0.00     0.000 HD 
BRANCH  12  15
HETATM   15  C   UNL     1     -11.714   7.944  72.259  1.00  0.00    -0.355 C  
BRANCH  15  16
HETATM   16  N   UNL     1     -12.956   8.637  72.637  1.00  0.00    -0.605 NA 
HETATM   17  H   UNL     1     -12.997   8.829  73.638  1.00  0.00     0.000 HD 
BRANCH  16  18
HETATM   18  C   UNL     1     -13.115   9.850  71.841  1.00  0.00    -0.459 C  
BRANCH  18  19
HETATM   19  C   UNL     1     -11.831  10.145  71.077  1.00  0.00    -0.475 C  
BRANCH  19  20
HETATM   20  C   UNL     1     -12.094  11.177  69.982  1.00  0.00    -0.437 C  
BRANCH  20  21
HETATM   21  C   UNL     1     -10.938  11.218  68.994  1.00  0.00    -0.288 C  
BRANCH  21  22
HETATM   22  C   UNL     1     -11.045  10.099  67.965  1.00  0.00    -0.302 C  
BRANCH  22  23
HETATM   23  C   UNL     1     -10.054  10.325  66.834  1.00  0.00    -0.221 C  
BRANCH  23  24
HETATM   24  O   UNL     1     -10.765  10.816  65.704  1.00  0.00    -0.183 OA 
BRANCH  24  25
HETATM   25  C   UNL     1      -9.967  10.766  64.524  1.00  0.00    -0.333 C  
BRANCH  25  26
HETATM   26  C   UNL     1     -10.657  11.573  63.431  1.00  0.00    -0.460 C  
BRANCH  26  27
HETATM   27  C   UNL     1     -12.056  12.007  63.870  1.00  0.00    -0.557 C  
BRANCH  27  28
HETATM   28  C   UNL     1     -12.240  13.520  63.780  1.00  0.00    -0.449 C  
BRANCH  28  29
HETATM   29  C   UNL     1     -11.764  14.173  65.057  1.00  0.00    -0.376 A  
HETATM   30  C   UNL     1     -12.281  13.770  66.293  1.00  0.00    -0.489 A  
HETATM   31  C   UNL     1     -11.901  14.428  67.463  1.00  0.00    -0.418 A  
HETATM   32  C   UNL     1     -11.005  15.493  67.406  1.00  0.00    -0.306 A  
HETATM   33  C   UNL     1     -10.481  15.899  66.179  1.00  0.00    -0.336 A  
HETATM   34  C   UNL     1     -10.859  15.242  65.007  1.00  0.00    -0.457 A  
ENDBRANCH  28  29
ENDBRANCH  27  28
ENDBRANCH  26  27
ENDBRANCH  25  26
ENDBRANCH  24  25
ENDBRANCH  23  24
ENDBRANCH  22  23
ENDBRANCH  21  22
ENDBRANCH  20  21
ENDBRANCH  19  20
ENDBRANCH  18  19
ENDBRANCH  16  18
ENDBRANCH  15  16
ENDBRANCH  12  15
ENDBRANCH  10  12
ENDBRANCH   2   4
TORSDOF 16
ENDMDL
MODEL       32
REMARK 921   NORMALIZED FREE ENERGY PREDICTED BY IDOCK:   -5.77 KCAL/MOL
REMARK 922        TOTAL FREE ENERGY PREDICTED BY IDOCK:  -13.51 KCAL/MOL
REMARK 923 INTER-LIGAND FREE ENERGY PREDICTED BY IDOCK:  -10.92 KCAL/MOL
REMARK 924 INTRA-LIGAND FREE ENERGY PREDICTED BY IDOCK:   -2.59 KCAL/MOL
REMARK 927      BINDING AFFINITY PREDICTED BY RF-SCORE:    0.00 PKD
ROOT
HETATM    1  O   UNL     1     -11.475   6.363  67.487  1.00  0.00    -0.686 OA 
HETATM    2  C   UNL     1     -10.159   6.901  67.349  1.00  0.00    -0.183 C  
HETATM    3  H   UNL     1     -11.432   5.434  67.683  1.00  0.00     0.000 HD 
ENDROOT
BRANCH   2   4
HETATM    4  C   UNL     1     -10.228   8.373  67.038  1.00  0.00    -0.377 A  
HETATM    5  C   UNL     1     -10.707   9.319  67.951  1.00  0.00    -0.188 A  
HETATM    6  O   UNL     1     -11.207   8.954  69.171  1.00  0.00    -0.437 OA 
HETATM    7  C   UNL     1     -10.724  10.676  67.650  1.00  0.00    -0.315 A  
HETATM    8  C   UNL     1     -10.279  11.113  66.405  1.00  0.00    -0.279 A  
HETATM    9  H   UNL     1     -11.532   9.596  69.791  1.00  0.00     0.000 HD 
HETATM   10  C   UNL     1      -9.795  10.198  65.457  1.00  0.00    -0.365 A  
HETATM   11  C   UNL     1      -9.753   8.834  65.796  1.00  0.00    -0.122 A  
BRANCH  10  12
HETATM   12  C   UNL     1      -9.348  10.647  64.078  1.00  0.00    -0.266 C  
HETATM   13  O   UNL     1      -9.568   9.599  63.121  1.00  0.00    -0.530 OA 
HETATM   14  H   UNL     1      -9.289   9.880  62.257  1.00  0.00     0.000 HD 
BRANCH  12  15
HETATM   15  C   UNL     1     -10.090  11.917  63.609  1.00  0.00    -0.426 C  
BRANCH  15  16
HETATM   16  N   UNL     1     -11.375  11.579  62.973  1.00  0.00    -0.834 NA 
HETATM   17  H   UNL     1     -11.534  10.572  62.946  1.00  0.00     0.000 HD 
BRANCH  16  18
HETATM   18  C   UNL     1     -12.464  12.286  63.639  1.00  0.00    -0.541 C  
BRANCH  18  19
HETATM   19  C   UNL     1     -11.991  13.658  64.102  1.00  0.00    -0.488 C  
BRANCH  19  20
HETATM   20  C   UNL     1     -12.457  13.921  65.532  1.00  0.00    -0.541 C  
BRANCH  20  21
HETATM   21  C   UNL     1     -11.380  14.649  66.323  1.00  0.00    -0.347 C  
BRANCH  21  22
HETATM   22  C   UNL     1     -11.668  14.614  67.819  1.00  0.00    -0.386 C  
BRANCH  22  23
HETATM   23  C   UNL     1     -10.435  14.157  68.583  1.00  0.00    -0.250 C  
BRANCH  23  24
HETATM   24  O   UNL     1      -9.284  14.464  67.806  1.00  0.00    -0.183 OA 
BRANCH  24  25
HETATM   25  C   UNL     1      -8.086  14.069  68.470  1.00  0.00    -0.139 C  
BRANCH  25  26
HETATM   26  C   UNL     1      -7.310  15.319  68.866  1.00  0.00    -0.146 C  
BRANCH  26  27
HETATM   27  C   UNL     1      -6.941  16.149  67.636  1.00  0.00    -0.175 C  
BRANCH  27  28
HETATM   28  C   UNL     1      -6.868  17.641  67.954  1.00  0.00    -0.192 C  
BRANCH  28  29
HETATM   29  C   UNL     1      -8.199  18.294  67.664  1.00  0.00    -0.254 A  
HETATM   30  C   UNL     1      -8.673  19.329  68.477  1.00  0.00    -0.405 A  
HETATM   31  C   UNL     1      -9.937  19.876  68.255  1.00  0.00    -0.552 A  
HETATM   32  C   UNL     1     -10.737  19.391  67.223  1.00  0.00    -0.603 A  
HETATM   33  C   UNL     1     -10.272  18.362  66.405  1.00  0.00    -0.431 A  
HETATM   34  C   UNL     1      -9.008  17.813  66.624  1.00  0.00    -0.283 A  
ENDBRANCH  28  29
ENDBRANCH  27  28
ENDBRANCH  26  27
ENDBRANCH  25  26
ENDBRANCH  24  25
ENDBRANCH  23  24
ENDBRANCH  22  23
ENDBRANCH  21  22
ENDBRANCH  20  21
ENDBRANCH  19  20
ENDBRANCH  18  19
ENDBRANCH  16  18
ENDBRANCH  15  16
ENDBRANCH  12  15
ENDBRANCH  10  12
ENDBRANCH   2   4
TORSDOF 16
ENDMDL
MODEL       33
REMARK 921   NORMALIZED FREE ENERGY PREDICTED BY IDOCK:   -5.76 KCAL/MOL
REMARK 922        TOTAL FREE ENERGY PREDICTED BY IDOCK:  -13.50 KCAL/MOL
REMARK 923 INTER-LIGAND FREE ENERGY PREDICTED BY IDOCK:  -10.95 KCAL/MOL
REMARK 924 INTRA-LIGAND FREE ENERGY PREDICTED BY IDOCK:   -2.55 KCAL/MOL
REMARK 927      BINDING AFFINITY PREDICTED BY RF-SCORE:    0.00 PKD
ROOT
HETATM    1  O   UNL     1     -11.205   5.582  66.035  1.00  0.00    -0.771 OA 
HETATM    2  C   UNL     1     -10.966   6.617  66.990  1.00  0.00    -0.393 C  
HETATM    3  H   UNL     1     -11.379   5.958  65.180  1.00  0.00     0.000 HD 
ENDROOT
BRANCH   2   4
HETATM    4  C   UNL     1     -10.690   6.022  68.345  1.00  0.00    -0.351 A  
HETATM    5  C   UNL     1      -9.710   5.046  68.559  1.00  0.00    -0.154 A  
HETATM    6  O   UNL     1      -8.980   4.521  67.529  1.00  0.00    -0.108 OA 
HETATM    7  C   UNL     1      -9.452   4.542  69.828  1.00  0.00    -0.247 A  
HETATM    8  C   UNL     1     -10.195   4.993  70.916  1.00  0.00    -0.287 A  
HETATM    9  H   UNL     1      -8.315   3.858  67.673  1.00  0.00     0.000 HD 
HETATM   10  C   UNL     1     -11.190   5.968  70.746  1.00  0.00    -0.340 A  
HETATM   11  C   UNL     1     -11.410   6.490  69.459  1.00  0.00    -0.419 A  
BRANCH  10  12
HETATM   12  C   UNL     1     -12.043   6.441  71.909  1.00  0.00    -0.310 C  
HETATM   13  O   UNL     1     -11.928   5.525  73.010  1.00  0.00    -0.554 OA 
HETATM   14  H   UNL     1     -12.462   5.821  73.739  1.00  0.00     0.000 HD 
BRANCH  12  15
HETATM   15  C   UNL     1     -11.643   7.852  72.389  1.00  0.00    -0.380 C  
BRANCH  15  16
HETATM   16  N   UNL     1     -10.506   7.796  73.323  1.00  0.00    -0.346 NA 
HETATM   17  H   UNL     1     -10.398   6.870  73.736  1.00  0.00     0.000 HD 
BRANCH  16  18
HETATM   18  C   UNL     1      -9.288   8.244  72.657  1.00  0.00    -0.280 C  
BRANCH  18  19
HETATM   19  C   UNL     1      -9.639   9.097  71.444  1.00  0.00    -0.316 C  
BRANCH  19  20
HETATM   20  C   UNL     1      -8.717   8.756  70.276  1.00  0.00    -0.170 C  
BRANCH  20  21
HETATM   21  C   UNL     1      -9.147   9.498  69.019  1.00  0.00    -0.144 C  
BRANCH  21  22
HETATM   22  C   UNL     1     -10.495  10.182  69.209  1.00  0.00    -0.246 C  
BRANCH  22  23
HETATM   23  C   UNL     1     -10.956  10.815  67.905  1.00  0.00    -0.289 C  
BRANCH  23  24
HETATM   24  O   UNL     1     -11.975  11.761  68.200  1.00  0.00    -0.521 OA 
BRANCH  24  25
HETATM   25  C   UNL     1     -11.894  12.899  67.345  1.00  0.00    -0.360 C  
BRANCH  25  26
HETATM   26  C   UNL     1     -10.525  13.546  67.519  1.00  0.00    -0.237 C  
BRANCH  26  27
HETATM   27  C   UNL     1     -10.485  14.414  68.777  1.00  0.00    -0.244 C  
BRANCH  27  28
HETATM   28  C   UNL     1     -11.838  15.060  69.069  1.00  0.00    -0.330 C  
BRANCH  28  29
HETATM   29  C   UNL     1     -12.145  14.965  70.545  1.00  0.00    -0.378 A  
HETATM   30  C   UNL     1     -12.989  13.959  71.029  1.00  0.00    -0.357 A  
HETATM   31  C   UNL     1     -13.336  13.921  72.380  1.00  0.00    -0.629 A  
HETATM   32  C   UNL     1     -12.846  14.888  73.254  1.00  0.00    -0.646 A  
HETATM   33  C   UNL     1     -12.002  15.892  72.782  1.00  0.00    -0.616 A  
HETATM   34  C   UNL     1     -11.653  15.932  71.432  1.00  0.00    -0.529 A  
ENDBRANCH  28  29
ENDBRANCH  27  28
ENDBRANCH  26  27
ENDBRANCH  25  26
ENDBRANCH  24  25
ENDBRANCH  23  24
ENDBRANCH  22  23
ENDBRANCH  21  22
ENDBRANCH  20  21
ENDBRANCH  19  20
ENDBRANCH  18  19
ENDBRANCH  16  18
ENDBRANCH  15  16
ENDBRANCH  12  15
ENDBRANCH  10  12
ENDBRANCH   2   4
TORSDOF 16
ENDMDL
MODEL       34
REMARK 921   NORMALIZED FREE ENERGY PREDICTED BY IDOCK:   -5.75 KCAL/MOL
REMARK 922        TOTAL FREE ENERGY PREDICTED BY IDOCK:  -13.48 KCAL/MOL
REMARK 923 INTER-LIGAND FREE ENERGY PREDICTED BY IDOCK:  -10.97 KCAL/MOL
REMARK 924 INTRA-LIGAND FREE ENERGY PREDICTED BY IDOCK:   -2.50 KCAL/MOL
REMARK 927      BINDING AFFINITY PREDICTED BY RF-SCORE:    0.00 PKD
ROOT
HETATM    1  O   UNL     1     -14.225   8.950  73.292  1.00  0.00    -1.197 OA 
HETATM    2  C   UNL     1     -13.586   9.462  72.122  1.00  0.00    -0.457 C  
HETATM    3  H   UNL     1     -14.949   9.513  73.544  1.00  0.00     0.000 HD 
ENDROOT
BRANCH   2   4
HETATM    4  C   UNL     1     -12.439   8.571  71.723  1.00  0.00    -0.388 A  
HETATM    5  C   UNL     1     -12.545   7.176  71.673  1.00  0.00    -0.375 A  
HETATM    6  O   UNL     1     -13.688   6.526  72.047  1.00  0.00    -0.415 OA 
HETATM    7  C   UNL     1     -11.479   6.381  71.265  1.00  0.00    -0.371 A  
HETATM    8  C   UNL     1     -10.267   6.974  70.920  1.00  0.00    -0.210 A  
HETATM    9  H   UNL     1     -13.760   5.579  72.013  1.00  0.00     0.000 HD 
HETATM   10  C   UNL     1     -10.116   8.369  70.961  1.00  0.00    -0.242 A  
HETATM   11  C   UNL     1     -11.218   9.155  71.341  1.00  0.00    -0.419 A  
BRANCH  10  12
HETATM   12  C   UNL     1      -8.792   9.032  70.633  1.00  0.00    -0.219 C  
HETATM   13  O   UNL     1      -7.932   9.015  71.783  1.00  0.00    -0.343 OA 
HETATM   14  H   UNL     1      -7.102   9.430  71.578  1.00  0.00     0.000 HD 
BRANCH  12  15
HETATM   15  C   UNL     1      -8.068   8.340  69.457  1.00  0.00    -0.114 C  
BRANCH  15  16
HETATM   16  N   UNL     1      -8.301   9.058  68.193  1.00  0.00    -0.120 NA 
HETATM   17  H   UNL     1      -7.429   9.268  67.707  1.00  0.00     0.000 HD 
BRANCH  16  18
HETATM   18  C   UNL     1      -9.225   8.304  67.352  1.00  0.00    -0.141 C  
BRANCH  18  19
HETATM   19  C   UNL     1     -10.530   9.074  67.189  1.00  0.00    -0.333 C  
BRANCH  19  20
HETATM   20  C   UNL     1     -10.333  10.534  67.589  1.00  0.00    -0.257 C  
BRANCH  20  21
HETATM   21  C   UNL     1     -11.486  11.389  67.085  1.00  0.00    -0.268 C  
BRANCH  21  22
HETATM   22  C   UNL     1     -11.245  12.869  67.362  1.00  0.00    -0.331 C  
BRANCH  22  23
HETATM   23  C   UNL     1      -9.965  13.331  66.684  1.00  0.00    -0.272 C  
BRANCH  23  24
HETATM   24  O   UNL     1     -10.067  14.728  66.436  1.00  0.00    -0.261 OA 
BRANCH  24  25
HETATM   25  C   UNL     1     -11.100  15.322  67.219  1.00  0.00    -0.325 C  
BRANCH  25  26
HETATM   26  C   UNL     1     -10.569  16.609  67.836  1.00  0.00    -0.342 C  
BRANCH  26  27
HETATM   27  C   UNL     1     -10.948  16.705  69.315  1.00  0.00    -0.261 C  
BRANCH  27  28
HETATM   28  C   UNL     1     -10.442  15.506  70.113  1.00  0.00    -0.317 C  
BRANCH  28  29
HETATM   29  C   UNL     1     -11.539  14.986  71.012  1.00  0.00    -0.367 A  
HETATM   30  C   UNL     1     -12.055  13.698  70.829  1.00  0.00    -0.374 A  
HETATM   31  C   UNL     1     -13.122  13.250  71.607  1.00  0.00    -0.453 A  
HETATM   32  C   UNL     1     -13.684  14.086  72.570  1.00  0.00    -0.651 A  
HETATM   33  C   UNL     1     -13.175  15.370  72.762  1.00  0.00    -0.590 A  
HETATM   34  C   UNL     1     -12.107  15.820  71.986  1.00  0.00    -0.562 A  
ENDBRANCH  28  29
ENDBRANCH  27  28
ENDBRANCH  26  27
ENDBRANCH  25  26
ENDBRANCH  24  25
ENDBRANCH  23  24
ENDBRANCH  22  23
ENDBRANCH  21  22
ENDBRANCH  20  21
ENDBRANCH  19  20
ENDBRANCH  18  19
ENDBRANCH  16  18
ENDBRANCH  15  16
ENDBRANCH  12  15
ENDBRANCH  10  12
ENDBRANCH   2   4
TORSDOF 16
ENDMDL
MODEL       35
REMARK 921   NORMALIZED FREE ENERGY PREDICTED BY IDOCK:   -5.75 KCAL/MOL
REMARK 922        TOTAL FREE ENERGY PREDICTED BY IDOCK:  -13.47 KCAL/MOL
REMARK 923 INTER-LIGAND FREE ENERGY PREDICTED BY IDOCK:  -11.62 KCAL/MOL
REMARK 924 INTRA-LIGAND FREE ENERGY PREDICTED BY IDOCK:   -1.84 KCAL/MOL
REMARK 927      BINDING AFFINITY PREDICTED BY RF-SCORE:    0.00 PKD
ROOT
HETATM    1  O   UNL     1     -14.343   9.015  72.766  1.00  0.00    -0.940 OA 
HETATM    2  C   UNL     1     -12.927   8.875  72.642  1.00  0.00    -0.269 C  
HETATM    3  H   UNL     1     -14.663   8.487  73.489  1.00  0.00     0.000 HD 
ENDROOT
BRANCH   2   4
HETATM    4  C   UNL     1     -12.420   9.711  71.497  1.00  0.00    -0.476 A  
HETATM    5  C   UNL     1     -12.685  11.081  71.383  1.00  0.00    -0.429 A  
HETATM    6  O   UNL     1     -13.482  11.737  72.279  1.00  0.00    -0.611 OA 
HETATM    7  C   UNL     1     -12.171  11.835  70.334  1.00  0.00    -0.416 A  
HETATM    8  C   UNL     1     -11.394  11.220  69.356  1.00  0.00    -0.360 A  
HETATM    9  H   UNL     1     -13.663  12.667  72.202  1.00  0.00     0.000 HD 
HETATM   10  C   UNL     1     -11.107   9.848  69.429  1.00  0.00    -0.237 A  
HETATM   11  C   UNL     1     -11.607   9.112  70.518  1.00  0.00    -0.238 A  
BRANCH  10  12
HETATM   12  C   UNL     1     -10.301   9.149  68.350  1.00  0.00    -0.206 C  
HETATM   13  O   UNL     1     -10.952   7.930  67.959  1.00  0.00    -0.460 OA 
HETATM   14  H   UNL     1     -10.448   7.492  67.283  1.00  0.00     0.000 HD 
BRANCH  12  15
HETATM   15  C   UNL     1     -10.106  10.035  67.101  1.00  0.00    -0.212 C  
BRANCH  15  16
HETATM   16  N   UNL     1      -9.250   9.370  66.105  1.00  0.00    -0.175 NA 
HETATM   17  H   UNL     1      -9.387   8.359  66.098  1.00  0.00     0.000 HD 
BRANCH  16  18
HETATM   18  C   UNL     1      -9.464   9.960  64.787  1.00  0.00    -0.291 C  
BRANCH  18  19
HETATM   19  C   UNL     1     -10.126  11.324  64.927  1.00  0.00    -0.333 C  
BRANCH  19  20
HETATM   20  C   UNL     1     -10.671  11.786  63.578  1.00  0.00    -0.501 C  
BRANCH  20  21
HETATM   21  C   UNL     1     -12.158  12.098  63.677  1.00  0.00    -0.648 C  
BRANCH  21  22
HETATM   22  C   UNL     1     -12.475  12.902  64.932  1.00  0.00    -0.540 C  
BRANCH  22  23
HETATM   23  C   UNL     1     -12.119  14.366  64.725  1.00  0.00    -0.452 C  
BRANCH  23  24
HETATM   24  O   UNL     1     -11.568  14.870  65.935  1.00  0.00    -0.324 OA 
BRANCH  24  25
HETATM   25  C   UNL     1     -10.178  14.572  66.039  1.00  0.00    -0.315 C  
BRANCH  25  26
HETATM   26  C   UNL     1      -9.871  14.155  67.472  1.00  0.00    -0.235 C  
BRANCH  26  27
HETATM   27  C   UNL     1      -9.159  15.277  68.229  1.00  0.00    -0.181 C  
BRANCH  27  28
HETATM   28  C   UNL     1     -10.144  16.305  68.783  1.00  0.00    -0.243 C  
BRANCH  28  29
HETATM   29  C   UNL     1      -9.869  17.660  68.176  1.00  0.00    -0.318 A  
HETATM   30  C   UNL     1      -8.755  18.405  68.579  1.00  0.00    -0.336 A  
HETATM   31  C   UNL     1      -8.547  19.689  68.076  1.00  0.00    -0.355 A  
HETATM   32  C   UNL     1      -9.451  20.240  67.170  1.00  0.00    -0.557 A  
HETATM   33  C   UNL     1     -10.562  19.504  66.760  1.00  0.00    -0.597 A  
HETATM   34  C   UNL     1     -10.772  18.219  67.261  1.00  0.00    -0.366 A  
ENDBRANCH  28  29
ENDBRANCH  27  28
ENDBRANCH  26  27
ENDBRANCH  25  26
ENDBRANCH  24  25
ENDBRANCH  23  24
ENDBRANCH  22  23
ENDBRANCH  21  22
ENDBRANCH  20  21
ENDBRANCH  19  20
ENDBRANCH  18  19
ENDBRANCH  16  18
ENDBRANCH  15  16
ENDBRANCH  12  15
ENDBRANCH  10  12
ENDBRANCH   2   4
TORSDOF 16
ENDMDL
MODEL       36
REMARK 921   NORMALIZED FREE ENERGY PREDICTED BY IDOCK:   -5.74 KCAL/MOL
REMARK 922        TOTAL FREE ENERGY PREDICTED BY IDOCK:  -13.45 KCAL/MOL
REMARK 923 INTER-LIGAND FREE ENERGY PREDICTED BY IDOCK:  -12.09 KCAL/MOL
REMARK 924 INTRA-LIGAND FREE ENERGY PREDICTED BY IDOCK:   -1.36 KCAL/MOL
REMARK 927      BINDING AFFINITY PREDICTED BY RF-SCORE:    0.00 PKD
ROOT
HETATM    1  O   UNL     1     -12.672  14.951  64.608  1.00  0.00    -0.450 OA 
HETATM    2  C   UNL     1     -12.851  13.884  65.540  1.00  0.00    -0.431 C  
HETATM    3  H   UNL     1     -13.271  15.662  64.805  1.00  0.00     0.000 HD 
ENDROOT
BRANCH   2   4
HETATM    4  C   UNL     1     -11.902  12.756  65.228  1.00  0.00    -0.442 A  
HETATM    5  C   UNL     1     -11.437  12.493  63.935  1.00  0.00    -0.437 A  
HETATM    6  O   UNL     1     -11.869  13.210  62.854  1.00  0.00    -0.775 OA 
HETATM    7  C   UNL     1     -10.531  11.468  63.684  1.00  0.00    -0.483 A  
HETATM    8  C   UNL     1     -10.089  10.664  64.731  1.00  0.00    -0.412 A  
HETATM    9  H   UNL     1     -11.554  13.031  61.975  1.00  0.00     0.000 HD 
HETATM   10  C   UNL     1     -10.534  10.890  66.043  1.00  0.00    -0.287 A  
HETATM   11  C   UNL     1     -11.421  11.955  66.280  1.00  0.00    -0.367 A  
BRANCH  10  12
HETATM   12  C   UNL     1     -10.101   9.998  67.191  1.00  0.00    -0.212 C  
HETATM   13  O   UNL     1     -11.238   9.626  67.984  1.00  0.00    -0.513 OA 
HETATM   14  H   UNL     1     -10.967   9.066  68.703  1.00  0.00     0.000 HD 
BRANCH  12  15
HETATM   15  C   UNL     1      -9.393   8.717  66.699  1.00  0.00    -0.192 C  
BRANCH  15  16
HETATM   16  N   UNL     1     -10.312   7.566  66.702  1.00  0.00    -0.490 NA 
HETATM   17  H   UNL     1     -11.005   7.630  65.956  1.00  0.00     0.000 HD 
BRANCH  16  18
HETATM   18  C   UNL     1      -9.554   6.320  66.638  1.00  0.00    -0.157 C  
BRANCH  18  19
HETATM   19  C   UNL     1     -10.048   5.354  67.708  1.00  0.00    -0.215 C  
BRANCH  19  20
HETATM   20  C   UNL     1      -9.793   5.932  69.098  1.00  0.00    -0.199 C  
BRANCH  20  21
HETATM   21  C   UNL     1     -10.985   5.682  70.011  1.00  0.00    -0.311 C  
BRANCH  21  22
HETATM   22  C   UNL     1     -11.477   6.974  70.651  1.00  0.00    -0.367 C  
BRANCH  22  23
HETATM   23  C   UNL     1     -11.217   6.953  72.150  1.00  0.00    -0.258 C  
BRANCH  23  24
HETATM   24  O   UNL     1     -11.623   8.203  72.693  1.00  0.00    -0.397 OA 
BRANCH  24  25
HETATM   25  C   UNL     1     -11.729   9.202  71.681  1.00  0.00    -0.378 C  
BRANCH  25  26
HETATM   26  C   UNL     1     -12.956  10.059  71.965  1.00  0.00    -0.514 C  
BRANCH  26  27
HETATM   27  C   UNL     1     -12.809  11.449  71.344  1.00  0.00    -0.502 C  
BRANCH  27  28
HETATM   28  C   UNL     1     -13.485  12.527  72.189  1.00  0.00    -0.523 C  
BRANCH  28  29
HETATM   29  C   UNL     1     -12.870  13.874  71.892  1.00  0.00    -0.411 A  
HETATM   30  C   UNL     1     -12.354  14.153  70.622  1.00  0.00    -0.435 A  
HETATM   31  C   UNL     1     -11.715  15.367  70.373  1.00  0.00    -0.349 A  
HETATM   32  C   UNL     1     -11.585  16.310  71.391  1.00  0.00    -0.424 A  
HETATM   33  C   UNL     1     -12.099  16.043  72.659  1.00  0.00    -0.640 A  
HETATM   34  C   UNL     1     -12.740  14.829  72.910  1.00  0.00    -0.521 A  
ENDBRANCH  28  29
ENDBRANCH  27  28
ENDBRANCH  26  27
ENDBRANCH  25  26
ENDBRANCH  24  25
ENDBRANCH  23  24
ENDBRANCH  22  23
ENDBRANCH  21  22
ENDBRANCH  20  21
ENDBRANCH  19  20
ENDBRANCH  18  19
ENDBRANCH  16  18
ENDBRANCH  15  16
ENDBRANCH  12  15
ENDBRANCH  10  12
ENDBRANCH   2   4
TORSDOF 16
ENDMDL
MODEL       37
REMARK 921   NORMALIZED FREE ENERGY PREDICTED BY IDOCK:   -5.73 KCAL/MOL
REMARK 922        TOTAL FREE ENERGY PREDICTED BY IDOCK:  -13.44 KCAL/MOL
REMARK 923 INTER-LIGAND FREE ENERGY PREDICTED BY IDOCK:  -10.21 KCAL/MOL
REMARK 924 INTRA-LIGAND FREE ENERGY PREDICTED BY IDOCK:   -3.22 KCAL/MOL
REMARK 927      BINDING AFFINITY PREDICTED BY RF-SCORE:    0.00 PKD
ROOT
HETATM    1  O   UNL     1     -12.410  13.709  63.083  1.00  0.00    -1.045 OA 
HETATM    2  C   UNL     1     -12.527  12.369  63.564  1.00  0.00    -0.500 C  
HETATM    3  H   UNL     1     -13.166  13.935  62.554  1.00  0.00     0.000 HD 
ENDROOT
BRANCH   2   4
HETATM    4  C   UNL     1     -11.329  12.010  64.402  1.00  0.00    -0.411 A  
HETATM    5  C   UNL     1     -10.287  11.204  63.929  1.00  0.00    -0.380 A  
HETATM    6  O   UNL     1     -10.324  10.633  62.687  1.00  0.00    -0.752 OA 
HETATM    7  C   UNL     1      -9.175  10.920  64.714  1.00  0.00    -0.227 A  
HETATM    8  C   UNL     1      -9.096  11.424  66.010  1.00  0.00    -0.218 A  
HETATM    9  H   UNL     1      -9.617  10.085  62.366  1.00  0.00     0.000 HD 
HETATM   10  C   UNL     1     -10.120  12.234  66.525  1.00  0.00    -0.232 A  
HETATM   11  C   UNL     1     -11.218  12.538  65.702  1.00  0.00    -0.352 A  
BRANCH  10  12
HETATM   12  C   UNL     1     -10.076  12.756  67.949  1.00  0.00    -0.231 C  
HETATM   13  O   UNL     1      -9.585  14.106  67.966  1.00  0.00    -0.205 OA 
HETATM   14  H   UNL     1      -9.557  14.433  68.857  1.00  0.00     0.000 HD 
BRANCH  12  15
HETATM   15  C   UNL     1     -11.463  12.721  68.627  1.00  0.00    -0.303 C  
BRANCH  15  16
HETATM   16  N   UNL     1     -11.385  12.116  69.967  1.00  0.00    -0.512 NA 
HETATM   17  H   UNL     1     -10.444  12.171  70.357  1.00  0.00     0.000 HD 
BRANCH  16  18
HETATM   18  C   UNL     1     -12.378  12.722  70.849  1.00  0.00    -0.265 C  
BRANCH  18  19
HETATM   19  C   UNL     1     -12.985  11.662  71.758  1.00  0.00    -0.483 C  
BRANCH  19  20
HETATM   20  C   UNL     1     -12.475  10.277  71.368  1.00  0.00    -0.528 C  
BRANCH  20  21
HETATM   21  C   UNL     1     -13.102   9.205  72.248  1.00  0.00    -0.509 C  
BRANCH  21  22
HETATM   22  C   UNL     1     -12.932   7.818  71.642  1.00  0.00    -0.374 C  
BRANCH  22  23
HETATM   23  C   UNL     1     -11.469   7.401  71.679  1.00  0.00    -0.263 C  
BRANCH  23  24
HETATM   24  O   UNL     1     -10.957   7.673  72.977  1.00  0.00    -0.371 OA 
BRANCH  24  25
HETATM   25  C   UNL     1      -9.659   8.258  72.913  1.00  0.00    -0.249 C  
BRANCH  25  26
HETATM   26  C   UNL     1      -8.949   7.742  71.668  1.00  0.00    -0.157 C  
BRANCH  26  27
HETATM   27  C   UNL     1      -8.021   8.808  71.084  1.00  0.00    -0.170 C  
BRANCH  27  28
HETATM   28  C   UNL     1      -8.746   9.715  70.092  1.00  0.00    -0.263 C  
BRANCH  28  29
HETATM   29  C   UNL     1      -9.002   8.967  68.804  1.00  0.00    -0.137 A  
HETATM   30  C   UNL     1      -7.934   8.486  68.040  1.00  0.00    -0.111 A  
HETATM   31  C   UNL     1      -8.169   7.867  66.812  1.00  0.00    -0.116 A  
HETATM   32  C   UNL     1      -9.472   7.728  66.338  1.00  0.00    -0.245 A  
HETATM   33  C   UNL     1     -10.543   8.201  67.095  1.00  0.00    -0.355 A  
HETATM   34  C   UNL     1     -10.311   8.820  68.323  1.00  0.00    -0.252 A  
ENDBRANCH  28  29
ENDBRANCH  27  28
ENDBRANCH  26  27
ENDBRANCH  25  26
ENDBRANCH  24  25
ENDBRANCH  23  24
ENDBRANCH  22  23
ENDBRANCH  21  22
ENDBRANCH  20  21
ENDBRANCH  19  20
ENDBRANCH  18  19
ENDBRANCH  16  18
ENDBRANCH  15  16
ENDBRANCH  12  15
ENDBRANCH  10  12
ENDBRANCH   2   4
TORSDOF 16
ENDMDL
MODEL       38
REMARK 921   NORMALIZED FREE ENERGY PREDICTED BY IDOCK:   -5.73 KCAL/MOL
REMARK 922        TOTAL FREE ENERGY PREDICTED BY IDOCK:  -13.44 KCAL/MOL
REMARK 923 INTER-LIGAND FREE ENERGY PREDICTED BY IDOCK:  -11.62 KCAL/MOL
REMARK 924 INTRA-LIGAND FREE ENERGY PREDICTED BY IDOCK:   -1.82 KCAL/MOL
REMARK 927      BINDING AFFINITY PREDICTED BY RF-SCORE:    0.00 PKD
ROOT
HETATM    1  O   UNL     1     -14.344  13.530  72.595  1.00  0.00    -0.716 OA 
HETATM    2  C   UNL     1     -13.172  12.902  72.072  1.00  0.00    -0.448 C  
HETATM    3  H   UNL     1     -14.675  13.039  73.338  1.00  0.00     0.000 HD 
ENDROOT
BRANCH   2   4
HETATM    4  C   UNL     1     -12.647  13.679  70.893  1.00  0.00    -0.421 A  
HETATM    5  C   UNL     1     -12.427  15.061  70.934  1.00  0.00    -0.345 A  
HETATM    6  O   UNL     1     -12.739  15.808  72.036  1.00  0.00    -0.409 OA 
HETATM    7  C   UNL     1     -11.906  15.745  69.842  1.00  0.00    -0.355 A  
HETATM    8  C   UNL     1     -11.615  15.056  68.668  1.00  0.00    -0.347 A  
HETATM    9  H   UNL     1     -12.590  16.746  72.064  1.00  0.00     0.000 HD 
HETATM   10  C   UNL     1     -11.824  13.670  68.582  1.00  0.00    -0.409 A  
HETATM   11  C   UNL     1     -12.318  12.992  69.711  1.00  0.00    -0.141 A  
BRANCH  10  12
HETATM   12  C   UNL     1     -11.557  12.907  67.299  1.00  0.00    -0.360 C  
HETATM   13  O   UNL     1     -12.077  11.572  67.400  1.00  0.00    -0.593 OA 
HETATM   14  H   UNL     1     -11.910  11.094  66.596  1.00  0.00     0.000 HD 
BRANCH  12  15
HETATM   15  C   UNL     1     -12.185  13.596  66.068  1.00  0.00    -0.449 C  
BRANCH  15  16
HETATM   16  N   UNL     1     -12.677  12.606  65.096  1.00  0.00    -0.732 NA 
HETATM   17  H   UNL     1     -13.696  12.549  65.092  1.00  0.00     0.000 HD 
BRANCH  16  18
HETATM   18  C   UNL     1     -12.140  12.895  63.771  1.00  0.00    -0.508 C  
BRANCH  18  19
HETATM   19  C   UNL     1     -10.667  12.511  63.709  1.00  0.00    -0.483 C  
BRANCH  19  20
HETATM   20  C   UNL     1     -10.513  10.995  63.803  1.00  0.00    -0.408 C  
BRANCH  20  21
HETATM   21  C   UNL     1      -9.233  10.629  64.539  1.00  0.00    -0.264 C  
BRANCH  21  22
HETATM   22  C   UNL     1      -9.513  10.241  65.986  1.00  0.00    -0.234 C  
BRANCH  22  23
HETATM   23  C   UNL     1      -9.579   8.728  66.124  1.00  0.00    -0.253 C  
BRANCH  23  24
HETATM   24  O   UNL     1     -10.596   8.407  67.065  1.00  0.00    -0.314 OA 
BRANCH  24  25
HETATM   25  C   UNL     1     -10.782   6.997  67.169  1.00  0.00    -0.363 C  
BRANCH  25  26
HETATM   26  C   UNL     1      -9.751   6.437  68.140  1.00  0.00    -0.122 C  
BRANCH  26  27
HETATM   27  C   UNL     1     -10.429   5.806  69.358  1.00  0.00    -0.360 C  
BRANCH  27  28
HETATM   28  C   UNL     1     -10.192   6.619  70.629  1.00  0.00    -0.215 C  
BRANCH  28  29
HETATM   29  C   UNL     1     -11.408   7.462  70.934  1.00  0.00    -0.300 A  
HETATM   30  C   UNL     1     -11.295   8.851  71.056  1.00  0.00    -0.350 A  
HETATM   31  C   UNL     1     -12.402   9.618  71.418  1.00  0.00    -0.468 A  
HETATM   32  C   UNL     1     -13.628   9.004  71.663  1.00  0.00    -0.446 A  
HETATM   33  C   UNL     1     -13.751   7.620  71.540  1.00  0.00    -0.440 A  
HETATM   34  C   UNL     1     -12.646   6.850  71.178  1.00  0.00    -0.366 A  
ENDBRANCH  28  29
ENDBRANCH  27  28
ENDBRANCH  26  27
ENDBRANCH  25  26
ENDBRANCH  24  25
ENDBRANCH  23  24
ENDBRANCH  22  23
ENDBRANCH  21  22
ENDBRANCH  20  21
ENDBRANCH  19  20
ENDBRANCH  18  19
ENDBRANCH  16  18
ENDBRANCH  15  16
ENDBRANCH  12  15
ENDBRANCH  10  12
ENDBRANCH   2   4
TORSDOF 16
ENDMDL
MODEL       39
REMARK 921   NORMALIZED FREE ENERGY PREDICTED BY IDOCK:   -5.73 KCAL/MOL
REMARK 922        TOTAL FREE ENERGY PREDICTED BY IDOCK:  -13.44 KCAL/MOL
REMARK 923 INTER-LIGAND FREE ENERGY PREDICTED BY IDOCK:  -10.00 KCAL/MOL
REMARK 924 INTRA-LIGAND FREE ENERGY PREDICTED BY IDOCK:   -3.43 KCAL/MOL
REMARK 927      BINDING AFFINITY PREDICTED BY RF-SCORE:    0.00 PKD
ROOT
HETATM    1  O   UNL     1      -8.865  11.924  62.976  1.00  0.00    -0.613 OA 
HETATM    2  C   UNL     1     -10.221  11.876  63.424  1.00  0.00    -0.449 C  
HETATM    3  H   UNL     1      -8.818  12.330  62.118  1.00  0.00     0.000 HD 
ENDROOT
BRANCH   2   4
HETATM    4  C   UNL     1     -10.297  11.233  64.784  1.00  0.00    -0.366 A  
HETATM    5  C   UNL     1      -9.758   9.970  65.056  1.00  0.00    -0.317 A  
HETATM    6  O   UNL     1      -9.181   9.207  64.079  1.00  0.00    -0.421 OA 
HETATM    7  C   UNL     1      -9.811   9.417  66.331  1.00  0.00    -0.337 A  
HETATM    8  C   UNL     1     -10.432  10.117  67.363  1.00  0.00    -0.310 A  
HETATM    9  H   UNL     1      -8.816   8.349  64.263  1.00  0.00     0.000 HD 
HETATM   10  C   UNL     1     -10.989  11.385  67.133  1.00  0.00    -0.340 A  
HETATM   11  C   UNL     1     -10.893  11.940  65.844  1.00  0.00    -0.342 A  
BRANCH  10  12
HETATM   12  C   UNL     1     -11.710  12.144  68.231  1.00  0.00    -0.342 C  
HETATM   13  O   UNL     1     -10.917  12.154  69.428  1.00  0.00    -0.416 OA 
HETATM   14  H   UNL     1     -11.368  12.629  70.116  1.00  0.00     0.000 HD 
BRANCH  12  15
HETATM   15  C   UNL     1     -12.021  13.601  67.825  1.00  0.00    -0.352 C  
BRANCH  15  16
HETATM   16  N   UNL     1     -12.086  14.480  69.004  1.00  0.00    -0.506 NA 
HETATM   17  H   UNL     1     -11.496  14.142  69.765  1.00  0.00     0.000 HD 
BRANCH  16  18
HETATM   18  C   UNL     1     -11.758  15.850  68.626  1.00  0.00    -0.322 C  
BRANCH  18  19
HETATM   19  C   UNL     1     -10.690  16.409  69.558  1.00  0.00    -0.325 C  
BRANCH  19  20
HETATM   20  C   UNL     1     -10.165  17.738  69.022  1.00  0.00    -0.290 C  
BRANCH  20  21
HETATM   21  C   UNL     1     -10.645  17.970  67.597  1.00  0.00    -0.413 C  
BRANCH  21  22
HETATM   22  C   UNL     1     -10.944  19.443  67.342  1.00  0.00    -0.449 C  
BRANCH  22  23
HETATM   23  C   UNL     1      -9.825  20.077  66.531  1.00  0.00    -0.459 C  
BRANCH  23  24
HETATM   24  O   UNL     1      -8.932  20.726  67.427  1.00  0.00    -0.311 OA 
BRANCH  24  25
HETATM   25  C   UNL     1      -7.578  20.360  67.169  1.00  0.00    -0.324 C  
BRANCH  25  26
HETATM   26  C   UNL     1      -7.497  19.719  65.790  1.00  0.00    -0.325 C  
BRANCH  26  27
HETATM   27  C   UNL     1      -6.693  18.418  65.836  1.00  0.00    -0.312 C  
BRANCH  27  28
HETATM   28  C   UNL     1      -6.455  17.945  67.269  1.00  0.00    -0.183 C  
BRANCH  28  29
HETATM   29  C   UNL     1      -7.171  16.635  67.503  1.00  0.00    -0.169 A  
HETATM   30  C   UNL     1      -6.916  15.885  68.655  1.00  0.00    -0.127 A  
HETATM   31  C   UNL     1      -7.517  14.638  68.831  1.00  0.00    -0.134 A  
HETATM   32  C   UNL     1      -8.374  14.132  67.856  1.00  0.00    -0.162 A  
HETATM   33  C   UNL     1      -8.637  14.875  66.706  1.00  0.00    -0.256 A  
HETATM   34  C   UNL     1      -8.038  16.122  66.528  1.00  0.00    -0.331 A  
ENDBRANCH  28  29
ENDBRANCH  27  28
ENDBRANCH  26  27
ENDBRANCH  25  26
ENDBRANCH  24  25
ENDBRANCH  23  24
ENDBRANCH  22  23
ENDBRANCH  21  22
ENDBRANCH  20  21
ENDBRANCH  19  20
ENDBRANCH  18  19
ENDBRANCH  16  18
ENDBRANCH  15  16
ENDBRANCH  12  15
ENDBRANCH  10  12
ENDBRANCH   2   4
TORSDOF 16
ENDMDL
MODEL       40
REMARK 921   NORMALIZED FREE ENERGY PREDICTED BY IDOCK:   -5.72 KCAL/MOL
REMARK 922        TOTAL FREE ENERGY PREDICTED BY IDOCK:  -13.42 KCAL/MOL
REMARK 923 INTER-LIGAND FREE ENERGY PREDICTED BY IDOCK:  -10.54 KCAL/MOL
REMARK 924 INTRA-LIGAND FREE ENERGY PREDICTED BY IDOCK:   -2.88 KCAL/MOL
REMARK 927      BINDING AFFINITY PREDICTED BY RF-SCORE:    0.00 PKD
ROOT
HETATM    1  O   UNL     1     -12.989  11.697  62.808  1.00  0.00    -0.767 OA 
HETATM    2  C   UNL     1     -12.375  12.580  63.748  1.00  0.00    -0.502 C  
HETATM    3  H   UNL     1     -13.629  12.167  62.286  1.00  0.00     0.000 HD 
ENDROOT
BRANCH   2   4
HETATM    4  C   UNL     1     -11.362  11.835  64.577  1.00  0.00    -0.349 A  
HETATM    5  C   UNL     1     -10.362  11.035  64.012  1.00  0.00    -0.371 A  
HETATM    6  O   UNL     1     -10.281  10.827  62.663  1.00  0.00    -0.743 OA 
HETATM    7  C   UNL     1      -9.417  10.389  64.802  1.00  0.00    -0.329 A  
HETATM    8  C   UNL     1      -9.471  10.514  66.188  1.00  0.00    -0.222 A  
HETATM    9  H   UNL     1      -9.603  10.284  62.280  1.00  0.00     0.000 HD 
HETATM   10  C   UNL     1     -10.461  11.302  66.796  1.00  0.00    -0.291 A  
HETATM   11  C   UNL     1     -11.384  11.976  65.977  1.00  0.00    -0.398 A  
BRANCH  10  12
HETATM   12  C   UNL     1     -10.566  11.415  68.305  1.00  0.00    -0.195 C  
HETATM   13  O   UNL     1      -9.356  11.968  68.845  1.00  0.00    -0.397 OA 
HETATM   14  H   UNL     1      -9.422  12.039  69.791  1.00  0.00     0.000 HD 
BRANCH  12  15
HETATM   15  C   UNL     1     -11.757  12.296  68.742  1.00  0.00    -0.340 C  
BRANCH  15  16
HETATM   16  N   UNL     1     -11.404  13.130  69.903  1.00  0.00    -0.506 NA 
HETATM   17  H   UNL     1     -10.424  13.409  69.889  1.00  0.00     0.000 HD 
BRANCH  16  18
HETATM   18  C   UNL     1     -12.299  14.280  69.984  1.00  0.00    -0.346 C  
BRANCH  18  19
HETATM   19  C   UNL     1     -11.612  15.517  69.421  1.00  0.00    -0.366 C  
BRANCH  19  20
HETATM   20  C   UNL     1     -10.097  15.388  69.561  1.00  0.00    -0.278 C  
BRANCH  20  21
HETATM   21  C   UNL     1      -9.415  15.563  68.212  1.00  0.00    -0.200 C  
BRANCH  21  22
HETATM   22  C   UNL     1     -10.387  15.329  67.062  1.00  0.00    -0.277 C  
BRANCH  22  23
HETATM   23  C   UNL     1     -10.314  16.476  66.067  1.00  0.00    -0.345 C  
BRANCH  23  24
HETATM   24  O   UNL     1     -10.634  17.683  66.748  1.00  0.00    -0.313 OA 
BRANCH  24  25
HETATM   25  C   UNL     1     -10.754  18.777  65.842  1.00  0.00    -0.264 C  
BRANCH  25  26
HETATM   26  C   UNL     1     -10.658  20.078  66.629  1.00  0.00    -0.461 C  
BRANCH  26  27
HETATM   27  C   UNL     1      -9.536  20.010  67.666  1.00  0.00    -0.516 C  
BRANCH  27  28
HETATM   28  C   UNL     1      -8.154  20.051  67.016  1.00  0.00    -0.357 C  
BRANCH  28  29
HETATM   29  C   UNL     1      -7.346  18.851  67.451  1.00  0.00    -0.238 A  
HETATM   30  C   UNL     1      -6.971  17.875  66.521  1.00  0.00    -0.263 A  
HETATM   31  C   UNL     1      -6.295  16.729  66.938  1.00  0.00    -0.229 A  
HETATM   32  C   UNL     1      -5.992  16.548  68.286  1.00  0.00    -0.121 A  
HETATM   33  C   UNL     1      -6.358  17.517  69.219  1.00  0.00    -0.244 A  
HETATM   34  C   UNL     1      -7.034  18.665  68.805  1.00  0.00    -0.311 A  
ENDBRANCH  28  29
ENDBRANCH  27  28
ENDBRANCH  26  27
ENDBRANCH  25  26
ENDBRANCH  24  25
ENDBRANCH  23  24
ENDBRANCH  22  23
ENDBRANCH  21  22
ENDBRANCH  20  21
ENDBRANCH  19  20
ENDBRANCH  18  19
ENDBRANCH  16  18
ENDBRANCH  15  16
ENDBRANCH  12  15
ENDBRANCH  10  12
ENDBRANCH   2   4
TORSDOF 16
ENDMDL
MODEL       41
REMARK 921   NORMALIZED FREE ENERGY PREDICTED BY IDOCK:   -5.72 KCAL/MOL
REMARK 922        TOTAL FREE ENERGY PREDICTED BY IDOCK:  -13.42 KCAL/MOL
REMARK 923 INTER-LIGAND FREE ENERGY PREDICTED BY IDOCK:  -10.98 KCAL/MOL
REMARK 924 INTRA-LIGAND FREE ENERGY PREDICTED BY IDOCK:   -2.44 KCAL/MOL
REMARK 927      BINDING AFFINITY PREDICTED BY RF-SCORE:    0.00 PKD
ROOT
HETATM    1  O   UNL     1     -14.335  14.971  72.313  1.00  0.00    -0.492 OA 
HETATM    2  C   UNL     1     -13.291  14.033  72.045  1.00  0.00    -0.427 C  
HETATM    3  H   UNL     1     -14.860  14.676  73.048  1.00  0.00     0.000 HD 
ENDROOT
BRANCH   2   4
HETATM    4  C   UNL     1     -12.459  14.500  70.879  1.00  0.00    -0.415 A  
HETATM    5  C   UNL     1     -11.813  15.742  70.858  1.00  0.00    -0.414 A  
HETATM    6  O   UNL     1     -11.952  16.644  71.876  1.00  0.00    -0.630 OA 
HETATM    7  C   UNL     1     -11.021  16.130  69.783  1.00  0.00    -0.349 A  
HETATM    8  C   UNL     1     -10.878  15.283  68.687  1.00  0.00    -0.253 A  
HETATM    9  H   UNL     1     -11.515  17.487  71.862  1.00  0.00     0.000 HD 
HETATM   10  C   UNL     1     -11.512  14.030  68.665  1.00  0.00    -0.337 A  
HETATM   11  C   UNL     1     -12.279  13.643  69.778  1.00  0.00    -0.350 A  
BRANCH  10  12
HETATM   12  C   UNL     1     -11.407  13.111  67.463  1.00  0.00    -0.298 C  
HETATM   13  O   UNL     1     -12.072  11.867  67.732  1.00  0.00    -0.564 OA 
HETATM   14  H   UNL     1     -12.007  11.291  66.979  1.00  0.00     0.000 HD 
BRANCH  12  15
HETATM   15  C   UNL     1     -12.017  13.740  66.192  1.00  0.00    -0.418 C  
BRANCH  15  16
HETATM   16  N   UNL     1     -12.653  12.718  65.344  1.00  0.00    -0.636 NA 
HETATM   17  H   UNL     1     -13.664  12.693  65.470  1.00  0.00     0.000 HD 
BRANCH  16  18
HETATM   18  C   UNL     1     -12.281  12.924  63.948  1.00  0.00    -0.449 C  
BRANCH  18  19
HETATM   19  C   UNL     1     -10.812  12.575  63.742  1.00  0.00    -0.489 C  
BRANCH  19  20
HETATM   20  C   UNL     1     -10.593  11.077  63.939  1.00  0.00    -0.382 C  
BRANCH  20  21
HETATM   21  C   UNL     1      -9.615  10.821  65.076  1.00  0.00    -0.305 C  
BRANCH  21  22
HETATM   22  C   UNL     1      -8.657   9.684  64.741  1.00  0.00    -0.197 C  
BRANCH  22  23
HETATM   23  C   UNL     1      -7.579   9.570  65.809  1.00  0.00    -0.100 C  
BRANCH  23  24
HETATM   24  O   UNL     1      -7.553  10.782  66.552  1.00  0.00    -0.126 OA 
BRANCH  24  25
HETATM   25  C   UNL     1      -7.184  10.553  67.910  1.00  0.00    -0.084 C  
BRANCH  25  26
HETATM   26  C   UNL     1      -8.312  11.034  68.813  1.00  0.00    -0.144 C  
BRANCH  26  27
HETATM   27  C   UNL     1      -9.378   9.950  68.984  1.00  0.00    -0.175 C  
BRANCH  27  28
HETATM   28  C   UNL     1      -9.335   9.321  70.376  1.00  0.00    -0.295 C  
BRANCH  28  29
HETATM   29  C   UNL     1     -10.717   9.326  70.985  1.00  0.00    -0.387 A  
HETATM   30  C   UNL     1     -11.572  10.416  70.793  1.00  0.00    -0.450 A  
HETATM   31  C   UNL     1     -12.816  10.454  71.422  1.00  0.00    -0.556 A  
HETATM   32  C   UNL     1     -13.214   9.405  72.248  1.00  0.00    -0.528 A  
HETATM   33  C   UNL     1     -12.370   8.312  72.442  1.00  0.00    -0.385 A  
HETATM   34  C   UNL     1     -11.125   8.271  71.814  1.00  0.00    -0.342 A  
ENDBRANCH  28  29
ENDBRANCH  27  28
ENDBRANCH  26  27
ENDBRANCH  25  26
ENDBRANCH  24  25
ENDBRANCH  23  24
ENDBRANCH  22  23
ENDBRANCH  21  22
ENDBRANCH  20  21
ENDBRANCH  19  20
ENDBRANCH  18  19
ENDBRANCH  16  18
ENDBRANCH  15  16
ENDBRANCH  12  15
ENDBRANCH  10  12
ENDBRANCH   2   4
TORSDOF 16
ENDMDL
MODEL       42
REMARK 921   NORMALIZED FREE ENERGY PREDICTED BY IDOCK:   -5.71 KCAL/MOL
REMARK 922        TOTAL FREE ENERGY PREDICTED BY IDOCK:  -13.40 KCAL/MOL
REMARK 923 INTER-LIGAND FREE ENERGY PREDICTED BY IDOCK:  -11.60 KCAL/MOL
REMARK 924 INTRA-LIGAND FREE ENERGY PREDICTED BY IDOCK:   -1.79 KCAL/MOL
REMARK 927      BINDING AFFINITY PREDICTED BY RF-SCORE:    0.00 PKD
ROOT
HETATM    1  O   UNL     1      -7.022   7.534  70.555  1.00  0.00    -0.050 OA 
HETATM    2  C   UNL     1      -7.636   8.788  70.857  1.00  0.00    -0.102 C  
HETATM    3  H   UNL     1      -6.168   7.673  70.163  1.00  0.00     0.000 HD 
ENDROOT
BRANCH   2   4
HETATM    4  C   UNL     1      -8.990   8.569  71.479  1.00  0.00    -0.276 A  
HETATM    5  C   UNL     1      -9.209   7.654  72.515  1.00  0.00    -0.157 A  
HETATM    6  O   UNL     1      -8.210   6.849  72.988  1.00  0.00    -0.107 OA 
HETATM    7  C   UNL     1     -10.463   7.500  73.095  1.00  0.00    -0.419 A  
HETATM    8  C   UNL     1     -11.539   8.250  72.626  1.00  0.00    -0.419 A  
HETATM    9  H   UNL     1      -8.359   6.227  73.692  1.00  0.00     0.000 HD 
HETATM   10  C   UNL     1     -11.364   9.176  71.585  1.00  0.00    -0.446 A  
HETATM   11  C   UNL     1     -10.080   9.342  71.038  1.00  0.00    -0.373 A  
BRANCH  10  12
HETATM   12  C   UNL     1     -12.531   9.971  71.029  1.00  0.00    -0.362 C  
HETATM   13  O   UNL     1     -13.294  10.545  72.101  1.00  0.00    -0.555 OA 
HETATM   14  H   UNL     1     -14.025  11.043  71.753  1.00  0.00     0.000 HD 
BRANCH  12  15
HETATM   15  C   UNL     1     -12.069  11.100  70.083  1.00  0.00    -0.362 C  
BRANCH  15  16
HETATM   16  N   UNL     1     -12.300  10.742  68.673  1.00  0.00    -0.786 NA 
HETATM   17  H   UNL     1     -13.253  10.953  68.377  1.00  0.00     0.000 HD 
BRANCH  16  18
HETATM   18  C   UNL     1     -11.306  11.390  67.823  1.00  0.00    -0.287 C  
BRANCH  18  19
HETATM   19  C   UNL     1     -11.892  12.653  67.205  1.00  0.00    -0.399 C  
BRANCH  19  20
HETATM   20  C   UNL     1     -12.151  12.439  65.715  1.00  0.00    -0.381 C  
BRANCH  20  21
HETATM   21  C   UNL     1     -12.289  13.774  64.997  1.00  0.00    -0.456 C  
BRANCH  21  22
HETATM   22  C   UNL     1     -10.932  14.437  64.789  1.00  0.00    -0.409 C  
BRANCH  22  23
HETATM   23  C   UNL     1     -11.090  15.947  64.704  1.00  0.00    -0.354 C  
BRANCH  23  24
HETATM   24  O   UNL     1      -9.966  16.552  65.331  1.00  0.00    -0.552 OA 
BRANCH  24  25
HETATM   25  C   UNL     1      -9.678  15.941  66.587  1.00  0.00    -0.253 C  
BRANCH  25  26
HETATM   26  C   UNL     1     -10.321  16.767  67.693  1.00  0.00    -0.309 C  
BRANCH  26  27
HETATM   27  C   UNL     1     -11.279  15.916  68.528  1.00  0.00    -0.362 C  
BRANCH  27  28
HETATM   28  C   UNL     1     -10.730  15.643  69.927  1.00  0.00    -0.328 C  
BRANCH  28  29
HETATM   29  C   UNL     1     -11.869  15.504  70.909  1.00  0.00    -0.413 A  
HETATM   30  C   UNL     1     -13.130  15.079  70.475  1.00  0.00    -0.305 A  
HETATM   31  C   UNL     1     -14.201  15.028  71.367  1.00  0.00    -0.587 A  
HETATM   32  C   UNL     1     -14.021  15.404  72.697  1.00  0.00    -0.590 A  
HETATM   33  C   UNL     1     -12.768  15.826  73.139  1.00  0.00    -0.618 A  
HETATM   34  C   UNL     1     -11.695  15.877  72.249  1.00  0.00    -0.586 A  
ENDBRANCH  28  29
ENDBRANCH  27  28
ENDBRANCH  26  27
ENDBRANCH  25  26
ENDBRANCH  24  25
ENDBRANCH  23  24
ENDBRANCH  22  23
ENDBRANCH  21  22
ENDBRANCH  20  21
ENDBRANCH  19  20
ENDBRANCH  18  19
ENDBRANCH  16  18
ENDBRANCH  15  16
ENDBRANCH  12  15
ENDBRANCH  10  12
ENDBRANCH   2   4
TORSDOF 16
ENDMDL
MODEL       43
REMARK 921   NORMALIZED FREE ENERGY PREDICTED BY IDOCK:   -5.70 KCAL/MOL
REMARK 922        TOTAL FREE ENERGY PREDICTED BY IDOCK:  -13.38 KCAL/MOL
REMARK 923 INTER-LIGAND FREE ENERGY PREDICTED BY IDOCK:  -11.46 KCAL/MOL
REMARK 924 INTRA-LIGAND FREE ENERGY PREDICTED BY IDOCK:   -1.92 KCAL/MOL
REMARK 927      BINDING AFFINITY PREDICTED BY RF-SCORE:    0.00 PKD
ROOT
HETATM    1  O   UNL     1      -9.625  16.843  68.986  1.00  0.00    -0.260 OA 
HETATM    2  C   UNL     1      -9.210  15.729  68.195  1.00  0.00    -0.189 C  
HETATM    3  H   UNL     1      -9.129  16.874  69.796  1.00  0.00     0.000 HD 
ENDROOT
BRANCH   2   4
HETATM    4  C   UNL     1      -9.997  15.680  66.912  1.00  0.00    -0.252 A  
HETATM    5  C   UNL     1     -10.175  16.798  66.089  1.00  0.00    -0.351 A  
HETATM    6  O   UNL     1      -9.697  18.031  66.435  1.00  0.00    -0.316 OA 
HETATM    7  C   UNL     1     -10.875  16.713  64.890  1.00  0.00    -0.158 A  
HETATM    8  C   UNL     1     -11.436  15.499  64.501  1.00  0.00    -0.311 A  
HETATM    9  H   UNL     1      -9.818  18.790  65.877  1.00  0.00     0.000 HD 
HETATM   10  C   UNL     1     -11.285  14.354  65.299  1.00  0.00    -0.345 A  
HETATM   11  C   UNL     1     -10.542  14.454  66.489  1.00  0.00    -0.296 A  
BRANCH  10  12
HETATM   12  C   UNL     1     -11.925  13.032  64.917  1.00  0.00    -0.396 C  
HETATM   13  O   UNL     1     -13.310  13.026  65.298  1.00  0.00    -0.534 OA 
HETATM   14  H   UNL     1     -13.712  12.199  65.059  1.00  0.00     0.000 HD 
BRANCH  12  15
HETATM   15  C   UNL     1     -11.822  12.750  63.403  1.00  0.00    -0.518 C  
BRANCH  15  16
HETATM   16  N   UNL     1     -11.169  11.456  63.146  1.00  0.00    -0.854 NA 
HETATM   17  H   UNL     1     -11.094  11.258  62.148  1.00  0.00     0.000 HD 
BRANCH  16  18
HETATM   18  C   UNL     1      -9.872  11.408  63.812  1.00  0.00    -0.319 C  
BRANCH  18  19
HETATM   19  C   UNL     1      -9.620  10.012  64.366  1.00  0.00    -0.325 C  
BRANCH  19  20
HETATM   20  C   UNL     1     -10.054   9.939  65.828  1.00  0.00    -0.317 C  
BRANCH  20  21
HETATM   21  C   UNL     1      -9.868   8.531  66.375  1.00  0.00    -0.327 C  
BRANCH  21  22
HETATM   22  C   UNL     1     -10.521   8.373  67.742  1.00  0.00    -0.284 C  
BRANCH  22  23
HETATM   23  C   UNL     1      -9.482   8.508  68.844  1.00  0.00    -0.147 C  
BRANCH  23  24
HETATM   24  O   UNL     1     -10.088   8.154  70.080  1.00  0.00    -0.190 OA 
BRANCH  24  25
HETATM   25  C   UNL     1     -10.260   9.292  70.921  1.00  0.00    -0.301 C  
BRANCH  25  26
HETATM   26  C   UNL     1     -11.715   9.356  71.369  1.00  0.00    -0.448 C  
BRANCH  26  27
HETATM   27  C   UNL     1     -12.417  10.580  70.780  1.00  0.00    -0.472 C  
BRANCH  27  28
HETATM   28  C   UNL     1     -13.251  11.318  71.825  1.00  0.00    -0.480 C  
BRANCH  28  29
HETATM   29  C   UNL     1     -13.116  12.810  71.631  1.00  0.00    -0.428 A  
HETATM   30  C   UNL     1     -13.885  13.696  72.393  1.00  0.00    -0.691 A  
HETATM   31  C   UNL     1     -13.818  15.069  72.157  1.00  0.00    -0.584 A  
HETATM   32  C   UNL     1     -12.984  15.566  71.158  1.00  0.00    -0.560 A  
HETATM   33  C   UNL     1     -12.210  14.691  70.396  1.00  0.00    -0.391 A  
HETATM   34  C   UNL     1     -12.275  13.318  70.630  1.00  0.00    -0.417 A  
ENDBRANCH  28  29
ENDBRANCH  27  28
ENDBRANCH  26  27
ENDBRANCH  25  26
ENDBRANCH  24  25
ENDBRANCH  23  24
ENDBRANCH  22  23
ENDBRANCH  21  22
ENDBRANCH  20  21
ENDBRANCH  19  20
ENDBRANCH  18  19
ENDBRANCH  16  18
ENDBRANCH  15  16
ENDBRANCH  12  15
ENDBRANCH  10  12
ENDBRANCH   2   4
TORSDOF 16
ENDMDL
MODEL       44
REMARK 921   NORMALIZED FREE ENERGY PREDICTED BY IDOCK:   -5.70 KCAL/MOL
REMARK 922        TOTAL FREE ENERGY PREDICTED BY IDOCK:  -13.38 KCAL/MOL
REMARK 923 INTER-LIGAND FREE ENERGY PREDICTED BY IDOCK:  -10.73 KCAL/MOL
REMARK 924 INTRA-LIGAND FREE ENERGY PREDICTED BY IDOCK:   -2.64 KCAL/MOL
REMARK 927      BINDING AFFINITY PREDICTED BY RF-SCORE:    0.00 PKD
ROOT
HETATM    1  O   UNL     1     -12.446  11.313  62.717  1.00  0.00    -0.905 OA 
HETATM    2  C   UNL     1     -11.328  11.356  63.605  1.00  0.00    -0.206 C  
HETATM    3  H   UNL     1     -12.268  10.720  61.995  1.00  0.00     0.000 HD 
ENDROOT
BRANCH   2   4
HETATM    4  C   UNL     1     -11.609  12.295  64.749  1.00  0.00    -0.393 A  
HETATM    5  C   UNL     1     -12.173  13.563  64.568  1.00  0.00    -0.398 A  
HETATM    6  O   UNL     1     -12.447  14.059  63.323  1.00  0.00    -1.139 OA 
HETATM    7  C   UNL     1     -12.455  14.393  65.647  1.00  0.00    -0.345 A  
HETATM    8  C   UNL     1     -12.152  13.974  66.940  1.00  0.00    -0.465 A  
HETATM    9  H   UNL     1     -12.829  14.920  63.200  1.00  0.00     0.000 HD 
HETATM   10  C   UNL     1     -11.582  12.711  67.167  1.00  0.00    -0.434 A  
HETATM   11  C   UNL     1     -11.338  11.874  66.064  1.00  0.00    -0.375 A  
BRANCH  10  12
HETATM   12  C   UNL     1     -11.202  12.252  68.562  1.00  0.00    -0.271 C  
HETATM   13  O   UNL     1      -9.794  12.435  68.776  1.00  0.00    -0.396 OA 
HETATM   14  H   UNL     1      -9.556  12.148  69.651  1.00  0.00     0.000 HD 
BRANCH  12  15
HETATM   15  C   UNL     1     -11.978  13.015  69.658  1.00  0.00    -0.302 C  
BRANCH  15  16
HETATM   16  N   UNL     1     -11.967  12.275  70.931  1.00  0.00    -0.377 NA 
HETATM   17  H   UNL     1     -12.478  12.768  71.663  1.00  0.00     0.000 HD 
BRANCH  16  18
HETATM   18  C   UNL     1     -12.471  10.921  70.728  1.00  0.00    -0.394 C  
BRANCH  18  19
HETATM   19  C   UNL     1     -13.143  10.418  71.999  1.00  0.00    -0.521 C  
BRANCH  19  20
HETATM   20  C   UNL     1     -13.444   8.926  71.881  1.00  0.00    -0.464 C  
BRANCH  20  21
HETATM   21  C   UNL     1     -12.276   8.191  71.240  1.00  0.00    -0.302 C  
BRANCH  21  22
HETATM   22  C   UNL     1     -12.251   6.722  71.647  1.00  0.00    -0.410 C  
BRANCH  22  23
HETATM   23  C   UNL     1     -11.080   6.453  72.580  1.00  0.00    -0.263 C  
BRANCH  23  24
HETATM   24  O   UNL     1     -10.332   7.654  72.721  1.00  0.00    -0.239 OA 
BRANCH  24  25
HETATM   25  C   UNL     1      -8.935   7.390  72.822  1.00  0.00    -0.140 C  
BRANCH  25  26
HETATM   26  C   UNL     1      -8.169   8.590  72.281  1.00  0.00    -0.168 C  
BRANCH  26  27
HETATM   27  C   UNL     1      -8.941   9.270  71.149  1.00  0.00    -0.168 C  
BRANCH  27  28
HETATM   28  C   UNL     1      -8.241   9.108  69.801  1.00  0.00    -0.128 C  
BRANCH  28  29
HETATM   29  C   UNL     1      -9.053   8.205  68.905  1.00  0.00    -0.147 A  
HETATM   30  C   UNL     1      -9.567   8.683  67.695  1.00  0.00    -0.190 A  
HETATM   31  C   UNL     1     -10.384   7.872  66.907  1.00  0.00    -0.400 A  
HETATM   32  C   UNL     1     -10.695   6.580  67.323  1.00  0.00    -0.427 A  
HETATM   33  C   UNL     1     -10.185   6.093  68.526  1.00  0.00    -0.221 A  
HETATM   34  C   UNL     1      -9.367   6.901  69.315  1.00  0.00    -0.144 A  
ENDBRANCH  28  29
ENDBRANCH  27  28
ENDBRANCH  26  27
ENDBRANCH  25  26
ENDBRANCH  24  25
ENDBRANCH  23  24
ENDBRANCH  22  23
ENDBRANCH  21  22
ENDBRANCH  20  21
ENDBRANCH  19  20
ENDBRANCH  18  19
ENDBRANCH  16  18
ENDBRANCH  15  16
ENDBRANCH  12  15
ENDBRANCH  10  12
ENDBRANCH   2   4
TORSDOF 16
ENDMDL
MODEL       45
REMARK 921   NORMALIZED FREE ENERGY PREDICTED BY IDOCK:   -5.68 KCAL/MOL
REMARK 922        TOTAL FREE ENERGY PREDICTED BY IDOCK:  -13.33 KCAL/MOL
REMARK 923 INTER-LIGAND FREE ENERGY PREDICTED BY IDOCK:  -10.15 KCAL/MOL
REMARK 924 INTRA-LIGAND FREE ENERGY PREDICTED BY IDOCK:   -3.18 KCAL/MOL
REMARK 927      BINDING AFFINITY PREDICTED BY RF-SCORE:    0.00 PKD
ROOT
HETATM    1  O   UNL     1     -11.017   5.465  66.187  1.00  0.00    -0.700 OA 
HETATM    2  C   UNL     1     -11.253   6.590  67.035  1.00  0.00    -0.207 C  
HETATM    3  H   UNL     1     -11.343   5.640  65.311  1.00  0.00     0.000 HD 
ENDROOT
BRANCH   2   4
HETATM    4  C   UNL     1     -10.737   6.313  68.422  1.00  0.00    -0.356 A  
HETATM    5  C   UNL     1      -9.434   5.867  68.671  1.00  0.00    -0.122 A  
HETATM    6  O   UNL     1      -8.561   5.590  67.656  1.00  0.00    -0.109 OA 
HETATM    7  C   UNL     1      -8.974   5.656  69.966  1.00  0.00    -0.150 A  
HETATM    8  C   UNL     1      -9.826   5.867  71.046  1.00  0.00    -0.225 A  
HETATM    9  H   UNL     1      -7.677   5.286  67.824  1.00  0.00     0.000 HD 
HETATM   10  C   UNL     1     -11.143   6.311  70.842  1.00  0.00    -0.366 A  
HETATM   11  C   UNL     1     -11.576   6.552  69.526  1.00  0.00    -0.298 A  
BRANCH  10  12
HETATM   12  C   UNL     1     -12.103   6.504  72.001  1.00  0.00    -0.312 C  
HETATM   13  O   UNL     1     -11.415   7.085  73.120  1.00  0.00    -0.534 OA 
HETATM   14  H   UNL     1     -12.016   7.206  73.846  1.00  0.00     0.000 HD 
BRANCH  12  15
HETATM   15  C   UNL     1     -13.298   7.406  71.625  1.00  0.00    -0.364 C  
BRANCH  15  16
HETATM   16  N   UNL     1     -13.453   8.512  72.583  1.00  0.00    -0.646 NA 
HETATM   17  H   UNL     1     -12.756   8.473  73.327  1.00  0.00     0.000 HD 
BRANCH  16  18
HETATM   18  C   UNL     1     -13.431   9.791  71.880  1.00  0.00    -0.395 C  
BRANCH  18  19
HETATM   19  C   UNL     1     -12.012  10.116  71.432  1.00  0.00    -0.447 C  
BRANCH  19  20
HETATM   20  C   UNL     1     -12.035  10.830  70.082  1.00  0.00    -0.432 C  
BRANCH  20  21
HETATM   21  C   UNL     1     -10.920  10.317  69.184  1.00  0.00    -0.280 C  
BRANCH  21  22
HETATM   22  C   UNL     1      -9.756   9.767  69.999  1.00  0.00    -0.292 C  
BRANCH  22  23
HETATM   23  C   UNL     1      -8.513   9.648  69.132  1.00  0.00    -0.143 C  
BRANCH  23  24
HETATM   24  O   UNL     1      -8.605  10.601  68.081  1.00  0.00    -0.117 OA 
BRANCH  24  25
HETATM   25  C   UNL     1      -7.747  10.263  66.993  1.00  0.00    -0.100 C  
BRANCH  25  26
HETATM   26  C   UNL     1      -8.374   9.115  66.213  1.00  0.00    -0.121 C  
BRANCH  26  27
HETATM   27  C   UNL     1      -9.759   9.498  65.691  1.00  0.00    -0.361 C  
BRANCH  27  28
HETATM   28  C   UNL     1      -9.677  10.383  64.448  1.00  0.00    -0.396 C  
BRANCH  28  29
HETATM   29  C   UNL     1     -10.635  11.543  64.579  1.00  0.00    -0.387 A  
HETATM   30  C   UNL     1     -10.932  12.078  65.838  1.00  0.00    -0.342 A  
HETATM   31  C   UNL     1     -11.877  13.096  65.965  1.00  0.00    -0.457 A  
HETATM   32  C   UNL     1     -12.534  13.584  64.837  1.00  0.00    -0.429 A  
HETATM   33  C   UNL     1     -12.242  13.060  63.578  1.00  0.00    -0.580 A  
HETATM   34  C   UNL     1     -11.296  12.043  63.448  1.00  0.00    -0.484 A  
ENDBRANCH  28  29
ENDBRANCH  27  28
ENDBRANCH  26  27
ENDBRANCH  25  26
ENDBRANCH  24  25
ENDBRANCH  23  24
ENDBRANCH  22  23
ENDBRANCH  21  22
ENDBRANCH  20  21
ENDBRANCH  19  20
ENDBRANCH  18  19
ENDBRANCH  16  18
ENDBRANCH  15  16
ENDBRANCH  12  15
ENDBRANCH  10  12
ENDBRANCH   2   4
TORSDOF 16
ENDMDL
MODEL       46
REMARK 921   NORMALIZED FREE ENERGY PREDICTED BY IDOCK:   -5.67 KCAL/MOL
REMARK 922        TOTAL FREE ENERGY PREDICTED BY IDOCK:  -13.32 KCAL/MOL
REMARK 923 INTER-LIGAND FREE ENERGY PREDICTED BY IDOCK:  -10.81 KCAL/MOL
REMARK 924 INTRA-LIGAND FREE ENERGY PREDICTED BY IDOCK:   -2.51 KCAL/MOL
REMARK 927      BINDING AFFINITY PREDICTED BY RF-SCORE:    0.00 PKD
ROOT
HETATM    1  O   UNL     1      -8.257   8.725  72.908  1.00  0.00    -0.410 OA 
HETATM    2  C   UNL     1      -9.197   7.736  73.332  1.00  0.00    -0.284 C  
HETATM    3  H   UNL     1      -7.693   8.973  73.632  1.00  0.00     0.000 HD 
ENDROOT
BRANCH   2   4
HETATM    4  C   UNL     1     -10.091   7.343  72.185  1.00  0.00    -0.223 A  
HETATM    5  C   UNL     1      -9.595   6.883  70.960  1.00  0.00    -0.170 A  
HETATM    6  O   UNL     1      -8.253   6.822  70.703  1.00  0.00    -0.117 OA 
HETATM    7  C   UNL     1     -10.446   6.491  69.933  1.00  0.00    -0.258 A  
HETATM    8  C   UNL     1     -11.825   6.577  70.106  1.00  0.00    -0.331 A  
HETATM    9  H   UNL     1      -7.916   6.511  69.871  1.00  0.00     0.000 HD 
HETATM   10  C   UNL     1     -12.365   7.037  71.318  1.00  0.00    -0.426 A  
HETATM   11  C   UNL     1     -11.487   7.393  72.356  1.00  0.00    -0.343 A  
BRANCH  10  12
HETATM   12  C   UNL     1     -13.863   7.182  71.512  1.00  0.00    -0.305 C  
HETATM   13  O   UNL     1     -14.360   6.113  72.333  1.00  0.00    -0.661 OA 
HETATM   14  H   UNL     1     -15.298   6.204  72.455  1.00  0.00     0.000 HD 
BRANCH  12  15
HETATM   15  C   UNL     1     -14.239   8.530  72.163  1.00  0.00    -0.434 C  
BRANCH  15  16
HETATM   16  N   UNL     1     -13.899   9.660  71.284  1.00  0.00    -0.316 NA 
HETATM   17  H   UNL     1     -14.726  10.063  70.842  1.00  0.00     0.000 HD 
BRANCH  16  18
HETATM   18  C   UNL     1     -13.134  10.658  72.023  1.00  0.00    -0.396 C  
BRANCH  18  19
HETATM   19  C   UNL     1     -12.210  11.414  71.077  1.00  0.00    -0.391 C  
BRANCH  19  20
HETATM   20  C   UNL     1     -11.705  10.483  69.977  1.00  0.00    -0.394 C  
BRANCH  20  21
HETATM   21  C   UNL     1     -11.805  11.156  68.616  1.00  0.00    -0.357 C  
BRANCH  21  22
HETATM   22  C   UNL     1     -10.890  10.488  67.596  1.00  0.00    -0.355 C  
BRANCH  22  23
HETATM   23  C   UNL     1     -10.927  11.245  66.278  1.00  0.00    -0.205 C  
BRANCH  23  24
HETATM   24  O   UNL     1     -11.678  12.438  66.466  1.00  0.00    -0.394 OA 
BRANCH  24  25
HETATM   25  C   UNL     1     -11.023  13.563  65.884  1.00  0.00    -0.278 C  
BRANCH  25  26
HETATM   26  C   UNL     1     -11.428  14.816  66.650  1.00  0.00    -0.339 C  
BRANCH  26  27
HETATM   27  C   UNL     1     -11.776  14.484  68.102  1.00  0.00    -0.369 C  
BRANCH  27  28
HETATM   28  C   UNL     1     -11.732  15.721  68.997  1.00  0.00    -0.405 C  
BRANCH  28  29
HETATM   29  C   UNL     1     -12.238  15.375  70.377  1.00  0.00    -0.430 A  
HETATM   30  C   UNL     1     -13.608  15.209  70.608  1.00  0.00    -0.176 A  
HETATM   31  C   UNL     1     -14.081  14.969  71.898  1.00  0.00    -0.627 A  
HETATM   32  C   UNL     1     -13.189  14.897  72.966  1.00  0.00    -0.596 A  
HETATM   33  C   UNL     1     -11.822  15.058  72.746  1.00  0.00    -0.391 A  
HETATM   34  C   UNL     1     -11.347  15.297  71.456  1.00  0.00    -0.432 A  
ENDBRANCH  28  29
ENDBRANCH  27  28
ENDBRANCH  26  27
ENDBRANCH  25  26
ENDBRANCH  24  25
ENDBRANCH  23  24
ENDBRANCH  22  23
ENDBRANCH  21  22
ENDBRANCH  20  21
ENDBRANCH  19  20
ENDBRANCH  18  19
ENDBRANCH  16  18
ENDBRANCH  15  16
ENDBRANCH  12  15
ENDBRANCH  10  12
ENDBRANCH   2   4
TORSDOF 16
ENDMDL
MODEL       47
REMARK 921   NORMALIZED FREE ENERGY PREDICTED BY IDOCK:   -5.66 KCAL/MOL
REMARK 922        TOTAL FREE ENERGY PREDICTED BY IDOCK:  -13.31 KCAL/MOL
REMARK 923 INTER-LIGAND FREE ENERGY PREDICTED BY IDOCK:  -11.63 KCAL/MOL
REMARK 924 INTRA-LIGAND FREE ENERGY PREDICTED BY IDOCK:   -1.68 KCAL/MOL
REMARK 927      BINDING AFFINITY PREDICTED BY RF-SCORE:    0.00 PKD
ROOT
HETATM    1  O   UNL     1     -11.308   5.535  66.126  1.00  0.00    -0.751 OA 
HETATM    2  C   UNL     1     -11.013   6.584  67.049  1.00  0.00    -0.396 C  
HETATM    3  H   UNL     1     -11.489   5.896  65.265  1.00  0.00     0.000 HD 
ENDROOT
BRANCH   2   4
HETATM    4  C   UNL     1     -10.726   6.013  68.412  1.00  0.00    -0.351 A  
HETATM    5  C   UNL     1      -9.733   5.052  68.638  1.00  0.00    -0.158 A  
HETATM    6  O   UNL     1      -8.999   4.520  67.614  1.00  0.00    -0.108 OA 
HETATM    7  C   UNL     1      -9.466   4.570  69.914  1.00  0.00    -0.245 A  
HETATM    8  C   UNL     1     -10.211   5.028  70.997  1.00  0.00    -0.283 A  
HETATM    9  H   UNL     1      -8.326   3.868  67.766  1.00  0.00     0.000 HD 
HETATM   10  C   UNL     1     -11.219   5.989  70.815  1.00  0.00    -0.340 A  
HETATM   11  C   UNL     1     -11.449   6.489  69.521  1.00  0.00    -0.384 A  
BRANCH  10  12
HETATM   12  C   UNL     1     -12.074   6.468  71.973  1.00  0.00    -0.312 C  
HETATM   13  O   UNL     1     -11.238   6.912  73.054  1.00  0.00    -0.429 OA 
HETATM   14  H   UNL     1     -11.774   7.213  73.779  1.00  0.00     0.000 HD 
BRANCH  12  15
HETATM   15  C   UNL     1     -13.017   7.620  71.565  1.00  0.00    -0.341 C  
BRANCH  15  16
HETATM   16  N   UNL     1     -13.015   8.693  72.573  1.00  0.00    -0.577 NA 
HETATM   17  H   UNL     1     -12.302   8.545  73.287  1.00  0.00     0.000 HD 
BRANCH  16  18
HETATM   18  C   UNL     1     -12.874   9.992  71.922  1.00  0.00    -0.426 C  
BRANCH  18  19
HETATM   19  C   UNL     1     -11.773   9.932  70.870  1.00  0.00    -0.449 C  
BRANCH  19  20
HETATM   20  C   UNL     1     -11.929  11.082  69.878  1.00  0.00    -0.427 C  
BRANCH  20  21
HETATM   21  C   UNL     1     -11.599  10.622  68.466  1.00  0.00    -0.279 C  
BRANCH  21  22
HETATM   22  C   UNL     1     -10.536  11.507  67.826  1.00  0.00    -0.227 C  
BRANCH  22  23
HETATM   23  C   UNL     1     -10.994  11.974  66.452  1.00  0.00    -0.296 C  
BRANCH  23  24
HETATM   24  O   UNL     1     -12.270  12.586  66.589  1.00  0.00    -0.552 OA 
BRANCH  24  25
HETATM   25  C   UNL     1     -12.158  14.001  66.723  1.00  0.00    -0.447 C  
BRANCH  25  26
HETATM   26  C   UNL     1     -11.336  14.540  65.559  1.00  0.00    -0.335 C  
BRANCH  26  27
HETATM   27  C   UNL     1     -10.235  15.480  66.054  1.00  0.00    -0.349 C  
BRANCH  27  28
HETATM   28  C   UNL     1     -10.600  16.138  67.383  1.00  0.00    -0.311 C  
BRANCH  28  29
HETATM   29  C   UNL     1     -10.316  17.620  67.319  1.00  0.00    -0.354 A  
HETATM   30  C   UNL     1     -10.057  18.343  68.488  1.00  0.00    -0.413 A  
HETATM   31  C   UNL     1      -9.874  19.725  68.435  1.00  0.00    -0.522 A  
HETATM   32  C   UNL     1      -9.952  20.394  67.215  1.00  0.00    -0.564 A  
HETATM   33  C   UNL     1     -10.206  19.681  66.044  1.00  0.00    -0.587 A  
HETATM   34  C   UNL     1     -10.388  18.299  66.094  1.00  0.00    -0.414 A  
ENDBRANCH  28  29
ENDBRANCH  27  28
ENDBRANCH  26  27
ENDBRANCH  25  26
ENDBRANCH  24  25
ENDBRANCH  23  24
ENDBRANCH  22  23
ENDBRANCH  21  22
ENDBRANCH  20  21
ENDBRANCH  19  20
ENDBRANCH  18  19
ENDBRANCH  16  18
ENDBRANCH  15  16
ENDBRANCH  12  15
ENDBRANCH  10  12
ENDBRANCH   2   4
TORSDOF 16
ENDMDL
MODEL       48
REMARK 921   NORMALIZED FREE ENERGY PREDICTED BY IDOCK:   -5.66 KCAL/MOL
REMARK 922        TOTAL FREE ENERGY PREDICTED BY IDOCK:  -13.29 KCAL/MOL
REMARK 923 INTER-LIGAND FREE ENERGY PREDICTED BY IDOCK:  -10.54 KCAL/MOL
REMARK 924 INTRA-LIGAND FREE ENERGY PREDICTED BY IDOCK:   -2.76 KCAL/MOL
REMARK 927      BINDING AFFINITY PREDICTED BY RF-SCORE:    0.00 PKD
ROOT
HETATM    1  O   UNL     1      -8.235   8.620  73.221  1.00  0.00    -0.411 OA 
HETATM    2  C   UNL     1      -9.248   7.697  73.622  1.00  0.00    -0.283 C  
HETATM    3  H   UNL     1      -7.714   8.882  73.971  1.00  0.00     0.000 HD 
ENDROOT
BRANCH   2   4
HETATM    4  C   UNL     1     -10.075   7.282  72.434  1.00  0.00    -0.218 A  
HETATM    5  C   UNL     1      -9.515   6.727  71.277  1.00  0.00    -0.165 A  
HETATM    6  O   UNL     1      -8.164   6.584  71.128  1.00  0.00    -0.118 OA 
HETATM    7  C   UNL     1     -10.308   6.319  70.210  1.00  0.00    -0.258 A  
HETATM    8  C   UNL     1     -11.690   6.484  70.272  1.00  0.00    -0.430 A  
HETATM    9  H   UNL     1      -7.783   6.208  70.343  1.00  0.00     0.000 HD 
HETATM   10  C   UNL     1     -12.292   7.041  71.411  1.00  0.00    -0.419 A  
HETATM   11  C   UNL     1     -11.475   7.413  72.493  1.00  0.00    -0.346 A  
BRANCH  10  12
HETATM   12  C   UNL     1     -13.790   7.272  71.482  1.00  0.00    -0.350 C  
HETATM   13  O   UNL     1     -14.380   6.395  72.455  1.00  0.00    -0.711 OA 
HETATM   14  H   UNL     1     -15.318   6.540  72.499  1.00  0.00     0.000 HD 
BRANCH  12  15
HETATM   15  C   UNL     1     -14.139   8.731  71.846  1.00  0.00    -0.420 C  
BRANCH  15  16
HETATM   16  N   UNL     1     -13.897   9.636  70.711  1.00  0.00    -0.441 NA 
HETATM   17  H   UNL     1     -14.759  10.067  70.376  1.00  0.00     0.000 HD 
BRANCH  16  18
HETATM   18  C   UNL     1     -12.891  10.630  71.068  1.00  0.00    -0.402 C  
BRANCH  18  19
HETATM   19  C   UNL     1     -11.933  10.846  69.904  1.00  0.00    -0.430 C  
BRANCH  19  20
HETATM   20  C   UNL     1     -10.644  10.059  70.130  1.00  0.00    -0.350 C  
BRANCH  20  21
HETATM   21  C   UNL     1     -10.062   9.588  68.804  1.00  0.00    -0.202 C  
BRANCH  21  22
HETATM   22  C   UNL     1     -10.944  10.001  67.632  1.00  0.00    -0.297 C  
BRANCH  22  23
HETATM   23  C   UNL     1     -10.151   9.961  66.335  1.00  0.00    -0.240 C  
BRANCH  23  24
HETATM   24  O   UNL     1     -10.328  11.201  65.661  1.00  0.00    -0.242 OA 
BRANCH  24  25
HETATM   25  C   UNL     1     -10.457  11.015  64.253  1.00  0.00    -0.359 C  
BRANCH  25  26
HETATM   26  C   UNL     1     -11.577  11.912  63.741  1.00  0.00    -0.555 C  
BRANCH  26  27
HETATM   27  C   UNL     1     -12.371  12.516  64.901  1.00  0.00    -0.539 C  
BRANCH  27  28
HETATM   28  C   UNL     1     -12.283  14.040  64.920  1.00  0.00    -0.455 C  
BRANCH  28  29
HETATM   29  C   UNL     1     -11.772  14.509  66.262  1.00  0.00    -0.364 A  
HETATM   30  C   UNL     1     -10.880  15.583  66.345  1.00  0.00    -0.277 A  
HETATM   31  C   UNL     1     -10.348  15.963  67.577  1.00  0.00    -0.283 A  
HETATM   32  C   UNL     1     -10.700  15.270  68.734  1.00  0.00    -0.241 A  
HETATM   33  C   UNL     1     -11.590  14.200  68.661  1.00  0.00    -0.352 A  
HETATM   34  C   UNL     1     -12.125  13.819  67.431  1.00  0.00    -0.378 A  
ENDBRANCH  28  29
ENDBRANCH  27  28
ENDBRANCH  26  27
ENDBRANCH  25  26
ENDBRANCH  24  25
ENDBRANCH  23  24
ENDBRANCH  22  23
ENDBRANCH  21  22
ENDBRANCH  20  21
ENDBRANCH  19  20
ENDBRANCH  18  19
ENDBRANCH  16  18
ENDBRANCH  15  16
ENDBRANCH  12  15
ENDBRANCH  10  12
ENDBRANCH   2   4
TORSDOF 16
ENDMDL
MODEL       49
REMARK 921   NORMALIZED FREE ENERGY PREDICTED BY IDOCK:   -5.66 KCAL/MOL
REMARK 922        TOTAL FREE ENERGY PREDICTED BY IDOCK:  -13.29 KCAL/MOL
REMARK 923 INTER-LIGAND FREE ENERGY PREDICTED BY IDOCK:  -10.36 KCAL/MOL
REMARK 924 INTRA-LIGAND FREE ENERGY PREDICTED BY IDOCK:   -2.94 KCAL/MOL
REMARK 927      BINDING AFFINITY PREDICTED BY RF-SCORE:    0.00 PKD
ROOT
HETATM    1  O   UNL     1     -12.371  13.816  62.969  1.00  0.00    -1.089 OA 
HETATM    2  C   UNL     1     -11.680  12.798  63.694  1.00  0.00    -0.519 C  
HETATM    3  H   UNL     1     -12.572  13.514  62.091  1.00  0.00     0.000 HD 
ENDROOT
BRANCH   2   4
HETATM    4  C   UNL     1     -11.360  13.277  65.086  1.00  0.00    -0.318 A  
HETATM    5  C   UNL     1     -12.328  13.808  65.946  1.00  0.00    -0.476 A  
HETATM    6  O   UNL     1     -13.624  13.988  65.549  1.00  0.00    -0.673 OA 
HETATM    7  C   UNL     1     -12.010  14.208  67.239  1.00  0.00    -0.449 A  
HETATM    8  C   UNL     1     -10.697  14.103  67.692  1.00  0.00    -0.260 A  
HETATM    9  H   UNL     1     -14.281  14.349  66.133  1.00  0.00     0.000 HD 
HETATM   10  C   UNL     1      -9.694  13.580  66.861  1.00  0.00    -0.261 A  
HETATM   11  C   UNL     1     -10.045  13.149  65.569  1.00  0.00    -0.271 A  
BRANCH  10  12
HETATM   12  C   UNL     1      -8.249  13.499  67.317  1.00  0.00    -0.154 C  
HETATM   13  O   UNL     1      -7.975  14.534  68.274  1.00  0.00    -0.122 OA 
HETATM   14  H   UNL     1      -7.070  14.484  68.560  1.00  0.00     0.000 HD 
BRANCH  12  15
HETATM   15  C   UNL     1      -7.912  12.132  67.950  1.00  0.00    -0.150 C  
BRANCH  15  16
HETATM   16  N   UNL     1      -7.387  11.194  66.944  1.00  0.00    -0.131 NA 
HETATM   17  H   UNL     1      -6.368  11.155  66.954  1.00  0.00     0.000 HD 
BRANCH  16  18
HETATM   18  C   UNL     1      -7.986   9.876  67.126  1.00  0.00    -0.109 C  
BRANCH  18  19
HETATM   19  C   UNL     1      -9.328   9.809  66.408  1.00  0.00    -0.218 C  
BRANCH  19  20
HETATM   20  C   UNL     1     -10.395   9.236  67.339  1.00  0.00    -0.327 C  
BRANCH  20  21
HETATM   21  C   UNL     1     -11.276  10.346  67.893  1.00  0.00    -0.332 C  
BRANCH  21  22
HETATM   22  C   UNL     1     -11.114  10.485  69.402  1.00  0.00    -0.310 C  
BRANCH  22  23
HETATM   23  C   UNL     1     -12.137  11.465  69.955  1.00  0.00    -0.330 C  
BRANCH  23  24
HETATM   24  O   UNL     1     -12.489  11.053  71.270  1.00  0.00    -0.370 OA 
BRANCH  24  25
HETATM   25  C   UNL     1     -12.074   9.713  71.524  1.00  0.00    -0.401 C  
BRANCH  25  26
HETATM   26  C   UNL     1     -13.269   8.918  72.034  1.00  0.00    -0.459 C  
BRANCH  26  27
HETATM   27  C   UNL     1     -13.206   7.466  71.556  1.00  0.00    -0.426 C  
BRANCH  27  28
HETATM   28  C   UNL     1     -11.996   6.729  72.128  1.00  0.00    -0.309 C  
BRANCH  28  29
HETATM   29  C   UNL     1     -11.181   6.132  71.006  1.00  0.00    -0.361 A  
HETATM   30  C   UNL     1     -11.449   6.474  69.676  1.00  0.00    -0.417 A  
HETATM   31  C   UNL     1     -10.749   5.860  68.637  1.00  0.00    -0.339 A  
HETATM   32  C   UNL     1      -9.780   4.900  68.918  1.00  0.00    -0.242 A  
HETATM   33  C   UNL     1      -9.503   4.555  70.241  1.00  0.00    -0.241 A  
HETATM   34  C   UNL     1     -10.201   5.168  71.282  1.00  0.00    -0.292 A  
ENDBRANCH  28  29
ENDBRANCH  27  28
ENDBRANCH  26  27
ENDBRANCH  25  26
ENDBRANCH  24  25
ENDBRANCH  23  24
ENDBRANCH  22  23
ENDBRANCH  21  22
ENDBRANCH  20  21
ENDBRANCH  19  20
ENDBRANCH  18  19
ENDBRANCH  16  18
ENDBRANCH  15  16
ENDBRANCH  12  15
ENDBRANCH  10  12
ENDBRANCH   2   4
TORSDOF 16
ENDMDL
MODEL       50
REMARK 921   NORMALIZED FREE ENERGY PREDICTED BY IDOCK:   -5.64 KCAL/MOL
REMARK 922        TOTAL FREE ENERGY PREDICTED BY IDOCK:  -13.26 KCAL/MOL
REMARK 923 INTER-LIGAND FREE ENERGY PREDICTED BY IDOCK:   -9.75 KCAL/MOL
REMARK 924 INTRA-LIGAND FREE ENERGY PREDICTED BY IDOCK:   -3.51 KCAL/MOL
REMARK 927      BINDING AFFINITY PREDICTED BY RF-SCORE:    0.00 PKD
ROOT
HETATM    1  O   UNL     1      -9.380  11.604  63.432  1.00  0.00    -0.495 OA 
HETATM    2  C   UNL     1     -10.245  11.005  64.398  1.00  0.00    -0.346 C  
HETATM    3  H   UNL     1      -8.917  10.932  62.945  1.00  0.00     0.000 HD 
ENDROOT
BRANCH   2   4
HETATM    4  C   UNL     1     -10.980  12.069  65.170  1.00  0.00    -0.359 A  
HETATM    5  C   UNL     1     -11.725  13.078  64.549  1.00  0.00    -0.369 A  
HETATM    6  O   UNL     1     -11.779  13.200  63.188  1.00  0.00    -0.778 OA 
HETATM    7  C   UNL     1     -12.423  14.025  65.289  1.00  0.00    -0.495 A  
HETATM    8  C   UNL     1     -12.369  13.994  66.681  1.00  0.00    -0.408 A  
HETATM    9  H   UNL     1     -12.284  13.885  62.766  1.00  0.00     0.000 HD 
HETATM   10  C   UNL     1     -11.630  13.001  67.344  1.00  0.00    -0.407 A  
HETATM   11  C   UNL     1     -10.961  12.032  66.576  1.00  0.00    -0.337 A  
BRANCH  10  12
HETATM   12  C   UNL     1     -11.520  12.975  68.857  1.00  0.00    -0.299 C  
HETATM   13  O   UNL     1     -12.366  13.983  69.432  1.00  0.00    -0.417 OA 
HETATM   14  H   UNL     1     -12.298  13.966  70.380  1.00  0.00     0.000 HD 
BRANCH  12  15
HETATM   15  C   UNL     1     -11.906  11.602  69.447  1.00  0.00    -0.342 C  
BRANCH  15  16
HETATM   16  N   UNL     1     -12.203  11.704  70.885  1.00  0.00    -0.346 NA 
HETATM   17  H   UNL     1     -12.792  12.509  71.097  1.00  0.00     0.000 HD 
BRANCH  16  18
HETATM   18  C   UNL     1     -12.788  10.456  71.366  1.00  0.00    -0.452 C  
BRANCH  18  19
HETATM   19  C   UNL     1     -11.953   9.272  70.895  1.00  0.00    -0.321 C  
BRANCH  19  20
HETATM   20  C   UNL     1     -11.165   8.685  72.064  1.00  0.00    -0.434 C  
BRANCH  20  21
HETATM   21  C   UNL     1      -9.671   8.723  71.778  1.00  0.00    -0.380 C  
BRANCH  21  22
HETATM   22  C   UNL     1      -9.376   9.408  70.449  1.00  0.00    -0.317 C  
BRANCH  22  23
HETATM   23  C   UNL     1      -7.901   9.274  70.102  1.00  0.00    -0.125 C  
BRANCH  23  24
HETATM   24  O   UNL     1      -7.379  10.574  69.853  1.00  0.00    -0.154 OA 
BRANCH  24  25
HETATM   25  C   UNL     1      -7.960  11.155  68.689  1.00  0.00    -0.145 C  
BRANCH  25  26
HETATM   26  C   UNL     1      -6.925  12.049  68.017  1.00  0.00    -0.084 C  
BRANCH  26  27
HETATM   27  C   UNL     1      -7.581  13.297  67.424  1.00  0.00    -0.137 C  
BRANCH  27  28
HETATM   28  C   UNL     1      -8.009  14.286  68.506  1.00  0.00    -0.145 C  
BRANCH  28  29
HETATM   29  C   UNL     1      -8.869  15.370  67.901  1.00  0.00    -0.168 A  
HETATM   30  C   UNL     1      -9.642  16.201  68.719  1.00  0.00    -0.235 A  
HETATM   31  C   UNL     1     -10.498  17.147  68.154  1.00  0.00    -0.366 A  
HETATM   32  C   UNL     1     -10.589  17.268  66.769  1.00  0.00    -0.192 A  
HETATM   33  C   UNL     1      -9.820  16.446  65.946  1.00  0.00    -0.344 A  
HETATM   34  C   UNL     1      -8.963  15.500  66.508  1.00  0.00    -0.348 A  
ENDBRANCH  28  29
ENDBRANCH  27  28
ENDBRANCH  26  27
ENDBRANCH  25  26
ENDBRANCH  24  25
ENDBRANCH  23  24
ENDBRANCH  22  23
ENDBRANCH  21  22
ENDBRANCH  20  21
ENDBRANCH  19  20
ENDBRANCH  18  19
ENDBRANCH  16  18
ENDBRANCH  15  16
ENDBRANCH  12  15
ENDBRANCH  10  12
ENDBRANCH   2   4
TORSDOF 16
ENDMDL
MODEL       51
REMARK 921   NORMALIZED FREE ENERGY PREDICTED BY IDOCK:   -5.64 KCAL/MOL
REMARK 922        TOTAL FREE ENERGY PREDICTED BY IDOCK:  -13.25 KCAL/MOL
REMARK 923 INTER-LIGAND FREE ENERGY PREDICTED BY IDOCK:  -10.66 KCAL/MOL
REMARK 924 INTRA-LIGAND FREE ENERGY PREDICTED BY IDOCK:   -2.59 KCAL/MOL
REMARK 927      BINDING AFFINITY PREDICTED BY RF-SCORE:    0.00 PKD
ROOT
HETATM    1  O   UNL     1     -10.977  13.847  69.475  1.00  0.00    -0.400 OA 
HETATM    2  C   UNL     1     -12.018  13.530  68.550  1.00  0.00    -0.344 C  
HETATM    3  H   UNL     1     -11.293  13.757  70.367  1.00  0.00     0.000 HD 
ENDROOT
BRANCH   2   4
HETATM    4  C   UNL     1     -11.519  13.673  67.136  1.00  0.00    -0.367 A  
HETATM    5  C   UNL     1     -10.904  14.838  66.664  1.00  0.00    -0.319 A  
HETATM    6  O   UNL     1     -10.774  15.952  67.446  1.00  0.00    -0.312 OA 
HETATM    7  C   UNL     1     -10.419  14.927  65.364  1.00  0.00    -0.406 A  
HETATM    8  C   UNL     1     -10.565  13.848  64.495  1.00  0.00    -0.375 A  
HETATM    9  H   UNL     1     -10.357  16.743  67.125  1.00  0.00     0.000 HD 
HETATM   10  C   UNL     1     -11.181  12.662  64.927  1.00  0.00    -0.332 A  
HETATM   11  C   UNL     1     -11.631  12.581  66.256  1.00  0.00    -0.449 A  
BRANCH  10  12
HETATM   12  C   UNL     1     -11.391  11.491  63.985  1.00  0.00    -0.296 C  
HETATM   13  O   UNL     1     -12.429  11.797  63.040  1.00  0.00    -0.911 OA 
HETATM   14  H   UNL     1     -12.561  11.064  62.450  1.00  0.00     0.000 HD 
BRANCH  12  15
HETATM   15  C   UNL     1     -10.105  11.125  63.213  1.00  0.00    -0.380 C  
BRANCH  15  16
HETATM   16  N   UNL     1      -9.598   9.804  63.620  1.00  0.00    -0.487 NA 
HETATM   17  H   UNL     1      -9.474   9.180  62.823  1.00  0.00     0.000 HD 
BRANCH  16  18
HETATM   18  C   UNL     1      -8.368   9.955  64.392  1.00  0.00    -0.168 C  
BRANCH  18  19
HETATM   19  C   UNL     1      -8.674   9.873  65.882  1.00  0.00    -0.154 C  
BRANCH  19  20
HETATM   20  C   UNL     1      -9.917   9.019  66.119  1.00  0.00    -0.311 C  
BRANCH  20  21
HETATM   21  C   UNL     1     -10.591   9.402  67.428  1.00  0.00    -0.326 C  
BRANCH  21  22
HETATM   22  C   UNL     1      -9.570   9.616  68.539  1.00  0.00    -0.152 C  
BRANCH  22  23
HETATM   23  C   UNL     1     -10.185  10.417  69.676  1.00  0.00    -0.209 C  
BRANCH  23  24
HETATM   24  O   UNL     1     -11.542  10.020  69.822  1.00  0.00    -0.216 OA 
BRANCH  24  25
HETATM   25  C   UNL     1     -12.182  10.732  70.879  1.00  0.00    -0.384 C  
BRANCH  25  26
HETATM   26  C   UNL     1     -13.000   9.750  71.707  1.00  0.00    -0.536 C  
BRANCH  26  27
HETATM   27  C   UNL     1     -12.148   8.557  72.143  1.00  0.00    -0.449 C  
BRANCH  27  28
HETATM   28  C   UNL     1     -12.722   7.232  71.645  1.00  0.00    -0.410 C  
BRANCH  28  29
HETATM   29  C   UNL     1     -11.621   6.384  71.054  1.00  0.00    -0.386 A  
HETATM   30  C   UNL     1     -11.422   6.348  69.669  1.00  0.00    -0.446 A  
HETATM   31  C   UNL     1     -10.458   5.503  69.119  1.00  0.00    -0.315 A  
HETATM   32  C   UNL     1      -9.689   4.687  69.947  1.00  0.00    -0.279 A  
HETATM   33  C   UNL     1      -9.879   4.719  71.328  1.00  0.00    -0.256 A  
HETATM   34  C   UNL     1     -10.842   5.564  71.881  1.00  0.00    -0.286 A  
ENDBRANCH  28  29
ENDBRANCH  27  28
ENDBRANCH  26  27
ENDBRANCH  25  26
ENDBRANCH  24  25
ENDBRANCH  23  24
ENDBRANCH  22  23
ENDBRANCH  21  22
ENDBRANCH  20  21
ENDBRANCH  19  20
ENDBRANCH  18  19
ENDBRANCH  16  18
ENDBRANCH  15  16
ENDBRANCH  12  15
ENDBRANCH  10  12
ENDBRANCH   2   4
TORSDOF 16
ENDMDL
MODEL       52
REMARK 921   NORMALIZED FREE ENERGY PREDICTED BY IDOCK:   -5.62 KCAL/MOL
REMARK 922        TOTAL FREE ENERGY PREDICTED BY IDOCK:  -13.22 KCAL/MOL
REMARK 923 INTER-LIGAND FREE ENERGY PREDICTED BY IDOCK:  -10.72 KCAL/MOL
REMARK 924 INTRA-LIGAND FREE ENERGY PREDICTED BY IDOCK:   -2.50 KCAL/MOL
REMARK 927      BINDING AFFINITY PREDICTED BY RF-SCORE:    0.00 PKD
ROOT
HETATM    1  O   UNL     1     -13.656  14.259  65.637  1.00  0.00    -0.633 OA 
HETATM    2  C   UNL     1     -12.339  13.992  66.121  1.00  0.00    -0.458 C  
HETATM    3  H   UNL     1     -14.078  14.917  66.178  1.00  0.00     0.000 HD 
ENDROOT
BRANCH   2   4
HETATM    4  C   UNL     1     -11.671  12.949  65.264  1.00  0.00    -0.399 A  
HETATM    5  C   UNL     1     -11.690  12.991  63.865  1.00  0.00    -0.468 A  
HETATM    6  O   UNL     1     -12.379  13.956  63.183  1.00  0.00    -1.122 OA 
HETATM    7  C   UNL     1     -11.032  12.034  63.101  1.00  0.00    -0.269 A  
HETATM    8  C   UNL     1     -10.355  10.993  63.730  1.00  0.00    -0.427 A  
HETATM    9  H   UNL     1     -12.393  13.984  62.234  1.00  0.00     0.000 HD 
HETATM   10  C   UNL     1     -10.313  10.910  65.131  1.00  0.00    -0.344 A  
HETATM   11  C   UNL     1     -10.955  11.908  65.884  1.00  0.00    -0.354 A  
BRANCH  10  12
HETATM   12  C   UNL     1      -9.620   9.759  65.836  1.00  0.00    -0.250 C  
HETATM   13  O   UNL     1      -8.471  10.238  66.552  1.00  0.00    -0.123 OA 
HETATM   14  H   UNL     1      -8.037   9.518  66.994  1.00  0.00     0.000 HD 
BRANCH  12  15
HETATM   15  C   UNL     1     -10.557   9.031  66.823  1.00  0.00    -0.131 C  
BRANCH  15  16
HETATM   16  N   UNL     1     -10.487   7.571  66.646  1.00  0.00    -0.511 NA 
HETATM   17  H   UNL     1      -9.810   7.305  65.930  1.00  0.00     0.000 HD 
BRANCH  16  18
HETATM   18  C   UNL     1     -10.212   6.923  67.925  1.00  0.00    -0.174 C  
BRANCH  18  19
HETATM   19  C   UNL     1      -9.861   7.970  68.975  1.00  0.00    -0.178 C  
BRANCH  19  20
HETATM   20  C   UNL     1      -8.877   7.389  69.988  1.00  0.00    -0.141 C  
BRANCH  20  21
HETATM   21  C   UNL     1      -8.541   8.416  71.060  1.00  0.00    -0.181 C  
BRANCH  21  22
HETATM   22  C   UNL     1      -8.254   7.749  72.400  1.00  0.00    -0.155 C  
BRANCH  22  23
HETATM   23  C   UNL     1      -8.966   6.408  72.486  1.00  0.00    -0.136 C  
BRANCH  23  24
HETATM   24  O   UNL     1     -10.269   6.624  73.013  1.00  0.00    -0.183 OA 
BRANCH  24  25
HETATM   25  C   UNL     1     -11.270   6.035  72.186  1.00  0.00    -0.291 C  
BRANCH  25  26
HETATM   26  C   UNL     1     -12.333   7.084  71.882  1.00  0.00    -0.358 C  
BRANCH  26  27
HETATM   27  C   UNL     1     -11.908   8.460  72.395  1.00  0.00    -0.452 C  
BRANCH  27  28
HETATM   28  C   UNL     1     -13.072   9.450  72.405  1.00  0.00    -0.458 C  
BRANCH  28  29
HETATM   29  C   UNL     1     -12.696  10.694  71.635  1.00  0.00    -0.531 A  
HETATM   30  C   UNL     1     -13.216  11.939  72.004  1.00  0.00    -0.461 A  
HETATM   31  C   UNL     1     -12.932  13.073  71.243  1.00  0.00    -0.330 A  
HETATM   32  C   UNL     1     -12.130  12.971  70.109  1.00  0.00    -0.377 A  
HETATM   33  C   UNL     1     -11.605  11.735  69.736  1.00  0.00    -0.372 A  
HETATM   34  C   UNL     1     -11.886  10.599  70.495  1.00  0.00    -0.453 A  
ENDBRANCH  28  29
ENDBRANCH  27  28
ENDBRANCH  26  27
ENDBRANCH  25  26
ENDBRANCH  24  25
ENDBRANCH  23  24
ENDBRANCH  22  23
ENDBRANCH  21  22
ENDBRANCH  20  21
ENDBRANCH  19  20
ENDBRANCH  18  19
ENDBRANCH  16  18
ENDBRANCH  15  16
ENDBRANCH  12  15
ENDBRANCH  10  12
ENDBRANCH   2   4
TORSDOF 16
ENDMDL
MODEL       53
REMARK 921   NORMALIZED FREE ENERGY PREDICTED BY IDOCK:   -5.61 KCAL/MOL
REMARK 922        TOTAL FREE ENERGY PREDICTED BY IDOCK:  -13.21 KCAL/MOL
REMARK 923 INTER-LIGAND FREE ENERGY PREDICTED BY IDOCK:  -11.41 KCAL/MOL
REMARK 924 INTRA-LIGAND FREE ENERGY PREDICTED BY IDOCK:   -1.79 KCAL/MOL
REMARK 927      BINDING AFFINITY PREDICTED BY RF-SCORE:    0.00 PKD
ROOT
HETATM    1  O   UNL     1     -10.386  11.400  62.915  1.00  0.00    -0.611 OA 
HETATM    2  C   UNL     1     -10.506  10.946  64.264  1.00  0.00    -0.335 C  
HETATM    3  H   UNL     1     -10.010  10.718  62.371  1.00  0.00     0.000 HD 
ENDROOT
BRANCH   2   4
HETATM    4  C   UNL     1     -11.101  12.028  65.127  1.00  0.00    -0.369 A  
HETATM    5  C   UNL     1     -12.218  12.778  64.739  1.00  0.00    -0.459 A  
HETATM    6  O   UNL     1     -12.803  12.617  63.514  1.00  0.00    -0.712 OA 
HETATM    7  C   UNL     1     -12.768  13.744  65.573  1.00  0.00    -0.530 A  
HETATM    8  C   UNL     1     -12.190  13.998  66.814  1.00  0.00    -0.439 A  
HETATM    9  H   UNL     1     -13.561  13.126  63.251  1.00  0.00     0.000 HD 
HETATM   10  C   UNL     1     -11.066  13.272  67.241  1.00  0.00    -0.301 A  
HETATM   11  C   UNL     1     -10.548  12.274  66.397  1.00  0.00    -0.272 A  
BRANCH  10  12
HETATM   12  C   UNL     1     -10.393  13.563  68.569  1.00  0.00    -0.240 C  
HETATM   13  O   UNL     1      -8.995  13.241  68.496  1.00  0.00    -0.303 OA 
HETATM   14  H   UNL     1      -8.573  13.423  69.328  1.00  0.00     0.000 HD 
BRANCH  12  15
HETATM   15  C   UNL     1     -10.544  15.041  68.989  1.00  0.00    -0.245 C  
BRANCH  15  16
HETATM   16  N   UNL     1     -10.522  15.184  70.454  1.00  0.00    -0.520 NA 
HETATM   17  H   UNL     1      -9.650  15.597  70.784  1.00  0.00     0.000 HD 
BRANCH  16  18
HETATM   18  C   UNL     1     -11.689  15.938  70.901  1.00  0.00    -0.420 C  
BRANCH  18  19
HETATM   19  C   UNL     1     -12.959  15.136  70.648  1.00  0.00    -0.420 C  
BRANCH  19  20
HETATM   20  C   UNL     1     -13.758  14.993  71.942  1.00  0.00    -0.548 C  
BRANCH  20  21
HETATM   21  C   UNL     1     -13.597  13.595  72.521  1.00  0.00    -0.675 C  
BRANCH  21  22
HETATM   22  C   UNL     1     -12.919  12.656  71.531  1.00  0.00    -0.380 C  
BRANCH  22  23
HETATM   23  C   UNL     1     -13.259  11.210  71.855  1.00  0.00    -0.382 C  
BRANCH  23  24
HETATM   24  O   UNL     1     -12.158  10.394  71.478  1.00  0.00    -0.353 OA 
BRANCH  24  25
HETATM   25  C   UNL     1     -11.895  10.488  70.080  1.00  0.00    -0.308 C  
BRANCH  25  26
HETATM   26  C   UNL     1     -10.484   9.980  69.811  1.00  0.00    -0.291 C  
BRANCH  26  27
HETATM   27  C   UNL     1     -10.184   8.728  70.637  1.00  0.00    -0.247 C  
BRANCH  27  28
HETATM   28  C   UNL     1     -10.734   7.464  69.979  1.00  0.00    -0.258 C  
BRANCH  28  29
HETATM   29  C   UNL     1     -10.701   6.317  70.961  1.00  0.00    -0.313 A  
HETATM   30  C   UNL     1     -11.301   6.443  72.218  1.00  0.00    -0.330 A  
HETATM   31  C   UNL     1     -11.200   5.413  73.153  1.00  0.00    -0.355 A  
HETATM   32  C   UNL     1     -10.497   4.252  72.840  1.00  0.00    -0.246 A  
HETATM   33  C   UNL     1      -9.898   4.115  71.588  1.00  0.00    -0.254 A  
HETATM   34  C   UNL     1      -9.998   5.144  70.650  1.00  0.00    -0.296 A  
ENDBRANCH  28  29
ENDBRANCH  27  28
ENDBRANCH  26  27
ENDBRANCH  25  26
ENDBRANCH  24  25
ENDBRANCH  23  24
ENDBRANCH  22  23
ENDBRANCH  21  22
ENDBRANCH  20  21
ENDBRANCH  19  20
ENDBRANCH  18  19
ENDBRANCH  16  18
ENDBRANCH  15  16
ENDBRANCH  12  15
ENDBRANCH  10  12
ENDBRANCH   2   4
TORSDOF 16
ENDMDL
MODEL       54
REMARK 921   NORMALIZED FREE ENERGY PREDICTED BY IDOCK:   -5.60 KCAL/MOL
REMARK 922        TOTAL FREE ENERGY PREDICTED BY IDOCK:  -13.19 KCAL/MOL
REMARK 923 INTER-LIGAND FREE ENERGY PREDICTED BY IDOCK:  -10.86 KCAL/MOL
REMARK 924 INTRA-LIGAND FREE ENERGY PREDICTED BY IDOCK:   -2.34 KCAL/MOL
REMARK 927      BINDING AFFINITY PREDICTED BY RF-SCORE:    0.00 PKD
ROOT
HETATM    1  O   UNL     1      -8.994   8.867  63.910  1.00  0.00    -0.431 OA 
HETATM    2  C   UNL     1      -8.620  10.208  64.230  1.00  0.00    -0.193 C  
HETATM    3  H   UNL     1      -8.315   8.452  63.390  1.00  0.00     0.000 HD 
ENDROOT
BRANCH   2   4
HETATM    4  C   UNL     1      -9.696  10.866  65.054  1.00  0.00    -0.319 A  
HETATM    5  C   UNL     1     -10.024  10.443  66.347  1.00  0.00    -0.221 A  
HETATM    6  O   UNL     1      -9.428   9.356  66.923  1.00  0.00    -0.144 OA 
HETATM    7  C   UNL     1     -10.996  11.094  67.098  1.00  0.00    -0.350 A  
HETATM    8  C   UNL     1     -11.682  12.177  66.554  1.00  0.00    -0.392 A  
HETATM    9  H   UNL     1      -9.652   9.068  67.801  1.00  0.00     0.000 HD 
HETATM   10  C   UNL     1     -11.387  12.631  65.258  1.00  0.00    -0.350 A  
HETATM   11  C   UNL     1     -10.375  11.981  64.530  1.00  0.00    -0.334 A  
BRANCH  10  12
HETATM   12  C   UNL     1     -12.152  13.780  64.628  1.00  0.00    -0.421 C  
HETATM   13  O   UNL     1     -13.328  14.072  65.400  1.00  0.00    -0.721 OA 
HETATM   14  H   UNL     1     -13.807  14.792  65.005  1.00  0.00     0.000 HD 
BRANCH  12  15
HETATM   15  C   UNL     1     -11.296  15.060  64.517  1.00  0.00    -0.287 C  
BRANCH  15  16
HETATM   16  N   UNL     1     -10.925  15.570  65.847  1.00  0.00    -0.300 NA 
HETATM   17  H   UNL     1     -10.395  14.884  66.385  1.00  0.00     0.000 HD 
BRANCH  16  18
HETATM   18  C   UNL     1     -10.207  16.834  65.716  1.00  0.00    -0.291 C  
BRANCH  18  19
HETATM   19  C   UNL     1     -10.893  17.912  66.547  1.00  0.00     0.026 C  
BRANCH  19  20
HETATM   20  C   UNL     1     -10.259  19.273  66.270  1.00  0.00    -0.546 C  
BRANCH  20  21
HETATM   21  C   UNL     1      -9.908  19.977  67.572  1.00  0.00    -0.551 C  
BRANCH  21  22
HETATM   22  C   UNL     1      -9.434  18.988  68.630  1.00  0.00    -0.457 C  
BRANCH  22  23
HETATM   23  C   UNL     1      -7.943  18.726  68.478  1.00  0.00    -0.345 C  
BRANCH  23  24
HETATM   24  O   UNL     1      -7.762  17.366  68.105  1.00  0.00    -0.205 OA 
BRANCH  24  25
HETATM   25  C   UNL     1      -7.767  16.508  69.243  1.00  0.00    -0.140 C  
BRANCH  25  26
HETATM   26  C   UNL     1      -8.677  15.320  68.959  1.00  0.00    -0.226 C  
BRANCH  26  27
HETATM   27  C   UNL     1     -10.052  15.515  69.600  1.00  0.00    -0.297 C  
BRANCH  27  28
HETATM   28  C   UNL     1     -11.024  14.400  69.220  1.00  0.00    -0.281 C  
BRANCH  28  29
HETATM   29  C   UNL     1     -12.107  14.284  70.265  1.00  0.00    -0.403 A  
HETATM   30  C   UNL     1     -12.778  15.424  70.720  1.00  0.00    -0.516 A  
HETATM   31  C   UNL     1     -13.722  15.325  71.743  1.00  0.00    -0.605 A  
HETATM   32  C   UNL     1     -13.999  14.088  72.320  1.00  0.00    -0.651 A  
HETATM   33  C   UNL     1     -13.338  12.945  71.871  1.00  0.00    -0.530 A  
HETATM   34  C   UNL     1     -12.395  13.041  70.848  1.00  0.00    -0.376 A  
ENDBRANCH  28  29
ENDBRANCH  27  28
ENDBRANCH  26  27
ENDBRANCH  25  26
ENDBRANCH  24  25
ENDBRANCH  23  24
ENDBRANCH  22  23
ENDBRANCH  21  22
ENDBRANCH  20  21
ENDBRANCH  19  20
ENDBRANCH  18  19
ENDBRANCH  16  18
ENDBRANCH  15  16
ENDBRANCH  12  15
ENDBRANCH  10  12
ENDBRANCH   2   4
TORSDOF 16
ENDMDL
MODEL       55
REMARK 921   NORMALIZED FREE ENERGY PREDICTED BY IDOCK:   -5.59 KCAL/MOL
REMARK 922        TOTAL FREE ENERGY PREDICTED BY IDOCK:  -13.16 KCAL/MOL
REMARK 923 INTER-LIGAND FREE ENERGY PREDICTED BY IDOCK:  -10.87 KCAL/MOL
REMARK 924 INTRA-LIGAND FREE ENERGY PREDICTED BY IDOCK:   -2.29 KCAL/MOL
REMARK 927      BINDING AFFINITY PREDICTED BY RF-SCORE:    0.00 PKD
ROOT
HETATM    1  O   UNL     1     -10.882  14.206  69.921  1.00  0.00    -0.459 OA 
HETATM    2  C   UNL     1     -12.031  14.320  69.081  1.00  0.00    -0.335 C  
HETATM    3  H   UNL     1     -11.145  14.010  70.813  1.00  0.00     0.000 HD 
ENDROOT
BRANCH   2   4
HETATM    4  C   UNL     1     -11.614  14.631  67.667  1.00  0.00    -0.383 A  
HETATM    5  C   UNL     1     -10.879  15.773  67.328  1.00  0.00    -0.298 A  
HETATM    6  O   UNL     1     -10.547  16.719  68.257  1.00  0.00    -0.318 OA 
HETATM    7  C   UNL     1     -10.476  16.014  66.019  1.00  0.00    -0.356 A  
HETATM    8  C   UNL     1     -10.826  15.119  65.011  1.00  0.00    -0.457 A  
HETATM    9  H   UNL     1     -10.048  17.494  68.027  1.00  0.00     0.000 HD 
HETATM   10  C   UNL     1     -11.566  13.964  65.307  1.00  0.00    -0.332 A  
HETATM   11  C   UNL     1     -11.932  13.721  66.643  1.00  0.00    -0.469 A  
BRANCH  10  12
HETATM   12  C   UNL     1     -11.997  12.999  64.218  1.00  0.00    -0.402 C  
HETATM   13  O   UNL     1     -12.525  13.724  63.096  1.00  0.00    -1.089 OA 
HETATM   14  H   UNL     1     -12.794  13.119  62.414  1.00  0.00     0.000 HD 
BRANCH  12  15
HETATM   15  C   UNL     1     -10.834  12.107  63.735  1.00  0.00    -0.432 C  
BRANCH  15  16
HETATM   16  N   UNL     1     -10.553  11.029  64.699  1.00  0.00    -0.326 NA 
HETATM   17  H   UNL     1     -10.719  10.106  64.298  1.00  0.00     0.000 HD 
BRANCH  16  18
HETATM   18  C   UNL     1      -9.197  11.163  65.220  1.00  0.00    -0.198 C  
BRANCH  18  19
HETATM   19  C   UNL     1      -8.872   9.992  66.139  1.00  0.00    -0.165 C  
BRANCH  19  20
HETATM   20  C   UNL     1     -10.102   9.105  66.317  1.00  0.00    -0.319 C  
BRANCH  20  21
HETATM   21  C   UNL     1      -9.712   7.757  66.903  1.00  0.00    -0.282 C  
BRANCH  21  22
HETATM   22  C   UNL     1     -10.940   6.924  67.252  1.00  0.00    -0.406 C  
BRANCH  22  23
HETATM   23  C   UNL     1     -10.569   5.819  68.228  1.00  0.00    -0.217 C  
BRANCH  23  24
HETATM   24  O   UNL     1      -9.359   6.183  68.881  1.00  0.00    -0.124 OA 
BRANCH  24  25
HETATM   25  C   UNL     1      -9.070   5.307  69.968  1.00  0.00    -0.128 C  
BRANCH  25  26
HETATM   26  C   UNL     1     -10.308   5.192  70.848  1.00  0.00    -0.282 C  
BRANCH  26  27
HETATM   27  C   UNL     1     -10.429   6.394  71.786  1.00  0.00    -0.246 C  
BRANCH  27  28
HETATM   28  C   UNL     1     -11.860   6.924  71.855  1.00  0.00    -0.351 C  
BRANCH  28  29
HETATM   29  C   UNL     1     -11.895   8.370  71.422  1.00  0.00    -0.339 A  
HETATM   30  C   UNL     1     -12.842   9.248  71.960  1.00  0.00    -0.495 A  
HETATM   31  C   UNL     1     -12.925  10.562  71.500  1.00  0.00    -0.565 A  
HETATM   32  C   UNL     1     -12.065  11.008  70.498  1.00  0.00    -0.470 A  
HETATM   33  C   UNL     1     -11.115  10.141  69.958  1.00  0.00    -0.368 A  
HETATM   34  C   UNL     1     -11.030   8.826  70.417  1.00  0.00    -0.262 A  
ENDBRANCH  28  29
ENDBRANCH  27  28
ENDBRANCH  26  27
ENDBRANCH  25  26
ENDBRANCH  24  25
ENDBRANCH  23  24
ENDBRANCH  22  23
ENDBRANCH  21  22
ENDBRANCH  20  21
ENDBRANCH  19  20
ENDBRANCH  18  19
ENDBRANCH  16  18
ENDBRANCH  15  16
ENDBRANCH  12  15
ENDBRANCH  10  12
ENDBRANCH   2   4
TORSDOF 16
ENDMDL
MODEL       56
REMARK 921   NORMALIZED FREE ENERGY PREDICTED BY IDOCK:   -5.58 KCAL/MOL
REMARK 922        TOTAL FREE ENERGY PREDICTED BY IDOCK:  -13.14 KCAL/MOL
REMARK 923 INTER-LIGAND FREE ENERGY PREDICTED BY IDOCK:  -11.12 KCAL/MOL
REMARK 924 INTRA-LIGAND FREE ENERGY PREDICTED BY IDOCK:   -2.03 KCAL/MOL
REMARK 927      BINDING AFFINITY PREDICTED BY RF-SCORE:    0.00 PKD
ROOT
HETATM    1  O   UNL     1      -7.873   8.396  69.591  1.00  0.00    -0.096 OA 
HETATM    2  C   UNL     1      -8.337   9.317  70.578  1.00  0.00    -0.205 C  
HETATM    3  H   UNL     1      -7.113   8.749  69.143  1.00  0.00     0.000 HD 
ENDROOT
BRANCH   2   4
HETATM    4  C   UNL     1      -9.541   8.757  71.288  1.00  0.00    -0.323 A  
HETATM    5  C   UNL     1      -9.492   7.589  72.059  1.00  0.00    -0.140 A  
HETATM    6  O   UNL     1      -8.352   6.843  72.163  1.00  0.00    -0.106 OA 
HETATM    7  C   UNL     1     -10.612   7.117  72.733  1.00  0.00    -0.303 A  
HETATM    8  C   UNL     1     -11.822   7.799  72.628  1.00  0.00    -0.317 A  
HETATM    9  H   UNL     1      -8.318   6.050  72.685  1.00  0.00     0.000 HD 
HETATM   10  C   UNL     1     -11.917   8.972  71.862  1.00  0.00    -0.445 A  
HETATM   11  C   UNL     1     -10.763   9.451  71.218  1.00  0.00    -0.421 A  
BRANCH  10  12
HETATM   12  C   UNL     1     -13.235   9.705  71.696  1.00  0.00    -0.411 C  
HETATM   13  O   UNL     1     -14.051   9.524  72.864  1.00  0.00    -0.841 OA 
HETATM   14  H   UNL     1     -14.877   9.983  72.761  1.00  0.00     0.000 HD 
BRANCH  12  15
HETATM   15  C   UNL     1     -13.035  11.217  71.455  1.00  0.00    -0.437 C  
BRANCH  15  16
HETATM   16  N   UNL     1     -13.412  12.000  72.643  1.00  0.00    -0.398 NA 
HETATM   17  H   UNL     1     -12.653  12.052  73.323  1.00  0.00     0.000 HD 
BRANCH  16  18
HETATM   18  C   UNL     1     -13.878  13.324  72.244  1.00  0.00    -0.539 C  
BRANCH  18  19
HETATM   19  C   UNL     1     -12.972  14.397  72.834  1.00  0.00    -0.575 C  
BRANCH  19  20
HETATM   20  C   UNL     1     -11.980  14.887  71.782  1.00  0.00    -0.435 C  
BRANCH  20  21
HETATM   21  C   UNL     1     -12.702  15.636  70.671  1.00  0.00    -0.443 C  
BRANCH  21  22
HETATM   22  C   UNL     1     -12.214  15.198  69.295  1.00  0.00    -0.212 C  
BRANCH  22  23
HETATM   23  C   UNL     1     -11.171  14.099  69.430  1.00  0.00    -0.255 C  
BRANCH  23  24
HETATM   24  O   UNL     1     -10.950  13.529  68.146  1.00  0.00    -0.240 OA 
BRANCH  24  25
HETATM   25  C   UNL     1     -11.808  14.107  67.165  1.00  0.00    -0.423 C  
BRANCH  25  26
HETATM   26  C   UNL     1     -11.107  14.063  65.813  1.00  0.00    -0.305 C  
BRANCH  26  27
HETATM   27  C   UNL     1     -10.763  15.473  65.328  1.00  0.00    -0.440 C  
BRANCH  27  28
HETATM   28  C   UNL     1      -9.509  16.020  66.006  1.00  0.00    -0.384 C  
BRANCH  28  29
HETATM   29  C   UNL     1      -9.855  17.246  66.817  1.00  0.00    -0.296 A  
HETATM   30  C   UNL     1     -10.520  18.324  66.222  1.00  0.00    -0.397 A  
HETATM   31  C   UNL     1     -10.767  19.488  66.950  1.00  0.00    -0.576 A  
HETATM   32  C   UNL     1     -10.351  19.583  68.276  1.00  0.00    -0.524 A  
HETATM   33  C   UNL     1      -9.691  18.513  68.879  1.00  0.00    -0.342 A  
HETATM   34  C   UNL     1      -9.443  17.348  68.153  1.00  0.00    -0.288 A  
ENDBRANCH  28  29
ENDBRANCH  27  28
ENDBRANCH  26  27
ENDBRANCH  25  26
ENDBRANCH  24  25
ENDBRANCH  23  24
ENDBRANCH  22  23
ENDBRANCH  21  22
ENDBRANCH  20  21
ENDBRANCH  19  20
ENDBRANCH  18  19
ENDBRANCH  16  18
ENDBRANCH  15  16
ENDBRANCH  12  15
ENDBRANCH  10  12
ENDBRANCH   2   4
TORSDOF 16
ENDMDL
MODEL       57
REMARK 921   NORMALIZED FREE ENERGY PREDICTED BY IDOCK:   -5.57 KCAL/MOL
REMARK 922        TOTAL FREE ENERGY PREDICTED BY IDOCK:  -13.12 KCAL/MOL
REMARK 923 INTER-LIGAND FREE ENERGY PREDICTED BY IDOCK:  -10.66 KCAL/MOL
REMARK 924 INTRA-LIGAND FREE ENERGY PREDICTED BY IDOCK:   -2.46 KCAL/MOL
REMARK 927      BINDING AFFINITY PREDICTED BY RF-SCORE:    0.00 PKD
ROOT
HETATM    1  O   UNL     1      -8.330   8.889  68.710  1.00  0.00    -0.120 OA 
HETATM    2  C   UNL     1      -8.341   9.662  69.911  1.00  0.00    -0.183 C  
HETATM    3  H   UNL     1      -7.644   9.196  68.128  1.00  0.00     0.000 HD 
ENDROOT
BRANCH   2   4
HETATM    4  C   UNL     1      -9.428   9.175  70.833  1.00  0.00    -0.343 A  
HETATM    5  C   UNL     1      -9.228   8.153  71.767  1.00  0.00    -0.174 A  
HETATM    6  O   UNL     1      -8.040   7.481  71.857  1.00  0.00    -0.091 OA 
HETATM    7  C   UNL     1     -10.240   7.750  72.631  1.00  0.00    -0.340 A  
HETATM    8  C   UNL     1     -11.492   8.355  72.559  1.00  0.00    -0.422 A  
HETATM    9  H   UNL     1      -7.904   6.787  72.491  1.00  0.00     0.000 HD 
HETATM   10  C   UNL     1     -11.738   9.382  71.634  1.00  0.00    -0.468 A  
HETATM   11  C   UNL     1     -10.689   9.797  70.794  1.00  0.00    -0.393 A  
BRANCH  10  12
HETATM   12  C   UNL     1     -13.107  10.022  71.506  1.00  0.00    -0.433 C  
HETATM   13  O   UNL     1     -13.927   9.663  72.630  1.00  0.00    -0.673 OA 
HETATM   14  H   UNL     1     -14.785  10.065  72.550  1.00  0.00     0.000 HD 
BRANCH  12  15
HETATM   15  C   UNL     1     -13.025  11.561  71.418  1.00  0.00    -0.348 C  
BRANCH  15  16
HETATM   16  N   UNL     1     -13.745  12.198  72.534  1.00  0.00    -0.423 NA 
HETATM   17  H   UNL     1     -13.283  12.035  73.429  1.00  0.00     0.000 HD 
BRANCH  16  18
HETATM   18  C   UNL     1     -13.929  13.620  72.265  1.00  0.00    -0.563 C  
BRANCH  18  19
HETATM   19  C   UNL     1     -12.809  14.424  72.912  1.00  0.00    -0.512 C  
BRANCH  19  20
HETATM   20  C   UNL     1     -11.884  14.997  71.841  1.00  0.00    -0.455 C  
BRANCH  20  21
HETATM   21  C   UNL     1     -12.684  15.465  70.634  1.00  0.00    -0.490 C  
BRANCH  21  22
HETATM   22  C   UNL     1     -11.813  15.553  69.388  1.00  0.00    -0.392 C  
BRANCH  22  23
HETATM   23  C   UNL     1     -10.352  15.720  69.775  1.00  0.00    -0.306 C  
BRANCH  23  24
HETATM   24  O   UNL     1      -9.829  16.848  69.084  1.00  0.00    -0.256 OA 
BRANCH  24  25
HETATM   25  C   UNL     1     -10.752  17.338  68.114  1.00  0.00    -0.363 C  
BRANCH  25  26
HETATM   26  C   UNL     1      -9.982  17.726  66.858  1.00  0.00    -0.332 C  
BRANCH  26  27
HETATM   27  C   UNL     1      -9.391  16.493  66.173  1.00  0.00    -0.339 C  
BRANCH  27  28
HETATM   28  C   UNL     1     -10.468  15.639  65.505  1.00  0.00    -0.426 C  
BRANCH  28  29
HETATM   29  C   UNL     1     -10.572  14.304  66.204  1.00  0.00    -0.293 A  
HETATM   30  C   UNL     1     -11.792  13.621  66.248  1.00  0.00    -0.426 A  
HETATM   31  C   UNL     1     -11.905  12.428  66.962  1.00  0.00    -0.368 A  
HETATM   32  C   UNL     1     -10.802  11.911  67.638  1.00  0.00    -0.271 A  
HETATM   33  C   UNL     1      -9.581  12.583  67.597  1.00  0.00    -0.190 A  
HETATM   34  C   UNL     1      -9.465  13.776  66.883  1.00  0.00    -0.265 A  
ENDBRANCH  28  29
ENDBRANCH  27  28
ENDBRANCH  26  27
ENDBRANCH  25  26
ENDBRANCH  24  25
ENDBRANCH  23  24
ENDBRANCH  22  23
ENDBRANCH  21  22
ENDBRANCH  20  21
ENDBRANCH  19  20
ENDBRANCH  18  19
ENDBRANCH  16  18
ENDBRANCH  15  16
ENDBRANCH  12  15
ENDBRANCH  10  12
ENDBRANCH   2   4
TORSDOF 16
ENDMDL
MODEL       58
REMARK 921   NORMALIZED FREE ENERGY PREDICTED BY IDOCK:   -5.56 KCAL/MOL
REMARK 922        TOTAL FREE ENERGY PREDICTED BY IDOCK:  -13.10 KCAL/MOL
REMARK 923 INTER-LIGAND FREE ENERGY PREDICTED BY IDOCK:  -10.19 KCAL/MOL
REMARK 924 INTRA-LIGAND FREE ENERGY PREDICTED BY IDOCK:   -2.91 KCAL/MOL
REMARK 927      BINDING AFFINITY PREDICTED BY RF-SCORE:    0.00 PKD
ROOT
HETATM    1  O   UNL     1     -12.550   8.189  72.754  1.00  0.00    -0.610 OA 
HETATM    2  C   UNL     1     -12.995   7.577  71.543  1.00  0.00    -0.359 C  
HETATM    3  H   UNL     1     -13.235   8.742  73.113  1.00  0.00     0.000 HD 
ENDROOT
BRANCH   2   4
HETATM    4  C   UNL     1     -11.910   6.701  70.974  1.00  0.00    -0.427 A  
HETATM    5  C   UNL     1     -11.174   5.801  71.754  1.00  0.00    -0.211 A  
HETATM    6  O   UNL     1     -11.353   5.707  73.106  1.00  0.00    -0.420 OA 
HETATM    7  C   UNL     1     -10.204   4.979  71.193  1.00  0.00    -0.281 A  
HETATM    8  C   UNL     1      -9.932   5.060  69.830  1.00  0.00    -0.319 A  
HETATM    9  H   UNL     1     -10.854   5.097  73.636  1.00  0.00     0.000 HD 
HETATM   10  C   UNL     1     -10.643   5.952  69.011  1.00  0.00    -0.360 A  
HETATM   11  C   UNL     1     -11.645   6.749  69.593  1.00  0.00    -0.234 A  
BRANCH  10  12
HETATM   12  C   UNL     1     -10.332   6.089  67.532  1.00  0.00    -0.210 C  
HETATM   13  O   UNL     1     -11.532   6.382  66.800  1.00  0.00    -0.733 OA 
HETATM   14  H   UNL     1     -11.337   6.468  65.874  1.00  0.00     0.000 HD 
BRANCH  12  15
HETATM   15  C   UNL     1      -9.294   7.198  67.255  1.00  0.00    -0.134 C  
BRANCH  15  16
HETATM   16  N   UNL     1      -9.531   7.835  65.949  1.00  0.00    -0.416 NA 
HETATM   17  H   UNL     1     -10.509   7.777  65.668  1.00  0.00     0.000 HD 
BRANCH  16  18
HETATM   18  C   UNL     1      -9.049   9.213  65.969  1.00  0.00    -0.197 C  
BRANCH  18  19
HETATM   19  C   UNL     1     -10.078  10.135  65.328  1.00  0.00    -0.344 C  
BRANCH  19  20
HETATM   20  C   UNL     1      -9.379  11.212  64.502  1.00  0.00    -0.191 C  
BRANCH  20  21
HETATM   21  C   UNL     1     -10.277  11.689  63.370  1.00  0.00    -0.471 C  
BRANCH  21  22
HETATM   22  C   UNL     1     -11.717  11.865  63.838  1.00  0.00    -0.509 C  
BRANCH  22  23
HETATM   23  C   UNL     1     -12.220  13.256  63.486  1.00  0.00    -0.441 C  
BRANCH  23  24
HETATM   24  O   UNL     1     -12.816  13.826  64.645  1.00  0.00    -0.662 OA 
BRANCH  24  25
HETATM   25  C   UNL     1     -12.337  13.204  65.836  1.00  0.00    -0.398 C  
BRANCH  25  26
HETATM   26  C   UNL     1     -11.348  14.143  66.516  1.00  0.00    -0.348 C  
BRANCH  26  27
HETATM   27  C   UNL     1     -10.970  13.628  67.905  1.00  0.00    -0.277 C  
BRANCH  27  28
HETATM   28  C   UNL     1     -11.425  12.186  68.123  1.00  0.00    -0.375 C  
BRANCH  28  29
HETATM   29  C   UNL     1     -10.319  11.391  68.776  1.00  0.00    -0.222 A  
HETATM   30  C   UNL     1      -8.979  11.692  68.510  1.00  0.00    -0.138 A  
HETATM   31  C   UNL     1      -7.960  10.906  69.049  1.00  0.00    -0.131 A  
HETATM   32  C   UNL     1      -8.273   9.813  69.855  1.00  0.00    -0.196 A  
HETATM   33  C   UNL     1      -9.606   9.507  70.128  1.00  0.00    -0.290 A  
HETATM   34  C   UNL     1     -10.626  10.292  69.590  1.00  0.00    -0.288 A  
ENDBRANCH  28  29
ENDBRANCH  27  28
ENDBRANCH  26  27
ENDBRANCH  25  26
ENDBRANCH  24  25
ENDBRANCH  23  24
ENDBRANCH  22  23
ENDBRANCH  21  22
ENDBRANCH  20  21
ENDBRANCH  19  20
ENDBRANCH  18  19
ENDBRANCH  16  18
ENDBRANCH  15  16
ENDBRANCH  12  15
ENDBRANCH  10  12
ENDBRANCH   2   4
TORSDOF 16
ENDMDL
MODEL       59
REMARK 921   NORMALIZED FREE ENERGY PREDICTED BY IDOCK:   -5.55 KCAL/MOL
REMARK 922        TOTAL FREE ENERGY PREDICTED BY IDOCK:  -13.09 KCAL/MOL
REMARK 923 INTER-LIGAND FREE ENERGY PREDICTED BY IDOCK:  -10.94 KCAL/MOL
REMARK 924 INTRA-LIGAND FREE ENERGY PREDICTED BY IDOCK:   -2.15 KCAL/MOL
REMARK 927      BINDING AFFINITY PREDICTED BY RF-SCORE:    0.00 PKD
ROOT
HETATM    1  O   UNL     1      -8.557   5.585  68.457  1.00  0.00    -0.103 OA 
HETATM    2  C   UNL     1      -9.415   6.699  68.707  1.00  0.00    -0.129 C  
HETATM    3  H   UNL     1      -8.123   5.687  67.618  1.00  0.00     0.000 HD 
ENDROOT
BRANCH   2   4
HETATM    4  C   UNL     1     -10.104   6.537  70.036  1.00  0.00    -0.203 A  
HETATM    5  C   UNL     1      -9.460   6.019  71.166  1.00  0.00    -0.164 A  
HETATM    6  O   UNL     1      -8.172   5.563  71.115  1.00  0.00    -0.116 OA 
HETATM    7  C   UNL     1     -10.111   5.916  72.390  1.00  0.00    -0.203 A  
HETATM    8  C   UNL     1     -11.442   6.312  72.501  1.00  0.00    -0.300 A  
HETATM    9  H   UNL     1      -7.735   5.211  71.881  1.00  0.00     0.000 HD 
HETATM   10  C   UNL     1     -12.127   6.834  71.392  1.00  0.00    -0.415 A  
HETATM   11  C   UNL     1     -11.438   6.962  70.173  1.00  0.00    -0.354 A  
BRANCH  10  12
HETATM   12  C   UNL     1     -13.590   7.229  71.479  1.00  0.00    -0.356 C  
HETATM   13  O   UNL     1     -14.290   6.339  72.362  1.00  0.00    -0.691 OA 
HETATM   14  H   UNL     1     -15.206   6.586  72.417  1.00  0.00     0.000 HD 
BRANCH  12  15
HETATM   15  C   UNL     1     -13.774   8.677  71.980  1.00  0.00    -0.426 C  
BRANCH  15  16
HETATM   16  N   UNL     1     -13.586   9.646  70.887  1.00  0.00    -0.551 NA 
HETATM   17  H   UNL     1     -14.470  10.053  70.581  1.00  0.00     0.000 HD 
BRANCH  16  18
HETATM   18  C   UNL     1     -12.623  10.668  71.284  1.00  0.00    -0.427 C  
BRANCH  18  19
HETATM   19  C   UNL     1     -11.417  10.638  70.353  1.00  0.00    -0.422 C  
BRANCH  19  20
HETATM   20  C   UNL     1     -11.749  11.340  69.038  1.00  0.00    -0.410 C  
BRANCH  20  21
HETATM   21  C   UNL     1     -11.085  10.629  67.868  1.00  0.00    -0.371 C  
BRANCH  21  22
HETATM   22  C   UNL     1     -11.150  11.468  66.597  1.00  0.00    -0.355 C  
BRANCH  22  23
HETATM   23  C   UNL     1     -11.707  12.849  66.904  1.00  0.00    -0.382 C  
BRANCH  23  24
HETATM   24  O   UNL     1     -11.034  13.798  66.086  1.00  0.00    -0.291 OA 
BRANCH  24  25
HETATM   25  C   UNL     1     -10.627  14.939  66.837  1.00  0.00    -0.300 C  
BRANCH  25  26
HETATM   26  C   UNL     1     -10.057  14.470  68.170  1.00  0.00    -0.227 C  
BRANCH  26  27
HETATM   27  C   UNL     1     -10.277  15.520  69.260  1.00  0.00    -0.252 C  
BRANCH  27  28
HETATM   28  C   UNL     1     -11.746  15.919  69.382  1.00  0.00    -0.350 C  
BRANCH  28  29
HETATM   29  C   UNL     1     -12.265  15.558  70.754  1.00  0.00    -0.450 A  
HETATM   30  C   UNL     1     -11.897  16.314  71.872  1.00  0.00    -0.538 A  
HETATM   31  C   UNL     1     -12.311  15.932  73.148  1.00  0.00    -0.619 A  
HETATM   32  C   UNL     1     -13.094  14.792  73.316  1.00  0.00    -0.550 A  
HETATM   33  C   UNL     1     -13.469  14.034  72.207  1.00  0.00    -0.597 A  
HETATM   34  C   UNL     1     -13.056  14.414  70.930  1.00  0.00    -0.390 A  
ENDBRANCH  28  29
ENDBRANCH  27  28
ENDBRANCH  26  27
ENDBRANCH  25  26
ENDBRANCH  24  25
ENDBRANCH  23  24
ENDBRANCH  22  23
ENDBRANCH  21  22
ENDBRANCH  20  21
ENDBRANCH  19  20
ENDBRANCH  18  19
ENDBRANCH  16  18
ENDBRANCH  15  16
ENDBRANCH  12  15
ENDBRANCH  10  12
ENDBRANCH   2   4
TORSDOF 16
ENDMDL
MODEL       60
REMARK 921   NORMALIZED FREE ENERGY PREDICTED BY IDOCK:   -5.55 KCAL/MOL
REMARK 922        TOTAL FREE ENERGY PREDICTED BY IDOCK:  -13.08 KCAL/MOL
REMARK 923 INTER-LIGAND FREE ENERGY PREDICTED BY IDOCK:  -10.70 KCAL/MOL
REMARK 924 INTRA-LIGAND FREE ENERGY PREDICTED BY IDOCK:   -2.38 KCAL/MOL
REMARK 927      BINDING AFFINITY PREDICTED BY RF-SCORE:    0.00 PKD
ROOT
HETATM    1  O   UNL     1     -14.039   8.890  73.419  1.00  0.00    -1.256 OA 
HETATM    2  C   UNL     1     -14.146   8.934  71.996  1.00  0.00    -0.411 C  
HETATM    3  H   UNL     1     -14.840   8.548  73.798  1.00  0.00     0.000 HD 
ENDROOT
BRANCH   2   4
HETATM    4  C   UNL     1     -12.876   9.477  71.395  1.00  0.00    -0.443 A  
HETATM    5  C   UNL     1     -11.617   8.924  71.656  1.00  0.00    -0.338 A  
HETATM    6  O   UNL     1     -11.453   7.887  72.532  1.00  0.00    -0.348 OA 
HETATM    7  C   UNL     1     -10.467   9.424  71.057  1.00  0.00    -0.392 A  
HETATM    8  C   UNL     1     -10.553  10.514  70.194  1.00  0.00    -0.163 A  
HETATM    9  H   UNL     1     -10.599   7.512  72.710  1.00  0.00     0.000 HD 
HETATM   10  C   UNL     1     -11.795  11.101  69.907  1.00  0.00    -0.439 A  
HETATM   11  C   UNL     1     -12.950  10.557  70.496  1.00  0.00    -0.289 A  
BRANCH  10  12
HETATM   12  C   UNL     1     -11.907  12.317  69.007  1.00  0.00    -0.305 C  
HETATM   13  O   UNL     1     -11.097  13.387  69.518  1.00  0.00    -0.433 OA 
HETATM   14  H   UNL     1     -11.167  14.149  68.954  1.00  0.00     0.000 HD 
BRANCH  12  15
HETATM   15  C   UNL     1     -11.475  12.011  67.557  1.00  0.00    -0.333 C  
BRANCH  15  16
HETATM   16  N   UNL     1     -10.631  13.088  67.014  1.00  0.00    -0.256 NA 
HETATM   17  H   UNL     1      -9.651  12.812  66.954  1.00  0.00     0.000 HD 
BRANCH  16  18
HETATM   18  C   UNL     1     -11.154  13.533  65.726  1.00  0.00    -0.286 C  
BRANCH  18  19
HETATM   19  C   UNL     1     -12.223  12.566  65.234  1.00  0.00    -0.493 C  
BRANCH  19  20
HETATM   20  C   UNL     1     -11.855  12.033  63.851  1.00  0.00    -0.543 C  
BRANCH  20  21
HETATM   21  C   UNL     1     -10.351  12.101  63.631  1.00  0.00    -0.482 C  
BRANCH  21  22
HETATM   22  C   UNL     1      -9.726  10.710  63.623  1.00  0.00    -0.383 C  
BRANCH  22  23
HETATM   23  C   UNL     1      -9.316  10.307  65.031  1.00  0.00    -0.237 C  
BRANCH  23  24
HETATM   24  O   UNL     1      -9.297   8.887  65.104  1.00  0.00    -0.127 OA 
BRANCH  24  25
HETATM   25  C   UNL     1      -9.135   8.437  66.447  1.00  0.00    -0.187 C  
BRANCH  25  26
HETATM   26  C   UNL     1     -10.512   8.243  67.069  1.00  0.00    -0.384 C  
BRANCH  26  27
HETATM   27  C   UNL     1     -10.766   6.769  67.391  1.00  0.00    -0.405 C  
BRANCH  27  28
HETATM   28  C   UNL     1     -11.162   6.564  68.852  1.00  0.00    -0.341 C  
BRANCH  28  29
HETATM   29  C   UNL     1     -10.397   5.399  69.433  1.00  0.00    -0.339 A  
HETATM   30  C   UNL     1      -9.661   4.548  68.601  1.00  0.00    -0.203 A  
HETATM   31  C   UNL     1      -9.022   3.427  69.129  1.00  0.00    -0.181 A  
HETATM   32  C   UNL     1      -9.115   3.145  70.490  1.00  0.00    -0.193 A  
HETATM   33  C   UNL     1      -9.844   3.989  71.328  1.00  0.00    -0.242 A  
HETATM   34  C   UNL     1     -10.484   5.111  70.803  1.00  0.00    -0.263 A  
ENDBRANCH  28  29
ENDBRANCH  27  28
ENDBRANCH  26  27
ENDBRANCH  25  26
ENDBRANCH  24  25
ENDBRANCH  23  24
ENDBRANCH  22  23
ENDBRANCH  21  22
ENDBRANCH  20  21
ENDBRANCH  19  20
ENDBRANCH  18  19
ENDBRANCH  16  18
ENDBRANCH  15  16
ENDBRANCH  12  15
ENDBRANCH  10  12
ENDBRANCH   2   4
TORSDOF 16
ENDMDL
MODEL       61
REMARK 921   NORMALIZED FREE ENERGY PREDICTED BY IDOCK:   -5.54 KCAL/MOL
REMARK 922        TOTAL FREE ENERGY PREDICTED BY IDOCK:  -13.06 KCAL/MOL
REMARK 923 INTER-LIGAND FREE ENERGY PREDICTED BY IDOCK:  -11.42 KCAL/MOL
REMARK 924 INTRA-LIGAND FREE ENERGY PREDICTED BY IDOCK:   -1.64 KCAL/MOL
REMARK 927      BINDING AFFINITY PREDICTED BY RF-SCORE:    0.00 PKD
ROOT
HETATM    1  O   UNL     1     -12.825   8.317  72.862  1.00  0.00    -0.633 OA 
HETATM    2  C   UNL     1     -13.217   7.747  71.613  1.00  0.00    -0.343 C  
HETATM    3  H   UNL     1     -13.511   8.885  73.193  1.00  0.00     0.000 HD 
ENDROOT
BRANCH   2   4
HETATM    4  C   UNL     1     -12.130   6.846  71.087  1.00  0.00    -0.428 A  
HETATM    5  C   UNL     1     -11.433   5.945  71.900  1.00  0.00    -0.225 A  
HETATM    6  O   UNL     1     -11.654   5.871  73.247  1.00  0.00    -0.469 OA 
HETATM    7  C   UNL     1     -10.460   5.100  71.379  1.00  0.00    -0.249 A  
HETATM    8  C   UNL     1     -10.147   5.159  70.023  1.00  0.00    -0.345 A  
HETATM    9  H   UNL     1     -11.180   5.260  73.800  1.00  0.00     0.000 HD 
HETATM   10  C   UNL     1     -10.818   6.051  69.173  1.00  0.00    -0.422 A  
HETATM   11  C   UNL     1     -11.824   6.871  69.714  1.00  0.00    -0.068 A  
BRANCH  10  12
HETATM   12  C   UNL     1     -10.461   6.164  67.702  1.00  0.00    -0.234 C  
HETATM   13  O   UNL     1     -11.602   6.605  66.949  1.00  0.00    -0.726 OA 
HETATM   14  H   UNL     1     -11.379   6.676  66.028  1.00  0.00     0.000 HD 
BRANCH  12  15
HETATM   15  C   UNL     1      -9.293   7.143  67.459  1.00  0.00    -0.124 C  
BRANCH  15  16
HETATM   16  N   UNL     1      -9.760   8.380  66.812  1.00  0.00    -0.219 NA 
HETATM   17  H   UNL     1     -10.727   8.595  67.054  1.00  0.00     0.000 HD 
BRANCH  16  18
HETATM   18  C   UNL     1      -8.858   9.483  67.131  1.00  0.00    -0.131 C  
BRANCH  18  19
HETATM   19  C   UNL     1      -8.784  10.452  65.958  1.00  0.00    -0.163 C  
BRANCH  19  20
HETATM   20  C   UNL     1      -9.473   9.852  64.734  1.00  0.00    -0.356 C  
BRANCH  20  21
HETATM   21  C   UNL     1     -10.091  10.946  63.875  1.00  0.00    -0.422 C  
BRANCH  21  22
HETATM   22  C   UNL     1     -10.369  12.203  64.690  1.00  0.00    -0.328 C  
BRANCH  22  23
HETATM   23  C   UNL     1     -11.856  12.521  64.682  1.00  0.00    -0.378 C  
BRANCH  23  24
HETATM   24  O   UNL     1     -12.363  12.334  65.998  1.00  0.00    -0.609 OA 
BRANCH  24  25
HETATM   25  C   UNL     1     -11.410  12.725  66.984  1.00  0.00    -0.314 C  
BRANCH  25  26
HETATM   26  C   UNL     1     -11.415  11.695  68.106  1.00  0.00    -0.382 C  
BRANCH  26  27
HETATM   27  C   UNL     1     -11.463  12.375  69.475  1.00  0.00    -0.309 C  
BRANCH  27  28
HETATM   28  C   UNL     1     -11.797  13.862  69.362  1.00  0.00    -0.384 C  
BRANCH  28  29
HETATM   29  C   UNL     1     -12.222  14.397  70.709  1.00  0.00    -0.413 A  
HETATM   30  C   UNL     1     -13.137  13.689  71.496  1.00  0.00    -0.431 A  
HETATM   31  C   UNL     1     -13.589  14.223  72.703  1.00  0.00    -0.601 A  
HETATM   32  C   UNL     1     -13.133  15.469  73.130  1.00  0.00    -0.656 A  
HETATM   33  C   UNL     1     -12.218  16.180  72.354  1.00  0.00    -0.592 A  
HETATM   34  C   UNL     1     -11.764  15.647  71.147  1.00  0.00    -0.461 A  
ENDBRANCH  28  29
ENDBRANCH  27  28
ENDBRANCH  26  27
ENDBRANCH  25  26
ENDBRANCH  24  25
ENDBRANCH  23  24
ENDBRANCH  22  23
ENDBRANCH  21  22
ENDBRANCH  20  21
ENDBRANCH  19  20
ENDBRANCH  18  19
ENDBRANCH  16  18
ENDBRANCH  15  16
ENDBRANCH  12  15
ENDBRANCH  10  12
ENDBRANCH   2   4
TORSDOF 16
ENDMDL
MODEL       62
REMARK 921   NORMALIZED FREE ENERGY PREDICTED BY IDOCK:   -5.53 KCAL/MOL
REMARK 922        TOTAL FREE ENERGY PREDICTED BY IDOCK:  -13.05 KCAL/MOL
REMARK 923 INTER-LIGAND FREE ENERGY PREDICTED BY IDOCK:   -9.87 KCAL/MOL
REMARK 924 INTRA-LIGAND FREE ENERGY PREDICTED BY IDOCK:   -3.18 KCAL/MOL
REMARK 927      BINDING AFFINITY PREDICTED BY RF-SCORE:    0.00 PKD
ROOT
HETATM    1  O   UNL     1      -9.536  20.328  65.732  1.00  0.00    -0.577 OA 
HETATM    2  C   UNL     1     -10.432  19.219  65.802  1.00  0.00    -0.359 C  
HETATM    3  H   UNL     1      -9.856  20.970  65.109  1.00  0.00     0.000 HD 
ENDROOT
BRANCH   2   4
HETATM    4  C   UNL     1      -9.924  18.201  66.790  1.00  0.00    -0.353 A  
HETATM    5  C   UNL     1      -8.576  17.837  66.877  1.00  0.00    -0.244 A  
HETATM    6  O   UNL     1      -7.637  18.340  66.020  1.00  0.00    -0.389 OA 
HETATM    7  C   UNL     1      -8.131  16.922  67.824  1.00  0.00    -0.188 A  
HETATM    8  C   UNL     1      -9.041  16.329  68.695  1.00  0.00    -0.228 A  
HETATM    9  H   UNL     1      -6.721  18.093  66.078  1.00  0.00     0.000 HD 
HETATM   10  C   UNL     1     -10.404  16.663  68.639  1.00  0.00    -0.304 A  
HETATM   11  C   UNL     1     -10.826  17.617  67.698  1.00  0.00    -0.227 A  
BRANCH  10  12
HETATM   12  C   UNL     1     -11.420  15.996  69.548  1.00  0.00    -0.326 C  
HETATM   13  O   UNL     1     -12.552  15.555  68.783  1.00  0.00    -0.415 OA 
HETATM   14  H   UNL     1     -13.189  15.137  69.352  1.00  0.00     0.000 HD 
BRANCH  12  15
HETATM   15  C   UNL     1     -10.824  14.788  70.302  1.00  0.00    -0.038 C  
BRANCH  15  16
HETATM   16  N   UNL     1     -11.788  14.235  71.268  1.00  0.00    -0.473 NA 
HETATM   17  H   UNL     1     -12.541  14.892  71.475  1.00  0.00     0.000 HD 
BRANCH  16  18
HETATM   18  C   UNL     1     -12.296  12.953  70.792  1.00  0.00    -0.299 C  
BRANCH  18  19
HETATM   19  C   UNL     1     -13.212  12.332  71.839  1.00  0.00    -0.481 C  
BRANCH  19  20
HETATM   20  C   UNL     1     -13.147  10.809  71.759  1.00  0.00    -0.573 C  
BRANCH  20  21
HETATM   21  C   UNL     1     -11.930  10.364  70.961  1.00  0.00    -0.481 C  
BRANCH  21  22
HETATM   22  C   UNL     1     -11.104   9.341  71.730  1.00  0.00    -0.398 C  
BRANCH  22  23
HETATM   23  C   UNL     1      -9.783   9.086  71.020  1.00  0.00    -0.278 C  
BRANCH  23  24
HETATM   24  O   UNL     1      -9.697   9.964  69.904  1.00  0.00    -0.224 OA 
BRANCH  24  25
HETATM   25  C   UNL     1      -8.353  10.094  69.446  1.00  0.00    -0.168 C  
BRANCH  25  26
HETATM   26  C   UNL     1      -8.357  10.847  68.122  1.00  0.00    -0.123 C  
BRANCH  26  27
HETATM   27  C   UNL     1      -9.291  12.057  68.181  1.00  0.00    -0.199 C  
BRANCH  27  28
HETATM   28  C   UNL     1      -8.894  13.135  67.176  1.00  0.00    -0.222 C  
BRANCH  28  29
HETATM   29  C   UNL     1     -10.118  13.635  66.447  1.00  0.00    -0.295 A  
HETATM   30  C   UNL     1     -11.361  13.025  66.648  1.00  0.00    -0.366 A  
HETATM   31  C   UNL     1     -12.474  13.435  65.914  1.00  0.00    -0.468 A  
HETATM   32  C   UNL     1     -12.353  14.455  64.973  1.00  0.00    -0.401 A  
HETATM   33  C   UNL     1     -11.119  15.072  64.768  1.00  0.00    -0.388 A  
HETATM   34  C   UNL     1     -10.005  14.664  65.501  1.00  0.00    -0.384 A  
ENDBRANCH  28  29
ENDBRANCH  27  28
ENDBRANCH  26  27
ENDBRANCH  25  26
ENDBRANCH  24  25
ENDBRANCH  23  24
ENDBRANCH  22  23
ENDBRANCH  21  22
ENDBRANCH  20  21
ENDBRANCH  19  20
ENDBRANCH  18  19
ENDBRANCH  16  18
ENDBRANCH  15  16
ENDBRANCH  12  15
ENDBRANCH  10  12
ENDBRANCH   2   4
TORSDOF 16
ENDMDL
MODEL       63
REMARK 921   NORMALIZED FREE ENERGY PREDICTED BY IDOCK:   -5.53 KCAL/MOL
REMARK 922        TOTAL FREE ENERGY PREDICTED BY IDOCK:  -13.05 KCAL/MOL
REMARK 923 INTER-LIGAND FREE ENERGY PREDICTED BY IDOCK:  -11.41 KCAL/MOL
REMARK 924 INTRA-LIGAND FREE ENERGY PREDICTED BY IDOCK:   -1.64 KCAL/MOL
REMARK 927      BINDING AFFINITY PREDICTED BY RF-SCORE:    0.00 PKD
ROOT
HETATM    1  O   UNL     1     -14.391   8.828  73.489  1.00  0.00    -1.095 OA 
HETATM    2  C   UNL     1     -14.390   8.813  72.060  1.00  0.00    -0.377 C  
HETATM    3  H   UNL     1     -15.236   8.547  73.819  1.00  0.00     0.000 HD 
ENDROOT
BRANCH   2   4
HETATM    4  C   UNL     1     -13.050   9.258  71.536  1.00  0.00    -0.430 A  
HETATM    5  C   UNL     1     -11.856   8.598  71.849  1.00  0.00    -0.351 A  
HETATM    6  O   UNL     1     -11.825   7.536  72.711  1.00  0.00    -0.550 OA 
HETATM    7  C   UNL     1     -10.638   9.009  71.320  1.00  0.00    -0.378 A  
HETATM    8  C   UNL     1     -10.589  10.116  70.477  1.00  0.00    -0.243 A  
HETATM    9  H   UNL     1     -11.015   7.088  72.924  1.00  0.00     0.000 HD 
HETATM   10  C   UNL     1     -11.762  10.811  70.140  1.00  0.00    -0.425 A  
HETATM   11  C   UNL     1     -12.987  10.355  70.658  1.00  0.00    -0.357 A  
BRANCH  10  12
HETATM   12  C   UNL     1     -11.726  12.046  69.260  1.00  0.00    -0.330 C  
HETATM   13  O   UNL     1     -11.173  13.154  69.987  1.00  0.00    -0.489 OA 
HETATM   14  H   UNL     1     -11.150  13.928  69.436  1.00  0.00     0.000 HD 
BRANCH  12  15
HETATM   15  C   UNL     1     -10.896  11.825  67.977  1.00  0.00    -0.213 C  
BRANCH  15  16
HETATM   16  N   UNL     1     -11.442  10.718  67.174  1.00  0.00    -0.363 NA 
HETATM   17  H   UNL     1     -11.955  11.054  66.359  1.00  0.00     0.000 HD 
BRANCH  16  18
HETATM   18  C   UNL     1     -10.375   9.793  66.805  1.00  0.00    -0.218 C  
BRANCH  18  19
HETATM   19  C   UNL     1      -9.042  10.529  66.749  1.00  0.00    -0.167 C  
BRANCH  19  20
HETATM   20  C   UNL     1      -8.349  10.261  65.415  1.00  0.00    -0.164 C  
BRANCH  20  21
HETATM   21  C   UNL     1      -9.373  10.007  64.318  1.00  0.00    -0.345 C  
BRANCH  21  22
HETATM   22  C   UNL     1      -9.263  11.040  63.203  1.00  0.00    -0.309 C  
BRANCH  22  23
HETATM   23  C   UNL     1     -10.434  12.008  63.263  1.00  0.00    -0.359 C  
BRANCH  23  24
HETATM   24  O   UNL     1     -10.362  12.726  64.488  1.00  0.00    -0.336 OA 
BRANCH  24  25
HETATM   25  C   UNL     1     -11.393  13.706  64.579  1.00  0.00    -0.375 C  
BRANCH  25  26
HETATM   26  C   UNL     1     -11.289  14.403  65.930  1.00  0.00    -0.332 C  
BRANCH  26  27
HETATM   27  C   UNL     1     -10.026  15.261  66.009  1.00  0.00    -0.344 C  
BRANCH  27  28
HETATM   28  C   UNL     1      -9.863  15.912  67.382  1.00  0.00    -0.234 C  
BRANCH  28  29
HETATM   29  C   UNL     1      -9.944  17.415  67.251  1.00  0.00    -0.302 A  
HETATM   30  C   UNL     1      -9.824  18.232  68.380  1.00  0.00    -0.386 A  
HETATM   31  C   UNL     1      -9.979  19.614  68.269  1.00  0.00    -0.543 A  
HETATM   32  C   UNL     1     -10.259  20.188  67.031  1.00  0.00    -0.558 A  
HETATM   33  C   UNL     1     -10.377  19.382  65.899  1.00  0.00    -0.536 A  
HETATM   34  C   UNL     1     -10.222  18.000  66.007  1.00  0.00    -0.304 A  
ENDBRANCH  28  29
ENDBRANCH  27  28
ENDBRANCH  26  27
ENDBRANCH  25  26
ENDBRANCH  24  25
ENDBRANCH  23  24
ENDBRANCH  22  23
ENDBRANCH  21  22
ENDBRANCH  20  21
ENDBRANCH  19  20
ENDBRANCH  18  19
ENDBRANCH  16  18
ENDBRANCH  15  16
ENDBRANCH  12  15
ENDBRANCH  10  12
ENDBRANCH   2   4
TORSDOF 16
ENDMDL
MODEL       64
REMARK 921   NORMALIZED FREE ENERGY PREDICTED BY IDOCK:   -5.52 KCAL/MOL
REMARK 922        TOTAL FREE ENERGY PREDICTED BY IDOCK:  -13.04 KCAL/MOL
REMARK 923 INTER-LIGAND FREE ENERGY PREDICTED BY IDOCK:  -10.83 KCAL/MOL
REMARK 924 INTRA-LIGAND FREE ENERGY PREDICTED BY IDOCK:   -2.21 KCAL/MOL
REMARK 927      BINDING AFFINITY PREDICTED BY RF-SCORE:    0.00 PKD
ROOT
HETATM    1  O   UNL     1     -13.236  16.044  72.648  1.00  0.00    -0.460 OA 
HETATM    2  C   UNL     1     -14.087  14.910  72.473  1.00  0.00    -0.381 C  
HETATM    3  H   UNL     1     -13.678  16.711  73.161  1.00  0.00     0.000 HD 
ENDROOT
BRANCH   2   4
HETATM    4  C   UNL     1     -13.386  13.854  71.660  1.00  0.00    -0.437 A  
HETATM    5  C   UNL     1     -12.631  14.152  70.520  1.00  0.00    -0.342 A  
HETATM    6  O   UNL     1     -12.535  15.426  70.032  1.00  0.00    -0.485 OA 
HETATM    7  C   UNL     1     -11.964  13.159  69.810  1.00  0.00    -0.382 A  
HETATM    8  C   UNL     1     -12.062  11.832  70.220  1.00  0.00    -0.426 A  
HETATM    9  H   UNL     1     -12.023  15.628  69.258  1.00  0.00     0.000 HD 
HETATM   10  C   UNL     1     -12.813  11.488  71.356  1.00  0.00    -0.489 A  
HETATM   11  C   UNL     1     -13.449  12.512  72.079  1.00  0.00    -0.486 A  
BRANCH  10  12
HETATM   12  C   UNL     1     -12.970  10.044  71.793  1.00  0.00    -0.458 C  
HETATM   13  O   UNL     1     -13.975   9.394  71.000  1.00  0.00    -0.484 OA 
HETATM   14  H   UNL     1     -14.074   8.489  71.274  1.00  0.00     0.000 HD 
BRANCH  12  15
HETATM   15  C   UNL     1     -11.650   9.252  71.677  1.00  0.00    -0.393 C  
BRANCH  15  16
HETATM   16  N   UNL     1     -11.738   8.222  70.628  1.00  0.00    -0.451 NA 
HETATM   17  H   UNL     1     -12.389   8.486  69.888  1.00  0.00     0.000 HD 
BRANCH  16  18
HETATM   18  C   UNL     1     -10.408   7.926  70.105  1.00  0.00    -0.215 C  
BRANCH  18  19
HETATM   19  C   UNL     1      -9.622   9.217  69.914  1.00  0.00    -0.217 C  
BRANCH  19  20
HETATM   20  C   UNL     1      -8.777   9.137  68.645  1.00  0.00    -0.129 C  
BRANCH  20  21
HETATM   21  C   UNL     1      -8.600  10.517  68.028  1.00  0.00    -0.121 C  
BRANCH  21  22
HETATM   22  C   UNL     1      -9.598  10.755  66.901  1.00  0.00    -0.198 C  
BRANCH  22  23
HETATM   23  C   UNL     1      -8.881  10.797  65.561  1.00  0.00    -0.190 C  
BRANCH  23  24
HETATM   24  O   UNL     1      -9.679  10.114  64.602  1.00  0.00    -0.297 OA 
BRANCH  24  25
HETATM   25  C   UNL     1      -9.565  10.708  63.311  1.00  0.00    -0.344 C  
BRANCH  25  26
HETATM   26  C   UNL     1     -10.181  12.101  63.356  1.00  0.00    -0.422 C  
BRANCH  26  27
HETATM   27  C   UNL     1     -11.635  12.043  63.829  1.00  0.00    -0.565 C  
BRANCH  27  28
HETATM   28  C   UNL     1     -12.302  13.416  63.792  1.00  0.00    -0.418 C  
BRANCH  28  29
HETATM   29  C   UNL     1     -11.668  14.324  64.819  1.00  0.00    -0.420 A  
HETATM   30  C   UNL     1     -11.254  15.613  64.466  1.00  0.00    -0.337 A  
HETATM   31  C   UNL     1     -10.596  16.421  65.393  1.00  0.00    -0.338 A  
HETATM   32  C   UNL     1     -10.344  15.945  66.679  1.00  0.00    -0.302 A  
HETATM   33  C   UNL     1     -10.755  14.663  67.041  1.00  0.00    -0.290 A  
HETATM   34  C   UNL     1     -11.414  13.854  66.115  1.00  0.00    -0.351 A  
ENDBRANCH  28  29
ENDBRANCH  27  28
ENDBRANCH  26  27
ENDBRANCH  25  26
ENDBRANCH  24  25
ENDBRANCH  23  24
ENDBRANCH  22  23
ENDBRANCH  21  22
ENDBRANCH  20  21
ENDBRANCH  19  20
ENDBRANCH  18  19
ENDBRANCH  16  18
ENDBRANCH  15  16
ENDBRANCH  12  15
ENDBRANCH  10  12
ENDBRANCH   2   4
TORSDOF 16
ENDMDL
MODEL       65
REMARK 921   NORMALIZED FREE ENERGY PREDICTED BY IDOCK:   -5.52 KCAL/MOL
REMARK 922        TOTAL FREE ENERGY PREDICTED BY IDOCK:  -13.03 KCAL/MOL
REMARK 923 INTER-LIGAND FREE ENERGY PREDICTED BY IDOCK:  -10.21 KCAL/MOL
REMARK 924 INTRA-LIGAND FREE ENERGY PREDICTED BY IDOCK:   -2.82 KCAL/MOL
REMARK 927      BINDING AFFINITY PREDICTED BY RF-SCORE:    0.00 PKD
ROOT
HETATM    1  O   UNL     1     -14.175   8.845  73.376  1.00  0.00    -1.241 OA 
HETATM    2  C   UNL     1     -13.933   8.653  71.981  1.00  0.00    -0.446 C  
HETATM    3  H   UNL     1     -15.093   8.696  73.573  1.00  0.00     0.000 HD 
ENDROOT
BRANCH   2   4
HETATM    4  C   UNL     1     -12.479   8.890  71.669  1.00  0.00    -0.403 A  
HETATM    5  C   UNL     1     -11.445   8.165  72.275  1.00  0.00    -0.371 A  
HETATM    6  O   UNL     1     -11.692   7.234  73.245  1.00  0.00    -0.515 OA 
HETATM    7  C   UNL     1     -10.114   8.380  71.938  1.00  0.00    -0.337 A  
HETATM    8  C   UNL     1      -9.786   9.352  70.996  1.00  0.00    -0.317 A  
HETATM    9  H   UNL     1     -10.991   6.742  73.656  1.00  0.00     0.000 HD 
HETATM   10  C   UNL     1     -10.791  10.104  70.367  1.00  0.00    -0.365 A  
HETATM   11  C   UNL     1     -12.133   9.845  70.696  1.00  0.00    -0.343 A  
BRANCH  10  12
HETATM   12  C   UNL     1     -10.454  11.199  69.372  1.00  0.00    -0.095 C  
HETATM   13  O   UNL     1      -9.289  10.837  68.614  1.00  0.00    -0.169 OA 
HETATM   14  H   UNL     1      -9.078  11.522  67.990  1.00  0.00     0.000 HD 
BRANCH  12  15
HETATM   15  C   UNL     1     -11.618  11.479  68.396  1.00  0.00    -0.308 C  
BRANCH  15  16
HETATM   16  N   UNL     1     -11.122  11.721  67.032  1.00  0.00    -0.288 NA 
HETATM   17  H   UNL     1     -11.745  11.331  66.324  1.00  0.00     0.000 HD 
BRANCH  16  18
HETATM   18  C   UNL     1     -10.891  13.148  66.828  1.00  0.00    -0.276 C  
BRANCH  18  19
HETATM   19  C   UNL     1     -12.221  13.885  66.740  1.00  0.00    -0.438 C  
BRANCH  19  20
HETATM   20  C   UNL     1     -12.887  13.612  65.393  1.00  0.00    -0.440 C  
BRANCH  20  21
HETATM   21  C   UNL     1     -11.850  13.575  64.279  1.00  0.00    -0.471 C  
BRANCH  21  22
HETATM   22  C   UNL     1     -11.843  12.227  63.570  1.00  0.00    -0.601 C  
BRANCH  22  23
HETATM   23  C   UNL     1     -10.426  11.682  63.484  1.00  0.00    -0.443 C  
BRANCH  23  24
HETATM   24  O   UNL     1     -10.296  10.618  64.419  1.00  0.00    -0.363 OA 
BRANCH  24  25
HETATM   25  C   UNL     1      -9.099   9.875  64.201  1.00  0.00    -0.252 C  
BRANCH  25  26
HETATM   26  C   UNL     1      -8.071  10.282  65.248  1.00  0.00    -0.151 C  
BRANCH  26  27
HETATM   27  C   UNL     1      -7.790   9.132  66.217  1.00  0.00    -0.103 C  
BRANCH  27  28
HETATM   28  C   UNL     1      -8.591   7.881  65.865  1.00  0.00    -0.171 C  
BRANCH  28  29
HETATM   29  C   UNL     1      -9.102   7.226  67.127  1.00  0.00    -0.144 A  
HETATM   30  C   UNL     1      -8.236   6.491  67.944  1.00  0.00    -0.116 A  
HETATM   31  C   UNL     1      -8.725   5.820  69.065  1.00  0.00    -0.112 A  
HETATM   32  C   UNL     1     -10.082   5.876  69.375  1.00  0.00    -0.260 A  
HETATM   33  C   UNL     1     -10.952   6.608  68.569  1.00  0.00    -0.314 A  
HETATM   34  C   UNL     1     -10.465   7.281  67.448  1.00  0.00    -0.359 A  
ENDBRANCH  28  29
ENDBRANCH  27  28
ENDBRANCH  26  27
ENDBRANCH  25  26
ENDBRANCH  24  25
ENDBRANCH  23  24
ENDBRANCH  22  23
ENDBRANCH  21  22
ENDBRANCH  20  21
ENDBRANCH  19  20
ENDBRANCH  18  19
ENDBRANCH  16  18
ENDBRANCH  15  16
ENDBRANCH  12  15
ENDBRANCH  10  12
ENDBRANCH   2   4
TORSDOF 16
ENDMDL
MODEL       66
REMARK 921   NORMALIZED FREE ENERGY PREDICTED BY IDOCK:   -5.52 KCAL/MOL
REMARK 922        TOTAL FREE ENERGY PREDICTED BY IDOCK:  -13.03 KCAL/MOL
REMARK 923 INTER-LIGAND FREE ENERGY PREDICTED BY IDOCK:  -11.25 KCAL/MOL
REMARK 924 INTRA-LIGAND FREE ENERGY PREDICTED BY IDOCK:   -1.78 KCAL/MOL
REMARK 927      BINDING AFFINITY PREDICTED BY RF-SCORE:    0.00 PKD
ROOT
HETATM    1  O   UNL     1     -14.200   7.480  70.956  1.00  0.00    -0.668 OA 
HETATM    2  C   UNL     1     -13.015   7.587  71.746  1.00  0.00    -0.328 C  
HETATM    3  H   UNL     1     -14.887   8.028  71.318  1.00  0.00     0.000 HD 
ENDROOT
BRANCH   2   4
HETATM    4  C   UNL     1     -11.927   6.717  71.173  1.00  0.00    -0.421 A  
HETATM    5  C   UNL     1     -11.108   5.906  71.967  1.00  0.00    -0.274 A  
HETATM    6  O   UNL     1     -11.203   5.902  73.331  1.00  0.00    -0.450 OA 
HETATM    7  C   UNL     1     -10.136   5.086  71.406  1.00  0.00    -0.268 A  
HETATM    8  C   UNL     1      -9.948   5.079  70.026  1.00  0.00    -0.324 A  
HETATM    9  H   UNL     1     -10.646   5.353  73.870  1.00  0.00     0.000 HD 
HETATM   10  C   UNL     1     -10.745   5.881  69.193  1.00  0.00    -0.394 A  
HETATM   11  C   UNL     1     -11.746   6.676  69.779  1.00  0.00    -0.279 A  
BRANCH  10  12
HETATM   12  C   UNL     1     -10.527   5.924  67.692  1.00  0.00    -0.238 C  
HETATM   13  O   UNL     1     -11.658   6.529  67.046  1.00  0.00    -0.729 OA 
HETATM   14  H   UNL     1     -11.522   6.557  66.106  1.00  0.00     0.000 HD 
BRANCH  12  15
HETATM   15  C   UNL     1      -9.254   6.708  67.309  1.00  0.00    -0.125 C  
BRANCH  15  16
HETATM   16  N   UNL     1      -9.256   7.063  65.881  1.00  0.00    -0.375 NA 
HETATM   17  H   UNL     1     -10.170   6.920  65.453  1.00  0.00     0.000 HD 
BRANCH  16  18
HETATM   18  C   UNL     1      -8.777   8.430  65.703  1.00  0.00    -0.172 C  
BRANCH  18  19
HETATM   19  C   UNL     1      -9.346   9.328  66.795  1.00  0.00    -0.202 C  
BRANCH  19  20
HETATM   20  C   UNL     1     -10.308  10.348  66.190  1.00  0.00    -0.269 C  
BRANCH  20  21
HETATM   21  C   UNL     1     -10.071  10.488  64.693  1.00  0.00    -0.408 C  
BRANCH  21  22
HETATM   22  C   UNL     1     -11.015  11.512  64.074  1.00  0.00    -0.454 C  
BRANCH  22  23
HETATM   23  C   UNL     1     -11.885  12.146  65.148  1.00  0.00    -0.298 C  
BRANCH  23  24
HETATM   24  O   UNL     1     -12.602  13.227  64.565  1.00  0.00    -0.599 OA 
BRANCH  24  25
HETATM   25  C   UNL     1     -12.034  14.484  64.926  1.00  0.00    -0.422 C  
BRANCH  25  26
HETATM   26  C   UNL     1     -11.175  14.295  66.170  1.00  0.00    -0.331 C  
BRANCH  26  27
HETATM   27  C   UNL     1     -12.008  14.457  67.442  1.00  0.00    -0.407 C  
BRANCH  27  28
HETATM   28  C   UNL     1     -11.168  14.269  68.703  1.00  0.00    -0.287 C  
BRANCH  28  29
HETATM   29  C   UNL     1     -11.761  13.175  69.558  1.00  0.00    -0.382 A  
HETATM   30  C   UNL     1     -12.451  13.490  70.734  1.00  0.00    -0.428 A  
HETATM   31  C   UNL     1     -12.929  12.475  71.564  1.00  0.00    -0.379 A  
HETATM   32  C   UNL     1     -12.718  11.140  71.226  1.00  0.00    -0.531 A  
HETATM   33  C   UNL     1     -12.035  10.816  70.055  1.00  0.00    -0.427 A  
HETATM   34  C   UNL     1     -11.557  11.829  69.223  1.00  0.00    -0.378 A  
ENDBRANCH  28  29
ENDBRANCH  27  28
ENDBRANCH  26  27
ENDBRANCH  25  26
ENDBRANCH  24  25
ENDBRANCH  23  24
ENDBRANCH  22  23
ENDBRANCH  21  22
ENDBRANCH  20  21
ENDBRANCH  19  20
ENDBRANCH  18  19
ENDBRANCH  16  18
ENDBRANCH  15  16
ENDBRANCH  12  15
ENDBRANCH  10  12
ENDBRANCH   2   4
TORSDOF 16
ENDMDL
MODEL       67
REMARK 921   NORMALIZED FREE ENERGY PREDICTED BY IDOCK:   -5.52 KCAL/MOL
REMARK 922        TOTAL FREE ENERGY PREDICTED BY IDOCK:  -13.03 KCAL/MOL
REMARK 923 INTER-LIGAND FREE ENERGY PREDICTED BY IDOCK:  -10.93 KCAL/MOL
REMARK 924 INTRA-LIGAND FREE ENERGY PREDICTED BY IDOCK:   -2.10 KCAL/MOL
REMARK 927      BINDING AFFINITY PREDICTED BY RF-SCORE:    0.00 PKD
ROOT
HETATM    1  O   UNL     1      -6.487  20.558  68.517  1.00  0.00    -0.305 OA 
HETATM    2  C   UNL     1      -6.610  19.184  68.147  1.00  0.00    -0.230 C  
HETATM    3  H   UNL     1      -5.571  20.790  68.615  1.00  0.00     0.000 HD 
ENDROOT
BRANCH   2   4
HETATM    4  C   UNL     1      -8.062  18.815  67.990  1.00  0.00    -0.308 A  
HETATM    5  C   UNL     1      -8.977  19.615  67.294  1.00  0.00    -0.318 A  
HETATM    6  O   UNL     1      -8.619  20.823  66.764  1.00  0.00    -0.555 OA 
HETATM    7  C   UNL     1     -10.303  19.230  67.134  1.00  0.00    -0.533 A  
HETATM    8  C   UNL     1     -10.749  18.036  67.695  1.00  0.00    -0.360 A  
HETATM    9  H   UNL     1      -9.239  21.366  66.292  1.00  0.00     0.000 HD 
HETATM   10  C   UNL     1      -9.867  17.206  68.405  1.00  0.00    -0.296 A  
HETATM   11  C   UNL     1      -8.522  17.597  68.523  1.00  0.00    -0.289 A  
BRANCH  10  12
HETATM   12  C   UNL     1     -10.342  15.924  69.063  1.00  0.00    -0.231 C  
HETATM   13  O   UNL     1      -9.216  15.141  69.490  1.00  0.00    -0.365 OA 
HETATM   14  H   UNL     1      -9.513  14.338  69.902  1.00  0.00     0.000 HD 
BRANCH  12  15
HETATM   15  C   UNL     1     -11.253  16.195  70.279  1.00  0.00    -0.381 C  
BRANCH  15  16
HETATM   16  N   UNL     1     -12.660  15.890  69.968  1.00  0.00    -0.572 NA 
HETATM   17  H   UNL     1     -12.746  15.227  69.198  1.00  0.00     0.000 HD 
BRANCH  16  18
HETATM   18  C   UNL     1     -13.348  15.426  71.169  1.00  0.00    -0.508 C  
BRANCH  18  19
HETATM   19  C   UNL     1     -12.698  14.148  71.683  1.00  0.00    -0.430 C  
BRANCH  19  20
HETATM   20  C   UNL     1     -13.763  13.195  72.222  1.00  0.00    -0.647 C  
BRANCH  20  21
HETATM   21  C   UNL     1     -13.381  11.749  71.942  1.00  0.00    -0.401 C  
BRANCH  21  22
HETATM   22  C   UNL     1     -12.381  11.649  70.797  1.00  0.00    -0.454 C  
BRANCH  22  23
HETATM   23  C   UNL     1     -12.054  10.192  70.506  1.00  0.00    -0.291 C  
BRANCH  23  24
HETATM   24  O   UNL     1     -10.731   9.930  70.955  1.00  0.00    -0.311 OA 
BRANCH  24  25
HETATM   25  C   UNL     1      -9.921   9.401  69.908  1.00  0.00    -0.212 C  
BRANCH  25  26
HETATM   26  C   UNL     1      -9.252  10.556  69.173  1.00  0.00    -0.183 C  
BRANCH  26  27
HETATM   27  C   UNL     1      -9.255  10.321  67.662  1.00  0.00    -0.154 C  
BRANCH  27  28
HETATM   28  C   UNL     1     -10.663  10.399  67.075  1.00  0.00    -0.298 C  
BRANCH  28  29
HETATM   29  C   UNL     1     -10.916  11.785  66.530  1.00  0.00    -0.342 A  
HETATM   30  C   UNL     1     -11.677  12.705  67.259  1.00  0.00    -0.435 A  
HETATM   31  C   UNL     1     -11.978  13.955  66.719  1.00  0.00    -0.472 A  
HETATM   32  C   UNL     1     -11.522  14.294  65.446  1.00  0.00    -0.332 A  
HETATM   33  C   UNL     1     -10.760  13.386  64.714  1.00  0.00    -0.403 A  
HETATM   34  C   UNL     1     -10.458  12.135  65.252  1.00  0.00    -0.311 A  
ENDBRANCH  28  29
ENDBRANCH  27  28
ENDBRANCH  26  27
ENDBRANCH  25  26
ENDBRANCH  24  25
ENDBRANCH  23  24
ENDBRANCH  22  23
ENDBRANCH  21  22
ENDBRANCH  20  21
ENDBRANCH  19  20
ENDBRANCH  18  19
ENDBRANCH  16  18
ENDBRANCH  15  16
ENDBRANCH  12  15
ENDBRANCH  10  12
ENDBRANCH   2   4
TORSDOF 16
ENDMDL
MODEL       68
REMARK 921   NORMALIZED FREE ENERGY PREDICTED BY IDOCK:   -5.51 KCAL/MOL
REMARK 922        TOTAL FREE ENERGY PREDICTED BY IDOCK:  -13.02 KCAL/MOL
REMARK 923 INTER-LIGAND FREE ENERGY PREDICTED BY IDOCK:  -11.04 KCAL/MOL
REMARK 924 INTRA-LIGAND FREE ENERGY PREDICTED BY IDOCK:   -1.98 KCAL/MOL
REMARK 927      BINDING AFFINITY PREDICTED BY RF-SCORE:    0.00 PKD
ROOT
HETATM    1  O   UNL     1     -14.208   8.964  73.331  1.00  0.00    -1.241 OA 
HETATM    2  C   UNL     1     -13.528   9.689  72.306  1.00  0.00    -0.400 C  
HETATM    3  H   UNL     1     -14.845   9.523  73.761  1.00  0.00     0.000 HD 
ENDROOT
BRANCH   2   4
HETATM    4  C   UNL     1     -12.518   8.804  71.624  1.00  0.00    -0.392 A  
HETATM    5  C   UNL     1     -12.760   7.454  71.344  1.00  0.00    -0.369 A  
HETATM    6  O   UNL     1     -13.915   6.834  71.732  1.00  0.00    -0.356 OA 
HETATM    7  C   UNL     1     -11.823   6.671  70.680  1.00  0.00    -0.443 A  
HETATM    8  C   UNL     1     -10.602   7.225  70.302  1.00  0.00    -0.243 A  
HETATM    9  H   UNL     1     -14.079   5.917  71.542  1.00  0.00     0.000 HD 
HETATM   10  C   UNL     1     -10.316   8.573  70.568  1.00  0.00    -0.226 A  
HETATM   11  C   UNL     1     -11.293   9.356  71.208  1.00  0.00    -0.436 A  
BRANCH  10  12
HETATM   12  C   UNL     1      -8.976   9.185  70.206  1.00  0.00    -0.217 C  
HETATM   13  O   UNL     1      -7.908   8.332  70.647  1.00  0.00    -0.084 OA 
HETATM   14  H   UNL     1      -7.068   8.714  70.420  1.00  0.00     0.000 HD 
BRANCH  12  15
HETATM   15  C   UNL     1      -8.833   9.420  68.687  1.00  0.00    -0.132 C  
BRANCH  15  16
HETATM   16  N   UNL     1     -10.035  10.065  68.132  1.00  0.00    -0.149 NA 
HETATM   17  H   UNL     1     -10.424  10.760  68.770  1.00  0.00     0.000 HD 
BRANCH  16  18
HETATM   18  C   UNL     1      -9.739  10.632  66.820  1.00  0.00    -0.185 C  
BRANCH  18  19
HETATM   19  C   UNL     1      -9.826   9.550  65.752  1.00  0.00    -0.363 C  
BRANCH  19  20
HETATM   20  C   UNL     1      -9.880  10.183  64.364  1.00  0.00    -0.307 C  
BRANCH  20  21
HETATM   21  C   UNL     1     -10.180  11.671  64.463  1.00  0.00    -0.337 C  
BRANCH  21  22
HETATM   22  C   UNL     1     -11.252  12.092  63.465  1.00  0.00    -0.526 C  
BRANCH  22  23
HETATM   23  C   UNL     1     -12.372  12.836  64.175  1.00  0.00    -0.407 C  
BRANCH  23  24
HETATM   24  O   UNL     1     -12.454  14.148  63.632  1.00  0.00    -0.819 OA 
BRANCH  24  25
HETATM   25  C   UNL     1     -12.361  15.140  64.652  1.00  0.00    -0.149 C  
BRANCH  25  26
HETATM   26  C   UNL     1     -10.907  15.259  65.089  1.00  0.00    -0.441 C  
BRANCH  26  27
HETATM   27  C   UNL     1     -10.801  15.425  66.606  1.00  0.00    -0.302 C  
BRANCH  27  28
HETATM   28  C   UNL     1     -10.844  14.081  67.331  1.00  0.00    -0.288 C  
BRANCH  28  29
HETATM   29  C   UNL     1     -11.559  14.233  68.653  1.00  0.00    -0.352 A  
HETATM   30  C   UNL     1     -11.695  15.494  69.244  1.00  0.00    -0.380 A  
HETATM   31  C   UNL     1     -12.283  15.622  70.502  1.00  0.00    -0.437 A  
HETATM   32  C   UNL     1     -12.738  14.492  71.179  1.00  0.00    -0.408 A  
HETATM   33  C   UNL     1     -12.611  13.232  70.597  1.00  0.00    -0.305 A  
HETATM   34  C   UNL     1     -12.023  13.101  69.338  1.00  0.00    -0.347 A  
ENDBRANCH  28  29
ENDBRANCH  27  28
ENDBRANCH  26  27
ENDBRANCH  25  26
ENDBRANCH  24  25
ENDBRANCH  23  24
ENDBRANCH  22  23
ENDBRANCH  21  22
ENDBRANCH  20  21
ENDBRANCH  19  20
ENDBRANCH  18  19
ENDBRANCH  16  18
ENDBRANCH  15  16
ENDBRANCH  12  15
ENDBRANCH  10  12
ENDBRANCH   2   4
TORSDOF 16
ENDMDL
MODEL       69
REMARK 921   NORMALIZED FREE ENERGY PREDICTED BY IDOCK:   -5.51 KCAL/MOL
REMARK 922        TOTAL FREE ENERGY PREDICTED BY IDOCK:  -13.01 KCAL/MOL
REMARK 923 INTER-LIGAND FREE ENERGY PREDICTED BY IDOCK:   -9.32 KCAL/MOL
REMARK 924 INTRA-LIGAND FREE ENERGY PREDICTED BY IDOCK:   -3.69 KCAL/MOL
REMARK 927      BINDING AFFINITY PREDICTED BY RF-SCORE:    0.00 PKD
ROOT
HETATM    1  O   UNL     1     -10.659  13.939  63.911  1.00  0.00    -0.468 OA 
HETATM    2  C   UNL     1     -11.491  14.770  64.722  1.00  0.00    -0.410 C  
HETATM    3  H   UNL     1     -10.648  14.259  63.016  1.00  0.00     0.000 HD 
ENDROOT
BRANCH   2   4
HETATM    4  C   UNL     1     -11.509  14.263  66.140  1.00  0.00    -0.357 A  
HETATM    5  C   UNL     1     -11.925  12.970  66.478  1.00  0.00    -0.391 A  
HETATM    6  O   UNL     1     -12.406  12.100  65.539  1.00  0.00    -0.548 OA 
HETATM    7  C   UNL     1     -11.895  12.518  67.792  1.00  0.00    -0.375 A  
HETATM    8  C   UNL     1     -11.466  13.369  68.807  1.00  0.00    -0.344 A  
HETATM    9  H   UNL     1     -12.689  11.223  65.768  1.00  0.00     0.000 HD 
HETATM   10  C   UNL     1     -11.044  14.676  68.513  1.00  0.00    -0.273 A  
HETATM   11  C   UNL     1     -11.048  15.100  67.173  1.00  0.00    -0.335 A  
BRANCH  10  12
HETATM   12  C   UNL     1     -10.616  15.635  69.609  1.00  0.00    -0.283 C  
HETATM   13  O   UNL     1     -10.710  14.994  70.891  1.00  0.00    -0.542 OA 
HETATM   14  H   UNL     1     -10.441  15.595  71.577  1.00  0.00     0.000 HD 
BRANCH  12  15
HETATM   15  C   UNL     1      -9.172  16.143  69.408  1.00  0.00    -0.170 C  
BRANCH  15  16
HETATM   16  N   UNL     1      -8.189  15.150  69.870  1.00  0.00    -0.347 NA 
HETATM   17  H   UNL     1      -8.605  14.226  69.987  1.00  0.00     0.000 HD 
BRANCH  16  18
HETATM   18  C   UNL     1      -7.043  15.122  68.967  1.00  0.00    -0.140 C  
BRANCH  18  19
HETATM   19  C   UNL     1      -7.417  14.415  67.670  1.00  0.00    -0.191 C  
BRANCH  19  20
HETATM   20  C   UNL     1      -7.001  12.946  67.732  1.00  0.00    -0.138 C  
BRANCH  20  21
HETATM   21  C   UNL     1      -8.225  12.042  67.739  1.00  0.00    -0.151 C  
BRANCH  21  22
HETATM   22  C   UNL     1      -8.666  11.690  66.324  1.00  0.00    -0.136 C  
BRANCH  22  23
HETATM   23  C   UNL     1      -8.901  10.193  66.200  1.00  0.00    -0.145 C  
BRANCH  23  24
HETATM   24  O   UNL     1     -10.290   9.940  66.371  1.00  0.00    -0.227 OA 
BRANCH  24  25
HETATM   25  C   UNL     1     -10.517   8.876  67.293  1.00  0.00    -0.277 C  
BRANCH  25  26
HETATM   26  C   UNL     1      -9.190   8.495  67.937  1.00  0.00    -0.148 C  
BRANCH  26  27
HETATM   27  C   UNL     1      -9.310   8.461  69.462  1.00  0.00    -0.158 C  
BRANCH  27  28
HETATM   28  C   UNL     1      -9.877   9.765  70.019  1.00  0.00    -0.295 C  
BRANCH  28  29
HETATM   29  C   UNL     1     -11.146   9.487  70.790  1.00  0.00    -0.390 A  
HETATM   30  C   UNL     1     -11.431   8.194  71.241  1.00  0.00    -0.299 A  
HETATM   31  C   UNL     1     -12.640   7.923  71.882  1.00  0.00    -0.348 A  
HETATM   32  C   UNL     1     -13.573   8.940  72.073  1.00  0.00    -0.489 A  
HETATM   33  C   UNL     1     -13.296  10.232  71.630  1.00  0.00    -0.451 A  
HETATM   34  C   UNL     1     -12.087  10.507  70.989  1.00  0.00    -0.492 A  
ENDBRANCH  28  29
ENDBRANCH  27  28
ENDBRANCH  26  27
ENDBRANCH  25  26
ENDBRANCH  24  25
ENDBRANCH  23  24
ENDBRANCH  22  23
ENDBRANCH  21  22
ENDBRANCH  20  21
ENDBRANCH  19  20
ENDBRANCH  18  19
ENDBRANCH  16  18
ENDBRANCH  15  16
ENDBRANCH  12  15
ENDBRANCH  10  12
ENDBRANCH   2   4
TORSDOF 16
ENDMDL
MODEL       70
REMARK 921   NORMALIZED FREE ENERGY PREDICTED BY IDOCK:   -5.51 KCAL/MOL
REMARK 922        TOTAL FREE ENERGY PREDICTED BY IDOCK:  -13.01 KCAL/MOL
REMARK 923 INTER-LIGAND FREE ENERGY PREDICTED BY IDOCK:  -10.18 KCAL/MOL
REMARK 924 INTRA-LIGAND FREE ENERGY PREDICTED BY IDOCK:   -2.82 KCAL/MOL
REMARK 927      BINDING AFFINITY PREDICTED BY RF-SCORE:    0.00 PKD
ROOT
HETATM    1  O   UNL     1     -12.075  14.621  67.735  1.00  0.00    -0.554 OA 
HETATM    2  C   UNL     1     -12.034  13.193  67.733  1.00  0.00    -0.307 C  
HETATM    3  H   UNL     1     -12.246  14.943  68.612  1.00  0.00     0.000 HD 
ENDROOT
BRANCH   2   4
HETATM    4  C   UNL     1     -11.764  12.682  66.342  1.00  0.00    -0.466 A  
HETATM    5  C   UNL     1     -12.423  13.177  65.211  1.00  0.00    -0.495 A  
HETATM    6  O   UNL     1     -13.408  14.120  65.307  1.00  0.00    -0.715 OA 
HETATM    7  C   UNL     1     -12.125  12.712  63.935  1.00  0.00    -0.567 A  
HETATM    8  C   UNL     1     -11.169  11.713  63.769  1.00  0.00    -0.498 A  
HETATM    9  H   UNL     1     -13.856  14.456  64.539  1.00  0.00     0.000 HD 
HETATM   10  C   UNL     1     -10.487  11.185  64.877  1.00  0.00    -0.372 A  
HETATM   11  C   UNL     1     -10.778  11.696  66.154  1.00  0.00    -0.325 A  
BRANCH  10  12
HETATM   12  C   UNL     1      -9.475  10.065  64.724  1.00  0.00    -0.304 C  
HETATM   13  O   UNL     1      -8.145  10.605  64.667  1.00  0.00    -0.319 OA 
HETATM   14  H   UNL     1      -7.511   9.904  64.571  1.00  0.00     0.000 HD 
BRANCH  12  15
HETATM   15  C   UNL     1      -9.551   9.047  65.881  1.00  0.00    -0.247 C  
BRANCH  15  16
HETATM   16  N   UNL     1      -8.917   7.771  65.511  1.00  0.00    -0.380 NA 
HETATM   17  H   UNL     1      -7.924   7.883  65.307  1.00  0.00     0.000 HD 
BRANCH  16  18
HETATM   18  C   UNL     1      -9.151   6.774  66.552  1.00  0.00    -0.151 C  
BRANCH  18  19
HETATM   19  C   UNL     1     -10.595   6.850  67.032  1.00  0.00    -0.403 C  
BRANCH  19  20
HETATM   20  C   UNL     1     -10.705   6.312  68.457  1.00  0.00    -0.354 C  
BRANCH  20  21
HETATM   21  C   UNL     1      -9.346   5.852  68.964  1.00  0.00    -0.138 C  
BRANCH  21  22
HETATM   22  C   UNL     1      -9.369   5.599  70.467  1.00  0.00    -0.194 C  
BRANCH  22  23
HETATM   23  C   UNL     1      -8.321   6.455  71.162  1.00  0.00    -0.123 C  
BRANCH  23  24
HETATM   24  O   UNL     1      -7.860   7.436  70.242  1.00  0.00    -0.092 OA 
BRANCH  24  25
HETATM   25  C   UNL     1      -7.332   8.576  70.917  1.00  0.00    -0.068 C  
BRANCH  25  26
HETATM   26  C   UNL     1      -7.829   9.834  70.217  1.00  0.00    -0.190 C  
BRANCH  26  27
HETATM   27  C   UNL     1      -8.980   9.512  69.262  1.00  0.00    -0.160 C  
BRANCH  27  28
HETATM   28  C   UNL     1     -10.094  10.555  69.337  1.00  0.00    -0.233 C  
BRANCH  28  29
HETATM   29  C   UNL     1     -11.185  10.074  70.265  1.00  0.00    -0.379 A  
HETATM   30  C   UNL     1     -12.216  10.937  70.651  1.00  0.00    -0.472 A  
HETATM   31  C   UNL     1     -13.178  10.517  71.570  1.00  0.00    -0.470 A  
HETATM   32  C   UNL     1     -13.114   9.235  72.112  1.00  0.00    -0.520 A  
HETATM   33  C   UNL     1     -12.092   8.367  71.730  1.00  0.00    -0.379 A  
HETATM   34  C   UNL     1     -11.129   8.784  70.810  1.00  0.00    -0.306 A  
ENDBRANCH  28  29
ENDBRANCH  27  28
ENDBRANCH  26  27
ENDBRANCH  25  26
ENDBRANCH  24  25
ENDBRANCH  23  24
ENDBRANCH  22  23
ENDBRANCH  21  22
ENDBRANCH  20  21
ENDBRANCH  19  20
ENDBRANCH  18  19
ENDBRANCH  16  18
ENDBRANCH  15  16
ENDBRANCH  12  15
ENDBRANCH  10  12
ENDBRANCH   2   4
TORSDOF 16
ENDMDL
MODEL       71
REMARK 921   NORMALIZED FREE ENERGY PREDICTED BY IDOCK:   -5.51 KCAL/MOL
REMARK 922        TOTAL FREE ENERGY PREDICTED BY IDOCK:  -13.00 KCAL/MOL
REMARK 923 INTER-LIGAND FREE ENERGY PREDICTED BY IDOCK:  -10.92 KCAL/MOL
REMARK 924 INTRA-LIGAND FREE ENERGY PREDICTED BY IDOCK:   -2.08 KCAL/MOL
REMARK 927      BINDING AFFINITY PREDICTED BY RF-SCORE:    0.00 PKD
ROOT
HETATM    1  O   UNL     1      -8.432  15.944  68.878  1.00  0.00    -0.190 OA 
HETATM    2  C   UNL     1      -9.459  16.504  68.060  1.00  0.00    -0.222 C  
HETATM    3  H   UNL     1      -7.825  16.622  69.152  1.00  0.00     0.000 HD 
ENDROOT
BRANCH   2   4
HETATM    4  C   UNL     1     -10.422  15.429  67.625  1.00  0.00    -0.272 A  
HETATM    5  C   UNL     1     -10.869  14.419  68.485  1.00  0.00    -0.251 A  
HETATM    6  O   UNL     1     -10.405  14.306  69.766  1.00  0.00    -0.430 OA 
HETATM    7  C   UNL     1     -11.786  13.463  68.066  1.00  0.00    -0.392 A  
HETATM    8  C   UNL     1     -12.261  13.486  66.756  1.00  0.00    -0.392 A  
HETATM    9  H   UNL     1     -10.708  13.620  70.350  1.00  0.00     0.000 HD 
HETATM   10  C   UNL     1     -11.836  14.479  65.860  1.00  0.00    -0.334 A  
HETATM   11  C   UNL     1     -10.935  15.458  66.316  1.00  0.00    -0.278 A  
BRANCH  10  12
HETATM   12  C   UNL     1     -12.304  14.496  64.417  1.00  0.00    -0.413 C  
HETATM   13  O   UNL     1     -11.828  15.680  63.757  1.00  0.00    -0.971 OA 
HETATM   14  H   UNL     1     -12.122  15.691  62.853  1.00  0.00     0.000 HD 
BRANCH  12  15
HETATM   15  C   UNL     1     -11.822  13.258  63.632  1.00  0.00    -0.458 C  
BRANCH  15  16
HETATM   16  N   UNL     1     -10.352  13.177  63.615  1.00  0.00    -0.597 NA 
HETATM   17  H   UNL     1      -9.929  13.754  64.343  1.00  0.00     0.000 HD 
BRANCH  16  18
HETATM   18  C   UNL     1      -9.926  11.784  63.707  1.00  0.00    -0.355 C  
BRANCH  18  19
HETATM   19  C   UNL     1     -10.219  11.238  65.098  1.00  0.00    -0.344 C  
BRANCH  19  20
HETATM   20  C   UNL     1      -9.576   9.864  65.272  1.00  0.00    -0.361 C  
BRANCH  20  21
HETATM   21  C   UNL     1     -10.180   9.134  66.462  1.00  0.00    -0.322 C  
BRANCH  21  22
HETATM   22  C   UNL     1      -9.625   7.721  66.590  1.00  0.00    -0.286 C  
BRANCH  22  23
HETATM   23  C   UNL     1     -10.715   6.764  67.048  1.00  0.00    -0.365 C  
BRANCH  23  24
HETATM   24  O   UNL     1     -11.150   7.165  68.341  1.00  0.00    -0.072 OA 
BRANCH  24  25
HETATM   25  C   UNL     1     -11.236   6.054  69.230  1.00  0.00    -0.297 C  
BRANCH  25  26
HETATM   26  C   UNL     1      -9.940   5.961  70.026  1.00  0.00    -0.239 C  
BRANCH  26  27
HETATM   27  C   UNL     1     -10.022   6.793  71.306  1.00  0.00    -0.189 C  
BRANCH  27  28
HETATM   28  C   UNL     1      -9.728   8.269  71.048  1.00  0.00    -0.201 C  
BRANCH  28  29
HETATM   29  C   UNL     1     -10.974   9.090  71.282  1.00  0.00    -0.384 A  
HETATM   30  C   UNL     1     -11.978   8.626  72.140  1.00  0.00    -0.449 A  
HETATM   31  C   UNL     1     -13.162   9.347  72.292  1.00  0.00    -0.528 A  
HETATM   32  C   UNL     1     -13.354  10.533  71.587  1.00  0.00    -0.423 A  
HETATM   33  C   UNL     1     -12.358  11.005  70.733  1.00  0.00    -0.496 A  
HETATM   34  C   UNL     1     -11.172  10.287  70.579  1.00  0.00    -0.408 A  
ENDBRANCH  28  29
ENDBRANCH  27  28
ENDBRANCH  26  27
ENDBRANCH  25  26
ENDBRANCH  24  25
ENDBRANCH  23  24
ENDBRANCH  22  23
ENDBRANCH  21  22
ENDBRANCH  20  21
ENDBRANCH  19  20
ENDBRANCH  18  19
ENDBRANCH  16  18
ENDBRANCH  15  16
ENDBRANCH  12  15
ENDBRANCH  10  12
ENDBRANCH   2   4
TORSDOF 16
ENDMDL
MODEL       72
REMARK 921   NORMALIZED FREE ENERGY PREDICTED BY IDOCK:   -5.50 KCAL/MOL
REMARK 922        TOTAL FREE ENERGY PREDICTED BY IDOCK:  -13.00 KCAL/MOL
REMARK 923 INTER-LIGAND FREE ENERGY PREDICTED BY IDOCK:  -10.37 KCAL/MOL
REMARK 924 INTRA-LIGAND FREE ENERGY PREDICTED BY IDOCK:   -2.63 KCAL/MOL
REMARK 927      BINDING AFFINITY PREDICTED BY RF-SCORE:    0.00 PKD
ROOT
HETATM    1  O   UNL     1      -9.447   4.231  70.602  1.00  0.00    -0.139 OA 
HETATM    2  C   UNL     1     -10.402   5.070  69.951  1.00  0.00    -0.228 C  
HETATM    3  H   UNL     1      -9.446   3.366  70.206  1.00  0.00     0.000 HD 
ENDROOT
BRANCH   2   4
HETATM    4  C   UNL     1     -10.404   6.439  70.578  1.00  0.00    -0.247 A  
HETATM    5  C   UNL     1      -9.229   7.113  70.933  1.00  0.00    -0.152 A  
HETATM    6  O   UNL     1      -7.997   6.536  70.790  1.00  0.00    -0.110 OA 
HETATM    7  C   UNL     1      -9.261   8.392  71.476  1.00  0.00    -0.257 A  
HETATM    8  C   UNL     1     -10.484   9.019  71.699  1.00  0.00    -0.426 A  
HETATM    9  H   UNL     1      -7.199   6.993  71.030  1.00  0.00     0.000 HD 
HETATM   10  C   UNL     1     -11.687   8.378  71.362  1.00  0.00    -0.332 A  
HETATM   11  C   UNL     1     -11.630   7.099  70.781  1.00  0.00    -0.358 A  
BRANCH  10  12
HETATM   12  C   UNL     1     -13.032   9.023  71.639  1.00  0.00    -0.361 C  
HETATM   13  O   UNL     1     -13.372   8.881  73.027  1.00  0.00    -0.865 OA 
HETATM   14  H   UNL     1     -14.215   9.285  73.200  1.00  0.00     0.000 HD 
BRANCH  12  15
HETATM   15  C   UNL     1     -13.047  10.522  71.270  1.00  0.00    -0.383 C  
BRANCH  15  16
HETATM   16  N   UNL     1     -12.907  10.715  69.818  1.00  0.00    -0.521 NA 
HETATM   17  H   UNL     1     -13.775  11.036  69.389  1.00  0.00     0.000 HD 
BRANCH  16  18
HETATM   18  C   UNL     1     -11.793  11.616  69.537  1.00  0.00    -0.348 C  
BRANCH  18  19
HETATM   19  C   UNL     1     -12.058  12.982  70.158  1.00  0.00    -0.377 C  
BRANCH  19  20
HETATM   20  C   UNL     1     -11.832  14.083  69.124  1.00  0.00    -0.391 C  
BRANCH  20  21
HETATM   21  C   UNL     1     -11.432  13.487  67.783  1.00  0.00    -0.349 C  
BRANCH  21  22
HETATM   22  C   UNL     1     -12.528  13.676  66.741  1.00  0.00    -0.241 C  
BRANCH  22  23
HETATM   23  C   UNL     1     -11.955  14.303  65.479  1.00  0.00    -0.385 C  
BRANCH  23  24
HETATM   24  O   UNL     1     -12.789  13.950  64.383  1.00  0.00    -0.632 OA 
BRANCH  24  25
HETATM   25  C   UNL     1     -12.043  13.324  63.341  1.00  0.00    -0.439 C  
BRANCH  25  26
HETATM   26  C   UNL     1     -11.931  11.835  63.645  1.00  0.00    -0.490 C  
BRANCH  26  27
HETATM   27  C   UNL     1     -10.473  11.376  63.606  1.00  0.00    -0.472 C  
BRANCH  27  28
HETATM   28  C   UNL     1      -9.802  11.485  64.974  1.00  0.00    -0.294 C  
BRANCH  28  29
HETATM   29  C   UNL     1      -9.832  10.145  65.670  1.00  0.00    -0.347 A  
HETATM   30  C   UNL     1     -10.535   9.985  66.868  1.00  0.00    -0.284 A  
HETATM   31  C   UNL     1     -10.495   8.769  67.551  1.00  0.00    -0.340 A  
HETATM   32  C   UNL     1      -9.751   7.707  67.043  1.00  0.00    -0.255 A  
HETATM   33  C   UNL     1      -9.049   7.856  65.847  1.00  0.00    -0.139 A  
HETATM   34  C   UNL     1      -9.088   9.071  65.162  1.00  0.00    -0.203 A  
ENDBRANCH  28  29
ENDBRANCH  27  28
ENDBRANCH  26  27
ENDBRANCH  25  26
ENDBRANCH  24  25
ENDBRANCH  23  24
ENDBRANCH  22  23
ENDBRANCH  21  22
ENDBRANCH  20  21
ENDBRANCH  19  20
ENDBRANCH  18  19
ENDBRANCH  16  18
ENDBRANCH  15  16
ENDBRANCH  12  15
ENDBRANCH  10  12
ENDBRANCH   2   4
TORSDOF 16
ENDMDL
MODEL       73
REMARK 921   NORMALIZED FREE ENERGY PREDICTED BY IDOCK:   -5.50 KCAL/MOL
REMARK 922        TOTAL FREE ENERGY PREDICTED BY IDOCK:  -12.99 KCAL/MOL
REMARK 923 INTER-LIGAND FREE ENERGY PREDICTED BY IDOCK:  -10.53 KCAL/MOL
REMARK 924 INTRA-LIGAND FREE ENERGY PREDICTED BY IDOCK:   -2.46 KCAL/MOL
REMARK 927      BINDING AFFINITY PREDICTED BY RF-SCORE:    0.00 PKD
ROOT
HETATM    1  O   UNL     1     -13.659  15.772  70.438  1.00  0.00    -0.738 OA 
HETATM    2  C   UNL     1     -12.769  15.162  71.375  1.00  0.00    -0.372 C  
HETATM    3  H   UNL     1     -13.741  16.701  70.621  1.00  0.00     0.000 HD 
ENDROOT
BRANCH   2   4
HETATM    4  C   UNL     1     -12.639  13.689  71.086  1.00  0.00    -0.452 A  
HETATM    5  C   UNL     1     -13.158  12.703  71.932  1.00  0.00    -0.366 A  
HETATM    6  O   UNL     1     -13.764  13.015  73.117  1.00  0.00    -0.422 OA 
HETATM    7  C   UNL     1     -13.055  11.352  71.621  1.00  0.00    -0.498 A  
HETATM    8  C   UNL     1     -12.402  10.958  70.455  1.00  0.00    -0.463 A  
HETATM    9  H   UNL     1     -14.116  12.346  73.692  1.00  0.00     0.000 HD 
HETATM   10  C   UNL     1     -11.863  11.915  69.580  1.00  0.00    -0.406 A  
HETATM   11  C   UNL     1     -12.010  13.277  69.897  1.00  0.00    -0.400 A  
BRANCH  10  12
HETATM   12  C   UNL     1     -11.108  11.507  68.329  1.00  0.00    -0.239 C  
HETATM   13  O   UNL     1     -11.732  10.362  67.727  1.00  0.00    -0.677 OA 
HETATM   14  H   UNL     1     -11.259  10.107  66.943  1.00  0.00     0.000 HD 
BRANCH  12  15
HETATM   15  C   UNL     1     -11.045  12.646  67.289  1.00  0.00    -0.278 C  
BRANCH  15  16
HETATM   16  N   UNL     1     -12.152  12.549  66.323  1.00  0.00    -0.605 NA 
HETATM   17  H   UNL     1     -12.963  13.094  66.616  1.00  0.00     0.000 HD 
BRANCH  16  18
HETATM   18  C   UNL     1     -11.690  12.927  64.992  1.00  0.00    -0.344 C  
BRANCH  18  19
HETATM   19  C   UNL     1     -11.330  11.682  64.190  1.00  0.00    -0.397 C  
BRANCH  19  20
HETATM   20  C   UNL     1      -9.870  11.743  63.749  1.00  0.00    -0.327 C  
BRANCH  20  21
HETATM   21  C   UNL     1      -8.991  10.929  64.687  1.00  0.00    -0.147 C  
BRANCH  21  22
HETATM   22  C   UNL     1      -9.693   9.656  65.144  1.00  0.00    -0.287 C  
BRANCH  22  23
HETATM   23  C   UNL     1      -8.672   8.615  65.574  1.00  0.00    -0.186 C  
BRANCH  23  24
HETATM   24  O   UNL     1      -9.099   8.049  66.807  1.00  0.00    -0.140 OA 
BRANCH  24  25
HETATM   25  C   UNL     1      -9.012   6.626  66.785  1.00  0.00    -0.133 C  
BRANCH  25  26
HETATM   26  C   UNL     1     -10.416   6.048  66.904  1.00  0.00    -0.344 C  
BRANCH  26  27
HETATM   27  C   UNL     1     -11.211   6.758  68.002  1.00  0.00    -0.159 C  
BRANCH  27  28
HETATM   28  C   UNL     1     -11.208   5.968  69.310  1.00  0.00    -0.367 C  
BRANCH  28  29
HETATM   29  C   UNL     1     -10.811   6.871  70.454  1.00  0.00    -0.297 A  
HETATM   30  C   UNL     1     -11.381   6.701  71.721  1.00  0.00    -0.320 A  
HETATM   31  C   UNL     1     -11.074   7.585  72.755  1.00  0.00    -0.416 A  
HETATM   32  C   UNL     1     -10.199   8.646  72.531  1.00  0.00    -0.238 A  
HETATM   33  C   UNL     1      -9.623   8.821  71.273  1.00  0.00    -0.323 A  
HETATM   34  C   UNL     1      -9.928   7.938  70.237  1.00  0.00    -0.189 A  
ENDBRANCH  28  29
ENDBRANCH  27  28
ENDBRANCH  26  27
ENDBRANCH  25  26
ENDBRANCH  24  25
ENDBRANCH  23  24
ENDBRANCH  22  23
ENDBRANCH  21  22
ENDBRANCH  20  21
ENDBRANCH  19  20
ENDBRANCH  18  19
ENDBRANCH  16  18
ENDBRANCH  15  16
ENDBRANCH  12  15
ENDBRANCH  10  12
ENDBRANCH   2   4
TORSDOF 16
ENDMDL
MODEL       74
REMARK 921   NORMALIZED FREE ENERGY PREDICTED BY IDOCK:   -5.49 KCAL/MOL
REMARK 922        TOTAL FREE ENERGY PREDICTED BY IDOCK:  -12.98 KCAL/MOL
REMARK 923 INTER-LIGAND FREE ENERGY PREDICTED BY IDOCK:  -11.30 KCAL/MOL
REMARK 924 INTRA-LIGAND FREE ENERGY PREDICTED BY IDOCK:   -1.68 KCAL/MOL
REMARK 927      BINDING AFFINITY PREDICTED BY RF-SCORE:    0.00 PKD
ROOT
HETATM    1  O   UNL     1     -11.146   5.519  66.064  1.00  0.00    -0.751 OA 
HETATM    2  C   UNL     1     -11.090   6.564  67.035  1.00  0.00    -0.339 C  
HETATM    3  H   UNL     1     -11.357   5.876  65.209  1.00  0.00     0.000 HD 
ENDROOT
BRANCH   2   4
HETATM    4  C   UNL     1     -10.757   5.999  68.391  1.00  0.00    -0.351 A  
HETATM    5  C   UNL     1      -9.738   5.060  68.591  1.00  0.00    -0.158 A  
HETATM    6  O   UNL     1      -9.018   4.545  67.548  1.00  0.00    -0.108 OA 
HETATM    7  C   UNL     1      -9.428   4.583  69.859  1.00  0.00    -0.245 A  
HETATM    8  C   UNL     1     -10.157   5.024  70.961  1.00  0.00    -0.297 A  
HETATM    9  H   UNL     1      -8.327   3.907  67.683  1.00  0.00     0.000 HD 
HETATM   10  C   UNL     1     -11.190   5.962  70.805  1.00  0.00    -0.281 A  
HETATM   11  C   UNL     1     -11.462   6.458  69.518  1.00  0.00    -0.412 A  
BRANCH  10  12
HETATM   12  C   UNL     1     -12.026   6.422  71.985  1.00  0.00    -0.326 C  
HETATM   13  O   UNL     1     -11.444   5.961  73.213  1.00  0.00    -0.477 OA 
HETATM   14  H   UNL     1     -11.967   6.249  73.952  1.00  0.00     0.000 HD 
BRANCH  12  15
HETATM   15  C   UNL     1     -12.160   7.959  72.041  1.00  0.00    -0.320 C  
BRANCH  15  16
HETATM   16  N   UNL     1     -10.850   8.614  71.892  1.00  0.00    -0.323 NA 
HETATM   17  H   UNL     1     -10.131   7.962  71.576  1.00  0.00     0.000 HD 
BRANCH  16  18
HETATM   18  C   UNL     1     -10.965   9.770  71.008  1.00  0.00    -0.332 C  
BRANCH  18  19
HETATM   19  C   UNL     1     -12.381  10.329  71.062  1.00  0.00    -0.483 C  
BRANCH  19  20
HETATM   20  C   UNL     1     -12.371  11.821  70.737  1.00  0.00    -0.433 C  
BRANCH  20  21
HETATM   21  C   UNL     1     -13.160  12.603  71.778  1.00  0.00    -0.461 C  
BRANCH  21  22
HETATM   22  C   UNL     1     -13.288  14.072  71.392  1.00  0.00    -0.387 C  
BRANCH  22  23
HETATM   23  C   UNL     1     -12.174  14.885  72.034  1.00  0.00    -0.358 C  
BRANCH  23  24
HETATM   24  O   UNL     1     -11.237  15.239  71.024  1.00  0.00    -0.330 OA 
BRANCH  24  25
HETATM   25  C   UNL     1     -11.885  15.507  69.783  1.00  0.00    -0.359 C  
BRANCH  25  26
HETATM   26  C   UNL     1     -10.958  15.092  68.647  1.00  0.00    -0.261 C  
BRANCH  26  27
HETATM   27  C   UNL     1     -11.758  14.683  67.409  1.00  0.00    -0.413 C  
BRANCH  27  28
HETATM   28  C   UNL     1     -12.011  13.177  67.364  1.00  0.00    -0.379 C  
BRANCH  28  29
HETATM   29  C   UNL     1     -11.649  12.636  66.001  1.00  0.00    -0.443 A  
HETATM   30  C   UNL     1     -12.553  12.730  64.938  1.00  0.00    -0.541 A  
HETATM   31  C   UNL     1     -12.250  12.158  63.702  1.00  0.00    -0.663 A  
HETATM   32  C   UNL     1     -11.043  11.486  63.521  1.00  0.00    -0.434 A  
HETATM   33  C   UNL     1     -10.134  11.389  64.574  1.00  0.00    -0.337 A  
HETATM   34  C   UNL     1     -10.435  11.961  65.811  1.00  0.00    -0.295 A  
ENDBRANCH  28  29
ENDBRANCH  27  28
ENDBRANCH  26  27
ENDBRANCH  25  26
ENDBRANCH  24  25
ENDBRANCH  23  24
ENDBRANCH  22  23
ENDBRANCH  21  22
ENDBRANCH  20  21
ENDBRANCH  19  20
ENDBRANCH  18  19
ENDBRANCH  16  18
ENDBRANCH  15  16
ENDBRANCH  12  15
ENDBRANCH  10  12
ENDBRANCH   2   4
TORSDOF 16
ENDMDL
MODEL       75
REMARK 921   NORMALIZED FREE ENERGY PREDICTED BY IDOCK:   -5.49 KCAL/MOL
REMARK 922        TOTAL FREE ENERGY PREDICTED BY IDOCK:  -12.98 KCAL/MOL
REMARK 923 INTER-LIGAND FREE ENERGY PREDICTED BY IDOCK:  -10.38 KCAL/MOL
REMARK 924 INTRA-LIGAND FREE ENERGY PREDICTED BY IDOCK:   -2.60 KCAL/MOL
REMARK 927      BINDING AFFINITY PREDICTED BY RF-SCORE:    0.00 PKD
ROOT
HETATM    1  O   UNL     1     -10.052  10.366  62.335  1.00  0.00    -0.743 OA 
HETATM    2  C   UNL     1      -9.913  10.688  63.720  1.00  0.00    -0.317 C  
HETATM    3  H   UNL     1      -9.572   9.571  62.133  1.00  0.00     0.000 HD 
ENDROOT
BRANCH   2   4
HETATM    4  C   UNL     1     -10.674  11.948  64.040  1.00  0.00    -0.428 A  
HETATM    5  C   UNL     1     -11.945  12.218  63.522  1.00  0.00    -0.533 A  
HETATM    6  O   UNL     1     -12.555  11.377  62.633  1.00  0.00    -0.831 OA 
HETATM    7  C   UNL     1     -12.639  13.373  63.866  1.00  0.00    -0.186 A  
HETATM    8  C   UNL     1     -12.056  14.300  64.725  1.00  0.00    -0.457 A  
HETATM    9  H   UNL     1     -13.418  11.560  62.280  1.00  0.00     0.000 HD 
HETATM   10  C   UNL     1     -10.780  14.071  65.265  1.00  0.00    -0.367 A  
HETATM   11  C   UNL     1     -10.112  12.879  64.932  1.00  0.00    -0.229 A  
BRANCH  10  12
HETATM   12  C   UNL     1     -10.107  15.088  66.167  1.00  0.00    -0.294 C  
HETATM   13  O   UNL     1      -9.875  16.309  65.447  1.00  0.00    -0.496 OA 
HETATM   14  H   UNL     1      -9.453  16.947  66.012  1.00  0.00     0.000 HD 
BRANCH  12  15
HETATM   15  C   UNL     1     -10.948  15.401  67.423  1.00  0.00    -0.312 C  
BRANCH  15  16
HETATM   16  N   UNL     1     -10.854  14.313  68.410  1.00  0.00    -0.246 NA 
HETATM   17  H   UNL     1      -9.889  14.028  68.574  1.00  0.00     0.000 HD 
BRANCH  16  18
HETATM   18  C   UNL     1     -11.526  14.699  69.647  1.00  0.00    -0.289 C  
BRANCH  18  19
HETATM   19  C   UNL     1     -12.101  13.468  70.336  1.00  0.00    -0.415 C  
BRANCH  19  20
HETATM   20  C   UNL     1     -11.657  12.202  69.607  1.00  0.00    -0.361 C  
BRANCH  20  21
HETATM   21  C   UNL     1     -12.454  10.998  70.090  1.00  0.00    -0.344 C  
BRANCH  21  22
HETATM   22  C   UNL     1     -11.606  10.085  70.967  1.00  0.00    -0.476 C  
BRANCH  22  23
HETATM   23  C   UNL     1     -12.452   8.946  71.517  1.00  0.00    -0.324 C  
BRANCH  23  24
HETATM   24  O   UNL     1     -11.829   8.453  72.696  1.00  0.00    -0.393 OA 
BRANCH  24  25
HETATM   25  C   UNL     1     -10.876   7.436  72.396  1.00  0.00    -0.263 C  
BRANCH  25  26
HETATM   26  C   UNL     1     -11.583   6.301  71.666  1.00  0.00    -0.353 C  
BRANCH  26  27
HETATM   27  C   UNL     1     -11.051   6.151  70.240  1.00  0.00    -0.436 C  
BRANCH  27  28
HETATM   28  C   UNL     1      -9.586   6.569  70.130  1.00  0.00    -0.171 C  
BRANCH  28  29
HETATM   29  C   UNL     1      -9.443   7.681  69.118  1.00  0.00    -0.154 A  
HETATM   30  C   UNL     1      -8.380   8.586  69.205  1.00  0.00    -0.120 A  
HETATM   31  C   UNL     1      -8.294   9.659  68.318  1.00  0.00    -0.117 A  
HETATM   32  C   UNL     1      -9.271   9.837  67.340  1.00  0.00    -0.151 A  
HETATM   33  C   UNL     1     -10.332   8.937  67.243  1.00  0.00    -0.350 A  
HETATM   34  C   UNL     1     -10.419   7.863  68.128  1.00  0.00    -0.227 A  
ENDBRANCH  28  29
ENDBRANCH  27  28
ENDBRANCH  26  27
ENDBRANCH  25  26
ENDBRANCH  24  25
ENDBRANCH  23  24
ENDBRANCH  22  23
ENDBRANCH  21  22
ENDBRANCH  20  21
ENDBRANCH  19  20
ENDBRANCH  18  19
ENDBRANCH  16  18
ENDBRANCH  15  16
ENDBRANCH  12  15
ENDBRANCH  10  12
ENDBRANCH   2   4
TORSDOF 16
ENDMDL
MODEL       76
REMARK 921   NORMALIZED FREE ENERGY PREDICTED BY IDOCK:   -5.49 KCAL/MOL
REMARK 922        TOTAL FREE ENERGY PREDICTED BY IDOCK:  -12.96 KCAL/MOL
REMARK 923 INTER-LIGAND FREE ENERGY PREDICTED BY IDOCK:  -10.44 KCAL/MOL
REMARK 924 INTRA-LIGAND FREE ENERGY PREDICTED BY IDOCK:   -2.52 KCAL/MOL
REMARK 927      BINDING AFFINITY PREDICTED BY RF-SCORE:    0.00 PKD
ROOT
HETATM    1  O   UNL     1     -10.125  14.313  64.343  1.00  0.00    -0.646 OA 
HETATM    2  C   UNL     1     -11.178  13.360  64.492  1.00  0.00    -0.372 C  
HETATM    3  H   UNL     1     -10.482  15.163  64.112  1.00  0.00     0.000 HD 
ENDROOT
BRANCH   2   4
HETATM    4  C   UNL     1     -10.612  12.013  64.858  1.00  0.00    -0.334 A  
HETATM    5  C   UNL     1      -9.781  11.282  64.002  1.00  0.00    -0.265 A  
HETATM    6  O   UNL     1      -9.481  11.719  62.741  1.00  0.00    -0.516 OA 
HETATM    7  C   UNL     1      -9.243  10.057  64.382  1.00  0.00    -0.316 A  
HETATM    8  C   UNL     1      -9.550   9.525  65.632  1.00  0.00    -0.346 A  
HETATM    9  H   UNL     1      -8.918  11.223  62.159  1.00  0.00     0.000 HD 
HETATM   10  C   UNL     1     -10.382  10.223  66.521  1.00  0.00    -0.276 A  
HETATM   11  C   UNL     1     -10.886  11.476  66.130  1.00  0.00    -0.330 A  
BRANCH  10  12
HETATM   12  C   UNL     1     -10.766   9.642  67.869  1.00  0.00    -0.247 C  
HETATM   13  O   UNL     1      -9.675   8.879  68.406  1.00  0.00    -0.155 OA 
HETATM   14  H   UNL     1      -9.915   8.514  69.251  1.00  0.00     0.000 HD 
BRANCH  12  15
HETATM   15  C   UNL     1     -11.160  10.735  68.885  1.00  0.00    -0.253 C  
BRANCH  15  16
HETATM   16  N   UNL     1     -12.409  10.388  69.583  1.00  0.00    -0.546 NA 
HETATM   17  H   UNL     1     -12.883   9.596  69.148  1.00  0.00     0.000 HD 
BRANCH  16  18
HETATM   18  C   UNL     1     -12.143  10.154  70.999  1.00  0.00    -0.377 C  
BRANCH  18  19
HETATM   19  C   UNL     1     -13.113  10.961  71.853  1.00  0.00    -0.537 C  
BRANCH  19  20
HETATM   20  C   UNL     1     -12.898  12.455  71.625  1.00  0.00    -0.375 C  
BRANCH  20  21
HETATM   21  C   UNL     1     -13.887  13.271  72.446  1.00  0.00    -0.630 C  
BRANCH  21  22
HETATM   22  C   UNL     1     -13.615  14.766  72.320  1.00  0.00    -0.532 C  
BRANCH  22  23
HETATM   23  C   UNL     1     -12.469  15.173  73.233  1.00  0.00    -0.483 C  
BRANCH  23  24
HETATM   24  O   UNL     1     -11.485  15.837  72.451  1.00  0.00    -0.410 OA 
BRANCH  24  25
HETATM   25  C   UNL     1     -11.913  15.996  71.100  1.00  0.00    -0.398 C  
BRANCH  25  26
HETATM   26  C   UNL     1     -10.867  15.383  70.178  1.00  0.00    -0.328 C  
BRANCH  26  27
HETATM   27  C   UNL     1     -11.526  14.542  69.084  1.00  0.00    -0.324 C  
BRANCH  27  28
HETATM   28  C   UNL     1     -10.976  14.876  67.698  1.00  0.00    -0.300 C  
BRANCH  28  29
HETATM   29  C   UNL     1      -9.478  14.684  67.680  1.00  0.00    -0.205 A  
HETATM   30  C   UNL     1      -8.922  13.425  67.929  1.00  0.00    -0.201 A  
HETATM   31  C   UNL     1      -7.537  13.266  67.991  1.00  0.00    -0.145 A  
HETATM   32  C   UNL     1      -6.700  14.364  67.808  1.00  0.00    -0.191 A  
HETATM   33  C   UNL     1      -7.244  15.622  67.556  1.00  0.00    -0.219 A  
HETATM   34  C   UNL     1      -8.628  15.784  67.492  1.00  0.00    -0.180 A  
ENDBRANCH  28  29
ENDBRANCH  27  28
ENDBRANCH  26  27
ENDBRANCH  25  26
ENDBRANCH  24  25
ENDBRANCH  23  24
ENDBRANCH  22  23
ENDBRANCH  21  22
ENDBRANCH  20  21
ENDBRANCH  19  20
ENDBRANCH  18  19
ENDBRANCH  16  18
ENDBRANCH  15  16
ENDBRANCH  12  15
ENDBRANCH  10  12
ENDBRANCH   2   4
TORSDOF 16
ENDMDL
MODEL       77
REMARK 921   NORMALIZED FREE ENERGY PREDICTED BY IDOCK:   -5.48 KCAL/MOL
REMARK 922        TOTAL FREE ENERGY PREDICTED BY IDOCK:  -12.95 KCAL/MOL
REMARK 923 INTER-LIGAND FREE ENERGY PREDICTED BY IDOCK:  -10.94 KCAL/MOL
REMARK 924 INTRA-LIGAND FREE ENERGY PREDICTED BY IDOCK:   -2.01 KCAL/MOL
REMARK 927      BINDING AFFINITY PREDICTED BY RF-SCORE:    0.00 PKD
ROOT
HETATM    1  O   UNL     1      -9.388   5.486  65.376  1.00  0.00    -0.334 OA 
HETATM    2  C   UNL     1     -10.566   5.324  66.166  1.00  0.00    -0.194 C  
HETATM    3  H   UNL     1      -9.389   4.868  64.654  1.00  0.00     0.000 HD 
ENDROOT
BRANCH   2   4
HETATM    4  C   UNL     1     -10.564   6.303  67.311  1.00  0.00    -0.371 A  
HETATM    5  C   UNL     1     -10.250   7.658  67.149  1.00  0.00    -0.290 A  
HETATM    6  O   UNL     1      -9.859   8.167  65.942  1.00  0.00    -0.451 OA 
HETATM    7  C   UNL     1     -10.292   8.545  68.218  1.00  0.00    -0.246 A  
HETATM    8  C   UNL     1     -10.631   8.084  69.488  1.00  0.00    -0.216 A  
HETATM    9  H   UNL     1      -9.645   9.087  65.832  1.00  0.00     0.000 HD 
HETATM   10  C   UNL     1     -10.949   6.732  69.695  1.00  0.00    -0.336 A  
HETATM   11  C   UNL     1     -10.934   5.859  68.593  1.00  0.00    -0.289 A  
BRANCH  10  12
HETATM   12  C   UNL     1     -11.275   6.199  71.078  1.00  0.00    -0.296 C  
HETATM   13  O   UNL     1     -10.065   5.928  71.802  1.00  0.00    -0.181 OA 
HETATM   14  H   UNL     1     -10.270   5.595  72.668  1.00  0.00     0.000 HD 
BRANCH  12  15
HETATM   15  C   UNL     1     -12.137   7.185  71.895  1.00  0.00    -0.321 C  
BRANCH  15  16
HETATM   16  N   UNL     1     -13.466   7.363  71.285  1.00  0.00    -0.574 NA 
HETATM   17  H   UNL     1     -14.062   6.547  71.424  1.00  0.00     0.000 HD 
BRANCH  16  18
HETATM   18  C   UNL     1     -14.087   8.585  71.786  1.00  0.00    -0.444 C  
BRANCH  18  19
HETATM   19  C   UNL     1     -13.034   9.671  71.966  1.00  0.00    -0.518 C  
BRANCH  19  20
HETATM   20  C   UNL     1     -12.997  10.578  70.739  1.00  0.00    -0.413 C  
BRANCH  20  21
HETATM   21  C   UNL     1     -12.661  12.008  71.138  1.00  0.00    -0.372 C  
BRANCH  21  22
HETATM   22  C   UNL     1     -13.626  12.533  72.194  1.00  0.00    -0.458 C  
BRANCH  22  23
HETATM   23  C   UNL     1     -13.482  14.040  72.339  1.00  0.00    -0.539 C  
BRANCH  23  24
HETATM   24  O   UNL     1     -13.522  14.622  71.042  1.00  0.00    -0.380 OA 
BRANCH  24  25
HETATM   25  C   UNL     1     -12.490  15.591  70.873  1.00  0.00    -0.440 C  
BRANCH  25  26
HETATM   26  C   UNL     1     -12.009  15.549  69.429  1.00  0.00    -0.358 C  
BRANCH  26  27
HETATM   27  C   UNL     1     -10.676  14.808  69.316  1.00  0.00    -0.263 C  
BRANCH  27  28
HETATM   28  C   UNL     1     -10.788  13.559  68.444  1.00  0.00    -0.286 C  
BRANCH  28  29
HETATM   29  C   UNL     1     -11.182  13.947  67.038  1.00  0.00    -0.327 A  
HETATM   30  C   UNL     1     -10.406  14.857  66.311  1.00  0.00    -0.302 A  
HETATM   31  C   UNL     1     -10.815  15.276  65.045  1.00  0.00    -0.457 A  
HETATM   32  C   UNL     1     -12.001  14.792  64.498  1.00  0.00    -0.451 A  
HETATM   33  C   UNL     1     -12.778  13.882  65.213  1.00  0.00    -0.485 A  
HETATM   34  C   UNL     1     -12.372  13.461  66.480  1.00  0.00    -0.354 A  
ENDBRANCH  28  29
ENDBRANCH  27  28
ENDBRANCH  26  27
ENDBRANCH  25  26
ENDBRANCH  24  25
ENDBRANCH  23  24
ENDBRANCH  22  23
ENDBRANCH  21  22
ENDBRANCH  20  21
ENDBRANCH  19  20
ENDBRANCH  18  19
ENDBRANCH  16  18
ENDBRANCH  15  16
ENDBRANCH  12  15
ENDBRANCH  10  12
ENDBRANCH   2   4
TORSDOF 16
ENDMDL
MODEL       78
REMARK 921   NORMALIZED FREE ENERGY PREDICTED BY IDOCK:   -5.46 KCAL/MOL
REMARK 922        TOTAL FREE ENERGY PREDICTED BY IDOCK:  -12.92 KCAL/MOL
REMARK 923 INTER-LIGAND FREE ENERGY PREDICTED BY IDOCK:  -10.71 KCAL/MOL
REMARK 924 INTRA-LIGAND FREE ENERGY PREDICTED BY IDOCK:   -2.21 KCAL/MOL
REMARK 927      BINDING AFFINITY PREDICTED BY RF-SCORE:    0.00 PKD
ROOT
HETATM    1  O   UNL     1      -8.654  16.983  65.946  1.00  0.00    -0.521 OA 
HETATM    2  C   UNL     1     -10.069  17.165  65.889  1.00  0.00    -0.240 C  
HETATM    3  H   UNL     1      -8.209  17.801  65.755  1.00  0.00     0.000 HD 
ENDROOT
BRANCH   2   4
HETATM    4  C   UNL     1     -10.773  15.869  66.191  1.00  0.00    -0.273 A  
HETATM    5  C   UNL     1     -10.987  15.408  67.495  1.00  0.00    -0.315 A  
HETATM    6  O   UNL     1     -10.507  16.081  68.585  1.00  0.00    -0.231 OA 
HETATM    7  C   UNL     1     -11.673  14.225  67.744  1.00  0.00    -0.408 A  
HETATM    8  C   UNL     1     -12.143  13.460  66.679  1.00  0.00    -0.429 A  
HETATM    9  H   UNL     1     -10.652  15.768  69.470  1.00  0.00     0.000 HD 
HETATM   10  C   UNL     1     -11.947  13.883  65.355  1.00  0.00    -0.393 A  
HETATM   11  C   UNL     1     -11.282  15.101  65.127  1.00  0.00    -0.392 A  
BRANCH  10  12
HETATM   12  C   UNL     1     -12.410  13.044  64.178  1.00  0.00    -0.358 C  
HETATM   13  O   UNL     1     -12.389  13.826  62.974  1.00  0.00    -1.089 OA 
HETATM   14  H   UNL     1     -12.678  13.301  62.237  1.00  0.00     0.000 HD 
BRANCH  12  15
HETATM   15  C   UNL     1     -11.534  11.790  63.976  1.00  0.00    -0.359 C  
BRANCH  15  16
HETATM   16  N   UNL     1     -10.110  12.147  63.859  1.00  0.00    -0.471 NA 
HETATM   17  H   UNL     1      -9.953  13.144  64.011  1.00  0.00     0.000 HD 
BRANCH  16  18
HETATM   18  C   UNL     1      -9.311  11.324  64.760  1.00  0.00    -0.145 C  
BRANCH  18  19
HETATM   19  C   UNL     1     -10.210  10.351  65.514  1.00  0.00    -0.316 C  
BRANCH  19  20
HETATM   20  C   UNL     1      -9.851  10.343  66.998  1.00  0.00    -0.234 C  
BRANCH  20  21
HETATM   21  C   UNL     1     -11.108  10.316  67.855  1.00  0.00    -0.341 C  
BRANCH  21  22
HETATM   22  C   UNL     1     -10.801  10.670  69.305  1.00  0.00    -0.282 C  
BRANCH  22  23
HETATM   23  C   UNL     1     -12.055  11.177  70.001  1.00  0.00    -0.359 C  
BRANCH  23  24
HETATM   24  O   UNL     1     -12.089  10.637  71.316  1.00  0.00    -0.345 OA 
BRANCH  24  25
HETATM   25  C   UNL     1     -13.397  10.188  71.661  1.00  0.00    -0.366 C  
BRANCH  25  26
HETATM   26  C   UNL     1     -13.281   8.861  72.401  1.00  0.00    -0.482 C  
BRANCH  26  27
HETATM   27  C   UNL     1     -13.137   7.696  71.421  1.00  0.00    -0.339 C  
BRANCH  27  28
HETATM   28  C   UNL     1     -12.195   6.617  71.950  1.00  0.00    -0.381 C  
BRANCH  28  29
HETATM   29  C   UNL     1     -10.845   7.219  72.258  1.00  0.00    -0.274 A  
HETATM   30  C   UNL     1     -10.051   7.741  71.231  1.00  0.00    -0.203 A  
HETATM   31  C   UNL     1      -8.771   8.223  71.506  1.00  0.00    -0.208 A  
HETATM   32  C   UNL     1      -8.274   8.184  72.807  1.00  0.00    -0.231 A  
HETATM   33  C   UNL     1      -9.059   7.669  73.838  1.00  0.00    -0.316 A  
HETATM   34  C   UNL     1     -10.340   7.187  73.566  1.00  0.00    -0.412 A  
ENDBRANCH  28  29
ENDBRANCH  27  28
ENDBRANCH  26  27
ENDBRANCH  25  26
ENDBRANCH  24  25
ENDBRANCH  23  24
ENDBRANCH  22  23
ENDBRANCH  21  22
ENDBRANCH  20  21
ENDBRANCH  19  20
ENDBRANCH  18  19
ENDBRANCH  16  18
ENDBRANCH  15  16
ENDBRANCH  12  15
ENDBRANCH  10  12
ENDBRANCH   2   4
TORSDOF 16
ENDMDL
MODEL       79
REMARK 921   NORMALIZED FREE ENERGY PREDICTED BY IDOCK:   -5.46 KCAL/MOL
REMARK 922        TOTAL FREE ENERGY PREDICTED BY IDOCK:  -12.91 KCAL/MOL
REMARK 923 INTER-LIGAND FREE ENERGY PREDICTED BY IDOCK:  -10.09 KCAL/MOL
REMARK 924 INTRA-LIGAND FREE ENERGY PREDICTED BY IDOCK:   -2.82 KCAL/MOL
REMARK 927      BINDING AFFINITY PREDICTED BY RF-SCORE:    0.00 PKD
ROOT
HETATM    1  O   UNL     1      -9.420  12.204  63.436  1.00  0.00    -0.654 OA 
HETATM    2  C   UNL     1     -10.781  12.565  63.673  1.00  0.00    -0.430 C  
HETATM    3  H   UNL     1      -9.358  11.640  62.673  1.00  0.00     0.000 HD 
ENDROOT
BRANCH   2   4
HETATM    4  C   UNL     1     -10.880  13.458  64.882  1.00  0.00    -0.363 A  
HETATM    5  C   UNL     1     -11.500  13.059  66.071  1.00  0.00    -0.335 A  
HETATM    6  O   UNL     1     -12.119  11.845  66.189  1.00  0.00    -0.519 OA 
HETATM    7  C   UNL     1     -11.543  13.892  67.183  1.00  0.00    -0.391 A  
HETATM    8  C   UNL     1     -10.979  15.164  67.116  1.00  0.00    -0.326 A  
HETATM    9  H   UNL     1     -12.541  11.574  66.995  1.00  0.00     0.000 HD 
HETATM   10  C   UNL     1     -10.351  15.607  65.942  1.00  0.00    -0.368 A  
HETATM   11  C   UNL     1     -10.288  14.734  64.841  1.00  0.00    -0.365 A  
BRANCH  10  12
HETATM   12  C   UNL     1      -9.771  17.004  65.832  1.00  0.00    -0.142 C  
HETATM   13  O   UNL     1     -10.508  17.912  66.665  1.00  0.00    -0.354 OA 
HETATM   14  H   UNL     1     -10.145  18.788  66.597  1.00  0.00     0.000 HD 
BRANCH  12  15
HETATM   15  C   UNL     1      -8.282  17.051  66.237  1.00  0.00    -0.287 C  
BRANCH  15  16
HETATM   16  N   UNL     1      -8.124  17.463  67.642  1.00  0.00    -0.195 NA 
HETATM   17  H   UNL     1      -9.016  17.482  68.136  1.00  0.00     0.000 HD 
BRANCH  16  18
HETATM   18  C   UNL     1      -7.147  16.608  68.308  1.00  0.00    -0.160 C  
BRANCH  18  19
HETATM   19  C   UNL     1      -6.558  15.616  67.314  1.00  0.00    -0.131 C  
BRANCH  19  20
HETATM   20  C   UNL     1      -6.472  14.227  67.944  1.00  0.00    -0.175 C  
BRANCH  20  21
HETATM   21  C   UNL     1      -7.848  13.750  68.384  1.00  0.00    -0.143 C  
BRANCH  21  22
HETATM   22  C   UNL     1      -8.194  12.401  67.765  1.00  0.00    -0.163 C  
BRANCH  22  23
HETATM   23  C   UNL     1      -7.550  11.275  68.559  1.00  0.00    -0.123 C  
BRANCH  23  24
HETATM   24  O   UNL     1      -8.581  10.512  69.173  1.00  0.00    -0.154 OA 
BRANCH  24  25
HETATM   25  C   UNL     1      -9.872  10.998  68.816  1.00  0.00    -0.198 C  
BRANCH  25  26
HETATM   26  C   UNL     1     -10.916  10.290  69.670  1.00  0.00    -0.314 C  
BRANCH  26  27
HETATM   27  C   UNL     1     -12.232  11.070  69.689  1.00  0.00    -0.370 C  
BRANCH  27  28
HETATM   28  C   UNL     1     -12.672  11.413  71.110  1.00  0.00    -0.479 C  
BRANCH  28  29
HETATM   29  C   UNL     1     -12.880  12.904  71.238  1.00  0.00    -0.361 A  
HETATM   30  C   UNL     1     -12.122  13.794  70.470  1.00  0.00    -0.416 A  
HETATM   31  C   UNL     1     -12.259  15.170  70.648  1.00  0.00    -0.401 A  
HETATM   32  C   UNL     1     -13.151  15.667  71.596  1.00  0.00    -0.554 A  
HETATM   33  C   UNL     1     -13.914  14.788  72.363  1.00  0.00    -0.575 A  
HETATM   34  C   UNL     1     -13.780  13.411  72.187  1.00  0.00    -0.646 A  
ENDBRANCH  28  29
ENDBRANCH  27  28
ENDBRANCH  26  27
ENDBRANCH  25  26
ENDBRANCH  24  25
ENDBRANCH  23  24
ENDBRANCH  22  23
ENDBRANCH  21  22
ENDBRANCH  20  21
ENDBRANCH  19  20
ENDBRANCH  18  19
ENDBRANCH  16  18
ENDBRANCH  15  16
ENDBRANCH  12  15
ENDBRANCH  10  12
ENDBRANCH   2   4
TORSDOF 16
ENDMDL
MODEL       80
REMARK 921   NORMALIZED FREE ENERGY PREDICTED BY IDOCK:   -5.45 KCAL/MOL
REMARK 922        TOTAL FREE ENERGY PREDICTED BY IDOCK:  -12.89 KCAL/MOL
REMARK 923 INTER-LIGAND FREE ENERGY PREDICTED BY IDOCK:  -10.87 KCAL/MOL
REMARK 924 INTRA-LIGAND FREE ENERGY PREDICTED BY IDOCK:   -2.03 KCAL/MOL
REMARK 927      BINDING AFFINITY PREDICTED BY RF-SCORE:    0.00 PKD
ROOT
HETATM    1  O   UNL     1     -11.182   5.424  66.093  1.00  0.00    -0.761 OA 
HETATM    2  C   UNL     1     -11.008   6.488  67.029  1.00  0.00    -0.396 C  
HETATM    3  H   UNL     1     -11.384   5.773  65.233  1.00  0.00     0.000 HD 
ENDROOT
BRANCH   2   4
HETATM    4  C   UNL     1     -10.690   5.935  68.394  1.00  0.00    -0.323 A  
HETATM    5  C   UNL     1      -9.658   5.015  68.617  1.00  0.00    -0.148 A  
HETATM    6  O   UNL     1      -8.910   4.509  67.590  1.00  0.00    -0.103 OA 
HETATM    7  C   UNL     1      -9.363   4.551  69.893  1.00  0.00    -0.218 A  
HETATM    8  C   UNL     1     -10.120   4.984  70.979  1.00  0.00    -0.297 A  
HETATM    9  H   UNL     1      -8.210   3.884  67.741  1.00  0.00     0.000 HD 
HETATM   10  C   UNL     1     -11.166   5.903  70.800  1.00  0.00    -0.281 A  
HETATM   11  C   UNL     1     -11.424   6.387  69.505  1.00  0.00    -0.412 A  
BRANCH  10  12
HETATM   12  C   UNL     1     -12.032   6.353  71.961  1.00  0.00    -0.326 C  
HETATM   13  O   UNL     1     -11.786   5.528  73.111  1.00  0.00    -0.529 OA 
HETATM   14  H   UNL     1     -12.328   5.811  73.839  1.00  0.00     0.000 HD 
BRANCH  12  15
HETATM   15  C   UNL     1     -11.779   7.828  72.340  1.00  0.00    -0.341 C  
BRANCH  15  16
HETATM   16  N   UNL     1     -13.037   8.517  72.672  1.00  0.00    -0.634 NA 
HETATM   17  H   UNL     1     -13.161   8.622  73.679  1.00  0.00     0.000 HD 
BRANCH  16  18
HETATM   18  C   UNL     1     -13.105   9.798  71.977  1.00  0.00    -0.452 C  
BRANCH  18  19
HETATM   19  C   UNL     1     -11.949   9.920  70.992  1.00  0.00    -0.456 C  
BRANCH  19  20
HETATM   20  C   UNL     1     -12.131  11.158  70.117  1.00  0.00    -0.443 C  
BRANCH  20  21
HETATM   21  C   UNL     1     -11.508  10.943  68.745  1.00  0.00    -0.376 C  
BRANCH  21  22
HETATM   22  C   UNL     1     -10.711  12.162  68.298  1.00  0.00    -0.248 C  
BRANCH  22  23
HETATM   23  C   UNL     1     -11.622  13.374  68.178  1.00  0.00    -0.341 C  
BRANCH  23  24
HETATM   24  O   UNL     1     -11.249  14.104  67.017  1.00  0.00    -0.299 OA 
BRANCH  24  25
HETATM   25  C   UNL     1     -12.378  14.388  66.194  1.00  0.00    -0.314 C  
BRANCH  25  26
HETATM   26  C   UNL     1     -12.562  13.246  65.203  1.00  0.00    -0.512 C  
BRANCH  26  27
HETATM   27  C   UNL     1     -11.363  13.141  64.259  1.00  0.00    -0.427 C  
BRANCH  27  28
HETATM   28  C   UNL     1     -11.413  11.871  63.411  1.00  0.00    -0.470 C  
BRANCH  28  29
HETATM   29  C   UNL     1     -10.343  10.907  63.865  1.00  0.00    -0.397 A  
HETATM   30  C   UNL     1      -9.429  10.379  62.947  1.00  0.00    -0.354 A  
HETATM   31  C   UNL     1      -8.493   9.427  63.353  1.00  0.00    -0.202 A  
HETATM   32  C   UNL     1      -8.466   8.995  64.678  1.00  0.00    -0.194 A  
HETATM   33  C   UNL     1      -9.370   9.518  65.601  1.00  0.00    -0.302 A  
HETATM   34  C   UNL     1     -10.307  10.470  65.197  1.00  0.00    -0.310 A  
ENDBRANCH  28  29
ENDBRANCH  27  28
ENDBRANCH  26  27
ENDBRANCH  25  26
ENDBRANCH  24  25
ENDBRANCH  23  24
ENDBRANCH  22  23
ENDBRANCH  21  22
ENDBRANCH  20  21
ENDBRANCH  19  20
ENDBRANCH  18  19
ENDBRANCH  16  18
ENDBRANCH  15  16
ENDBRANCH  12  15
ENDBRANCH  10  12
ENDBRANCH   2   4
TORSDOF 16
ENDMDL
MODEL       81
REMARK 921   NORMALIZED FREE ENERGY PREDICTED BY IDOCK:   -5.44 KCAL/MOL
REMARK 922        TOTAL FREE ENERGY PREDICTED BY IDOCK:  -12.88 KCAL/MOL
REMARK 923 INTER-LIGAND FREE ENERGY PREDICTED BY IDOCK:  -10.45 KCAL/MOL
REMARK 924 INTRA-LIGAND FREE ENERGY PREDICTED BY IDOCK:   -2.42 KCAL/MOL
REMARK 927      BINDING AFFINITY PREDICTED BY RF-SCORE:    0.00 PKD
ROOT
HETATM    1  O   UNL     1     -12.766  14.282  63.307  1.00  0.00    -0.940 OA 
HETATM    2  C   UNL     1     -11.882  13.630  64.220  1.00  0.00    -0.425 C  
HETATM    3  H   UNL     1     -13.053  13.673  62.636  1.00  0.00     0.000 HD 
ENDROOT
BRANCH   2   4
HETATM    4  C   UNL     1     -11.427  14.596  65.283  1.00  0.00    -0.361 A  
HETATM    5  C   UNL     1     -11.226  15.958  65.033  1.00  0.00    -0.290 A  
HETATM    6  O   UNL     1     -11.370  16.490  63.782  1.00  0.00    -1.553 OA 
HETATM    7  C   UNL     1     -10.842  16.832  66.044  1.00  0.00    -0.026 A  
HETATM    8  C   UNL     1     -10.625  16.349  67.332  1.00  0.00    -0.306 A  
HETATM    9  H   UNL     1     -11.233  17.415  63.612  1.00  0.00     0.000 HD 
HETATM   10  C   UNL     1     -10.811  14.989  67.625  1.00  0.00    -0.291 A  
HETATM   11  C   UNL     1     -11.235  14.129  66.596  1.00  0.00    -0.330 A  
BRANCH  10  12
HETATM   12  C   UNL     1     -10.537  14.432  69.010  1.00  0.00    -0.237 C  
HETATM   13  O   UNL     1      -9.639  15.298  69.721  1.00  0.00    -0.400 OA 
HETATM   14  H   UNL     1      -9.468  14.950  70.589  1.00  0.00     0.000 HD 
BRANCH  12  15
HETATM   15  C   UNL     1     -11.830  14.264  69.837  1.00  0.00    -0.322 C  
BRANCH  15  16
HETATM   16  N   UNL     1     -11.918  12.914  70.418  1.00  0.00    -0.518 NA 
HETATM   17  H   UNL     1     -12.885  12.621  70.558  1.00  0.00     0.000 HD 
BRANCH  16  18
HETATM   18  C   UNL     1     -11.172  11.965  69.597  1.00  0.00    -0.112 C  
BRANCH  18  19
HETATM   19  C   UNL     1     -12.124  11.202  68.686  1.00  0.00    -0.180 C  
BRANCH  19  20
HETATM   20  C   UNL     1     -11.358  10.598  67.511  1.00  0.00    -0.241 C  
BRANCH  20  21
HETATM   21  C   UNL     1     -10.278   9.647  68.005  1.00  0.00    -0.235 C  
BRANCH  21  22
HETATM   22  C   UNL     1     -10.351   8.302  67.292  1.00  0.00    -0.372 C  
BRANCH  22  23
HETATM   23  C   UNL     1      -8.996   7.613  67.324  1.00  0.00    -0.127 C  
BRANCH  23  24
HETATM   24  O   UNL     1      -8.218   8.199  68.361  1.00  0.00    -0.126 OA 
BRANCH  24  25
HETATM   25  C   UNL     1      -7.395   7.230  69.006  1.00  0.00    -0.091 C  
BRANCH  25  26
HETATM   26  C   UNL     1      -7.623   7.316  70.510  1.00  0.00    -0.088 C  
BRANCH  26  27
HETATM   27  C   UNL     1      -8.976   7.956  70.824  1.00  0.00    -0.141 C  
BRANCH  27  28
HETATM   28  C   UNL     1     -10.058   6.907  71.079  1.00  0.00    -0.206 C  
BRANCH  28  29
HETATM   29  C   UNL     1     -11.376   7.587  71.362  1.00  0.00    -0.284 A  
HETATM   30  C   UNL     1     -11.415   8.941  71.712  1.00  0.00    -0.423 A  
HETATM   31  C   UNL     1     -12.625   9.547  72.050  1.00  0.00    -0.456 A  
HETATM   32  C   UNL     1     -13.804   8.804  72.044  1.00  0.00    -0.504 A  
HETATM   33  C   UNL     1     -13.776   7.455  71.693  1.00  0.00    -0.468 A  
HETATM   34  C   UNL     1     -12.567   6.847  71.353  1.00  0.00    -0.400 A  
ENDBRANCH  28  29
ENDBRANCH  27  28
ENDBRANCH  26  27
ENDBRANCH  25  26
ENDBRANCH  24  25
ENDBRANCH  23  24
ENDBRANCH  22  23
ENDBRANCH  21  22
ENDBRANCH  20  21
ENDBRANCH  19  20
ENDBRANCH  18  19
ENDBRANCH  16  18
ENDBRANCH  15  16
ENDBRANCH  12  15
ENDBRANCH  10  12
ENDBRANCH   2   4
TORSDOF 16
ENDMDL
MODEL       82
REMARK 921   NORMALIZED FREE ENERGY PREDICTED BY IDOCK:   -5.43 KCAL/MOL
REMARK 922        TOTAL FREE ENERGY PREDICTED BY IDOCK:  -12.86 KCAL/MOL
REMARK 923 INTER-LIGAND FREE ENERGY PREDICTED BY IDOCK:  -11.32 KCAL/MOL
REMARK 924 INTRA-LIGAND FREE ENERGY PREDICTED BY IDOCK:   -1.55 KCAL/MOL
REMARK 927      BINDING AFFINITY PREDICTED BY RF-SCORE:    0.00 PKD
ROOT
HETATM    1  O   UNL     1     -10.190   3.752  72.018  1.00  0.00    -0.165 OA 
HETATM    2  C   UNL     1     -10.783   4.465  73.104  1.00  0.00    -0.220 C  
HETATM    3  H   UNL     1     -10.227   2.817  72.180  1.00  0.00     0.000 HD 
ENDROOT
BRANCH   2   4
HETATM    4  C   UNL     1     -10.724   5.948  72.847  1.00  0.00    -0.281 A  
HETATM    5  C   UNL     1      -9.530   6.677  72.884  1.00  0.00    -0.138 A  
HETATM    6  O   UNL     1      -8.341   6.095  73.223  1.00  0.00    -0.117 OA 
HETATM    7  C   UNL     1      -9.502   8.039  72.606  1.00  0.00    -0.317 A  
HETATM    8  C   UNL     1     -10.686   8.709  72.306  1.00  0.00    -0.383 A  
HETATM    9  H   UNL     1      -7.530   6.590  73.249  1.00  0.00     0.000 HD 
HETATM   10  C   UNL     1     -11.907   8.016  72.262  1.00  0.00    -0.424 A  
HETATM   11  C   UNL     1     -11.907   6.633  72.511  1.00  0.00    -0.149 A  
BRANCH  10  12
HETATM   12  C   UNL     1     -13.214   8.734  71.981  1.00  0.00    -0.395 C  
HETATM   13  O   UNL     1     -14.051   8.710  73.148  1.00  0.00    -1.018 OA 
HETATM   14  H   UNL     1     -14.870   9.159  72.973  1.00  0.00     0.000 HD 
BRANCH  12  15
HETATM   15  C   UNL     1     -12.995  10.201  71.554  1.00  0.00    -0.444 C  
BRANCH  15  16
HETATM   16  N   UNL     1     -12.995  10.334  70.087  1.00  0.00    -0.549 NA 
HETATM   17  H   UNL     1     -13.495  11.168  69.780  1.00  0.00     0.000 HD 
BRANCH  16  18
HETATM   18  C   UNL     1     -11.626  10.300  69.581  1.00  0.00    -0.201 C  
BRANCH  18  19
HETATM   19  C   UNL     1     -11.482  11.251  68.400  1.00  0.00    -0.377 C  
BRANCH  19  20
HETATM   20  C   UNL     1     -10.936  10.504  67.185  1.00  0.00    -0.294 C  
BRANCH  20  21
HETATM   21  C   UNL     1     -10.969  11.391  65.949  1.00  0.00    -0.268 C  
BRANCH  21  22
HETATM   22  C   UNL     1     -11.718  12.691  66.217  1.00  0.00    -0.460 C  
BRANCH  22  23
HETATM   23  C   UNL     1     -11.457  13.690  65.101  1.00  0.00    -0.316 C  
BRANCH  23  24
HETATM   24  O   UNL     1     -11.386  14.992  65.670  1.00  0.00    -0.345 OA 
BRANCH  24  25
HETATM   25  C   UNL     1     -10.192  15.164  66.430  1.00  0.00    -0.281 C  
BRANCH  25  26
HETATM   26  C   UNL     1     -10.458  16.173  67.539  1.00  0.00    -0.302 C  
BRANCH  26  27
HETATM   27  C   UNL     1     -11.588  15.698  68.455  1.00  0.00    -0.358 C  
BRANCH  27  28
HETATM   28  C   UNL     1     -11.132  14.582  69.392  1.00  0.00    -0.297 C  
BRANCH  28  29
HETATM   29  C   UNL     1     -11.835  14.708  70.723  1.00  0.00    -0.372 A  
HETATM   30  C   UNL     1     -11.562  15.788  71.569  1.00  0.00    -0.531 A  
HETATM   31  C   UNL     1     -12.151  15.861  72.831  1.00  0.00    -0.612 A  
HETATM   32  C   UNL     1     -13.015  14.854  73.257  1.00  0.00    -0.635 A  
HETATM   33  C   UNL     1     -13.296  13.776  72.420  1.00  0.00    -0.635 A  
HETATM   34  C   UNL     1     -12.708  13.701  71.157  1.00  0.00    -0.432 A  
ENDBRANCH  28  29
ENDBRANCH  27  28
ENDBRANCH  26  27
ENDBRANCH  25  26
ENDBRANCH  24  25
ENDBRANCH  23  24
ENDBRANCH  22  23
ENDBRANCH  21  22
ENDBRANCH  20  21
ENDBRANCH  19  20
ENDBRANCH  18  19
ENDBRANCH  16  18
ENDBRANCH  15  16
ENDBRANCH  12  15
ENDBRANCH  10  12
ENDBRANCH   2   4
TORSDOF 16
ENDMDL
MODEL       83
REMARK 921   NORMALIZED FREE ENERGY PREDICTED BY IDOCK:   -5.42 KCAL/MOL
REMARK 922        TOTAL FREE ENERGY PREDICTED BY IDOCK:  -12.84 KCAL/MOL
REMARK 923 INTER-LIGAND FREE ENERGY PREDICTED BY IDOCK:  -10.24 KCAL/MOL
REMARK 924 INTRA-LIGAND FREE ENERGY PREDICTED BY IDOCK:   -2.60 KCAL/MOL
REMARK 927      BINDING AFFINITY PREDICTED BY RF-SCORE:    0.00 PKD
ROOT
HETATM    1  O   UNL     1     -13.173  10.217  72.559  1.00  0.00    -0.533 OA 
HETATM    2  C   UNL     1     -13.128  10.604  71.185  1.00  0.00    -0.322 C  
HETATM    3  H   UNL     1     -13.342   9.285  72.632  1.00  0.00     0.000 HD 
ENDROOT
BRANCH   2   4
HETATM    4  C   UNL     1     -12.861  12.082  71.068  1.00  0.00    -0.279 A  
HETATM    5  C   UNL     1     -13.437  13.026  71.926  1.00  0.00    -0.408 A  
HETATM    6  O   UNL     1     -14.337  12.668  72.891  1.00  0.00    -0.406 OA 
HETATM    7  C   UNL     1     -13.142  14.380  71.818  1.00  0.00    -0.428 A  
HETATM    8  C   UNL     1     -12.274  14.822  70.823  1.00  0.00    -0.380 A  
HETATM    9  H   UNL     1     -14.729  13.309  73.473  1.00  0.00     0.000 HD 
HETATM   10  C   UNL     1     -11.677  13.910  69.939  1.00  0.00    -0.358 A  
HETATM   11  C   UNL     1     -11.961  12.541  70.089  1.00  0.00    -0.377 A  
BRANCH  10  12
HETATM   12  C   UNL     1     -10.764  14.374  68.819  1.00  0.00    -0.252 C  
HETATM   13  O   UNL     1      -9.773  13.373  68.543  1.00  0.00    -0.284 OA 
HETATM   14  H   UNL     1      -9.201  13.663  67.841  1.00  0.00     0.000 HD 
BRANCH  12  15
HETATM   15  C   UNL     1     -11.542  14.679  67.521  1.00  0.00    -0.375 C  
BRANCH  15  16
HETATM   16  N   UNL     1     -11.949  13.439  66.840  1.00  0.00    -0.391 NA 
HETATM   17  H   UNL     1     -12.387  12.777  67.481  1.00  0.00     0.000 HD 
BRANCH  16  18
HETATM   18  C   UNL     1     -12.811  13.750  65.704  1.00  0.00    -0.408 C  
BRANCH  18  19
HETATM   19  C   UNL     1     -11.964  14.088  64.483  1.00  0.00    -0.470 C  
BRANCH  19  20
HETATM   20  C   UNL     1     -12.393  13.235  63.292  1.00  0.00    -0.317 C  
BRANCH  20  21
HETATM   21  C   UNL     1     -11.723  11.869  63.339  1.00  0.00    -0.500 C  
BRANCH  21  22
HETATM   22  C   UNL     1     -10.248  11.986  63.704  1.00  0.00    -0.470 C  
BRANCH  22  23
HETATM   23  C   UNL     1      -9.867  10.913  64.712  1.00  0.00    -0.288 C  
BRANCH  23  24
HETATM   24  O   UNL     1      -9.801  11.511  66.001  1.00  0.00    -0.210 OA 
BRANCH  24  25
HETATM   25  C   UNL     1      -9.183  10.642  66.948  1.00  0.00    -0.155 C  
BRANCH  25  26
HETATM   26  C   UNL     1     -10.107   9.459  67.204  1.00  0.00    -0.292 C  
BRANCH  26  27
HETATM   27  C   UNL     1     -10.743   9.550  68.592  1.00  0.00    -0.218 C  
BRANCH  27  28
HETATM   28  C   UNL     1      -9.707   9.405  69.705  1.00  0.00    -0.215 C  
BRANCH  28  29
HETATM   29  C   UNL     1     -10.208   8.438  70.751  1.00  0.00    -0.227 A  
HETATM   30  C   UNL     1     -10.876   7.268  70.373  1.00  0.00    -0.265 A  
HETATM   31  C   UNL     1     -11.408   6.416  71.341  1.00  0.00    -0.354 A  
HETATM   32  C   UNL     1     -11.280   6.728  72.692  1.00  0.00    -0.291 A  
HETATM   33  C   UNL     1     -10.613   7.890  73.080  1.00  0.00    -0.406 A  
HETATM   34  C   UNL     1     -10.079   8.743  72.114  1.00  0.00    -0.362 A  
ENDBRANCH  28  29
ENDBRANCH  27  28
ENDBRANCH  26  27
ENDBRANCH  25  26
ENDBRANCH  24  25
ENDBRANCH  23  24
ENDBRANCH  22  23
ENDBRANCH  21  22
ENDBRANCH  20  21
ENDBRANCH  19  20
ENDBRANCH  18  19
ENDBRANCH  16  18
ENDBRANCH  15  16
ENDBRANCH  12  15
ENDBRANCH  10  12
ENDBRANCH   2   4
TORSDOF 16
ENDMDL
MODEL       84
REMARK 921   NORMALIZED FREE ENERGY PREDICTED BY IDOCK:   -5.41 KCAL/MOL
REMARK 922        TOTAL FREE ENERGY PREDICTED BY IDOCK:  -12.82 KCAL/MOL
REMARK 923 INTER-LIGAND FREE ENERGY PREDICTED BY IDOCK:   -9.15 KCAL/MOL
REMARK 924 INTRA-LIGAND FREE ENERGY PREDICTED BY IDOCK:   -3.67 KCAL/MOL
REMARK 927      BINDING AFFINITY PREDICTED BY RF-SCORE:    0.00 PKD
ROOT
HETATM    1  O   UNL     1     -10.036   6.905  66.216  1.00  0.00    -0.432 OA 
HETATM    2  C   UNL     1     -11.074   6.368  67.038  1.00  0.00    -0.329 C  
HETATM    3  H   UNL     1     -10.361   7.059  65.337  1.00  0.00     0.000 HD 
ENDROOT
BRANCH   2   4
HETATM    4  C   UNL     1     -10.560   6.123  68.432  1.00  0.00    -0.324 A  
HETATM    5  C   UNL     1      -9.254   5.694  68.694  1.00  0.00    -0.122 A  
HETATM    6  O   UNL     1      -8.375   5.405  67.687  1.00  0.00    -0.100 OA 
HETATM    7  C   UNL     1      -8.796   5.512  69.994  1.00  0.00    -0.139 A  
HETATM    8  C   UNL     1      -9.655   5.736  71.067  1.00  0.00    -0.203 A  
HETATM    9  H   UNL     1      -7.489   5.113  67.865  1.00  0.00     0.000 HD 
HETATM   10  C   UNL     1     -10.974   6.164  70.850  1.00  0.00    -0.359 A  
HETATM   11  C   UNL     1     -11.405   6.376  69.528  1.00  0.00    -0.460 A  
BRANCH  10  12
HETATM   12  C   UNL     1     -11.940   6.370  72.002  1.00  0.00    -0.326 C  
HETATM   13  O   UNL     1     -11.268   7.001  73.103  1.00  0.00    -0.483 OA 
HETATM   14  H   UNL     1     -11.872   7.130  73.825  1.00  0.00     0.000 HD 
BRANCH  12  15
HETATM   15  C   UNL     1     -13.155   7.232  71.597  1.00  0.00    -0.369 C  
BRANCH  15  16
HETATM   16  N   UNL     1     -13.402   8.299  72.581  1.00  0.00    -0.591 NA 
HETATM   17  H   UNL     1     -12.655   8.361  73.273  1.00  0.00     0.000 HD 
BRANCH  16  18
HETATM   18  C   UNL     1     -13.620   9.570  71.897  1.00  0.00    -0.391 C  
BRANCH  18  19
HETATM   19  C   UNL     1     -12.317  10.060  71.278  1.00  0.00    -0.496 C  
BRANCH  19  20
HETATM   20  C   UNL     1     -12.453  11.519  70.849  1.00  0.00    -0.464 C  
BRANCH  20  21
HETATM   21  C   UNL     1     -12.022  11.695  69.400  1.00  0.00    -0.381 C  
BRANCH  21  22
HETATM   22  C   UNL     1     -11.757  13.160  69.072  1.00  0.00    -0.367 C  
BRANCH  22  23
HETATM   23  C   UNL     1     -11.986  13.420  67.591  1.00  0.00    -0.322 C  
BRANCH  23  24
HETATM   24  O   UNL     1     -12.002  12.170  66.913  1.00  0.00    -0.603 OA 
BRANCH  24  25
HETATM   25  C   UNL     1     -11.288  12.236  65.681  1.00  0.00    -0.350 C  
BRANCH  25  26
HETATM   26  C   UNL     1     -10.380  11.018  65.574  1.00  0.00    -0.321 C  
BRANCH  26  27
HETATM   27  C   UNL     1     -10.062  10.447  66.957  1.00  0.00    -0.264 C  
BRANCH  27  28
HETATM   28  C   UNL     1      -8.795   9.594  66.945  1.00  0.00    -0.143 C  
BRANCH  28  29
HETATM   29  C   UNL     1      -8.336   9.335  68.360  1.00  0.00    -0.119 A  
HETATM   30  C   UNL     1      -7.057   8.824  68.608  1.00  0.00    -0.072 A  
HETATM   31  C   UNL     1      -6.665   8.510  69.910  1.00  0.00    -0.042 A  
HETATM   32  C   UNL     1      -7.547   8.702  70.971  1.00  0.00    -0.109 A  
HETATM   33  C   UNL     1      -8.821   9.215  70.734  1.00  0.00    -0.291 A  
HETATM   34  C   UNL     1      -9.216   9.530  69.434  1.00  0.00    -0.181 A  
ENDBRANCH  28  29
ENDBRANCH  27  28
ENDBRANCH  26  27
ENDBRANCH  25  26
ENDBRANCH  24  25
ENDBRANCH  23  24
ENDBRANCH  22  23
ENDBRANCH  21  22
ENDBRANCH  20  21
ENDBRANCH  19  20
ENDBRANCH  18  19
ENDBRANCH  16  18
ENDBRANCH  15  16
ENDBRANCH  12  15
ENDBRANCH  10  12
ENDBRANCH   2   4
TORSDOF 16
ENDMDL
MODEL       85
REMARK 921   NORMALIZED FREE ENERGY PREDICTED BY IDOCK:   -5.41 KCAL/MOL
REMARK 922        TOTAL FREE ENERGY PREDICTED BY IDOCK:  -12.82 KCAL/MOL
REMARK 923 INTER-LIGAND FREE ENERGY PREDICTED BY IDOCK:  -11.01 KCAL/MOL
REMARK 924 INTRA-LIGAND FREE ENERGY PREDICTED BY IDOCK:   -1.81 KCAL/MOL
REMARK 927      BINDING AFFINITY PREDICTED BY RF-SCORE:    0.00 PKD
ROOT
HETATM    1  O   UNL     1     -11.565  16.713  71.241  1.00  0.00    -0.605 OA 
HETATM    2  C   UNL     1     -12.026  15.821  70.225  1.00  0.00    -0.361 C  
HETATM    3  H   UNL     1     -11.290  17.536  70.855  1.00  0.00     0.000 HD 
ENDROOT
BRANCH   2   4
HETATM    4  C   UNL     1     -12.462  14.516  70.836  1.00  0.00    -0.415 A  
HETATM    5  C   UNL     1     -13.226  14.445  72.007  1.00  0.00    -0.369 A  
HETATM    6  O   UNL     1     -13.573  15.565  72.710  1.00  0.00    -0.494 OA 
HETATM    7  C   UNL     1     -13.646  13.226  72.527  1.00  0.00    -0.637 A  
HETATM    8  C   UNL     1     -13.284  12.041  71.892  1.00  0.00    -0.469 A  
HETATM    9  H   UNL     1     -14.091  15.517  73.505  1.00  0.00     0.000 HD 
HETATM   10  C   UNL     1     -12.515  12.066  70.717  1.00  0.00    -0.372 A  
HETATM   11  C   UNL     1     -12.132  13.311  70.189  1.00  0.00    -0.403 A  
BRANCH  10  12
HETATM   12  C   UNL     1     -12.071  10.786  70.034  1.00  0.00    -0.345 C  
HETATM   13  O   UNL     1     -12.449  10.809  68.649  1.00  0.00    -0.793 OA 
HETATM   14  H   UNL     1     -12.170  10.008  68.220  1.00  0.00     0.000 HD 
BRANCH  12  15
HETATM   15  C   UNL     1     -10.545  10.571  70.133  1.00  0.00    -0.105 C  
BRANCH  15  16
HETATM   16  N   UNL     1     -10.228   9.343  70.882  1.00  0.00    -0.295 NA 
HETATM   17  H   UNL     1      -9.573   9.519  71.643  1.00  0.00     0.000 HD 
BRANCH  16  18
HETATM   18  C   UNL     1     -11.457   8.712  71.353  1.00  0.00    -0.289 C  
BRANCH  18  19
HETATM   19  C   UNL     1     -11.255   8.159  72.758  1.00  0.00    -0.407 C  
BRANCH  19  20
HETATM   20  C   UNL     1     -10.665   6.752  72.690  1.00  0.00    -0.271 C  
BRANCH  20  21
HETATM   21  C   UNL     1     -11.209   5.999  71.485  1.00  0.00    -0.326 C  
BRANCH  21  22
HETATM   22  C   UNL     1     -10.220   4.950  70.991  1.00  0.00    -0.262 C  
BRANCH  22  23
HETATM   23  C   UNL     1      -9.449   5.475  69.790  1.00  0.00    -0.149 C  
BRANCH  23  24
HETATM   24  O   UNL     1     -10.188   6.547  69.216  1.00  0.00    -0.171 OA 
BRANCH  24  25
HETATM   25  C   UNL     1     -10.909   6.123  68.061  1.00  0.00    -0.313 C  
BRANCH  25  26
HETATM   26  C   UNL     1     -10.419   6.918  66.858  1.00  0.00    -0.349 C  
BRANCH  26  27
HETATM   27  C   UNL     1     -10.607   8.420  67.079  1.00  0.00    -0.316 C  
BRANCH  27  28
HETATM   28  C   UNL     1      -9.391   9.221  66.618  1.00  0.00    -0.219 C  
BRANCH  28  29
HETATM   29  C   UNL     1      -9.798  10.199  65.541  1.00  0.00    -0.365 A  
HETATM   30  C   UNL     1     -10.679  11.246  65.832  1.00  0.00    -0.291 A  
HETATM   31  C   UNL     1     -11.117  12.100  64.820  1.00  0.00    -0.364 A  
HETATM   32  C   UNL     1     -10.680  11.912  63.510  1.00  0.00    -0.504 A  
HETATM   33  C   UNL     1      -9.799  10.874  63.211  1.00  0.00    -0.409 A  
HETATM   34  C   UNL     1      -9.359  10.019  64.222  1.00  0.00    -0.345 A  
ENDBRANCH  28  29
ENDBRANCH  27  28
ENDBRANCH  26  27
ENDBRANCH  25  26
ENDBRANCH  24  25
ENDBRANCH  23  24
ENDBRANCH  22  23
ENDBRANCH  21  22
ENDBRANCH  20  21
ENDBRANCH  19  20
ENDBRANCH  18  19
ENDBRANCH  16  18
ENDBRANCH  15  16
ENDBRANCH  12  15
ENDBRANCH  10  12
ENDBRANCH   2   4
TORSDOF 16
ENDMDL
MODEL       86
REMARK 921   NORMALIZED FREE ENERGY PREDICTED BY IDOCK:   -5.40 KCAL/MOL
REMARK 922        TOTAL FREE ENERGY PREDICTED BY IDOCK:  -12.80 KCAL/MOL
REMARK 923 INTER-LIGAND FREE ENERGY PREDICTED BY IDOCK:  -11.23 KCAL/MOL
REMARK 924 INTRA-LIGAND FREE ENERGY PREDICTED BY IDOCK:   -1.58 KCAL/MOL
REMARK 927      BINDING AFFINITY PREDICTED BY RF-SCORE:    0.00 PKD
ROOT
HETATM    1  O   UNL     1     -11.393   4.898  65.826  1.00  0.00    -0.849 OA 
HETATM    2  C   UNL     1     -10.569   5.868  66.474  1.00  0.00    -0.201 C  
HETATM    3  H   UNL     1     -11.389   5.041  64.886  1.00  0.00     0.000 HD 
ENDROOT
BRANCH   2   4
HETATM    4  C   UNL     1     -10.574   5.643  67.964  1.00  0.00    -0.260 A  
HETATM    5  C   UNL     1      -9.886   4.587  68.573  1.00  0.00    -0.089 A  
HETATM    6  O   UNL     1      -9.213   3.648  67.841  1.00  0.00    -0.144 OA 
HETATM    7  C   UNL     1      -9.878   4.426  69.953  1.00  0.00    -0.290 A  
HETATM    8  C   UNL     1     -10.587   5.314  70.758  1.00  0.00    -0.256 A  
HETATM    9  H   UNL     1      -8.747   2.931  68.253  1.00  0.00     0.000 HD 
HETATM   10  C   UNL     1     -11.295   6.385  70.188  1.00  0.00    -0.485 A  
HETATM   11  C   UNL     1     -11.259   6.550  68.792  1.00  0.00    -0.319 A  
BRANCH  10  12
HETATM   12  C   UNL     1     -12.110   7.338  71.041  1.00  0.00    -0.324 C  
HETATM   13  O   UNL     1     -12.225   6.829  72.379  1.00  0.00    -0.492 OA 
HETATM   14  H   UNL     1     -12.736   7.426  72.914  1.00  0.00     0.000 HD 
BRANCH  12  15
HETATM   15  C   UNL     1     -11.489   8.751  71.095  1.00  0.00    -0.286 C  
BRANCH  15  16
HETATM   16  N   UNL     1     -12.225   9.689  70.231  1.00  0.00    -0.472 NA 
HETATM   17  H   UNL     1     -13.014  10.116  70.716  1.00  0.00     0.000 HD 
BRANCH  16  18
HETATM   18  C   UNL     1     -11.312  10.690  69.687  1.00  0.00    -0.294 C  
BRANCH  18  19
HETATM   19  C   UNL     1     -11.254  10.574  68.170  1.00  0.00    -0.357 C  
BRANCH  19  20
HETATM   20  C   UNL     1     -11.512  11.935  67.527  1.00  0.00    -0.396 C  
BRANCH  20  21
HETATM   21  C   UNL     1     -11.479  11.828  66.009  1.00  0.00    -0.281 C  
BRANCH  21  22
HETATM   22  C   UNL     1     -10.316  12.616  65.420  1.00  0.00    -0.311 C  
BRANCH  22  23
HETATM   23  C   UNL     1     -10.777  14.004  65.002  1.00  0.00    -0.396 C  
BRANCH  23  24
HETATM   24  O   UNL     1      -9.965  14.966  65.664  1.00  0.00    -0.319 OA 
BRANCH  24  25
HETATM   25  C   UNL     1     -10.651  15.559  66.763  1.00  0.00    -0.307 C  
BRANCH  25  26
HETATM   26  C   UNL     1      -9.794  15.412  68.014  1.00  0.00    -0.216 C  
BRANCH  26  27
HETATM   27  C   UNL     1     -10.491  16.022  69.231  1.00  0.00    -0.257 C  
BRANCH  27  28
HETATM   28  C   UNL     1     -11.906  15.475  69.412  1.00  0.00    -0.392 C  
BRANCH  28  29
HETATM   29  C   UNL     1     -12.209  15.310  70.883  1.00  0.00    -0.409 A  
HETATM   30  C   UNL     1     -13.083  14.307  71.318  1.00  0.00    -0.425 A  
HETATM   31  C   UNL     1     -13.424  14.208  72.667  1.00  0.00    -0.634 A  
HETATM   32  C   UNL     1     -12.899  15.111  73.589  1.00  0.00    -0.621 A  
HETATM   33  C   UNL     1     -12.025  16.112  73.165  1.00  0.00    -0.576 A  
HETATM   34  C   UNL     1     -11.681  16.213  71.817  1.00  0.00    -0.568 A  
ENDBRANCH  28  29
ENDBRANCH  27  28
ENDBRANCH  26  27
ENDBRANCH  25  26
ENDBRANCH  24  25
ENDBRANCH  23  24
ENDBRANCH  22  23
ENDBRANCH  21  22
ENDBRANCH  20  21
ENDBRANCH  19  20
ENDBRANCH  18  19
ENDBRANCH  16  18
ENDBRANCH  15  16
ENDBRANCH  12  15
ENDBRANCH  10  12
ENDBRANCH   2   4
TORSDOF 16
ENDMDL
MODEL       87
REMARK 921   NORMALIZED FREE ENERGY PREDICTED BY IDOCK:   -5.39 KCAL/MOL
REMARK 922        TOTAL FREE ENERGY PREDICTED BY IDOCK:  -12.77 KCAL/MOL
REMARK 923 INTER-LIGAND FREE ENERGY PREDICTED BY IDOCK:   -9.81 KCAL/MOL
REMARK 924 INTRA-LIGAND FREE ENERGY PREDICTED BY IDOCK:   -2.97 KCAL/MOL
REMARK 927      BINDING AFFINITY PREDICTED BY RF-SCORE:    0.00 PKD
ROOT
HETATM    1  O   UNL     1      -5.628   8.631  68.195  1.00  0.00    -0.034 OA 
HETATM    2  C   UNL     1      -6.847   8.192  68.796  1.00  0.00    -0.066 C  
HETATM    3  H   UNL     1      -4.898   8.478  68.784  1.00  0.00     0.000 HD 
ENDROOT
BRANCH   2   4
HETATM    4  C   UNL     1      -8.005   8.435  67.862  1.00  0.00    -0.115 A  
HETATM    5  C   UNL     1      -9.261   7.845  68.044  1.00  0.00    -0.131 A  
HETATM    6  O   UNL     1      -9.499   6.953  69.052  1.00  0.00    -0.139 OA 
HETATM    7  C   UNL     1     -10.321   8.117  67.186  1.00  0.00    -0.391 A  
HETATM    8  C   UNL     1     -10.134   8.976  66.106  1.00  0.00    -0.242 A  
HETATM    9  H   UNL     1     -10.352   6.552  69.175  1.00  0.00     0.000 HD 
HETATM   10  C   UNL     1      -8.889   9.585  65.885  1.00  0.00    -0.193 A  
HETATM   11  C   UNL     1      -7.841   9.324  66.785  1.00  0.00    -0.104 A  
BRANCH  10  12
HETATM   12  C   UNL     1      -8.651  10.488  64.688  1.00  0.00    -0.161 C  
HETATM   13  O   UNL     1      -7.250  10.775  64.557  1.00  0.00    -0.351 OA 
HETATM   14  H   UNL     1      -7.100  11.340  63.808  1.00  0.00     0.000 HD 
BRANCH  12  15
HETATM   15  C   UNL     1      -9.158   9.859  63.373  1.00  0.00    -0.261 C  
BRANCH  15  16
HETATM   16  N   UNL     1     -10.214  10.683  62.761  1.00  0.00    -0.749 NA 
HETATM   17  H   UNL     1     -11.101  10.182  62.698  1.00  0.00     0.000 HD 
BRANCH  16  18
HETATM   18  C   UNL     1     -10.348  11.943  63.485  1.00  0.00    -0.458 C  
BRANCH  18  19
HETATM   19  C   UNL     1     -11.807  12.383  63.502  1.00  0.00    -0.605 C  
BRANCH  19  20
HETATM   20  C   UNL     1     -12.309  12.487  64.940  1.00  0.00    -0.539 C  
BRANCH  20  21
HETATM   21  C   UNL     1     -12.728  13.914  65.261  1.00  0.00    -0.485 C  
BRANCH  21  22
HETATM   22  C   UNL     1     -12.237  14.342  66.639  1.00  0.00    -0.411 C  
BRANCH  22  23
HETATM   23  C   UNL     1     -10.797  14.824  66.561  1.00  0.00    -0.319 C  
BRANCH  23  24
HETATM   24  O   UNL     1     -10.063  14.222  67.620  1.00  0.00    -0.227 OA 
BRANCH  24  25
HETATM   25  C   UNL     1      -9.622  12.913  67.269  1.00  0.00    -0.220 C  
BRANCH  25  26
HETATM   26  C   UNL     1      -9.721  12.016  68.497  1.00  0.00    -0.165 C  
BRANCH  26  27
HETATM   27  C   UNL     1     -11.109  11.384  68.604  1.00  0.00    -0.290 C  
BRANCH  27  28
HETATM   28  C   UNL     1     -11.834  11.809  69.880  1.00  0.00    -0.423 C  
BRANCH  28  29
HETATM   29  C   UNL     1     -11.975  10.628  70.809  1.00  0.00    -0.477 A  
HETATM   30  C   UNL     1     -10.925   9.716  70.961  1.00  0.00    -0.431 A  
HETATM   31  C   UNL     1     -11.086   8.582  71.757  1.00  0.00    -0.378 A  
HETATM   32  C   UNL     1     -12.298   8.350  72.404  1.00  0.00    -0.412 A  
HETATM   33  C   UNL     1     -13.349   9.254  72.262  1.00  0.00    -0.547 A  
HETATM   34  C   UNL     1     -13.190  10.389  71.467  1.00  0.00    -0.485 A  
ENDBRANCH  28  29
ENDBRANCH  27  28
ENDBRANCH  26  27
ENDBRANCH  25  26
ENDBRANCH  24  25
ENDBRANCH  23  24
ENDBRANCH  22  23
ENDBRANCH  21  22
ENDBRANCH  20  21
ENDBRANCH  19  20
ENDBRANCH  18  19
ENDBRANCH  16  18
ENDBRANCH  15  16
ENDBRANCH  12  15
ENDBRANCH  10  12
ENDBRANCH   2   4
TORSDOF 16
ENDMDL
MODEL       88
REMARK 921   NORMALIZED FREE ENERGY PREDICTED BY IDOCK:   -5.38 KCAL/MOL
REMARK 922        TOTAL FREE ENERGY PREDICTED BY IDOCK:  -12.76 KCAL/MOL
REMARK 923 INTER-LIGAND FREE ENERGY PREDICTED BY IDOCK:   -9.48 KCAL/MOL
REMARK 924 INTRA-LIGAND FREE ENERGY PREDICTED BY IDOCK:   -3.28 KCAL/MOL
REMARK 927      BINDING AFFINITY PREDICTED BY RF-SCORE:    0.00 PKD
ROOT
HETATM    1  O   UNL     1     -13.227  15.536  70.301  1.00  0.00    -0.699 OA 
HETATM    2  C   UNL     1     -12.477  14.520  70.968  1.00  0.00    -0.341 C  
HETATM    3  H   UNL     1     -13.372  16.273  70.884  1.00  0.00     0.000 HD 
ENDROOT
BRANCH   2   4
HETATM    4  C   UNL     1     -12.249  13.352  70.045  1.00  0.00    -0.367 A  
HETATM    5  C   UNL     1     -12.337  12.021  70.470  1.00  0.00    -0.282 A  
HETATM    6  O   UNL     1     -12.576  11.697  71.776  1.00  0.00    -0.234 OA 
HETATM    7  C   UNL     1     -12.158  10.964  69.586  1.00  0.00    -0.400 A  
HETATM    8  C   UNL     1     -11.859  11.221  68.250  1.00  0.00    -0.299 A  
HETATM    9  H   UNL     1     -12.635  10.794  72.065  1.00  0.00     0.000 HD 
HETATM   10  C   UNL     1     -11.756  12.541  67.783  1.00  0.00    -0.419 A  
HETATM   11  C   UNL     1     -11.977  13.595  68.686  1.00  0.00    -0.395 A  
BRANCH  10  12
HETATM   12  C   UNL     1     -11.387  12.844  66.343  1.00  0.00    -0.319 C  
HETATM   13  O   UNL     1     -12.402  12.347  65.457  1.00  0.00    -0.621 OA 
HETATM   14  H   UNL     1     -12.171  12.537  64.555  1.00  0.00     0.000 HD 
BRANCH  12  15
HETATM   15  C   UNL     1     -11.202  14.356  66.094  1.00  0.00    -0.336 C  
BRANCH  15  16
HETATM   16  N   UNL     1      -9.883  14.642  65.505  1.00  0.00    -0.473 NA 
HETATM   17  H   UNL     1      -9.960  15.006  64.556  1.00  0.00     0.000 HD 
BRANCH  16  18
HETATM   18  C   UNL     1      -9.131  15.541  66.375  1.00  0.00    -0.316 C  
BRANCH  18  19
HETATM   19  C   UNL     1      -7.955  14.800  66.999  1.00  0.00    -0.139 C  
BRANCH  19  20
HETATM   20  C   UNL     1      -8.361  14.205  68.346  1.00  0.00    -0.161 C  
BRANCH  20  21
HETATM   21  C   UNL     1      -8.115  12.704  68.366  1.00  0.00    -0.137 C  
BRANCH  21  22
HETATM   22  C   UNL     1      -7.742  12.182  66.984  1.00  0.00    -0.112 C  
BRANCH  22  23
HETATM   23  C   UNL     1      -8.107  10.711  66.859  1.00  0.00    -0.124 C  
BRANCH  23  24
HETATM   24  O   UNL     1      -8.977  10.558  65.744  1.00  0.00    -0.167 OA 
BRANCH  24  25
HETATM   25  C   UNL     1      -9.861   9.453  65.921  1.00  0.00    -0.291 C  
BRANCH  25  26
HETATM   26  C   UNL     1      -9.289   8.534  66.992  1.00  0.00    -0.204 C  
BRANCH  26  27
HETATM   27  C   UNL     1     -10.380   7.645  67.592  1.00  0.00    -0.303 C  
BRANCH  27  28
HETATM   28  C   UNL     1      -9.859   6.812  68.761  1.00  0.00    -0.143 C  
BRANCH  28  29
HETATM   29  C   UNL     1     -10.538   7.241  70.041  1.00  0.00    -0.247 A  
HETATM   30  C   UNL     1     -11.782   6.708  70.396  1.00  0.00    -0.446 A  
HETATM   31  C   UNL     1     -12.444   7.165  71.535  1.00  0.00    -0.418 A  
HETATM   32  C   UNL     1     -11.869   8.158  72.326  1.00  0.00    -0.441 A  
HETATM   33  C   UNL     1     -10.628   8.692  71.982  1.00  0.00    -0.421 A  
HETATM   34  C   UNL     1      -9.964   8.237  70.843  1.00  0.00    -0.223 A  
ENDBRANCH  28  29
ENDBRANCH  27  28
ENDBRANCH  26  27
ENDBRANCH  25  26
ENDBRANCH  24  25
ENDBRANCH  23  24
ENDBRANCH  22  23
ENDBRANCH  21  22
ENDBRANCH  20  21
ENDBRANCH  19  20
ENDBRANCH  18  19
ENDBRANCH  16  18
ENDBRANCH  15  16
ENDBRANCH  12  15
ENDBRANCH  10  12
ENDBRANCH   2   4
TORSDOF 16
ENDMDL
MODEL       89
REMARK 921   NORMALIZED FREE ENERGY PREDICTED BY IDOCK:   -5.38 KCAL/MOL
REMARK 922        TOTAL FREE ENERGY PREDICTED BY IDOCK:  -12.75 KCAL/MOL
REMARK 923 INTER-LIGAND FREE ENERGY PREDICTED BY IDOCK:  -10.15 KCAL/MOL
REMARK 924 INTRA-LIGAND FREE ENERGY PREDICTED BY IDOCK:   -2.60 KCAL/MOL
REMARK 927      BINDING AFFINITY PREDICTED BY RF-SCORE:    0.00 PKD
ROOT
HETATM    1  O   UNL     1     -10.466   4.670  66.534  1.00  0.00    -0.267 OA 
HETATM    2  C   UNL     1      -9.316   5.499  66.709  1.00  0.00    -0.132 C  
HETATM    3  H   UNL     1     -10.221   3.753  66.592  1.00  0.00     0.000 HD 
ENDROOT
BRANCH   2   4
HETATM    4  C   UNL     1      -9.703   6.952  66.616  1.00  0.00    -0.221 A  
HETATM    5  C   UNL     1     -10.553   7.570  67.541  1.00  0.00    -0.261 A  
HETATM    6  O   UNL     1     -11.141   6.872  68.559  1.00  0.00    -0.449 OA 
HETATM    7  C   UNL     1     -10.862   8.923  67.451  1.00  0.00    -0.096 A  
HETATM    8  C   UNL     1     -10.341   9.684  66.408  1.00  0.00    -0.246 A  
HETATM    9  H   UNL     1     -11.718   7.291  69.186  1.00  0.00     0.000 HD 
HETATM   10  C   UNL     1      -9.488   9.103  65.456  1.00  0.00    -0.276 A  
HETATM   11  C   UNL     1      -9.160   7.742  65.587  1.00  0.00     0.010 A  
BRANCH  10  12
HETATM   12  C   UNL     1      -8.946   9.902  64.286  1.00  0.00    -0.243 C  
HETATM   13  O   UNL     1      -9.052   9.139  63.074  1.00  0.00    -0.425 OA 
HETATM   14  H   UNL     1      -8.712   9.639  62.341  1.00  0.00     0.000 HD 
BRANCH  12  15
HETATM   15  C   UNL     1      -9.689  11.242  64.100  1.00  0.00    -0.261 C  
BRANCH  15  16
HETATM   16  N   UNL     1     -10.693  11.150  63.026  1.00  0.00    -0.818 NA 
HETATM   17  H   UNL     1     -11.038  10.197  62.907  1.00  0.00     0.000 HD 
BRANCH  16  18
HETATM   18  C   UNL     1     -11.776  12.097  63.270  1.00  0.00    -0.351 C  
BRANCH  18  19
HETATM   19  C   UNL     1     -11.498  12.893  64.539  1.00  0.00    -0.389 C  
BRANCH  19  20
HETATM   20  C   UNL     1     -12.266  14.212  64.512  1.00  0.00    -0.468 C  
BRANCH  20  21
HETATM   21  C   UNL     1     -11.388  15.356  64.998  1.00  0.00    -0.334 C  
BRANCH  21  22
HETATM   22  C   UNL     1     -10.007  14.861  65.412  1.00  0.00    -0.367 C  
BRANCH  22  23
HETATM   23  C   UNL     1      -9.722  15.237  66.857  1.00  0.00    -0.233 C  
BRANCH  23  24
HETATM   24  O   UNL     1     -10.963  15.419  67.528  1.00  0.00    -0.304 OA 
BRANCH  24  25
HETATM   25  C   UNL     1     -11.060  14.584  68.680  1.00  0.00    -0.257 C  
BRANCH  25  26
HETATM   26  C   UNL     1     -11.759  13.288  68.290  1.00  0.00    -0.388 C  
BRANCH  26  27
HETATM   27  C   UNL     1     -11.362  12.147  69.228  1.00  0.00    -0.327 C  
BRANCH  27  28
HETATM   28  C   UNL     1     -12.266  12.078  70.457  1.00  0.00    -0.414 C  
BRANCH  28  29
HETATM   29  C   UNL     1     -12.268  10.674  71.015  1.00  0.00    -0.498 A  
HETATM   30  C   UNL     1     -13.395  10.177  71.679  1.00  0.00    -0.463 A  
HETATM   31  C   UNL     1     -13.366   8.911  72.263  1.00  0.00    -0.497 A  
HETATM   32  C   UNL     1     -12.212   8.134  72.191  1.00  0.00    -0.398 A  
HETATM   33  C   UNL     1     -11.085   8.619  71.529  1.00  0.00    -0.358 A  
HETATM   34  C   UNL     1     -11.111   9.885  70.943  1.00  0.00    -0.418 A  
ENDBRANCH  28  29
ENDBRANCH  27  28
ENDBRANCH  26  27
ENDBRANCH  25  26
ENDBRANCH  24  25
ENDBRANCH  23  24
ENDBRANCH  22  23
ENDBRANCH  21  22
ENDBRANCH  20  21
ENDBRANCH  19  20
ENDBRANCH  18  19
ENDBRANCH  16  18
ENDBRANCH  15  16
ENDBRANCH  12  15
ENDBRANCH  10  12
ENDBRANCH   2   4
TORSDOF 16
ENDMDL
MODEL       90
REMARK 921   NORMALIZED FREE ENERGY PREDICTED BY IDOCK:   -5.36 KCAL/MOL
REMARK 922        TOTAL FREE ENERGY PREDICTED BY IDOCK:  -12.73 KCAL/MOL
REMARK 923 INTER-LIGAND FREE ENERGY PREDICTED BY IDOCK:  -10.42 KCAL/MOL
REMARK 924 INTRA-LIGAND FREE ENERGY PREDICTED BY IDOCK:   -2.30 KCAL/MOL
REMARK 927      BINDING AFFINITY PREDICTED BY RF-SCORE:    0.00 PKD
ROOT
HETATM    1  O   UNL     1     -11.807  16.708  72.499  1.00  0.00    -0.554 OA 
HETATM    2  C   UNL     1     -12.091  16.125  71.227  1.00  0.00    -0.285 C  
HETATM    3  H   UNL     1     -11.561  17.620  72.395  1.00  0.00     0.000 HD 
ENDROOT
BRANCH   2   4
HETATM    4  C   UNL     1     -12.481  14.680  71.392  1.00  0.00    -0.410 A  
HETATM    5  C   UNL     1     -13.417  14.251  72.339  1.00  0.00    -0.489 A  
HETATM    6  O   UNL     1     -13.995  15.117  73.225  1.00  0.00    -0.512 OA 
HETATM    7  C   UNL     1     -13.785  12.914  72.443  1.00  0.00    -0.530 A  
HETATM    8  C   UNL     1     -13.197  11.968  71.607  1.00  0.00    -0.361 A  
HETATM    9  H   UNL     1     -14.630  14.826  73.869  1.00  0.00     0.000 HD 
HETATM   10  C   UNL     1     -12.249  12.354  70.646  1.00  0.00    -0.368 A  
HETATM   11  C   UNL     1     -11.919  13.716  70.534  1.00  0.00    -0.353 A  
BRANCH  10  12
HETATM   12  C   UNL     1     -11.563  11.335  69.756  1.00  0.00    -0.333 C  
HETATM   13  O   UNL     1     -10.434  11.933  69.099  1.00  0.00    -0.396 OA 
HETATM   14  H   UNL     1     -10.004  11.294  68.542  1.00  0.00     0.000 HD 
BRANCH  12  15
HETATM   15  C   UNL     1     -11.083  10.099  70.547  1.00  0.00    -0.327 C  
BRANCH  15  16
HETATM   16  N   UNL     1     -11.823   8.890  70.147  1.00  0.00    -0.443 NA 
HETATM   17  H   UNL     1     -12.480   9.078  69.390  1.00  0.00     0.000 HD 
BRANCH  16  18
HETATM   18  C   UNL     1     -10.890   7.821  69.808  1.00  0.00    -0.209 C  
BRANCH  18  19
HETATM   19  C   UNL     1      -9.717   8.384  69.015  1.00  0.00    -0.171 C  
BRANCH  19  20
HETATM   20  C   UNL     1      -9.478   7.546  67.761  1.00  0.00    -0.157 C  
BRANCH  20  21
HETATM   21  C   UNL     1      -9.785   8.353  66.508  1.00  0.00    -0.330 C  
BRANCH  21  22
HETATM   22  C   UNL     1      -9.401   9.818  66.682  1.00  0.00    -0.200 C  
BRANCH  22  23
HETATM   23  C   UNL     1     -10.315  10.706  65.851  1.00  0.00    -0.224 C  
BRANCH  23  24
HETATM   24  O   UNL     1      -9.588  11.164  64.718  1.00  0.00    -0.224 OA 
BRANCH  24  25
HETATM   25  C   UNL     1     -10.444  11.369  63.597  1.00  0.00    -0.414 C  
BRANCH  25  26
HETATM   26  C   UNL     1     -11.835  11.730  64.103  1.00  0.00    -0.350 C  
BRANCH  26  27
HETATM   27  C   UNL     1     -12.077  13.237  64.015  1.00  0.00    -0.508 C  
BRANCH  27  28
HETATM   28  C   UNL     1     -12.553  13.818  65.346  1.00  0.00    -0.534 C  
BRANCH  28  29
HETATM   29  C   UNL     1     -11.419  14.550  66.023  1.00  0.00    -0.348 A  
HETATM   30  C   UNL     1     -11.633  15.227  67.229  1.00  0.00    -0.164 A  
HETATM   31  C   UNL     1     -10.605  15.969  67.811  1.00  0.00    -0.309 A  
HETATM   32  C   UNL     1      -9.359  16.043  67.192  1.00  0.00    -0.222 A  
HETATM   33  C   UNL     1      -9.136  15.369  65.992  1.00  0.00    -0.284 A  
HETATM   34  C   UNL     1     -10.162  14.625  65.408  1.00  0.00    -0.415 A  
ENDBRANCH  28  29
ENDBRANCH  27  28
ENDBRANCH  26  27
ENDBRANCH  25  26
ENDBRANCH  24  25
ENDBRANCH  23  24
ENDBRANCH  22  23
ENDBRANCH  21  22
ENDBRANCH  20  21
ENDBRANCH  19  20
ENDBRANCH  18  19
ENDBRANCH  16  18
ENDBRANCH  15  16
ENDBRANCH  12  15
ENDBRANCH  10  12
ENDBRANCH   2   4
TORSDOF 16
ENDMDL
MODEL       91
REMARK 921   NORMALIZED FREE ENERGY PREDICTED BY IDOCK:   -5.36 KCAL/MOL
REMARK 922        TOTAL FREE ENERGY PREDICTED BY IDOCK:  -12.72 KCAL/MOL
REMARK 923 INTER-LIGAND FREE ENERGY PREDICTED BY IDOCK:  -10.81 KCAL/MOL
REMARK 924 INTRA-LIGAND FREE ENERGY PREDICTED BY IDOCK:   -1.91 KCAL/MOL
REMARK 927      BINDING AFFINITY PREDICTED BY RF-SCORE:    0.00 PKD
ROOT
HETATM    1  O   UNL     1     -13.442  11.685  72.171  1.00  0.00    -0.537 OA 
HETATM    2  C   UNL     1     -13.132  10.820  71.078  1.00  0.00    -0.248 C  
HETATM    3  H   UNL     1     -14.129  12.293  71.924  1.00  0.00     0.000 HD 
ENDROOT
BRANCH   2   4
HETATM    4  C   UNL     1     -12.043   9.855  71.469  1.00  0.00    -0.496 A  
HETATM    5  C   UNL     1     -12.218   8.872  72.450  1.00  0.00    -0.295 A  
HETATM    6  O   UNL     1     -13.378   8.768  73.166  1.00  0.00    -0.918 OA 
HETATM    7  C   UNL     1     -11.207   7.972  72.764  1.00  0.00    -0.448 A  
HETATM    8  C   UNL     1      -9.979   8.055  72.112  1.00  0.00    -0.289 A  
HETATM    9  H   UNL     1     -13.497   8.101  73.833  1.00  0.00     0.000 HD 
HETATM   10  C   UNL     1      -9.759   9.029  71.124  1.00  0.00    -0.369 A  
HETATM   11  C   UNL     1     -10.808   9.906  70.797  1.00  0.00    -0.387 A  
BRANCH  10  12
HETATM   12  C   UNL     1      -8.416   9.166  70.433  1.00  0.00    -0.199 C  
HETATM   13  O   UNL     1      -7.399   9.500  71.391  1.00  0.00    -0.330 OA 
HETATM   14  H   UNL     1      -6.557   9.586  70.959  1.00  0.00     0.000 HD 
BRANCH  12  15
HETATM   15  C   UNL     1      -8.003   7.874  69.697  1.00  0.00    -0.118 C  
BRANCH  15  16
HETATM   16  N   UNL     1      -9.105   7.360  68.865  1.00  0.00    -0.137 NA 
HETATM   17  H   UNL     1     -10.013   7.501  69.306  1.00  0.00     0.000 HD 
BRANCH  16  18
HETATM   18  C   UNL     1      -9.045   7.953  67.533  1.00  0.00    -0.133 C  
BRANCH  18  19
HETATM   19  C   UNL     1     -10.402   8.537  67.161  1.00  0.00    -0.377 C  
BRANCH  19  20
HETATM   20  C   UNL     1     -10.220   9.800  66.322  1.00  0.00    -0.282 C  
BRANCH  20  21
HETATM   21  C   UNL     1     -10.211  11.037  67.208  1.00  0.00    -0.234 C  
BRANCH  21  22
HETATM   22  C   UNL     1     -11.391  11.951  66.900  1.00  0.00    -0.392 C  
BRANCH  22  23
HETATM   23  C   UNL     1     -11.738  11.886  65.421  1.00  0.00    -0.162 C  
BRANCH  23  24
HETATM   24  O   UNL     1     -12.729  12.868  65.147  1.00  0.00    -0.587 OA 
BRANCH  24  25
HETATM   25  C   UNL     1     -12.385  14.128  65.719  1.00  0.00    -0.461 C  
BRANCH  25  26
HETATM   26  C   UNL     1     -11.563  14.917  64.708  1.00  0.00    -0.410 C  
BRANCH  26  27
HETATM   27  C   UNL     1     -10.510  15.778  65.409  1.00  0.00    -0.438 C  
BRANCH  27  28
HETATM   28  C   UNL     1     -10.709  15.802  66.923  1.00  0.00    -0.299 C  
BRANCH  28  29
HETATM   29  C   UNL     1     -10.434  17.188  67.456  1.00  0.00    -0.348 A  
HETATM   30  C   UNL     1     -10.110  17.378  68.804  1.00  0.00    -0.346 A  
HETATM   31  C   UNL     1      -9.935  18.666  69.311  1.00  0.00    -0.113 A  
HETATM   32  C   UNL     1     -10.085  19.772  68.477  1.00  0.00    -0.555 A  
HETATM   33  C   UNL     1     -10.405  19.592  67.132  1.00  0.00    -0.581 A  
HETATM   34  C   UNL     1     -10.579  18.306  66.622  1.00  0.00    -0.324 A  
ENDBRANCH  28  29
ENDBRANCH  27  28
ENDBRANCH  26  27
ENDBRANCH  25  26
ENDBRANCH  24  25
ENDBRANCH  23  24
ENDBRANCH  22  23
ENDBRANCH  21  22
ENDBRANCH  20  21
ENDBRANCH  19  20
ENDBRANCH  18  19
ENDBRANCH  16  18
ENDBRANCH  15  16
ENDBRANCH  12  15
ENDBRANCH  10  12
ENDBRANCH   2   4
TORSDOF 16
ENDMDL
MODEL       92
REMARK 921   NORMALIZED FREE ENERGY PREDICTED BY IDOCK:   -5.35 KCAL/MOL
REMARK 922        TOTAL FREE ENERGY PREDICTED BY IDOCK:  -12.70 KCAL/MOL
REMARK 923 INTER-LIGAND FREE ENERGY PREDICTED BY IDOCK:  -10.30 KCAL/MOL
REMARK 924 INTRA-LIGAND FREE ENERGY PREDICTED BY IDOCK:   -2.41 KCAL/MOL
REMARK 927      BINDING AFFINITY PREDICTED BY RF-SCORE:    0.00 PKD
ROOT
HETATM    1  O   UNL     1     -10.230  10.486  62.395  1.00  0.00    -0.746 OA 
HETATM    2  C   UNL     1     -10.113  10.915  63.752  1.00  0.00    -0.353 C  
HETATM    3  H   UNL     1      -9.787   9.653  62.275  1.00  0.00     0.000 HD 
ENDROOT
BRANCH   2   4
HETATM    4  C   UNL     1     -10.814  12.235  63.943  1.00  0.00    -0.464 A  
HETATM    5  C   UNL     1     -12.127  12.464  63.517  1.00  0.00    -0.558 A  
HETATM    6  O   UNL     1     -12.840  11.515  62.837  1.00  0.00    -0.901 OA 
HETATM    7  C   UNL     1     -12.761  13.681  63.740  1.00  0.00     0.105 A  
HETATM    8  C   UNL     1     -12.076  14.711  64.380  1.00  0.00    -0.481 A  
HETATM    9  H   UNL     1     -13.732  11.670  62.548  1.00  0.00     0.000 HD 
HETATM   10  C   UNL     1     -10.756  14.525  64.819  1.00  0.00    -0.414 A  
HETATM   11  C   UNL     1     -10.147  13.275  64.615  1.00  0.00    -0.249 A  
BRANCH  10  12
HETATM   12  C   UNL     1      -9.975  15.648  65.477  1.00  0.00    -0.329 C  
HETATM   13  O   UNL     1     -10.596  16.912  65.196  1.00  0.00    -0.679 OA 
HETATM   14  H   UNL     1     -10.107  17.615  65.608  1.00  0.00     0.000 HD 
BRANCH  12  15
HETATM   15  C   UNL     1      -9.875  15.470  67.007  1.00  0.00    -0.232 C  
BRANCH  15  16
HETATM   16  N   UNL     1      -8.545  14.975  67.400  1.00  0.00    -0.180 NA 
HETATM   17  H   UNL     1      -7.961  15.716  67.788  1.00  0.00     0.000 HD 
BRANCH  16  18
HETATM   18  C   UNL     1      -8.680  13.848  68.318  1.00  0.00    -0.183 C  
BRANCH  18  19
HETATM   19  C   UNL     1      -8.109  12.587  67.684  1.00  0.00    -0.171 C  
BRANCH  19  20
HETATM   20  C   UNL     1      -9.213  11.552  67.481  1.00  0.00    -0.166 C  
BRANCH  20  21
HETATM   21  C   UNL     1      -8.737  10.168  67.900  1.00  0.00    -0.122 C  
BRANCH  21  22
HETATM   22  C   UNL     1      -8.563   9.251  66.696  1.00  0.00    -0.135 C  
BRANCH  22  23
HETATM   23  C   UNL     1      -8.892   7.815  67.074  1.00  0.00    -0.127 C  
BRANCH  23  24
HETATM   24  O   UNL     1      -9.936   7.832  68.039  1.00  0.00    -0.161 OA 
BRANCH  24  25
HETATM   25  C   UNL     1     -10.708   6.635  67.993  1.00  0.00    -0.265 C  
BRANCH  25  26
HETATM   26  C   UNL     1     -11.367   6.423  69.350  1.00  0.00    -0.443 C  
BRANCH  26  27
HETATM   27  C   UNL     1     -10.836   7.422  70.380  1.00  0.00    -0.258 C  
BRANCH  27  28
HETATM   28  C   UNL     1     -11.912   7.837  71.381  1.00  0.00    -0.331 C  
BRANCH  28  29
HETATM   29  C   UNL     1     -12.151   9.326  71.291  1.00  0.00    -0.412 A  
HETATM   30  C   UNL     1     -13.129   9.935  72.085  1.00  0.00    -0.497 A  
HETATM   31  C   UNL     1     -13.404  11.296  71.943  1.00  0.00    -0.413 A  
HETATM   32  C   UNL     1     -12.706  12.055  71.006  1.00  0.00    -0.337 A  
HETATM   33  C   UNL     1     -11.727  11.457  70.213  1.00  0.00    -0.397 A  
HETATM   34  C   UNL     1     -11.450  10.097  70.353  1.00  0.00    -0.400 A  
ENDBRANCH  28  29
ENDBRANCH  27  28
ENDBRANCH  26  27
ENDBRANCH  25  26
ENDBRANCH  24  25
ENDBRANCH  23  24
ENDBRANCH  22  23
ENDBRANCH  21  22
ENDBRANCH  20  21
ENDBRANCH  19  20
ENDBRANCH  18  19
ENDBRANCH  16  18
ENDBRANCH  15  16
ENDBRANCH  12  15
ENDBRANCH  10  12
ENDBRANCH   2   4
TORSDOF 16
ENDMDL
MODEL       93
REMARK 921   NORMALIZED FREE ENERGY PREDICTED BY IDOCK:   -5.35 KCAL/MOL
REMARK 922        TOTAL FREE ENERGY PREDICTED BY IDOCK:  -12.69 KCAL/MOL
REMARK 923 INTER-LIGAND FREE ENERGY PREDICTED BY IDOCK:  -10.91 KCAL/MOL
REMARK 924 INTRA-LIGAND FREE ENERGY PREDICTED BY IDOCK:   -1.78 KCAL/MOL
REMARK 927      BINDING AFFINITY PREDICTED BY RF-SCORE:    0.00 PKD
ROOT
HETATM    1  O   UNL     1      -8.424  10.309  69.979  1.00  0.00    -0.366 OA 
HETATM    2  C   UNL     1      -8.080   8.923  70.000  1.00  0.00    -0.116 C  
HETATM    3  H   UNL     1      -7.638  10.842  70.024  1.00  0.00     0.000 HD 
ENDROOT
BRANCH   2   4
HETATM    4  C   UNL     1      -9.324   8.077  69.929  1.00  0.00    -0.156 A  
HETATM    5  C   UNL     1      -9.520   7.097  68.948  1.00  0.00    -0.142 A  
HETATM    6  O   UNL     1      -8.613   6.889  67.946  1.00  0.00    -0.122 OA 
HETATM    7  C   UNL     1     -10.663   6.306  68.931  1.00  0.00    -0.357 A  
HETATM    8  C   UNL     1     -11.653   6.499  69.891  1.00  0.00    -0.433 A  
HETATM    9  H   UNL     1      -8.746   6.225  67.280  1.00  0.00     0.000 HD 
HETATM   10  C   UNL     1     -11.499   7.474  70.890  1.00  0.00    -0.303 A  
HETATM   11  C   UNL     1     -10.319   8.238  70.910  1.00  0.00    -0.225 A  
BRANCH  10  12
HETATM   12  C   UNL     1     -12.585   7.732  71.917  1.00  0.00    -0.311 C  
HETATM   13  O   UNL     1     -11.997   8.032  73.193  1.00  0.00    -0.646 OA 
HETATM   14  H   UNL     1     -12.677   8.194  73.837  1.00  0.00     0.000 HD 
BRANCH  12  15
HETATM   15  C   UNL     1     -13.511   8.897  71.507  1.00  0.00    -0.332 C  
BRANCH  15  16
HETATM   16  N   UNL     1     -13.176  10.128  72.243  1.00  0.00    -0.564 NA 
HETATM   17  H   UNL     1     -12.403   9.986  72.892  1.00  0.00     0.000 HD 
BRANCH  16  18
HETATM   18  C   UNL     1     -12.911  11.215  71.306  1.00  0.00    -0.357 C  
BRANCH  18  19
HETATM   19  C   UNL     1     -12.688  12.517  72.066  1.00  0.00    -0.118 C  
BRANCH  19  20
HETATM   20  C   UNL     1     -14.021  13.221  72.308  1.00  0.00    -0.559 C  
BRANCH  20  21
HETATM   21  C   UNL     1     -13.816  14.720  72.468  1.00  0.00    -0.561 C  
BRANCH  21  22
HETATM   22  C   UNL     1     -12.337  15.071  72.571  1.00  0.00    -0.445 C  
BRANCH  22  23
HETATM   23  C   UNL     1     -11.941  16.026  71.455  1.00  0.00    -0.475 C  
BRANCH  23  24
HETATM   24  O   UNL     1     -12.431  15.507  70.225  1.00  0.00    -0.399 OA 
BRANCH  24  25
HETATM   25  C   UNL     1     -11.467  15.642  69.183  1.00  0.00    -0.359 C  
BRANCH  25  26
HETATM   26  C   UNL     1     -10.764  14.304  68.988  1.00  0.00    -0.259 C  
BRANCH  26  27
HETATM   27  C   UNL     1     -11.705  13.276  68.358  1.00  0.00    -0.389 C  
BRANCH  27  28
HETATM   28  C   UNL     1     -12.370  13.813  67.091  1.00  0.00    -0.244 C  
BRANCH  28  29
HETATM   29  C   UNL     1     -11.865  13.056  65.886  1.00  0.00    -0.468 A  
HETATM   30  C   UNL     1     -12.423  13.282  64.623  1.00  0.00    -0.408 A  
HETATM   31  C   UNL     1     -12.012  12.526  63.525  1.00  0.00    -0.629 A  
HETATM   32  C   UNL     1     -11.043  11.537  63.682  1.00  0.00    -0.469 A  
HETATM   33  C   UNL     1     -10.478  11.307  64.936  1.00  0.00    -0.375 A  
HETATM   34  C   UNL     1     -10.888  12.062  66.035  1.00  0.00    -0.329 A  
ENDBRANCH  28  29
ENDBRANCH  27  28
ENDBRANCH  26  27
ENDBRANCH  25  26
ENDBRANCH  24  25
ENDBRANCH  23  24
ENDBRANCH  22  23
ENDBRANCH  21  22
ENDBRANCH  20  21
ENDBRANCH  19  20
ENDBRANCH  18  19
ENDBRANCH  16  18
ENDBRANCH  15  16
ENDBRANCH  12  15
ENDBRANCH  10  12
ENDBRANCH   2   4
TORSDOF 16
ENDMDL
MODEL       94
REMARK 921   NORMALIZED FREE ENERGY PREDICTED BY IDOCK:   -5.35 KCAL/MOL
REMARK 922        TOTAL FREE ENERGY PREDICTED BY IDOCK:  -12.69 KCAL/MOL
REMARK 923 INTER-LIGAND FREE ENERGY PREDICTED BY IDOCK:  -10.18 KCAL/MOL
REMARK 924 INTRA-LIGAND FREE ENERGY PREDICTED BY IDOCK:   -2.51 KCAL/MOL
REMARK 927      BINDING AFFINITY PREDICTED BY RF-SCORE:    0.00 PKD
ROOT
HETATM    1  O   UNL     1      -8.622  11.608  62.660  1.00  0.00    -0.640 OA 
HETATM    2  C   UNL     1      -9.797  11.081  63.277  1.00  0.00    -0.368 C  
HETATM    3  H   UNL     1      -8.853  12.306  62.058  1.00  0.00     0.000 HD 
ENDROOT
BRANCH   2   4
HETATM    4  C   UNL     1      -9.433   9.973  64.230  1.00  0.00    -0.336 A  
HETATM    5  C   UNL     1      -8.512   8.969  63.909  1.00  0.00    -0.160 A  
HETATM    6  O   UNL     1      -7.930   8.894  62.674  1.00  0.00    -0.130 OA 
HETATM    7  C   UNL     1      -8.168   7.980  64.823  1.00  0.00    -0.124 A  
HETATM    8  C   UNL     1      -8.762   7.964  66.082  1.00  0.00    -0.181 A  
HETATM    9  H   UNL     1      -7.306   8.212  62.455  1.00  0.00     0.000 HD 
HETATM   10  C   UNL     1      -9.694   8.950  66.445  1.00  0.00    -0.332 A  
HETATM   11  C   UNL     1     -10.001   9.962  65.517  1.00  0.00    -0.363 A  
BRANCH  10  12
HETATM   12  C   UNL     1     -10.388   8.926  67.794  1.00  0.00    -0.242 C  
HETATM   13  O   UNL     1      -9.415   8.860  68.849  1.00  0.00    -0.150 OA 
HETATM   14  H   UNL     1      -9.849   8.845  69.694  1.00  0.00     0.000 HD 
BRANCH  12  15
HETATM   15  C   UNL     1     -11.280  10.167  68.014  1.00  0.00    -0.179 C  
BRANCH  15  16
HETATM   16  N   UNL     1     -10.752  11.018  69.092  1.00  0.00    -0.225 NA 
HETATM   17  H   UNL     1      -9.868  10.665  69.460  1.00  0.00     0.000 HD 
BRANCH  16  18
HETATM   18  C   UNL     1     -10.640  12.399  68.632  1.00  0.00    -0.218 C  
BRANCH  18  19
HETATM   19  C   UNL     1     -11.663  12.668  67.536  1.00  0.00    -0.429 C  
BRANCH  19  20
HETATM   20  C   UNL     1     -11.015  13.437  66.387  1.00  0.00    -0.297 C  
BRANCH  20  21
HETATM   21  C   UNL     1     -12.036  14.322  65.688  1.00  0.00    -0.399 C  
BRANCH  21  22
HETATM   22  C   UNL     1     -11.375  15.535  65.045  1.00  0.00    -0.301 C  
BRANCH  22  23
HETATM   23  C   UNL     1      -9.872  15.503  65.277  1.00  0.00    -0.166 C  
BRANCH  23  24
HETATM   24  O   UNL     1      -9.447  16.809  65.644  1.00  0.00    -0.523 OA 
BRANCH  24  25
HETATM   25  C   UNL     1     -10.360  17.419  66.552  1.00  0.00    -0.312 C  
BRANCH  25  26
HETATM   26  C   UNL     1      -9.932  17.087  67.976  1.00  0.00    -0.283 C  
BRANCH  26  27
HETATM   27  C   UNL     1     -11.022  16.303  68.708  1.00  0.00    -0.343 C  
BRANCH  27  28
HETATM   28  C   UNL     1     -10.599  15.925  70.126  1.00  0.00    -0.302 C  
BRANCH  28  29
HETATM   29  C   UNL     1     -11.821  15.722  70.990  1.00  0.00    -0.460 A  
HETATM   30  C   UNL     1     -13.019  15.267  70.428  1.00  0.00    -0.307 A  
HETATM   31  C   UNL     1     -14.168  15.158  71.212  1.00  0.00    -0.527 A  
HETATM   32  C   UNL     1     -14.129  15.505  72.561  1.00  0.00    -0.595 A  
HETATM   33  C   UNL     1     -12.939  15.956  73.131  1.00  0.00    -0.653 A  
HETATM   34  C   UNL     1     -11.788  16.066  72.349  1.00  0.00    -0.639 A  
ENDBRANCH  28  29
ENDBRANCH  27  28
ENDBRANCH  26  27
ENDBRANCH  25  26
ENDBRANCH  24  25
ENDBRANCH  23  24
ENDBRANCH  22  23
ENDBRANCH  21  22
ENDBRANCH  20  21
ENDBRANCH  19  20
ENDBRANCH  18  19
ENDBRANCH  16  18
ENDBRANCH  15  16
ENDBRANCH  12  15
ENDBRANCH  10  12
ENDBRANCH   2   4
TORSDOF 16
ENDMDL
MODEL       95
REMARK 921   NORMALIZED FREE ENERGY PREDICTED BY IDOCK:   -5.34 KCAL/MOL
REMARK 922        TOTAL FREE ENERGY PREDICTED BY IDOCK:  -12.69 KCAL/MOL
REMARK 923 INTER-LIGAND FREE ENERGY PREDICTED BY IDOCK:  -10.87 KCAL/MOL
REMARK 924 INTRA-LIGAND FREE ENERGY PREDICTED BY IDOCK:   -1.82 KCAL/MOL
REMARK 927      BINDING AFFINITY PREDICTED BY RF-SCORE:    0.00 PKD
ROOT
HETATM    1  O   UNL     1     -11.502   4.386  64.889  1.00  0.00    -1.070 OA 
HETATM    2  C   UNL     1     -10.151   4.172  65.299  1.00  0.00    -0.202 C  
HETATM    3  H   UNL     1     -11.583   4.268  63.949  1.00  0.00     0.000 HD 
ENDROOT
BRANCH   2   4
HETATM    4  C   UNL     1     -10.023   4.360  66.787  1.00  0.00    -0.223 A  
HETATM    5  C   UNL     1      -9.462   3.392  67.628  1.00  0.00    -0.181 A  
HETATM    6  O   UNL     1      -9.050   2.177  67.154  1.00  0.00    -0.156 OA 
HETATM    7  C   UNL     1      -9.322   3.610  68.994  1.00  0.00    -0.239 A  
HETATM    8  C   UNL     1      -9.770   4.804  69.554  1.00  0.00    -0.271 A  
HETATM    9  H   UNL     1      -8.670   1.520  67.725  1.00  0.00     0.000 HD 
HETATM   10  C   UNL     1     -10.343   5.800  68.748  1.00  0.00    -0.289 A  
HETATM   11  C   UNL     1     -10.441   5.574  67.363  1.00  0.00    -0.284 A  
BRANCH  10  12
HETATM   12  C   UNL     1     -10.878   7.090  69.342  1.00  0.00    -0.227 C  
HETATM   13  O   UNL     1     -12.060   6.825  70.113  1.00  0.00    -0.631 OA 
HETATM   14  H   UNL     1     -12.395   7.632  70.486  1.00  0.00     0.000 HD 
BRANCH  12  15
HETATM   15  C   UNL     1      -9.839   7.791  70.243  1.00  0.00    -0.184 C  
BRANCH  15  16
HETATM   16  N   UNL     1     -10.217   9.190  70.502  1.00  0.00    -0.216 NA 
HETATM   17  H   UNL     1      -9.754   9.564  71.331  1.00  0.00     0.000 HD 
BRANCH  16  18
HETATM   18  C   UNL     1      -9.962  10.006  69.319  1.00  0.00    -0.213 C  
BRANCH  18  19
HETATM   19  C   UNL     1     -11.242  10.704  68.879  1.00  0.00    -0.333 C  
BRANCH  19  20
HETATM   20  C   UNL     1     -12.251  10.726  70.026  1.00  0.00    -0.409 C  
BRANCH  20  21
HETATM   21  C   UNL     1     -12.298  12.102  70.673  1.00  0.00    -0.385 C  
BRANCH  21  22
HETATM   22  C   UNL     1     -13.234  12.120  71.876  1.00  0.00    -0.474 C  
BRANCH  22  23
HETATM   23  C   UNL     1     -13.501  13.551  72.316  1.00  0.00    -0.571 C  
BRANCH  23  24
HETATM   24  O   UNL     1     -13.523  14.380  71.161  1.00  0.00    -0.358 OA 
BRANCH  24  25
HETATM   25  C   UNL     1     -12.952  15.659  71.427  1.00  0.00    -0.487 C  
BRANCH  25  26
HETATM   26  C   UNL     1     -11.602  15.749  70.727  1.00  0.00    -0.429 C  
BRANCH  26  27
HETATM   27  C   UNL     1     -11.756  15.584  69.214  1.00  0.00    -0.380 C  
BRANCH  27  28
HETATM   28  C   UNL     1     -10.578  14.830  68.600  1.00  0.00    -0.255 C  
BRANCH  28  29
HETATM   29  C   UNL     1     -10.940  14.354  67.213  1.00  0.00    -0.301 A  
HETATM   30  C   UNL     1     -10.016  14.453  66.166  1.00  0.00    -0.328 A  
HETATM   31  C   UNL     1     -10.379  14.088  64.870  1.00  0.00    -0.434 A  
HETATM   32  C   UNL     1     -11.667  13.624  64.609  1.00  0.00    -0.414 A  
HETATM   33  C   UNL     1     -12.593  13.519  65.646  1.00  0.00    -0.512 A  
HETATM   34  C   UNL     1     -12.233  13.882  66.944  1.00  0.00    -0.415 A  
ENDBRANCH  28  29
ENDBRANCH  27  28
ENDBRANCH  26  27
ENDBRANCH  25  26
ENDBRANCH  24  25
ENDBRANCH  23  24
ENDBRANCH  22  23
ENDBRANCH  21  22
ENDBRANCH  20  21
ENDBRANCH  19  20
ENDBRANCH  18  19
ENDBRANCH  16  18
ENDBRANCH  15  16
ENDBRANCH  12  15
ENDBRANCH  10  12
ENDBRANCH   2   4
TORSDOF 16
ENDMDL
MODEL       96
REMARK 921   NORMALIZED FREE ENERGY PREDICTED BY IDOCK:   -5.34 KCAL/MOL
REMARK 922        TOTAL FREE ENERGY PREDICTED BY IDOCK:  -12.69 KCAL/MOL
REMARK 923 INTER-LIGAND FREE ENERGY PREDICTED BY IDOCK:  -10.36 KCAL/MOL
REMARK 924 INTRA-LIGAND FREE ENERGY PREDICTED BY IDOCK:   -2.33 KCAL/MOL
REMARK 927      BINDING AFFINITY PREDICTED BY RF-SCORE:    0.00 PKD
ROOT
HETATM    1  O   UNL     1     -10.078   4.391  74.438  1.00  0.00    -0.162 OA 
HETATM    2  C   UNL     1     -10.728   4.614  73.186  1.00  0.00    -0.239 C  
HETATM    3  H   UNL     1     -10.071   3.463  74.643  1.00  0.00     0.000 HD 
ENDROOT
BRANCH   2   4
HETATM    4  C   UNL     1     -10.741   6.084  72.861  1.00  0.00    -0.277 A  
HETATM    5  C   UNL     1      -9.576   6.860  72.811  1.00  0.00    -0.146 A  
HETATM    6  O   UNL     1      -8.350   6.339  73.121  1.00  0.00    -0.117 OA 
HETATM    7  C   UNL     1      -9.615   8.207  72.472  1.00  0.00    -0.347 A  
HETATM    8  C   UNL     1     -10.836   8.816  72.196  1.00  0.00    -0.400 A  
HETATM    9  H   UNL     1      -7.560   6.865  73.088  1.00  0.00     0.000 HD 
HETATM   10  C   UNL     1     -12.029   8.077  72.238  1.00  0.00    -0.412 A  
HETATM   11  C   UNL     1     -11.963   6.707  72.548  1.00  0.00    -0.089 A  
BRANCH  10  12
HETATM   12  C   UNL     1     -13.375   8.730  71.985  1.00  0.00    -0.413 C  
HETATM   13  O   UNL     1     -14.093   8.877  73.220  1.00  0.00    -1.211 OA 
HETATM   14  H   UNL     1     -14.936   9.286  73.062  1.00  0.00     0.000 HD 
BRANCH  12  15
HETATM   15  C   UNL     1     -13.235  10.117  71.320  1.00  0.00    -0.364 C  
BRANCH  15  16
HETATM   16  N   UNL     1     -13.501  11.198  72.283  1.00  0.00    -0.527 NA 
HETATM   17  H   UNL     1     -13.085  11.009  73.195  1.00  0.00     0.000 HD 
BRANCH  16  18
HETATM   18  C   UNL     1     -13.059  12.477  71.735  1.00  0.00    -0.347 C  
BRANCH  18  19
HETATM   19  C   UNL     1     -13.774  13.622  72.440  1.00  0.00    -0.697 C  
BRANCH  19  20
HETATM   20  C   UNL     1     -12.986  14.919  72.271  1.00  0.00    -0.423 C  
BRANCH  20  21
HETATM   21  C   UNL     1     -12.995  15.368  70.817  1.00  0.00    -0.510 C  
BRANCH  21  22
HETATM   22  C   UNL     1     -11.581  15.601  70.298  1.00  0.00    -0.370 C  
BRANCH  22  23
HETATM   23  C   UNL     1     -11.580  15.659  68.778  1.00  0.00    -0.384 C  
BRANCH  23  24
HETATM   24  O   UNL     1     -12.245  14.504  68.283  1.00  0.00    -0.233 OA 
BRANCH  24  25
HETATM   25  C   UNL     1     -11.317  13.545  67.780  1.00  0.00    -0.296 C  
BRANCH  25  26
HETATM   26  C   UNL     1     -11.678  12.174  68.339  1.00  0.00    -0.388 C  
BRANCH  26  27
HETATM   27  C   UNL     1     -10.428  11.313  68.529  1.00  0.00    -0.218 C  
BRANCH  27  28
HETATM   28  C   UNL     1     -10.073  10.534  67.264  1.00  0.00    -0.242 C  
BRANCH  28  29
HETATM   29  C   UNL     1     -10.174   9.051  67.529  1.00  0.00    -0.302 A  
HETATM   30  C   UNL     1     -10.010   8.132  66.486  1.00  0.00    -0.302 A  
HETATM   31  C   UNL     1     -10.183   6.768  66.715  1.00  0.00    -0.273 A  
HETATM   32  C   UNL     1     -10.524   6.311  67.987  1.00  0.00    -0.278 A  
HETATM   33  C   UNL     1     -10.686   7.218  69.033  1.00  0.00    -0.183 A  
HETATM   34  C   UNL     1     -10.513   8.583  68.806  1.00  0.00    -0.208 A  
ENDBRANCH  28  29
ENDBRANCH  27  28
ENDBRANCH  26  27
ENDBRANCH  25  26
ENDBRANCH  24  25
ENDBRANCH  23  24
ENDBRANCH  22  23
ENDBRANCH  21  22
ENDBRANCH  20  21
ENDBRANCH  19  20
ENDBRANCH  18  19
ENDBRANCH  16  18
ENDBRANCH  15  16
ENDBRANCH  12  15
ENDBRANCH  10  12
ENDBRANCH   2   4
TORSDOF 16
ENDMDL
MODEL       97
REMARK 921   NORMALIZED FREE ENERGY PREDICTED BY IDOCK:   -5.34 KCAL/MOL
REMARK 922        TOTAL FREE ENERGY PREDICTED BY IDOCK:  -12.69 KCAL/MOL
REMARK 923 INTER-LIGAND FREE ENERGY PREDICTED BY IDOCK:   -9.60 KCAL/MOL
REMARK 924 INTRA-LIGAND FREE ENERGY PREDICTED BY IDOCK:   -3.09 KCAL/MOL
REMARK 927      BINDING AFFINITY PREDICTED BY RF-SCORE:    0.00 PKD
ROOT
HETATM    1  O   UNL     1      -8.044  11.189  69.534  1.00  0.00    -0.369 OA 
HETATM    2  C   UNL     1      -7.650  10.032  68.794  1.00  0.00    -0.083 C  
HETATM    3  H   UNL     1      -7.327  11.813  69.574  1.00  0.00     0.000 HD 
ENDROOT
BRANCH   2   4
HETATM    4  C   UNL     1      -8.785   9.044  68.731  1.00  0.00    -0.136 A  
HETATM    5  C   UNL     1      -9.291   8.547  67.524  1.00  0.00    -0.144 A  
HETATM    6  O   UNL     1      -8.825   8.982  66.314  1.00  0.00    -0.136 OA 
HETATM    7  C   UNL     1     -10.315   7.607  67.499  1.00  0.00    -0.326 A  
HETATM    8  C   UNL     1     -10.873   7.160  68.693  1.00  0.00    -0.149 A  
HETATM    9  H   UNL     1      -9.169   8.646  65.495  1.00  0.00     0.000 HD 
HETATM   10  C   UNL     1     -10.399   7.635  69.926  1.00  0.00    -0.225 A  
HETATM   11  C   UNL     1      -9.338   8.558  69.930  1.00  0.00    -0.159 A  
BRANCH  10  12
HETATM   12  C   UNL     1     -11.023   7.195  71.237  1.00  0.00    -0.240 C  
HETATM   13  O   UNL     1     -10.002   6.760  72.149  1.00  0.00    -0.165 OA 
HETATM   14  H   UNL     1     -10.393   6.485  72.971  1.00  0.00     0.000 HD 
BRANCH  12  15
HETATM   15  C   UNL     1     -11.839   8.324  71.902  1.00  0.00    -0.324 C  
BRANCH  15  16
HETATM   16  N   UNL     1     -12.598   9.093  70.902  1.00  0.00    -0.498 NA 
HETATM   17  H   UNL     1     -13.515   8.684  70.722  1.00  0.00     0.000 HD 
BRANCH  16  18
HETATM   18  C   UNL     1     -12.693  10.491  71.311  1.00  0.00    -0.428 C  
BRANCH  18  19
HETATM   19  C   UNL     1     -11.808  11.356  70.423  1.00  0.00    -0.428 C  
BRANCH  19  20
HETATM   20  C   UNL     1     -12.001  10.977  68.956  1.00  0.00    -0.364 C  
BRANCH  20  21
HETATM   21  C   UNL     1     -11.103  11.818  68.061  1.00  0.00    -0.297 C  
BRANCH  21  22
HETATM   22  C   UNL     1     -11.265  11.437  66.594  1.00  0.00    -0.298 C  
BRANCH  22  23
HETATM   23  C   UNL     1     -11.364  12.686  65.732  1.00  0.00    -0.333 C  
BRANCH  23  24
HETATM   24  O   UNL     1     -11.555  13.807  66.585  1.00  0.00    -0.336 OA 
BRANCH  24  25
HETATM   25  C   UNL     1     -10.680  14.879  66.241  1.00  0.00    -0.320 C  
BRANCH  25  26
HETATM   26  C   UNL     1     -10.203  15.553  67.521  1.00  0.00    -0.254 C  
BRANCH  26  27
HETATM   27  C   UNL     1     -11.303  15.553  68.583  1.00  0.00    -0.348 C  
BRANCH  27  28
HETATM   28  C   UNL     1     -10.807  15.003  69.919  1.00  0.00    -0.266 C  
BRANCH  28  29
HETATM   29  C   UNL     1     -11.889  15.137  70.964  1.00  0.00    -0.382 A  
HETATM   30  C   UNL     1     -11.556  15.268  72.317  1.00  0.00    -0.530 A  
HETATM   31  C   UNL     1     -12.556  15.310  73.288  1.00  0.00    -0.617 A  
HETATM   32  C   UNL     1     -13.896  15.219  72.915  1.00  0.00    -0.459 A  
HETATM   33  C   UNL     1     -14.238  15.092  71.569  1.00  0.00    -0.647 A  
HETATM   34  C   UNL     1     -13.239  15.050  70.596  1.00  0.00    -0.339 A  
ENDBRANCH  28  29
ENDBRANCH  27  28
ENDBRANCH  26  27
ENDBRANCH  25  26
ENDBRANCH  24  25
ENDBRANCH  23  24
ENDBRANCH  22  23
ENDBRANCH  21  22
ENDBRANCH  20  21
ENDBRANCH  19  20
ENDBRANCH  18  19
ENDBRANCH  16  18
ENDBRANCH  15  16
ENDBRANCH  12  15
ENDBRANCH  10  12
ENDBRANCH   2   4
TORSDOF 16
ENDMDL
MODEL       98
REMARK 921   NORMALIZED FREE ENERGY PREDICTED BY IDOCK:   -5.34 KCAL/MOL
REMARK 922        TOTAL FREE ENERGY PREDICTED BY IDOCK:  -12.68 KCAL/MOL
REMARK 923 INTER-LIGAND FREE ENERGY PREDICTED BY IDOCK:  -11.02 KCAL/MOL
REMARK 924 INTRA-LIGAND FREE ENERGY PREDICTED BY IDOCK:   -1.66 KCAL/MOL
REMARK 927      BINDING AFFINITY PREDICTED BY RF-SCORE:    0.00 PKD
ROOT
HETATM    1  O   UNL     1      -7.467  10.582  64.450  1.00  0.00    -0.322 OA 
HETATM    2  C   UNL     1      -8.616   9.851  64.879  1.00  0.00    -0.169 C  
HETATM    3  H   UNL     1      -6.709  10.010  64.412  1.00  0.00     0.000 HD 
ENDROOT
BRANCH   2   4
HETATM    4  C   UNL     1      -9.817  10.757  64.940  1.00  0.00    -0.350 A  
HETATM    5  C   UNL     1     -10.533  11.144  63.801  1.00  0.00    -0.381 A  
HETATM    6  O   UNL     1     -10.143  10.772  62.544  1.00  0.00    -0.707 OA 
HETATM    7  C   UNL     1     -11.660  11.952  63.892  1.00  0.00    -0.515 A  
HETATM    8  C   UNL     1     -12.083  12.413  65.136  1.00  0.00    -0.464 A  
HETATM    9  H   UNL     1     -10.629  11.035  61.771  1.00  0.00     0.000 HD 
HETATM   10  C   UNL     1     -11.392  12.052  66.304  1.00  0.00    -0.415 A  
HETATM   11  C   UNL     1     -10.275  11.205  66.192  1.00  0.00    -0.293 A  
BRANCH  10  12
HETATM   12  C   UNL     1     -11.808  12.579  67.665  1.00  0.00    -0.317 C  
HETATM   13  O   UNL     1     -12.060  11.486  68.562  1.00  0.00    -0.522 OA 
HETATM   14  H   UNL     1     -12.320  11.816  69.414  1.00  0.00     0.000 HD 
BRANCH  12  15
HETATM   15  C   UNL     1     -10.736  13.499  68.286  1.00  0.00    -0.258 C  
BRANCH  15  16
HETATM   16  N   UNL     1     -10.767  14.840  67.678  1.00  0.00    -0.266 NA 
HETATM   17  H   UNL     1     -11.370  14.872  66.856  1.00  0.00     0.000 HD 
BRANCH  16  18
HETATM   18  C   UNL     1     -11.148  15.834  68.676  1.00  0.00    -0.327 C  
BRANCH  18  19
HETATM   19  C   UNL     1     -10.844  15.314  70.075  1.00  0.00    -0.303 C  
BRANCH  19  20
HETATM   20  C   UNL     1     -11.724  16.020  71.103  1.00  0.00    -0.487 C  
BRANCH  20  21
HETATM   21  C   UNL     1     -12.460  15.007  71.967  1.00  0.00    -0.409 C  
BRANCH  21  22
HETATM   22  C   UNL     1     -12.955  13.826  71.141  1.00  0.00    -0.370 C  
BRANCH  22  23
HETATM   23  C   UNL     1     -13.041  12.576  72.004  1.00  0.00    -0.366 C  
BRANCH  23  24
HETATM   24  O   UNL     1     -13.261  11.457  71.154  1.00  0.00    -0.204 OA 
BRANCH  24  25
HETATM   25  C   UNL     1     -13.143  10.229  71.868  1.00  0.00    -0.463 C  
BRANCH  25  26
HETATM   26  C   UNL     1     -11.953   9.454  71.316  1.00  0.00    -0.430 C  
BRANCH  26  27
HETATM   27  C   UNL     1     -11.522   8.349  72.282  1.00  0.00    -0.454 C  
BRANCH  27  28
HETATM   28  C   UNL     1     -12.136   6.999  71.916  1.00  0.00    -0.358 C  
BRANCH  28  29
HETATM   29  C   UNL     1     -11.144   6.181  71.123  1.00  0.00    -0.360 A  
HETATM   30  C   UNL     1     -11.128   6.248  69.726  1.00  0.00    -0.473 A  
HETATM   31  C   UNL     1     -10.266   5.432  68.992  1.00  0.00    -0.291 A  
HETATM   32  C   UNL     1      -9.417   4.544  69.648  1.00  0.00    -0.244 A  
HETATM   33  C   UNL     1      -9.424   4.473  71.041  1.00  0.00    -0.229 A  
HETATM   34  C   UNL     1     -10.284   5.288  71.777  1.00  0.00    -0.269 A  
ENDBRANCH  28  29
ENDBRANCH  27  28
ENDBRANCH  26  27
ENDBRANCH  25  26
ENDBRANCH  24  25
ENDBRANCH  23  24
ENDBRANCH  22  23
ENDBRANCH  21  22
ENDBRANCH  20  21
ENDBRANCH  19  20
ENDBRANCH  18  19
ENDBRANCH  16  18
ENDBRANCH  15  16
ENDBRANCH  12  15
ENDBRANCH  10  12
ENDBRANCH   2   4
TORSDOF 16
ENDMDL
MODEL       99
REMARK 921   NORMALIZED FREE ENERGY PREDICTED BY IDOCK:   -5.34 KCAL/MOL
REMARK 922        TOTAL FREE ENERGY PREDICTED BY IDOCK:  -12.68 KCAL/MOL
REMARK 923 INTER-LIGAND FREE ENERGY PREDICTED BY IDOCK:  -10.57 KCAL/MOL
REMARK 924 INTRA-LIGAND FREE ENERGY PREDICTED BY IDOCK:   -2.11 KCAL/MOL
REMARK 927      BINDING AFFINITY PREDICTED BY RF-SCORE:    0.00 PKD
ROOT
HETATM    1  O   UNL     1      -9.744  17.245  67.013  1.00  0.00    -0.251 OA 
HETATM    2  C   UNL     1      -9.480  16.656  65.739  1.00  0.00    -0.069 C  
HETATM    3  H   UNL     1      -9.185  18.002  67.147  1.00  0.00     0.000 HD 
ENDROOT
BRANCH   2   4
HETATM    4  C   UNL     1     -10.365  15.456  65.527  1.00  0.00    -0.412 A  
HETATM    5  C   UNL     1     -11.342  15.402  64.526  1.00  0.00    -0.313 A  
HETATM    6  O   UNL     1     -11.600  16.470  63.712  1.00  0.00    -1.617 OA 
HETATM    7  C   UNL     1     -12.118  14.266  64.330  1.00  0.00    -0.467 A  
HETATM    8  C   UNL     1     -11.946  13.159  65.157  1.00  0.00    -0.431 A  
HETATM    9  H   UNL     1     -12.263  16.434  63.033  1.00  0.00     0.000 HD 
HETATM   10  C   UNL     1     -10.980  13.172  66.176  1.00  0.00    -0.299 A  
HETATM   11  C   UNL     1     -10.181  14.318  66.333  1.00  0.00    -0.295 A  
BRANCH  10  12
HETATM   12  C   UNL     1     -10.806  11.995  67.118  1.00  0.00    -0.253 C  
HETATM   13  O   UNL     1     -12.089  11.505  67.538  1.00  0.00    -0.614 OA 
HETATM   14  H   UNL     1     -11.981  10.767  68.127  1.00  0.00     0.000 HD 
BRANCH  12  15
HETATM   15  C   UNL     1     -10.018  10.838  66.467  1.00  0.00    -0.213 C  
BRANCH  15  16
HETATM   16  N   UNL     1      -8.765  10.573  67.193  1.00  0.00    -0.130 NA 
HETATM   17  H   UNL     1      -8.635  11.212  67.977  1.00  0.00     0.000 HD 
BRANCH  16  18
HETATM   18  C   UNL     1      -8.715   9.176  67.612  1.00  0.00    -0.120 C  
BRANCH  18  19
HETATM   19  C   UNL     1     -10.006   8.468  67.223  1.00  0.00    -0.289 C  
BRANCH  19  20
HETATM   20  C   UNL     1      -9.853   6.959  67.400  1.00  0.00    -0.184 C  
BRANCH  20  21
HETATM   21  C   UNL     1     -11.027   6.387  68.182  1.00  0.00    -0.393 C  
BRANCH  21  22
HETATM   22  C   UNL     1     -10.555   5.604  69.401  1.00  0.00    -0.374 C  
BRANCH  22  23
HETATM   23  C   UNL     1      -9.056   5.781  69.595  1.00  0.00    -0.135 C  
BRANCH  23  24
HETATM   24  O   UNL     1      -8.726   5.392  70.923  1.00  0.00    -0.129 OA 
BRANCH  24  25
HETATM   25  C   UNL     1      -9.873   4.927  71.630  1.00  0.00    -0.184 C  
BRANCH  25  26
HETATM   26  C   UNL     1      -9.797   5.422  73.069  1.00  0.00    -0.181 C  
BRANCH  26  27
HETATM   27  C   UNL     1     -10.456   6.795  73.211  1.00  0.00    -0.321 C  
BRANCH  27  28
HETATM   28  C   UNL     1     -11.726   6.909  72.371  1.00  0.00    -0.253 C  
BRANCH  28  29
HETATM   29  C   UNL     1     -11.903   8.332  71.897  1.00  0.00    -0.380 A  
HETATM   30  C   UNL     1     -13.073   9.039  72.197  1.00  0.00    -0.496 A  
HETATM   31  C   UNL     1     -13.269  10.324  71.691  1.00  0.00    -0.509 A  
HETATM   32  C   UNL     1     -12.300  10.910  70.880  1.00  0.00    -0.501 A  
HETATM   33  C   UNL     1     -11.129  10.216  70.579  1.00  0.00    -0.400 A  
HETATM   34  C   UNL     1     -10.930   8.931  71.084  1.00  0.00    -0.356 A  
ENDBRANCH  28  29
ENDBRANCH  27  28
ENDBRANCH  26  27
ENDBRANCH  25  26
ENDBRANCH  24  25
ENDBRANCH  23  24
ENDBRANCH  22  23
ENDBRANCH  21  22
ENDBRANCH  20  21
ENDBRANCH  19  20
ENDBRANCH  18  19
ENDBRANCH  16  18
ENDBRANCH  15  16
ENDBRANCH  12  15
ENDBRANCH  10  12
ENDBRANCH   2   4
TORSDOF 16
ENDMDL
MODEL      100
REMARK 921   NORMALIZED FREE ENERGY PREDICTED BY IDOCK:   -5.34 KCAL/MOL
REMARK 922        TOTAL FREE ENERGY PREDICTED BY IDOCK:  -12.67 KCAL/MOL
REMARK 923 INTER-LIGAND FREE ENERGY PREDICTED BY IDOCK:   -9.89 KCAL/MOL
REMARK 924 INTRA-LIGAND FREE ENERGY PREDICTED BY IDOCK:   -2.78 KCAL/MOL
REMARK 927      BINDING AFFINITY PREDICTED BY RF-SCORE:    0.00 PKD
ROOT
HETATM    1  O   UNL     1     -12.491  15.855  68.970  1.00  0.00    -0.486 OA 
HETATM    2  C   UNL     1     -12.047  14.616  69.525  1.00  0.00    -0.295 C  
HETATM    3  H   UNL     1     -12.652  16.486  69.662  1.00  0.00     0.000 HD 
ENDROOT
BRANCH   2   4
HETATM    4  C   UNL     1     -11.793  13.615  68.429  1.00  0.00    -0.407 A  
HETATM    5  C   UNL     1     -11.458  12.280  68.684  1.00  0.00    -0.307 A  
HETATM    6  O   UNL     1     -11.277  11.813  69.956  1.00  0.00    -0.489 OA 
HETATM    7  C   UNL     1     -11.265  11.370  67.651  1.00  0.00    -0.346 A  
HETATM    8  C   UNL     1     -11.381  11.790  66.328  1.00  0.00    -0.350 A  
HETATM    9  H   UNL     1     -11.049  10.907  70.129  1.00  0.00     0.000 HD 
HETATM   10  C   UNL     1     -11.711  13.121  66.027  1.00  0.00    -0.424 A  
HETATM   11  C   UNL     1     -11.937  14.016  67.088  1.00  0.00    -0.465 A  
BRANCH  10  12
HETATM   12  C   UNL     1     -11.798  13.611  64.594  1.00  0.00    -0.397 C  
HETATM   13  O   UNL     1     -12.686  12.773  63.838  1.00  0.00    -0.676 OA 
HETATM   14  H   UNL     1     -12.741  13.079  62.940  1.00  0.00     0.000 HD 
BRANCH  12  15
HETATM   15  C   UNL     1     -12.292  15.071  64.505  1.00  0.00    -0.262 C  
BRANCH  15  16
HETATM   16  N   UNL     1     -11.191  15.986  64.164  1.00  0.00    -1.115 NA 
HETATM   17  H   UNL     1     -11.382  16.512  63.311  1.00  0.00     0.000 HD 
BRANCH  16  18
HETATM   18  C   UNL     1     -10.900  16.863  65.294  1.00  0.00    -0.104 C  
BRANCH  18  19
HETATM   19  C   UNL     1      -9.540  16.517  65.887  1.00  0.00    -0.284 C  
BRANCH  19  20
HETATM   20  C   UNL     1      -9.532  16.798  67.388  1.00  0.00    -0.236 C  
BRANCH  20  21
HETATM   21  C   UNL     1      -8.708  15.754  68.126  1.00  0.00    -0.173 C  
BRANCH  21  22
HETATM   22  C   UNL     1      -8.325  14.598  67.210  1.00  0.00    -0.234 C  
BRANCH  22  23
HETATM   23  C   UNL     1      -6.966  14.039  67.605  1.00  0.00    -0.183 C  
BRANCH  23  24
HETATM   24  O   UNL     1      -7.011  12.623  67.486  1.00  0.00    -0.126 OA 
BRANCH  24  25
HETATM   25  C   UNL     1      -7.706  12.029  68.580  1.00  0.00    -0.127 C  
BRANCH  25  26
HETATM   26  C   UNL     1      -7.767  10.522  68.363  1.00  0.00    -0.104 C  
BRANCH  26  27
HETATM   27  C   UNL     1      -8.412   9.822  69.560  1.00  0.00    -0.176 C  
BRANCH  27  28
HETATM   28  C   UNL     1      -9.061   8.497  69.164  1.00  0.00    -0.146 C  
BRANCH  28  29
HETATM   29  C   UNL     1     -10.051   8.072  70.223  1.00  0.00    -0.192 A  
HETATM   30  C   UNL     1     -10.149   8.781  71.426  1.00  0.00    -0.354 A  
HETATM   31  C   UNL     1     -11.006   8.340  72.434  1.00  0.00    -0.438 A  
HETATM   32  C   UNL     1     -11.767   7.188  72.250  1.00  0.00    -0.296 A  
HETATM   33  C   UNL     1     -11.679   6.477  71.054  1.00  0.00    -0.402 A  
HETATM   34  C   UNL     1     -10.823   6.916  70.043  1.00  0.00    -0.299 A  
ENDBRANCH  28  29
ENDBRANCH  27  28
ENDBRANCH  26  27
ENDBRANCH  25  26
ENDBRANCH  24  25
ENDBRANCH  23  24
ENDBRANCH  22  23
ENDBRANCH  21  22
ENDBRANCH  20  21
ENDBRANCH  19  20
ENDBRANCH  18  19
ENDBRANCH  16  18
ENDBRANCH  15  16
ENDBRANCH  12  15
ENDBRANCH  10  12
ENDBRANCH   2   4
TORSDOF 16
ENDMDL
MODEL      101
REMARK 921   NORMALIZED FREE ENERGY PREDICTED BY IDOCK:   -5.33 KCAL/MOL
REMARK 922        TOTAL FREE ENERGY PREDICTED BY IDOCK:  -12.66 KCAL/MOL
REMARK 923 INTER-LIGAND FREE ENERGY PREDICTED BY IDOCK:   -9.39 KCAL/MOL
REMARK 924 INTRA-LIGAND FREE ENERGY PREDICTED BY IDOCK:   -3.27 KCAL/MOL
REMARK 927      BINDING AFFINITY PREDICTED BY RF-SCORE:    0.00 PKD
ROOT
HETATM    1  O   UNL     1     -11.710  16.083  71.860  1.00  0.00    -0.452 OA 
HETATM    2  C   UNL     1     -12.508  15.548  70.802  1.00  0.00    -0.440 C  
HETATM    3  H   UNL     1     -11.726  17.032  71.834  1.00  0.00     0.000 HD 
ENDROOT
BRANCH   2   4
HETATM    4  C   UNL     1     -12.483  14.042  70.842  1.00  0.00    -0.439 A  
HETATM    5  C   UNL     1     -13.091  13.300  71.860  1.00  0.00    -0.388 A  
HETATM    6  O   UNL     1     -13.697  13.903  72.928  1.00  0.00    -0.680 OA 
HETATM    7  C   UNL     1     -13.084  11.910  71.850  1.00  0.00    -0.474 A  
HETATM    8  C   UNL     1     -12.438  11.230  70.820  1.00  0.00    -0.471 A  
HETATM    9  H   UNL     1     -14.110  13.400  73.620  1.00  0.00     0.000 HD 
HETATM   10  C   UNL     1     -11.811  11.935  69.781  1.00  0.00    -0.411 A  
HETATM   11  C   UNL     1     -11.862  13.340  69.792  1.00  0.00    -0.394 A  
BRANCH  10  12
HETATM   12  C   UNL     1     -11.064  11.215  68.674  1.00  0.00    -0.239 C  
HETATM   13  O   UNL     1     -11.885  11.127  67.499  1.00  0.00    -0.591 OA 
HETATM   14  H   UNL     1     -11.417  10.676  66.806  1.00  0.00     0.000 HD 
BRANCH  12  15
HETATM   15  C   UNL     1      -9.741  11.921  68.308  1.00  0.00    -0.200 C  
BRANCH  15  16
HETATM   16  N   UNL     1      -8.595  11.288  68.980  1.00  0.00    -0.366 NA 
HETATM   17  H   UNL     1      -8.662  11.357  69.995  1.00  0.00     0.000 HD 
BRANCH  16  18
HETATM   18  C   UNL     1      -8.454   9.905  68.534  1.00  0.00    -0.112 C  
BRANCH  18  19
HETATM   19  C   UNL     1      -7.752   9.080  69.605  1.00  0.00    -0.075 C  
BRANCH  19  20
HETATM   20  C   UNL     1      -8.466   9.238  70.945  1.00  0.00    -0.203 C  
BRANCH  20  21
HETATM   21  C   UNL     1      -9.803   8.512  70.930  1.00  0.00    -0.234 C  
BRANCH  21  22
HETATM   22  C   UNL     1     -10.410   8.432  72.326  1.00  0.00    -0.403 C  
BRANCH  22  23
HETATM   23  C   UNL     1     -11.800   7.819  72.264  1.00  0.00    -0.329 C  
BRANCH  23  24
HETATM   24  O   UNL     1     -11.668   6.436  71.961  1.00  0.00    -0.304 OA 
BRANCH  24  25
HETATM   25  C   UNL     1     -11.093   5.717  73.050  1.00  0.00    -0.282 C  
BRANCH  25  26
HETATM   26  C   UNL     1      -9.941   4.869  72.524  1.00  0.00    -0.221 C  
BRANCH  26  27
HETATM   27  C   UNL     1     -10.135   4.538  71.044  1.00  0.00    -0.222 C  
BRANCH  27  28
HETATM   28  C   UNL     1      -8.878   4.825  70.225  1.00  0.00    -0.137 C  
BRANCH  28  29
HETATM   29  C   UNL     1      -9.248   5.550  68.952  1.00  0.00    -0.141 A  
HETATM   30  C   UNL     1      -8.256   5.948  68.049  1.00  0.00    -0.105 A  
HETATM   31  C   UNL     1      -8.592   6.687  66.915  1.00  0.00    -0.115 A  
HETATM   32  C   UNL     1      -9.919   7.037  66.677  1.00  0.00    -0.224 A  
HETATM   33  C   UNL     1     -10.915   6.643  67.569  1.00  0.00    -0.416 A  
HETATM   34  C   UNL     1     -10.582   5.903  68.704  1.00  0.00    -0.323 A  
ENDBRANCH  28  29
ENDBRANCH  27  28
ENDBRANCH  26  27
ENDBRANCH  25  26
ENDBRANCH  24  25
ENDBRANCH  23  24
ENDBRANCH  22  23
ENDBRANCH  21  22
ENDBRANCH  20  21
ENDBRANCH  19  20
ENDBRANCH  18  19
ENDBRANCH  16  18
ENDBRANCH  15  16
ENDBRANCH  12  15
ENDBRANCH  10  12
ENDBRANCH   2   4
TORSDOF 16
ENDMDL
MODEL      102
REMARK 921   NORMALIZED FREE ENERGY PREDICTED BY IDOCK:   -5.32 KCAL/MOL
REMARK 922        TOTAL FREE ENERGY PREDICTED BY IDOCK:  -12.65 KCAL/MOL
REMARK 923 INTER-LIGAND FREE ENERGY PREDICTED BY IDOCK:   -9.69 KCAL/MOL
REMARK 924 INTRA-LIGAND FREE ENERGY PREDICTED BY IDOCK:   -2.95 KCAL/MOL
REMARK 927      BINDING AFFINITY PREDICTED BY RF-SCORE:    0.00 PKD
ROOT
HETATM    1  O   UNL     1      -8.149   9.272  67.629  1.00  0.00    -0.103 OA 
HETATM    2  C   UNL     1      -9.442   9.197  67.027  1.00  0.00    -0.154 C  
HETATM    3  H   UNL     1      -8.205   9.065  68.555  1.00  0.00     0.000 HD 
ENDROOT
BRANCH   2   4
HETATM    4  C   UNL     1      -9.353   9.525  65.560  1.00  0.00    -0.317 A  
HETATM    5  C   UNL     1      -8.483   8.861  64.686  1.00  0.00    -0.168 A  
HETATM    6  O   UNL     1      -7.606   7.910  65.128  1.00  0.00    -0.081 OA 
HETATM    7  C   UNL     1      -8.450   9.160  63.329  1.00  0.00    -0.197 A  
HETATM    8  C   UNL     1      -9.279  10.157  62.820  1.00  0.00    -0.322 A  
HETATM    9  H   UNL     1      -7.015   7.459  64.535  1.00  0.00     0.000 HD 
HETATM   10  C   UNL     1     -10.163  10.850  63.661  1.00  0.00    -0.395 A  
HETATM   11  C   UNL     1     -10.206  10.507  65.024  1.00  0.00    -0.365 A  
BRANCH  10  12
HETATM   12  C   UNL     1     -11.042  11.970  63.136  1.00  0.00    -0.184 C  
HETATM   13  O   UNL     1     -12.363  11.477  62.867  1.00  0.00    -0.958 OA 
HETATM   14  H   UNL     1     -12.914  12.178  62.539  1.00  0.00     0.000 HD 
BRANCH  12  15
HETATM   15  C   UNL     1     -11.140  13.149  64.128  1.00  0.00    -0.394 C  
BRANCH  15  16
HETATM   16  N   UNL     1     -12.541  13.432  64.481  1.00  0.00    -0.643 NA 
HETATM   17  H   UNL     1     -13.127  12.600  64.417  1.00  0.00     0.000 HD 
BRANCH  16  18
HETATM   18  C   UNL     1     -12.609  14.048  65.803  1.00  0.00    -0.479 C  
BRANCH  18  19
HETATM   19  C   UNL     1     -11.481  13.525  66.682  1.00  0.00    -0.366 C  
BRANCH  19  20
HETATM   20  C   UNL     1     -11.951  12.307  67.474  1.00  0.00    -0.210 C  
BRANCH  20  21
HETATM   21  C   UNL     1     -11.136  12.147  68.749  1.00  0.00    -0.297 C  
BRANCH  21  22
HETATM   22  C   UNL     1     -11.596  10.939  69.556  1.00  0.00    -0.384 C  
BRANCH  22  23
HETATM   23  C   UNL     1     -12.163  11.384  70.896  1.00  0.00    -0.344 C  
BRANCH  23  24
HETATM   24  O   UNL     1     -12.780  12.653  70.724  1.00  0.00    -0.242 OA 
BRANCH  24  25
HETATM   25  C   UNL     1     -12.896  13.349  71.963  1.00  0.00    -0.227 C  
BRANCH  25  26
HETATM   26  C   UNL     1     -13.508  14.719  71.701  1.00  0.00    -0.468 C  
BRANCH  26  27
HETATM   27  C   UNL     1     -12.745  15.460  70.603  1.00  0.00    -0.490 C  
BRANCH  27  28
HETATM   28  C   UNL     1     -11.247  15.529  70.894  1.00  0.00    -0.409 C  
BRANCH  28  29
HETATM   29  C   UNL     1     -10.490  15.842  69.625  1.00  0.00    -0.295 A  
HETATM   30  C   UNL     1     -11.069  16.642  68.634  1.00  0.00    -0.294 A  
HETATM   31  C   UNL     1     -10.402  16.864  67.430  1.00  0.00    -0.309 A  
HETATM   32  C   UNL     1      -9.154  16.287  67.206  1.00  0.00    -0.214 A  
HETATM   33  C   UNL     1      -8.567  15.492  68.189  1.00  0.00    -0.152 A  
HETATM   34  C   UNL     1      -9.232  15.268  69.395  1.00  0.00    -0.233 A  
ENDBRANCH  28  29
ENDBRANCH  27  28
ENDBRANCH  26  27
ENDBRANCH  25  26
ENDBRANCH  24  25
ENDBRANCH  23  24
ENDBRANCH  22  23
ENDBRANCH  21  22
ENDBRANCH  20  21
ENDBRANCH  19  20
ENDBRANCH  18  19
ENDBRANCH  16  18
ENDBRANCH  15  16
ENDBRANCH  12  15
ENDBRANCH  10  12
ENDBRANCH   2   4
TORSDOF 16
ENDMDL
MODEL      103
REMARK 921   NORMALIZED FREE ENERGY PREDICTED BY IDOCK:   -5.31 KCAL/MOL
REMARK 922        TOTAL FREE ENERGY PREDICTED BY IDOCK:  -12.62 KCAL/MOL
REMARK 923 INTER-LIGAND FREE ENERGY PREDICTED BY IDOCK:   -9.42 KCAL/MOL
REMARK 924 INTRA-LIGAND FREE ENERGY PREDICTED BY IDOCK:   -3.20 KCAL/MOL
REMARK 927      BINDING AFFINITY PREDICTED BY RF-SCORE:    0.00 PKD
ROOT
HETATM    1  O   UNL     1     -11.377   5.710  66.025  1.00  0.00    -0.712 OA 
HETATM    2  C   UNL     1     -10.975   6.240  67.289  1.00  0.00    -0.366 C  
HETATM    3  H   UNL     1     -12.018   5.019  66.147  1.00  0.00     0.000 HD 
ENDROOT
BRANCH   2   4
HETATM    4  C   UNL     1      -9.959   7.335  67.095  1.00  0.00    -0.279 A  
HETATM    5  C   UNL     1      -9.062   7.355  66.021  1.00  0.00    -0.085 A  
HETATM    6  O   UNL     1      -9.009   6.339  65.107  1.00  0.00    -0.367 OA 
HETATM    7  C   UNL     1      -8.160   8.399  65.848  1.00  0.00    -0.110 A  
HETATM    8  C   UNL     1      -8.122   9.441  66.771  1.00  0.00    -0.109 A  
HETATM    9  H   UNL     1      -8.400   6.353  64.378  1.00  0.00     0.000 HD 
HETATM   10  C   UNL     1      -9.001   9.458  67.866  1.00  0.00    -0.126 A  
HETATM   11  C   UNL     1      -9.929   8.411  68.001  1.00  0.00    -0.221 A  
BRANCH  10  12
HETATM   12  C   UNL     1      -8.947  10.559  68.908  1.00  0.00    -0.172 C  
HETATM   13  O   UNL     1      -9.045   9.998  70.226  1.00  0.00    -0.365 OA 
HETATM   14  H   UNL     1      -9.011  10.687  70.879  1.00  0.00     0.000 HD 
BRANCH  12  15
HETATM   15  C   UNL     1      -7.648  11.388  68.813  1.00  0.00    -0.132 C  
BRANCH  15  16
HETATM   16  N   UNL     1      -7.940  12.829  68.736  1.00  0.00    -0.326 NA 
HETATM   17  H   UNL     1      -7.340  13.374  69.355  1.00  0.00     0.000 HD 
BRANCH  16  18
HETATM   18  C   UNL     1      -7.854  13.284  67.351  1.00  0.00    -0.153 C  
BRANCH  18  19
HETATM   19  C   UNL     1      -7.859  14.806  67.301  1.00  0.00    -0.223 C  
BRANCH  19  20
HETATM   20  C   UNL     1      -8.941  15.298  66.341  1.00  0.00    -0.339 C  
BRANCH  20  21
HETATM   21  C   UNL     1      -9.124  16.803  66.463  1.00  0.00    -0.302 C  
BRANCH  21  22
HETATM   22  C   UNL     1     -10.460  17.151  67.109  1.00  0.00    -0.291 C  
BRANCH  22  23
HETATM   23  C   UNL     1     -10.294  17.312  68.612  1.00  0.00    -0.357 C  
BRANCH  23  24
HETATM   24  O   UNL     1     -11.260  16.495  69.261  1.00  0.00    -0.296 OA 
BRANCH  24  25
HETATM   25  C   UNL     1     -10.689  15.270  69.713  1.00  0.00    -0.283 C  
BRANCH  25  26
HETATM   26  C   UNL     1     -11.735  14.168  69.597  1.00  0.00    -0.372 C  
BRANCH  26  27
HETATM   27  C   UNL     1     -11.476  13.292  68.371  1.00  0.00    -0.349 C  
BRANCH  27  28
HETATM   28  C   UNL     1     -12.161  13.842  67.121  1.00  0.00    -0.422 C  
BRANCH  28  29
HETATM   29  C   UNL     1     -11.835  12.971  65.931  1.00  0.00    -0.468 A  
HETATM   30  C   UNL     1     -10.911  11.927  66.049  1.00  0.00    -0.355 A  
HETATM   31  C   UNL     1     -10.552  11.176  64.930  1.00  0.00    -0.356 A  
HETATM   32  C   UNL     1     -11.110  11.464  63.686  1.00  0.00    -0.411 A  
HETATM   33  C   UNL     1     -12.034  12.500  63.559  1.00  0.00    -0.629 A  
HETATM   34  C   UNL     1     -12.396  13.253  64.677  1.00  0.00    -0.447 A  
ENDBRANCH  28  29
ENDBRANCH  27  28
ENDBRANCH  26  27
ENDBRANCH  25  26
ENDBRANCH  24  25
ENDBRANCH  23  24
ENDBRANCH  22  23
ENDBRANCH  21  22
ENDBRANCH  20  21
ENDBRANCH  19  20
ENDBRANCH  18  19
ENDBRANCH  16  18
ENDBRANCH  15  16
ENDBRANCH  12  15
ENDBRANCH  10  12
ENDBRANCH   2   4
TORSDOF 16
ENDMDL
MODEL      104
REMARK 921   NORMALIZED FREE ENERGY PREDICTED BY IDOCK:   -5.29 KCAL/MOL
REMARK 922        TOTAL FREE ENERGY PREDICTED BY IDOCK:  -12.58 KCAL/MOL
REMARK 923 INTER-LIGAND FREE ENERGY PREDICTED BY IDOCK:   -8.13 KCAL/MOL
REMARK 924 INTRA-LIGAND FREE ENERGY PREDICTED BY IDOCK:   -4.45 KCAL/MOL
REMARK 927      BINDING AFFINITY PREDICTED BY RF-SCORE:    0.00 PKD
ROOT
HETATM    1  O   UNL     1     -11.298   4.468  65.238  1.00  0.00    -1.003 OA 
HETATM    2  C   UNL     1     -10.024   4.454  65.883  1.00  0.00    -0.240 C  
HETATM    3  H   UNL     1     -11.208   4.211  64.328  1.00  0.00     0.000 HD 
ENDROOT
BRANCH   2   4
HETATM    4  C   UNL     1     -10.167   4.862  67.326  1.00  0.00    -0.190 A  
HETATM    5  C   UNL     1     -10.891   5.991  67.727  1.00  0.00    -0.290 A  
HETATM    6  O   UNL     1     -11.465   6.838  66.820  1.00  0.00    -0.733 OA 
HETATM    7  C   UNL     1     -11.036   6.321  69.069  1.00  0.00    -0.446 A  
HETATM    8  C   UNL     1     -10.433   5.532  70.045  1.00  0.00    -0.373 A  
HETATM    9  H   UNL     1     -11.956   7.604  67.091  1.00  0.00     0.000 HD 
HETATM   10  C   UNL     1      -9.694   4.393  69.687  1.00  0.00    -0.289 A  
HETATM   11  C   UNL     1      -9.590   4.058  68.326  1.00  0.00    -0.188 A  
BRANCH  10  12
HETATM   12  C   UNL     1      -8.990   3.546  70.731  1.00  0.00    -0.094 C  
HETATM   13  O   UNL     1      -7.988   4.323  71.404  1.00  0.00    -0.077 OA 
HETATM   14  H   UNL     1      -7.547   3.792  72.058  1.00  0.00     0.000 HD 
BRANCH  12  15
HETATM   15  C   UNL     1      -9.971   2.978  71.779  1.00  0.00    -0.122 C  
BRANCH  15  16
HETATM   16  N   UNL     1      -9.644   3.461  73.131  1.00  0.00    -0.108 NA 
HETATM   17  H   UNL     1      -8.749   3.949  73.156  1.00  0.00     0.000 HD 
BRANCH  16  18
HETATM   18  C   UNL     1     -10.732   4.288  73.643  1.00  0.00    -0.257 C  
BRANCH  18  19
HETATM   19  C   UNL     1     -10.190   5.635  74.105  1.00  0.00    -0.283 C  
BRANCH  19  20
HETATM   20  C   UNL     1     -10.784   6.760  73.259  1.00  0.00    -0.330 C  
BRANCH  20  21
HETATM   21  C   UNL     1      -9.757   7.859  73.029  1.00  0.00    -0.349 C  
BRANCH  21  22
HETATM   22  C   UNL     1     -10.284   8.922  72.073  1.00  0.00    -0.363 C  
BRANCH  22  23
HETATM   23  C   UNL     1     -11.791   8.789  71.914  1.00  0.00    -0.367 C  
BRANCH  23  24
HETATM   24  O   UNL     1     -12.135   9.152  70.583  1.00  0.00    -0.206 OA 
BRANCH  24  25
HETATM   25  C   UNL     1     -12.409  10.547  70.477  1.00  0.00    -0.343 C  
BRANCH  25  26
HETATM   26  C   UNL     1     -11.823  11.064  69.170  1.00  0.00    -0.407 C  
BRANCH  26  27
HETATM   27  C   UNL     1     -10.905  10.021  68.529  1.00  0.00    -0.270 C  
BRANCH  27  28
HETATM   28  C   UNL     1      -9.430  10.379  68.697  1.00  0.00    -0.167 C  
BRANCH  28  29
HETATM   29  C   UNL     1      -8.572   9.168  68.414  1.00  0.00    -0.129 A  
HETATM   30  C   UNL     1      -8.413   8.703  67.104  1.00  0.00    -0.114 A  
HETATM   31  C   UNL     1      -7.687   7.539  66.853  1.00  0.00    -0.110 A  
HETATM   32  C   UNL     1      -7.118   6.830  67.909  1.00  0.00    -0.085 A  
HETATM   33  C   UNL     1      -7.267   7.287  69.217  1.00  0.00    -0.081 A  
HETATM   34  C   UNL     1      -7.992   8.452  69.471  1.00  0.00    -0.111 A  
ENDBRANCH  28  29
ENDBRANCH  27  28
ENDBRANCH  26  27
ENDBRANCH  25  26
ENDBRANCH  24  25
ENDBRANCH  23  24
ENDBRANCH  22  23
ENDBRANCH  21  22
ENDBRANCH  20  21
ENDBRANCH  19  20
ENDBRANCH  18  19
ENDBRANCH  16  18
ENDBRANCH  15  16
ENDBRANCH  12  15
ENDBRANCH  10  12
ENDBRANCH   2   4
TORSDOF 16
ENDMDL
MODEL      105
REMARK 921   NORMALIZED FREE ENERGY PREDICTED BY IDOCK:   -5.28 KCAL/MOL
REMARK 922        TOTAL FREE ENERGY PREDICTED BY IDOCK:  -12.57 KCAL/MOL
REMARK 923 INTER-LIGAND FREE ENERGY PREDICTED BY IDOCK:  -10.02 KCAL/MOL
REMARK 924 INTRA-LIGAND FREE ENERGY PREDICTED BY IDOCK:   -2.55 KCAL/MOL
REMARK 927      BINDING AFFINITY PREDICTED BY RF-SCORE:    0.00 PKD
ROOT
HETATM    1  O   UNL     1     -14.225   9.067  73.260  1.00  0.00    -1.192 OA 
HETATM    2  C   UNL     1     -13.429   9.439  72.134  1.00  0.00    -0.471 C  
HETATM    3  H   UNL     1     -14.928   9.694  73.387  1.00  0.00     0.000 HD 
ENDROOT
BRANCH   2   4
HETATM    4  C   UNL     1     -12.315   8.446  71.933  1.00  0.00    -0.395 A  
HETATM    5  C   UNL     1     -12.523   7.062  71.941  1.00  0.00    -0.311 A  
HETATM    6  O   UNL     1     -13.752   6.519  72.198  1.00  0.00    -0.475 OA 
HETATM    7  C   UNL     1     -11.481   6.170  71.715  1.00  0.00    -0.342 A  
HETATM    8  C   UNL     1     -10.192   6.651  71.500  1.00  0.00    -0.218 A  
HETATM    9  H   UNL     1     -13.893   5.580  72.204  1.00  0.00     0.000 HD 
HETATM   10  C   UNL     1      -9.938   8.032  71.488  1.00  0.00    -0.225 A  
HETATM   11  C   UNL     1     -11.013   8.917  71.682  1.00  0.00    -0.415 A  
BRANCH  10  12
HETATM   12  C   UNL     1      -8.535   8.577  71.300  1.00  0.00    -0.163 C  
HETATM   13  O   UNL     1      -7.586   7.500  71.273  1.00  0.00    -0.079 OA 
HETATM   14  H   UNL     1      -6.707   7.841  71.155  1.00  0.00     0.000 HD 
BRANCH  12  15
HETATM   15  C   UNL     1      -8.397   9.398  70.000  1.00  0.00    -0.180 C  
BRANCH  15  16
HETATM   16  N   UNL     1      -7.520  10.564  70.197  1.00  0.00    -0.431 NA 
HETATM   17  H   UNL     1      -6.622  10.302  70.603  1.00  0.00     0.000 HD 
BRANCH  16  18
HETATM   18  C   UNL     1      -7.360  11.288  68.940  1.00  0.00    -0.115 C  
BRANCH  18  19
HETATM   19  C   UNL     1      -8.620  12.088  68.634  1.00  0.00    -0.011 C  
BRANCH  19  20
HETATM   20  C   UNL     1      -8.667  12.451  67.151  1.00  0.00    -0.195 C  
BRANCH  20  21
HETATM   21  C   UNL     1      -9.486  11.431  66.374  1.00  0.00    -0.224 C  
BRANCH  21  22
HETATM   22  C   UNL     1      -8.602  10.575  65.475  1.00  0.00    -0.187 C  
BRANCH  22  23
HETATM   23  C   UNL     1      -9.246  10.406  64.108  1.00  0.00    -0.259 C  
BRANCH  23  24
HETATM   24  O   UNL     1     -10.614  10.783  64.206  1.00  0.00    -0.350 OA 
BRANCH  24  25
HETATM   25  C   UNL     1     -10.960  11.749  63.217  1.00  0.00    -0.308 C  
BRANCH  25  26
HETATM   26  C   UNL     1     -12.174  12.532  63.700  1.00  0.00    -0.642 C  
BRANCH  26  27
HETATM   27  C   UNL     1     -11.757  13.671  64.633  1.00  0.00    -0.414 C  
BRANCH  27  28
HETATM   28  C   UNL     1     -12.708  13.814  65.820  1.00  0.00    -0.494 C  
BRANCH  28  29
HETATM   29  C   UNL     1     -11.934  14.218  67.052  1.00  0.00    -0.463 A  
HETATM   30  C   UNL     1     -12.137  13.551  68.266  1.00  0.00    -0.295 A  
HETATM   31  C   UNL     1     -11.481  13.977  69.421  1.00  0.00    -0.343 A  
HETATM   32  C   UNL     1     -10.623  15.073  69.373  1.00  0.00    -0.262 A  
HETATM   33  C   UNL     1     -10.412  15.742  68.168  1.00  0.00    -0.263 A  
HETATM   34  C   UNL     1     -11.066  15.318  67.011  1.00  0.00    -0.305 A  
ENDBRANCH  28  29
ENDBRANCH  27  28
ENDBRANCH  26  27
ENDBRANCH  25  26
ENDBRANCH  24  25
ENDBRANCH  23  24
ENDBRANCH  22  23
ENDBRANCH  21  22
ENDBRANCH  20  21
ENDBRANCH  19  20
ENDBRANCH  18  19
ENDBRANCH  16  18
ENDBRANCH  15  16
ENDBRANCH  12  15
ENDBRANCH  10  12
ENDBRANCH   2   4
TORSDOF 16
ENDMDL
MODEL      106
REMARK 921   NORMALIZED FREE ENERGY PREDICTED BY IDOCK:   -5.28 KCAL/MOL
REMARK 922        TOTAL FREE ENERGY PREDICTED BY IDOCK:  -12.56 KCAL/MOL
REMARK 923 INTER-LIGAND FREE ENERGY PREDICTED BY IDOCK:  -10.77 KCAL/MOL
REMARK 924 INTRA-LIGAND FREE ENERGY PREDICTED BY IDOCK:   -1.80 KCAL/MOL
REMARK 927      BINDING AFFINITY PREDICTED BY RF-SCORE:    0.00 PKD
ROOT
HETATM    1  O   UNL     1     -11.101   5.346  66.067  1.00  0.00    -0.761 OA 
HETATM    2  C   UNL     1     -10.930   6.419  66.994  1.00  0.00    -0.389 C  
HETATM    3  H   UNL     1     -11.284   5.687  65.200  1.00  0.00     0.000 HD 
ENDROOT
BRANCH   2   4
HETATM    4  C   UNL     1     -10.640   5.879  68.369  1.00  0.00    -0.314 A  
HETATM    5  C   UNL     1      -9.625   4.948  68.620  1.00  0.00    -0.154 A  
HETATM    6  O   UNL     1      -8.868   4.419  67.612  1.00  0.00    -0.103 OA 
HETATM    7  C   UNL     1      -9.356   4.495  69.907  1.00  0.00    -0.218 A  
HETATM    8  C   UNL     1     -10.124   4.952  70.975  1.00  0.00    -0.288 A  
HETATM    9  H   UNL     1      -8.180   3.787  67.781  1.00  0.00     0.000 HD 
HETATM   10  C   UNL     1     -11.155   5.883  70.768  1.00  0.00    -0.324 A  
HETATM   11  C   UNL     1     -11.385   6.355  69.464  1.00  0.00    -0.460 A  
BRANCH  10  12
HETATM   12  C   UNL     1     -12.032   6.360  71.910  1.00  0.00    -0.329 C  
HETATM   13  O   UNL     1     -11.748   5.606  73.099  1.00  0.00    -0.521 OA 
HETATM   14  H   UNL     1     -12.298   5.904  73.815  1.00  0.00     0.000 HD 
BRANCH  12  15
HETATM   15  C   UNL     1     -11.834   7.861  72.211  1.00  0.00    -0.352 C  
BRANCH  15  16
HETATM   16  N   UNL     1     -10.657   8.082  73.068  1.00  0.00    -0.334 NA 
HETATM   17  H   UNL     1     -10.502   7.305  73.711  1.00  0.00     0.000 HD 
BRANCH  16  18
HETATM   18  C   UNL     1      -9.482   8.353  72.245  1.00  0.00    -0.297 C  
BRANCH  18  19
HETATM   19  C   UNL     1      -9.820   9.387  71.178  1.00  0.00    -0.287 C  
BRANCH  19  20
HETATM   20  C   UNL     1      -8.672   9.507  70.178  1.00  0.00    -0.258 C  
BRANCH  20  21
HETATM   21  C   UNL     1      -9.206   9.734  68.772  1.00  0.00    -0.143 C  
BRANCH  21  22
HETATM   22  C   UNL     1     -10.681  10.117  68.792  1.00  0.00    -0.247 C  
BRANCH  22  23
HETATM   23  C   UNL     1     -11.037  10.913  67.546  1.00  0.00    -0.310 C  
BRANCH  23  24
HETATM   24  O   UNL     1     -12.181  11.708  67.832  1.00  0.00    -0.560 OA 
BRANCH  24  25
HETATM   25  C   UNL     1     -11.817  12.940  68.451  1.00  0.00    -0.318 C  
BRANCH  25  26
HETATM   26  C   UNL     1     -11.982  14.065  67.437  1.00  0.00    -0.439 C  
BRANCH  26  27
HETATM   27  C   UNL     1     -11.127  15.275  67.817  1.00  0.00    -0.318 C  
BRANCH  27  28
HETATM   28  C   UNL     1     -10.659  16.052  66.588  1.00  0.00    -0.297 C  
BRANCH  28  29
HETATM   29  C   UNL     1     -10.415  17.497  66.955  1.00  0.00    -0.293 A  
HETATM   30  C   UNL     1     -10.374  18.483  65.964  1.00  0.00    -0.423 A  
HETATM   31  C   UNL     1     -10.069  19.803  66.295  1.00  0.00    -0.601 A  
HETATM   32  C   UNL     1      -9.800  20.147  67.618  1.00  0.00    -0.567 A  
HETATM   33  C   UNL     1      -9.841  19.172  68.614  1.00  0.00    -0.485 A  
HETATM   34  C   UNL     1     -10.147  17.851  68.285  1.00  0.00    -0.376 A  
ENDBRANCH  28  29
ENDBRANCH  27  28
ENDBRANCH  26  27
ENDBRANCH  25  26
ENDBRANCH  24  25
ENDBRANCH  23  24
ENDBRANCH  22  23
ENDBRANCH  21  22
ENDBRANCH  20  21
ENDBRANCH  19  20
ENDBRANCH  18  19
ENDBRANCH  16  18
ENDBRANCH  15  16
ENDBRANCH  12  15
ENDBRANCH  10  12
ENDBRANCH   2   4
TORSDOF 16
ENDMDL
MODEL      107
REMARK 921   NORMALIZED FREE ENERGY PREDICTED BY IDOCK:   -5.27 KCAL/MOL
REMARK 922        TOTAL FREE ENERGY PREDICTED BY IDOCK:  -12.55 KCAL/MOL
REMARK 923 INTER-LIGAND FREE ENERGY PREDICTED BY IDOCK:  -11.12 KCAL/MOL
REMARK 924 INTRA-LIGAND FREE ENERGY PREDICTED BY IDOCK:   -1.43 KCAL/MOL
REMARK 927      BINDING AFFINITY PREDICTED BY RF-SCORE:    0.00 PKD
ROOT
HETATM    1  O   UNL     1      -9.851  10.076  63.251  1.00  0.00    -0.509 OA 
HETATM    2  C   UNL     1      -9.998  10.596  64.573  1.00  0.00    -0.345 C  
HETATM    3  H   UNL     1      -9.421   9.229  63.278  1.00  0.00     0.000 HD 
ENDROOT
BRANCH   2   4
HETATM    4  C   UNL     1     -10.680  11.939  64.531  1.00  0.00    -0.361 A  
HETATM    5  C   UNL     1     -11.828  12.182  63.769  1.00  0.00    -0.500 A  
HETATM    6  O   UNL     1     -12.370  11.225  62.956  1.00  0.00    -0.856 OA 
HETATM    7  C   UNL     1     -12.457  13.422  63.779  1.00  0.00    -0.318 A  
HETATM    8  C   UNL     1     -11.929  14.459  64.544  1.00  0.00    -0.487 A  
HETATM    9  H   UNL     1     -13.149  11.391  62.438  1.00  0.00     0.000 HD 
HETATM   10  C   UNL     1     -10.777  14.260  65.320  1.00  0.00    -0.377 A  
HETATM   11  C   UNL     1     -10.177  12.988  65.323  1.00  0.00    -0.294 A  
BRANCH  10  12
HETATM   12  C   UNL     1     -10.158  15.388  66.124  1.00  0.00    -0.305 C  
HETATM   13  O   UNL     1      -9.781  16.466  65.254  1.00  0.00    -0.433 OA 
HETATM   14  H   UNL     1      -9.394  17.173  65.757  1.00  0.00     0.000 HD 
BRANCH  12  15
HETATM   15  C   UNL     1     -11.119  15.930  67.204  1.00  0.00    -0.148 C  
BRANCH  15  16
HETATM   16  N   UNL     1     -11.494  14.875  68.161  1.00  0.00    -0.318 NA 
HETATM   17  H   UNL     1     -11.145  13.960  67.877  1.00  0.00     0.000 HD 
BRANCH  16  18
HETATM   18  C   UNL     1     -11.051  15.237  69.504  1.00  0.00    -0.281 C  
BRANCH  18  19
HETATM   19  C   UNL     1     -12.036  14.709  70.539  1.00  0.00    -0.376 C  
BRANCH  19  20
HETATM   20  C   UNL     1     -12.162  13.192  70.421  1.00  0.00    -0.389 C  
BRANCH  20  21
HETATM   21  C   UNL     1     -12.903  12.619  71.620  1.00  0.00    -0.367 C  
BRANCH  21  22
HETATM   22  C   UNL     1     -12.976  11.099  71.556  1.00  0.00    -0.542 C  
BRANCH  22  23
HETATM   23  C   UNL     1     -11.961  10.563  70.558  1.00  0.00    -0.342 C  
BRANCH  23  24
HETATM   24  O   UNL     1     -11.824   9.163  70.765  1.00  0.00    -0.281 OA 
BRANCH  24  25
HETATM   25  C   UNL     1     -10.887   8.879  71.801  1.00  0.00    -0.365 C  
BRANCH  25  26
HETATM   26  C   UNL     1     -11.374   7.666  72.584  1.00  0.00    -0.423 C  
BRANCH  26  27
HETATM   27  C   UNL     1     -11.612   6.473  71.657  1.00  0.00    -0.357 C  
BRANCH  27  28
HETATM   28  C   UNL     1     -10.302   5.829  71.207  1.00  0.00    -0.281 C  
BRANCH  28  29
HETATM   29  C   UNL     1     -10.348   5.553  69.723  1.00  0.00    -0.366 A  
HETATM   30  C   UNL     1      -9.721   4.419  69.194  1.00  0.00    -0.240 A  
HETATM   31  C   UNL     1      -9.695   4.208  67.816  1.00  0.00    -0.168 A  
HETATM   32  C   UNL     1     -10.292   5.128  66.956  1.00  0.00    -0.267 A  
HETATM   33  C   UNL     1     -10.922   6.259  67.475  1.00  0.00    -0.444 A  
HETATM   34  C   UNL     1     -10.950   6.472  68.853  1.00  0.00    -0.376 A  
ENDBRANCH  28  29
ENDBRANCH  27  28
ENDBRANCH  26  27
ENDBRANCH  25  26
ENDBRANCH  24  25
ENDBRANCH  23  24
ENDBRANCH  22  23
ENDBRANCH  21  22
ENDBRANCH  20  21
ENDBRANCH  19  20
ENDBRANCH  18  19
ENDBRANCH  16  18
ENDBRANCH  15  16
ENDBRANCH  12  15
ENDBRANCH  10  12
ENDBRANCH   2   4
TORSDOF 16
ENDMDL
MODEL      108
REMARK 921   NORMALIZED FREE ENERGY PREDICTED BY IDOCK:   -5.26 KCAL/MOL
REMARK 922        TOTAL FREE ENERGY PREDICTED BY IDOCK:  -12.53 KCAL/MOL
REMARK 923 INTER-LIGAND FREE ENERGY PREDICTED BY IDOCK:  -10.00 KCAL/MOL
REMARK 924 INTRA-LIGAND FREE ENERGY PREDICTED BY IDOCK:   -2.52 KCAL/MOL
REMARK 927      BINDING AFFINITY PREDICTED BY RF-SCORE:    0.00 PKD
ROOT
HETATM    1  O   UNL     1     -14.234  14.331  72.629  1.00  0.00    -0.567 OA 
HETATM    2  C   UNL     1     -12.972  13.741  72.315  1.00  0.00    -0.336 C  
HETATM    3  H   UNL     1     -14.598  13.932  73.411  1.00  0.00     0.000 HD 
ENDROOT
BRANCH   2   4
HETATM    4  C   UNL     1     -12.396  14.372  71.075  1.00  0.00    -0.427 A  
HETATM    5  C   UNL     1     -11.871  15.670  71.059  1.00  0.00    -0.400 A  
HETATM    6  O   UNL     1     -11.907  16.475  72.163  1.00  0.00    -0.619 OA 
HETATM    7  C   UNL     1     -11.312  16.212  69.908  1.00  0.00    -0.318 A  
HETATM    8  C   UNL     1     -11.290  15.467  68.732  1.00  0.00    -0.328 A  
HETATM    9  H   UNL     1     -11.551  17.356  72.153  1.00  0.00     0.000 HD 
HETATM   10  C   UNL     1     -11.810  14.163  68.702  1.00  0.00    -0.383 A  
HETATM   11  C   UNL     1     -12.338  13.621  69.887  1.00  0.00    -0.310 A  
BRANCH  10  12
HETATM   12  C   UNL     1     -11.837  13.350  67.421  1.00  0.00    -0.375 C  
HETATM   13  O   UNL     1     -12.775  13.920  66.494  1.00  0.00    -0.444 OA 
HETATM   14  H   UNL     1     -12.792  13.411  65.692  1.00  0.00     0.000 HD 
BRANCH  12  15
HETATM   15  C   UNL     1     -10.450  13.276  66.747  1.00  0.00    -0.270 C  
BRANCH  15  16
HETATM   16  N   UNL     1     -10.151  11.908  66.293  1.00  0.00    -0.215 NA 
HETATM   17  H   UNL     1      -9.149  11.752  66.185  1.00  0.00     0.000 HD 
BRANCH  16  18
HETATM   18  C   UNL     1     -10.761  10.936  67.196  1.00  0.00    -0.270 C  
BRANCH  18  19
HETATM   19  C   UNL     1      -9.822  10.642  68.358  1.00  0.00    -0.170 C  
BRANCH  19  20
HETATM   20  C   UNL     1      -9.275   9.220  68.247  1.00  0.00    -0.134 C  
BRANCH  20  21
HETATM   21  C   UNL     1     -10.336   8.278  67.698  1.00  0.00    -0.313 C  
BRANCH  21  22
HETATM   22  C   UNL     1      -9.803   7.458  66.529  1.00  0.00    -0.209 C  
BRANCH  22  23
HETATM   23  C   UNL     1     -10.051   5.977  66.766  1.00  0.00    -0.187 C  
BRANCH  23  24
HETATM   24  O   UNL     1     -10.422   5.795  68.126  1.00  0.00    -0.194 OA 
BRANCH  24  25
HETATM   25  C   UNL     1      -9.681   4.738  68.732  1.00  0.00    -0.167 C  
BRANCH  25  26
HETATM   26  C   UNL     1      -9.991   4.713  70.223  1.00  0.00    -0.309 C  
BRANCH  26  27
HETATM   27  C   UNL     1     -10.319   6.116  70.738  1.00  0.00    -0.266 C  
BRANCH  27  28
HETATM   28  C   UNL     1     -11.604   6.134  71.565  1.00  0.00    -0.304 C  
BRANCH  28  29
HETATM   29  C   UNL     1     -12.214   7.515  71.536  1.00  0.00    -0.359 A  
HETATM   30  C   UNL     1     -11.403   8.645  71.381  1.00  0.00    -0.350 A  
HETATM   31  C   UNL     1     -11.959   9.923  71.435  1.00  0.00    -0.489 A  
HETATM   32  C   UNL     1     -13.327  10.082  71.647  1.00  0.00    -0.468 A  
HETATM   33  C   UNL     1     -14.144   8.962  71.798  1.00  0.00    -0.426 A  
HETATM   34  C   UNL     1     -13.591   7.682  71.744  1.00  0.00    -0.392 A  
ENDBRANCH  28  29
ENDBRANCH  27  28
ENDBRANCH  26  27
ENDBRANCH  25  26
ENDBRANCH  24  25
ENDBRANCH  23  24
ENDBRANCH  22  23
ENDBRANCH  21  22
ENDBRANCH  20  21
ENDBRANCH  19  20
ENDBRANCH  18  19
ENDBRANCH  16  18
ENDBRANCH  15  16
ENDBRANCH  12  15
ENDBRANCH  10  12
ENDBRANCH   2   4
TORSDOF 16
ENDMDL
MODEL      109
REMARK 921   NORMALIZED FREE ENERGY PREDICTED BY IDOCK:   -5.25 KCAL/MOL
REMARK 922        TOTAL FREE ENERGY PREDICTED BY IDOCK:  -12.51 KCAL/MOL
REMARK 923 INTER-LIGAND FREE ENERGY PREDICTED BY IDOCK:   -9.39 KCAL/MOL
REMARK 924 INTRA-LIGAND FREE ENERGY PREDICTED BY IDOCK:   -3.12 KCAL/MOL
REMARK 927      BINDING AFFINITY PREDICTED BY RF-SCORE:    0.00 PKD
ROOT
HETATM    1  O   UNL     1     -13.453  10.615  72.265  1.00  0.00    -0.594 OA 
HETATM    2  C   UNL     1     -12.938  10.220  70.993  1.00  0.00    -0.397 C  
HETATM    3  H   UNL     1     -14.249  11.122  72.154  1.00  0.00     0.000 HD 
ENDROOT
BRANCH   2   4
HETATM    4  C   UNL     1     -11.675   9.418  71.169  1.00  0.00    -0.418 A  
HETATM    5  C   UNL     1     -11.633   8.220  71.891  1.00  0.00    -0.315 A  
HETATM    6  O   UNL     1     -12.732   7.732  72.542  1.00  0.00    -0.531 OA 
HETATM    7  C   UNL     1     -10.460   7.482  72.004  1.00  0.00    -0.245 A  
HETATM    8  C   UNL     1      -9.289   7.947  71.411  1.00  0.00    -0.174 A  
HETATM    9  H   UNL     1     -12.703   6.918  73.032  1.00  0.00     0.000 HD 
HETATM   10  C   UNL     1      -9.286   9.147  70.681  1.00  0.00    -0.312 A  
HETATM   11  C   UNL     1     -10.492   9.858  70.549  1.00  0.00    -0.330 A  
BRANCH  10  12
HETATM   12  C   UNL     1      -8.013   9.695  70.065  1.00  0.00    -0.172 C  
HETATM   13  O   UNL     1      -7.025   8.658  69.966  1.00  0.00    -0.041 OA 
HETATM   14  H   UNL     1      -6.227   9.002  69.580  1.00  0.00     0.000 HD 
BRANCH  12  15
HETATM   15  C   UNL     1      -8.254  10.291  68.661  1.00  0.00    -0.116 C  
BRANCH  15  16
HETATM   16  N   UNL     1      -8.161  11.760  68.683  1.00  0.00    -0.256 NA 
HETATM   17  H   UNL     1      -7.654  12.099  69.501  1.00  0.00     0.000 HD 
BRANCH  16  18
HETATM   18  C   UNL     1      -7.573  12.244  67.437  1.00  0.00    -0.159 C  
BRANCH  18  19
HETATM   19  C   UNL     1      -7.458  13.762  67.469  1.00  0.00    -0.182 C  
BRANCH  19  20
HETATM   20  C   UNL     1      -8.699  14.397  66.845  1.00  0.00    -0.218 C  
BRANCH  20  21
HETATM   21  C   UNL     1      -8.691  15.905  67.049  1.00  0.00    -0.248 C  
BRANCH  21  22
HETATM   22  C   UNL     1     -10.046  16.519  66.718  1.00  0.00    -0.290 C  
BRANCH  22  23
HETATM   23  C   UNL     1     -10.788  16.882  67.996  1.00  0.00    -0.338 C  
BRANCH  23  24
HETATM   24  O   UNL     1     -11.701  15.834  68.297  1.00  0.00    -0.345 OA 
BRANCH  24  25
HETATM   25  C   UNL     1     -11.680  15.507  69.685  1.00  0.00    -0.357 C  
BRANCH  25  26
HETATM   26  C   UNL     1     -12.117  14.058  69.854  1.00  0.00    -0.406 C  
BRANCH  26  27
HETATM   27  C   UNL     1     -11.279  13.126  68.977  1.00  0.00    -0.309 C  
BRANCH  27  28
HETATM   28  C   UNL     1     -12.149  12.272  68.057  1.00  0.00    -0.063 C  
BRANCH  28  29
HETATM   29  C   UNL     1     -11.780  12.530  66.615  1.00  0.00    -0.453 A  
HETATM   30  C   UNL     1     -12.283  13.650  65.945  1.00  0.00    -0.502 A  
HETATM   31  C   UNL     1     -12.006  13.843  64.591  1.00  0.00    -0.443 A  
HETATM   32  C   UNL     1     -11.228  12.917  63.898  1.00  0.00    -0.471 A  
HETATM   33  C   UNL     1     -10.720  11.800  64.559  1.00  0.00    -0.369 A  
HETATM   34  C   UNL     1     -10.995  11.605  65.913  1.00  0.00    -0.334 A  
ENDBRANCH  28  29
ENDBRANCH  27  28
ENDBRANCH  26  27
ENDBRANCH  25  26
ENDBRANCH  24  25
ENDBRANCH  23  24
ENDBRANCH  22  23
ENDBRANCH  21  22
ENDBRANCH  20  21
ENDBRANCH  19  20
ENDBRANCH  18  19
ENDBRANCH  16  18
ENDBRANCH  15  16
ENDBRANCH  12  15
ENDBRANCH  10  12
ENDBRANCH   2   4
TORSDOF 16
ENDMDL
MODEL      110
REMARK 921   NORMALIZED FREE ENERGY PREDICTED BY IDOCK:   -5.25 KCAL/MOL
REMARK 922        TOTAL FREE ENERGY PREDICTED BY IDOCK:  -12.51 KCAL/MOL
REMARK 923 INTER-LIGAND FREE ENERGY PREDICTED BY IDOCK:  -10.40 KCAL/MOL
REMARK 924 INTRA-LIGAND FREE ENERGY PREDICTED BY IDOCK:   -2.11 KCAL/MOL
REMARK 927      BINDING AFFINITY PREDICTED BY RF-SCORE:    0.00 PKD
ROOT
HETATM    1  O   UNL     1     -12.862  15.934  72.909  1.00  0.00    -0.420 OA 
HETATM    2  C   UNL     1     -13.801  14.944  72.488  1.00  0.00    -0.462 C  
HETATM    3  H   UNL     1     -13.272  16.536  73.520  1.00  0.00     0.000 HD 
ENDROOT
BRANCH   2   4
HETATM    4  C   UNL     1     -13.152  13.990  71.520  1.00  0.00    -0.436 A  
HETATM    5  C   UNL     1     -12.576  14.408  70.315  1.00  0.00    -0.323 A  
HETATM    6  O   UNL     1     -12.624  15.712  69.908  1.00  0.00    -0.559 OA 
HETATM    7  C   UNL     1     -11.951  13.508  69.458  1.00  0.00    -0.390 A  
HETATM    8  C   UNL     1     -11.912  12.155  69.785  1.00  0.00    -0.372 A  
HETATM    9  H   UNL     1     -12.234  15.996  69.090  1.00  0.00     0.000 HD 
HETATM   10  C   UNL     1     -12.481  11.692  70.982  1.00  0.00    -0.436 A  
HETATM   11  C   UNL     1     -13.076  12.624  71.850  1.00  0.00    -0.470 A  
BRANCH  10  12
HETATM   12  C   UNL     1     -12.490  10.217  71.335  1.00  0.00    -0.423 C  
HETATM   13  O   UNL     1     -13.640   9.578  70.760  1.00  0.00    -0.598 OA 
HETATM   14  H   UNL     1     -13.646   8.653  70.981  1.00  0.00     0.000 HD 
BRANCH  12  15
HETATM   15  C   UNL     1     -11.218   9.492  70.846  1.00  0.00    -0.341 C  
BRANCH  15  16
HETATM   16  N   UNL     1     -11.554   8.368  69.956  1.00  0.00    -0.450 NA 
HETATM   17  H   UNL     1     -12.199   8.647  69.216  1.00  0.00     0.000 HD 
BRANCH  16  18
HETATM   18  C   UNL     1     -10.335   7.770  69.422  1.00  0.00    -0.219 C  
BRANCH  18  19
HETATM   19  C   UNL     1      -9.636   8.752  68.490  1.00  0.00    -0.158 C  
BRANCH  19  20
HETATM   20  C   UNL     1      -9.738   8.271  67.044  1.00  0.00    -0.274 C  
BRANCH  20  21
HETATM   21  C   UNL     1     -10.016   9.437  66.108  1.00  0.00    -0.351 C  
BRANCH  21  22
HETATM   22  C   UNL     1     -10.971  10.443  66.740  1.00  0.00    -0.116 C  
BRANCH  22  23
HETATM   23  C   UNL     1     -11.011  11.722  65.918  1.00  0.00    -0.304 C  
BRANCH  23  24
HETATM   24  O   UNL     1     -12.323  12.265  65.995  1.00  0.00    -0.609 OA 
BRANCH  24  25
HETATM   25  C   UNL     1     -12.373  13.585  65.460  1.00  0.00    -0.481 C  
BRANCH  25  26
HETATM   26  C   UNL     1     -10.983  14.203  65.546  1.00  0.00    -0.310 C  
BRANCH  26  27
HETATM   27  C   UNL     1     -11.003  15.484  66.381  1.00  0.00    -0.238 C  
BRANCH  27  28
HETATM   28  C   UNL     1      -9.869  16.433  65.998  1.00  0.00    -0.362 C  
BRANCH  28  29
HETATM   29  C   UNL     1      -8.606  16.048  66.733  1.00  0.00    -0.292 A  
HETATM   30  C   UNL     1      -7.421  16.763  66.527  1.00  0.00    -0.322 A  
HETATM   31  C   UNL     1      -6.238  16.357  67.144  1.00  0.00    -0.203 A  
HETATM   32  C   UNL     1      -6.230  15.233  67.968  1.00  0.00    -0.156 A  
HETATM   33  C   UNL     1      -7.407  14.517  68.182  1.00  0.00    -0.129 A  
HETATM   34  C   UNL     1      -8.592  14.921  67.567  1.00  0.00    -0.195 A  
ENDBRANCH  28  29
ENDBRANCH  27  28
ENDBRANCH  26  27
ENDBRANCH  25  26
ENDBRANCH  24  25
ENDBRANCH  23  24
ENDBRANCH  22  23
ENDBRANCH  21  22
ENDBRANCH  20  21
ENDBRANCH  19  20
ENDBRANCH  18  19
ENDBRANCH  16  18
ENDBRANCH  15  16
ENDBRANCH  12  15
ENDBRANCH  10  12
ENDBRANCH   2   4
TORSDOF 16
ENDMDL
MODEL      111
REMARK 921   NORMALIZED FREE ENERGY PREDICTED BY IDOCK:   -5.25 KCAL/MOL
REMARK 922        TOTAL FREE ENERGY PREDICTED BY IDOCK:  -12.51 KCAL/MOL
REMARK 923 INTER-LIGAND FREE ENERGY PREDICTED BY IDOCK:  -10.30 KCAL/MOL
REMARK 924 INTRA-LIGAND FREE ENERGY PREDICTED BY IDOCK:   -2.21 KCAL/MOL
REMARK 927      BINDING AFFINITY PREDICTED BY RF-SCORE:    0.00 PKD
ROOT
HETATM    1  O   UNL     1     -11.205   5.879  73.808  1.00  0.00    -0.385 OA 
HETATM    2  C   UNL     1     -11.751   5.696  72.501  1.00  0.00    -0.197 C  
HETATM    3  H   UNL     1     -11.337   5.096  74.331  1.00  0.00     0.000 HD 
ENDROOT
BRANCH   2   4
HETATM    4  C   UNL     1     -11.543   6.935  71.671  1.00  0.00    -0.325 A  
HETATM    5  C   UNL     1     -12.013   8.195  72.060  1.00  0.00    -0.340 A  
HETATM    6  O   UNL     1     -12.753   8.369  73.197  1.00  0.00    -0.656 OA 
HETATM    7  C   UNL     1     -11.773   9.328  71.291  1.00  0.00    -0.416 A  
HETATM    8  C   UNL     1     -11.071   9.216  70.094  1.00  0.00    -0.248 A  
HETATM    9  H   UNL     1     -13.072   9.224  73.461  1.00  0.00     0.000 HD 
HETATM   10  C   UNL     1     -10.586   7.971  69.664  1.00  0.00    -0.223 A  
HETATM   11  C   UNL     1     -10.809   6.844  70.475  1.00  0.00    -0.289 A  
BRANCH  10  12
HETATM   12  C   UNL     1      -9.859   7.818  68.341  1.00  0.00    -0.168 C  
HETATM   13  O   UNL     1      -9.770   6.430  67.983  1.00  0.00    -0.121 OA 
HETATM   14  H   UNL     1      -9.315   6.334  67.155  1.00  0.00     0.000 HD 
BRANCH  12  15
HETATM   15  C   UNL     1     -10.559   8.585  67.199  1.00  0.00    -0.243 C  
BRANCH  15  16
HETATM   16  N   UNL     1      -9.696   8.672  66.009  1.00  0.00    -0.433 NA 
HETATM   17  H   UNL     1     -10.092   8.171  65.213  1.00  0.00     0.000 HD 
BRANCH  16  18
HETATM   18  C   UNL     1      -9.419  10.070  65.692  1.00  0.00    -0.220 C  
BRANCH  18  19
HETATM   19  C   UNL     1     -10.498  10.964  66.289  1.00  0.00    -0.304 C  
BRANCH  19  20
HETATM   20  C   UNL     1      -9.887  12.280  66.767  1.00  0.00    -0.218 C  
BRANCH  20  21
HETATM   21  C   UNL     1     -10.837  13.439  66.506  1.00  0.00    -0.286 C  
BRANCH  21  22
HETATM   22  C   UNL     1     -10.424  14.230  65.271  1.00  0.00    -0.408 C  
BRANCH  22  23
HETATM   23  C   UNL     1     -10.972  15.647  65.343  1.00  0.00    -0.333 C  
BRANCH  23  24
HETATM   24  O   UNL     1      -9.998  16.475  65.965  1.00  0.00    -0.313 OA 
BRANCH  24  25
HETATM   25  C   UNL     1     -10.431  16.911  67.252  1.00  0.00    -0.301 C  
BRANCH  25  26
HETATM   26  C   UNL     1      -9.520  16.298  68.309  1.00  0.00    -0.214 C  
BRANCH  26  27
HETATM   27  C   UNL     1     -10.321  15.863  69.537  1.00  0.00    -0.277 C  
BRANCH  27  28
HETATM   28  C   UNL     1     -11.823  15.833  69.258  1.00  0.00    -0.358 C  
BRANCH  28  29
HETATM   29  C   UNL     1     -12.515  14.945  70.265  1.00  0.00    -0.386 A  
HETATM   30  C   UNL     1     -13.348  15.499  71.244  1.00  0.00    -0.588 A  
HETATM   31  C   UNL     1     -13.922  14.686  72.221  1.00  0.00    -0.589 A  
HETATM   32  C   UNL     1     -13.666  13.317  72.230  1.00  0.00    -0.686 A  
HETATM   33  C   UNL     1     -12.840  12.756  71.257  1.00  0.00    -0.355 A  
HETATM   34  C   UNL     1     -12.265  13.566  70.278  1.00  0.00    -0.417 A  
ENDBRANCH  28  29
ENDBRANCH  27  28
ENDBRANCH  26  27
ENDBRANCH  25  26
ENDBRANCH  24  25
ENDBRANCH  23  24
ENDBRANCH  22  23
ENDBRANCH  21  22
ENDBRANCH  20  21
ENDBRANCH  19  20
ENDBRANCH  18  19
ENDBRANCH  16  18
ENDBRANCH  15  16
ENDBRANCH  12  15
ENDBRANCH  10  12
ENDBRANCH   2   4
TORSDOF 16
ENDMDL
MODEL      112
REMARK 921   NORMALIZED FREE ENERGY PREDICTED BY IDOCK:   -5.24 KCAL/MOL
REMARK 922        TOTAL FREE ENERGY PREDICTED BY IDOCK:  -12.48 KCAL/MOL
REMARK 923 INTER-LIGAND FREE ENERGY PREDICTED BY IDOCK:  -10.88 KCAL/MOL
REMARK 924 INTRA-LIGAND FREE ENERGY PREDICTED BY IDOCK:   -1.60 KCAL/MOL
REMARK 927      BINDING AFFINITY PREDICTED BY RF-SCORE:    0.00 PKD
ROOT
HETATM    1  O   UNL     1      -9.729   2.502  66.800  1.00  0.00    -0.386 OA 
HETATM    2  C   UNL     1      -8.920   3.395  67.566  1.00  0.00    -0.147 C  
HETATM    3  H   UNL     1      -9.219   1.748  66.528  1.00  0.00     0.000 HD 
ENDROOT
BRANCH   2   4
HETATM    4  C   UNL     1      -9.728   4.591  67.997  1.00  0.00    -0.192 A  
HETATM    5  C   UNL     1     -10.311   5.479  67.086  1.00  0.00    -0.248 A  
HETATM    6  O   UNL     1     -10.128   5.351  65.737  1.00  0.00    -0.373 OA 
HETATM    7  C   UNL     1     -11.083   6.553  67.513  1.00  0.00    -0.396 A  
HETATM    8  C   UNL     1     -11.268   6.775  68.875  1.00  0.00    -0.196 A  
HETATM    9  H   UNL     1     -10.524   5.954  65.119  1.00  0.00     0.000 HD 
HETATM   10  C   UNL     1     -10.697   5.911  69.823  1.00  0.00    -0.411 A  
HETATM   11  C   UNL     1      -9.950   4.810  69.369  1.00  0.00    -0.269 A  
BRANCH  10  12
HETATM   12  C   UNL     1     -10.846   6.160  71.313  1.00  0.00    -0.266 C  
HETATM   13  O   UNL     1      -9.845   7.086  71.762  1.00  0.00    -0.164 OA 
HETATM   14  H   UNL     1      -9.939   7.242  72.695  1.00  0.00     0.000 HD 
BRANCH  12  15
HETATM   15  C   UNL     1     -12.240   6.716  71.674  1.00  0.00    -0.352 C  
BRANCH  15  16
HETATM   16  N   UNL     1     -12.133   7.999  72.389  1.00  0.00    -0.477 NA 
HETATM   17  H   UNL     1     -11.269   8.492  72.161  1.00  0.00     0.000 HD 
BRANCH  16  18
HETATM   18  C   UNL     1     -13.314   8.817  72.130  1.00  0.00    -0.423 C  
BRANCH  18  19
HETATM   19  C   UNL     1     -13.000   9.865  71.069  1.00  0.00    -0.412 C  
BRANCH  19  20
HETATM   20  C   UNL     1     -11.500  10.148  71.035  1.00  0.00    -0.436 C  
BRANCH  20  21
HETATM   21  C   UNL     1     -11.032  10.392  69.608  1.00  0.00    -0.325 C  
BRANCH  21  22
HETATM   22  C   UNL     1     -11.948  11.369  68.880  1.00  0.00    -0.371 C  
BRANCH  22  23
HETATM   23  C   UNL     1     -11.175  12.115  67.804  1.00  0.00    -0.275 C  
BRANCH  23  24
HETATM   24  O   UNL     1     -12.046  12.345  66.703  1.00  0.00    -0.592 OA 
BRANCH  24  25
HETATM   25  C   UNL     1     -12.224  13.739  66.462  1.00  0.00    -0.430 C  
BRANCH  25  26
HETATM   26  C   UNL     1     -11.401  14.134  65.242  1.00  0.00    -0.328 C  
BRANCH  26  27
HETATM   27  C   UNL     1     -10.822  15.541  65.404  1.00  0.00    -0.402 C  
BRANCH  27  28
HETATM   28  C   UNL     1     -10.403  15.824  66.845  1.00  0.00    -0.295 C  
BRANCH  28  29
HETATM   29  C   UNL     1     -10.268  17.313  67.058  1.00  0.00    -0.320 A  
HETATM   30  C   UNL     1     -10.195  17.840  68.352  1.00  0.00    -0.384 A  
HETATM   31  C   UNL     1     -10.152  19.220  68.549  1.00  0.00    -0.513 A  
HETATM   32  C   UNL     1     -10.185  20.083  67.456  1.00  0.00    -0.551 A  
HETATM   33  C   UNL     1     -10.255  19.568  66.163  1.00  0.00    -0.588 A  
HETATM   34  C   UNL     1     -10.297  18.188  65.963  1.00  0.00    -0.360 A  
ENDBRANCH  28  29
ENDBRANCH  27  28
ENDBRANCH  26  27
ENDBRANCH  25  26
ENDBRANCH  24  25
ENDBRANCH  23  24
ENDBRANCH  22  23
ENDBRANCH  21  22
ENDBRANCH  20  21
ENDBRANCH  19  20
ENDBRANCH  18  19
ENDBRANCH  16  18
ENDBRANCH  15  16
ENDBRANCH  12  15
ENDBRANCH  10  12
ENDBRANCH   2   4
TORSDOF 16
ENDMDL
MODEL      113
REMARK 921   NORMALIZED FREE ENERGY PREDICTED BY IDOCK:   -5.24 KCAL/MOL
REMARK 922        TOTAL FREE ENERGY PREDICTED BY IDOCK:  -12.48 KCAL/MOL
REMARK 923 INTER-LIGAND FREE ENERGY PREDICTED BY IDOCK:  -11.38 KCAL/MOL
REMARK 924 INTRA-LIGAND FREE ENERGY PREDICTED BY IDOCK:   -1.10 KCAL/MOL
REMARK 927      BINDING AFFINITY PREDICTED BY RF-SCORE:    0.00 PKD
ROOT
HETATM    1  O   UNL     1     -14.170   8.988  73.446  1.00  0.00    -1.202 OA 
HETATM    2  C   UNL     1     -13.778   9.549  72.192  1.00  0.00    -0.372 C  
HETATM    3  H   UNL     1     -14.864   9.508  73.835  1.00  0.00     0.000 HD 
ENDROOT
BRANCH   2   4
HETATM    4  C   UNL     1     -12.678   8.727  71.575  1.00  0.00    -0.372 A  
HETATM    5  C   UNL     1     -12.734   7.331  71.485  1.00  0.00    -0.384 A  
HETATM    6  O   UNL     1     -13.772   6.616  72.016  1.00  0.00    -0.470 OA 
HETATM    7  C   UNL     1     -11.720   6.601  70.876  1.00  0.00    -0.431 A  
HETATM    8  C   UNL     1     -10.607   7.260  70.361  1.00  0.00    -0.240 A  
HETATM    9  H   UNL     1     -13.811   5.669  71.955  1.00  0.00     0.000 HD 
HETATM   10  C   UNL     1     -10.508   8.659  70.433  1.00  0.00    -0.233 A  
HETATM   11  C   UNL     1     -11.562   9.380  71.021  1.00  0.00    -0.400 A  
BRANCH  10  12
HETATM   12  C   UNL     1      -9.283   9.394  69.920  1.00  0.00    -0.208 C  
HETATM   13  O   UNL     1      -8.095   8.850  70.515  1.00  0.00    -0.103 OA 
HETATM   14  H   UNL     1      -7.328   9.310  70.193  1.00  0.00     0.000 HD 
BRANCH  12  15
HETATM   15  C   UNL     1      -9.156   9.312  68.383  1.00  0.00    -0.128 C  
BRANCH  15  16
HETATM   16  N   UNL     1     -10.420   9.675  67.724  1.00  0.00    -0.240 NA 
HETATM   17  H   UNL     1     -11.068  10.134  68.365  1.00  0.00     0.000 HD 
BRANCH  16  18
HETATM   18  C   UNL     1     -10.153  10.489  66.542  1.00  0.00    -0.225 C  
BRANCH  18  19
HETATM   19  C   UNL     1      -9.472   9.647  65.471  1.00  0.00    -0.330 C  
BRANCH  19  20
HETATM   20  C   UNL     1      -9.587  10.331  64.110  1.00  0.00    -0.376 C  
BRANCH  20  21
HETATM   21  C   UNL     1     -10.171  11.729  64.259  1.00  0.00    -0.344 C  
BRANCH  21  22
HETATM   22  C   UNL     1     -11.454  11.886  63.452  1.00  0.00    -0.470 C  
BRANCH  22  23
HETATM   23  C   UNL     1     -12.565  12.443  64.329  1.00  0.00    -0.401 C  
BRANCH  23  24
HETATM   24  O   UNL     1     -12.510  13.863  64.276  1.00  0.00    -0.638 OA 
BRANCH  24  25
HETATM   25  C   UNL     1     -11.856  14.402  65.422  1.00  0.00    -0.366 C  
BRANCH  25  26
HETATM   26  C   UNL     1     -10.930  15.526  64.974  1.00  0.00    -0.454 C  
BRANCH  26  27
HETATM   27  C   UNL     1      -9.777  15.714  65.962  1.00  0.00    -0.378 C  
BRANCH  27  28
HETATM   28  C   UNL     1     -10.222  16.448  67.225  1.00  0.00    -0.278 C  
BRANCH  28  29
HETATM   29  C   UNL     1      -9.786  17.893  67.162  1.00  0.00    -0.308 A  
HETATM   30  C   UNL     1      -8.602  18.247  66.506  1.00  0.00    -0.283 A  
HETATM   31  C   UNL     1      -8.160  19.570  66.517  1.00  0.00    -0.325 A  
HETATM   32  C   UNL     1      -8.895  20.546  67.186  1.00  0.00    -0.399 A  
HETATM   33  C   UNL     1     -10.078  20.204  67.839  1.00  0.00    -0.533 A  
HETATM   34  C   UNL     1     -10.523  18.882  67.829  1.00  0.00    -0.487 A  
ENDBRANCH  28  29
ENDBRANCH  27  28
ENDBRANCH  26  27
ENDBRANCH  25  26
ENDBRANCH  24  25
ENDBRANCH  23  24
ENDBRANCH  22  23
ENDBRANCH  21  22
ENDBRANCH  20  21
ENDBRANCH  19  20
ENDBRANCH  18  19
ENDBRANCH  16  18
ENDBRANCH  15  16
ENDBRANCH  12  15
ENDBRANCH  10  12
ENDBRANCH   2   4
TORSDOF 16
ENDMDL
MODEL      114
REMARK 921   NORMALIZED FREE ENERGY PREDICTED BY IDOCK:   -5.24 KCAL/MOL
REMARK 922        TOTAL FREE ENERGY PREDICTED BY IDOCK:  -12.48 KCAL/MOL
REMARK 923 INTER-LIGAND FREE ENERGY PREDICTED BY IDOCK:  -10.75 KCAL/MOL
REMARK 924 INTRA-LIGAND FREE ENERGY PREDICTED BY IDOCK:   -1.73 KCAL/MOL
REMARK 927      BINDING AFFINITY PREDICTED BY RF-SCORE:    0.00 PKD
ROOT
HETATM    1  O   UNL     1     -11.164   5.246  66.177  1.00  0.00    -0.731 OA 
HETATM    2  C   UNL     1     -10.812   6.386  66.962  1.00  0.00    -0.392 C  
HETATM    3  H   UNL     1     -11.215   5.483  65.258  1.00  0.00     0.000 HD 
ENDROOT
BRANCH   2   4
HETATM    4  C   UNL     1     -10.731   6.011  68.418  1.00  0.00    -0.351 A  
HETATM    5  C   UNL     1      -9.910   4.981  68.891  1.00  0.00    -0.175 A  
HETATM    6  O   UNL     1      -9.173   4.201  68.044  1.00  0.00    -0.127 OA 
HETATM    7  C   UNL     1      -9.829   4.682  70.247  1.00  0.00    -0.314 A  
HETATM    8  C   UNL     1     -10.594   5.401  71.161  1.00  0.00    -0.276 A  
HETATM    9  H   UNL     1      -8.616   3.501  68.365  1.00  0.00     0.000 HD 
HETATM   10  C   UNL     1     -11.433   6.440  70.729  1.00  0.00    -0.415 A  
HETATM   11  C   UNL     1     -11.473   6.749  69.358  1.00  0.00    -0.208 A  
BRANCH  10  12
HETATM   12  C   UNL     1     -12.309   7.207  71.703  1.00  0.00    -0.362 C  
HETATM   13  O   UNL     1     -11.690   7.248  72.998  1.00  0.00    -0.564 OA 
HETATM   14  H   UNL     1     -12.239   7.728  73.608  1.00  0.00     0.000 HD 
BRANCH  12  15
HETATM   15  C   UNL     1     -12.580   8.652  71.231  1.00  0.00    -0.235 C  
BRANCH  15  16
HETATM   16  N   UNL     1     -11.517   9.566  71.681  1.00  0.00    -0.389 NA 
HETATM   17  H   UNL     1     -10.908   9.132  72.375  1.00  0.00     0.000 HD 
BRANCH  16  18
HETATM   18  C   UNL     1     -10.768  10.066  70.533  1.00  0.00    -0.285 C  
BRANCH  18  19
HETATM   19  C   UNL     1     -11.727  10.588  69.470  1.00  0.00    -0.313 C  
BRANCH  19  20
HETATM   20  C   UNL     1     -11.070  10.528  68.093  1.00  0.00    -0.346 C  
BRANCH  20  21
HETATM   21  C   UNL     1     -11.059  11.904  67.443  1.00  0.00    -0.336 C  
BRANCH  21  22
HETATM   22  C   UNL     1     -11.366  11.818  65.952  1.00  0.00    -0.324 C  
BRANCH  22  23
HETATM   23  C   UNL     1     -11.927  13.140  65.451  1.00  0.00    -0.406 C  
BRANCH  23  24
HETATM   24  O   UNL     1     -10.851  13.921  64.947  1.00  0.00    -0.358 OA 
BRANCH  24  25
HETATM   25  C   UNL     1     -10.961  15.283  65.354  1.00  0.00    -0.372 C  
BRANCH  25  26
HETATM   26  C   UNL     1      -9.743  15.643  66.195  1.00  0.00    -0.348 C  
BRANCH  26  27
HETATM   27  C   UNL     1     -10.066  15.573  67.688  1.00  0.00    -0.243 C  
BRANCH  27  28
HETATM   28  C   UNL     1     -10.897  16.770  68.149  1.00  0.00    -0.353 C  
BRANCH  28  29
HETATM   29  C   UNL     1     -10.155  18.053  67.858  1.00  0.00    -0.360 A  
HETATM   30  C   UNL     1      -8.901  18.292  68.431  1.00  0.00    -0.321 A  
HETATM   31  C   UNL     1      -8.255  19.511  68.226  1.00  0.00    -0.373 A  
HETATM   32  C   UNL     1      -8.857  20.500  67.450  1.00  0.00    -0.393 A  
HETATM   33  C   UNL     1     -10.105  20.269  66.873  1.00  0.00    -0.565 A  
HETATM   34  C   UNL     1     -10.754  19.051  67.076  1.00  0.00    -0.516 A  
ENDBRANCH  28  29
ENDBRANCH  27  28
ENDBRANCH  26  27
ENDBRANCH  25  26
ENDBRANCH  24  25
ENDBRANCH  23  24
ENDBRANCH  22  23
ENDBRANCH  21  22
ENDBRANCH  20  21
ENDBRANCH  19  20
ENDBRANCH  18  19
ENDBRANCH  16  18
ENDBRANCH  15  16
ENDBRANCH  12  15
ENDBRANCH  10  12
ENDBRANCH   2   4
TORSDOF 16
ENDMDL
MODEL      115
REMARK 921   NORMALIZED FREE ENERGY PREDICTED BY IDOCK:   -5.23 KCAL/MOL
REMARK 922        TOTAL FREE ENERGY PREDICTED BY IDOCK:  -12.47 KCAL/MOL
REMARK 923 INTER-LIGAND FREE ENERGY PREDICTED BY IDOCK:   -9.79 KCAL/MOL
REMARK 924 INTRA-LIGAND FREE ENERGY PREDICTED BY IDOCK:   -2.69 KCAL/MOL
REMARK 927      BINDING AFFINITY PREDICTED BY RF-SCORE:    0.00 PKD
ROOT
HETATM    1  O   UNL     1     -13.082  13.154  64.712  1.00  0.00    -0.728 OA 
HETATM    2  C   UNL     1     -11.958  12.916  65.560  1.00  0.00    -0.436 C  
HETATM    3  H   UNL     1     -13.277  12.378  64.200  1.00  0.00     0.000 HD 
ENDROOT
BRANCH   2   4
HETATM    4  C   UNL     1     -11.648  14.146  66.372  1.00  0.00    -0.380 A  
HETATM    5  C   UNL     1     -11.063  15.292  65.820  1.00  0.00    -0.301 A  
HETATM    6  O   UNL     1     -10.673  15.341  64.510  1.00  0.00    -0.612 OA 
HETATM    7  C   UNL     1     -10.823  16.426  66.587  1.00  0.00    -0.086 A  
HETATM    8  C   UNL     1     -11.147  16.427  67.941  1.00  0.00    -0.249 A  
HETATM    9  H   UNL     1     -10.275  16.118  64.135  1.00  0.00     0.000 HD 
HETATM   10  C   UNL     1     -11.731  15.298  68.537  1.00  0.00    -0.352 A  
HETATM   11  C   UNL     1     -11.998  14.174  67.735  1.00  0.00    -0.389 A  
BRANCH  10  12
HETATM   12  C   UNL     1     -12.050  15.260  70.020  1.00  0.00    -0.352 C  
HETATM   13  O   UNL     1     -13.439  15.554  70.235  1.00  0.00    -0.752 OA 
HETATM   14  H   UNL     1     -13.638  15.530  71.164  1.00  0.00     0.000 HD 
BRANCH  12  15
HETATM   15  C   UNL     1     -11.725  13.889  70.652  1.00  0.00    -0.119 C  
BRANCH  15  16
HETATM   16  N   UNL     1     -12.921  13.288  71.263  1.00  0.00    -0.306 NA 
HETATM   17  H   UNL     1     -13.781  13.624  70.829  1.00  0.00     0.000 HD 
BRANCH  16  18
HETATM   18  C   UNL     1     -12.824  11.832  71.226  1.00  0.00    -0.308 C  
BRANCH  18  19
HETATM   19  C   UNL     1     -12.321  11.376  69.862  1.00  0.00    -0.280 C  
BRANCH  19  20
HETATM   20  C   UNL     1     -11.119  10.449  70.026  1.00  0.00    -0.379 C  
BRANCH  20  21
HETATM   21  C   UNL     1     -10.039  10.783  69.008  1.00  0.00    -0.225 C  
BRANCH  21  22
HETATM   22  C   UNL     1      -9.429   9.522  68.409  1.00  0.00    -0.144 C  
BRANCH  22  23
HETATM   23  C   UNL     1     -10.353   8.938  67.352  1.00  0.00    -0.269 C  
BRANCH  23  24
HETATM   24  O   UNL     1      -9.785   7.723  66.880  1.00  0.00    -0.182 OA 
BRANCH  24  25
HETATM   25  C   UNL     1     -10.732   6.657  66.913  1.00  0.00    -0.331 C  
BRANCH  25  26
HETATM   26  C   UNL     1     -10.045   5.407  67.447  1.00  0.00    -0.223 C  
BRANCH  26  27
HETATM   27  C   UNL     1     -10.457   5.130  68.894  1.00  0.00    -0.131 C  
BRANCH  27  28
HETATM   28  C   UNL     1      -9.594   5.901  69.891  1.00  0.00    -0.194 C  
BRANCH  28  29
HETATM   29  C   UNL     1     -10.471   6.732  70.796  1.00  0.00    -0.242 A  
HETATM   30  C   UNL     1      -9.915   7.443  71.864  1.00  0.00    -0.196 A  
HETATM   31  C   UNL     1     -10.736   8.145  72.747  1.00  0.00    -0.391 A  
HETATM   32  C   UNL     1     -12.118   8.139  72.571  1.00  0.00    -0.377 A  
HETATM   33  C   UNL     1     -12.681   7.436  71.507  1.00  0.00    -0.409 A  
HETATM   34  C   UNL     1     -11.863   6.733  70.622  1.00  0.00    -0.442 A  
ENDBRANCH  28  29
ENDBRANCH  27  28
ENDBRANCH  26  27
ENDBRANCH  25  26
ENDBRANCH  24  25
ENDBRANCH  23  24
ENDBRANCH  22  23
ENDBRANCH  21  22
ENDBRANCH  20  21
ENDBRANCH  19  20
ENDBRANCH  18  19
ENDBRANCH  16  18
ENDBRANCH  15  16
ENDBRANCH  12  15
ENDBRANCH  10  12
ENDBRANCH   2   4
TORSDOF 16
ENDMDL
MODEL      116
REMARK 921   NORMALIZED FREE ENERGY PREDICTED BY IDOCK:   -5.23 KCAL/MOL
REMARK 922        TOTAL FREE ENERGY PREDICTED BY IDOCK:  -12.47 KCAL/MOL
REMARK 923 INTER-LIGAND FREE ENERGY PREDICTED BY IDOCK:  -10.39 KCAL/MOL
REMARK 924 INTRA-LIGAND FREE ENERGY PREDICTED BY IDOCK:   -2.09 KCAL/MOL
REMARK 927      BINDING AFFINITY PREDICTED BY RF-SCORE:    0.00 PKD
ROOT
HETATM    1  O   UNL     1     -11.250   4.711  65.520  1.00  0.00    -0.909 OA 
HETATM    2  C   UNL     1     -10.603   4.970  66.767  1.00  0.00    -0.157 C  
HETATM    3  H   UNL     1     -11.377   3.777  65.404  1.00  0.00     0.000 HD 
ENDROOT
BRANCH   2   4
HETATM    4  C   UNL     1     -10.401   6.451  66.951  1.00  0.00    -0.306 A  
HETATM    5  C   UNL     1     -10.861   7.145  68.076  1.00  0.00    -0.128 A  
HETATM    6  O   UNL     1     -11.585   6.527  69.057  1.00  0.00    -0.619 OA 
HETATM    7  C   UNL     1     -10.626   8.506  68.236  1.00  0.00    -0.173 A  
HETATM    8  C   UNL     1      -9.940   9.210  67.250  1.00  0.00    -0.270 A  
HETATM    9  H   UNL     1     -11.898   6.997  69.821  1.00  0.00     0.000 HD 
HETATM   10  C   UNL     1      -9.465   8.555  66.103  1.00  0.00    -0.286 A  
HETATM   11  C   UNL     1      -9.682   7.171  65.979  1.00  0.00     0.168 A  
BRANCH  10  12
HETATM   12  C   UNL     1      -8.755   9.311  64.996  1.00  0.00    -0.190 C  
HETATM   13  O   UNL     1      -8.826   8.570  63.767  1.00  0.00    -0.416 OA 
HETATM   14  H   UNL     1      -8.382   9.043  63.073  1.00  0.00     0.000 HD 
BRANCH  12  15
HETATM   15  C   UNL     1      -9.357  10.714  64.769  1.00  0.00    -0.233 C  
BRANCH  15  16
HETATM   16  N   UNL     1     -10.618  10.637  64.012  1.00  0.00    -0.414 NA 
HETATM   17  H   UNL     1     -11.423  10.505  64.624  1.00  0.00     0.000 HD 
BRANCH  16  18
HETATM   18  C   UNL     1     -10.764  11.815  63.162  1.00  0.00    -0.251 C  
BRANCH  18  19
HETATM   19  C   UNL     1     -11.105  13.033  64.012  1.00  0.00    -0.433 C  
BRANCH  19  20
HETATM   20  C   UNL     1     -12.498  12.879  64.618  1.00  0.00    -0.499 C  
BRANCH  20  21
HETATM   21  C   UNL     1     -12.497  13.300  66.081  1.00  0.00    -0.335 C  
BRANCH  21  22
HETATM   22  C   UNL     1     -11.745  12.297  66.948  1.00  0.00    -0.404 C  
BRANCH  22  23
HETATM   23  C   UNL     1     -11.374  12.927  68.282  1.00  0.00    -0.291 C  
BRANCH  23  24
HETATM   24  O   UNL     1      -9.957  12.917  68.405  1.00  0.00    -0.227 OA 
BRANCH  24  25
HETATM   25  C   UNL     1      -9.415  14.231  68.289  1.00  0.00    -0.209 C  
BRANCH  25  26
HETATM   26  C   UNL     1      -8.818  14.394  66.898  1.00  0.00    -0.246 C  
BRANCH  26  27
HETATM   27  C   UNL     1      -9.474  15.556  66.151  1.00  0.00    -0.376 C  
BRANCH  27  28
HETATM   28  C   UNL     1     -10.595  16.198  66.967  1.00  0.00    -0.292 C  
BRANCH  28  29
HETATM   29  C   UNL     1     -10.293  17.661  67.192  1.00  0.00    -0.343 A  
HETATM   30  C   UNL     1     -10.035  18.141  68.480  1.00  0.00    -0.408 A  
HETATM   31  C   UNL     1      -9.837  19.505  68.697  1.00  0.00    -0.530 A  
HETATM   32  C   UNL     1      -9.898  20.398  67.629  1.00  0.00    -0.538 A  
HETATM   33  C   UNL     1     -10.152  19.929  66.341  1.00  0.00    -0.615 A  
HETATM   34  C   UNL     1     -10.350  18.565  66.122  1.00  0.00    -0.457 A  
ENDBRANCH  28  29
ENDBRANCH  27  28
ENDBRANCH  26  27
ENDBRANCH  25  26
ENDBRANCH  24  25
ENDBRANCH  23  24
ENDBRANCH  22  23
ENDBRANCH  21  22
ENDBRANCH  20  21
ENDBRANCH  19  20
ENDBRANCH  18  19
ENDBRANCH  16  18
ENDBRANCH  15  16
ENDBRANCH  12  15
ENDBRANCH  10  12
ENDBRANCH   2   4
TORSDOF 16
ENDMDL
MODEL      117
REMARK 921   NORMALIZED FREE ENERGY PREDICTED BY IDOCK:   -5.22 KCAL/MOL
REMARK 922        TOTAL FREE ENERGY PREDICTED BY IDOCK:  -12.46 KCAL/MOL
REMARK 923 INTER-LIGAND FREE ENERGY PREDICTED BY IDOCK:  -10.42 KCAL/MOL
REMARK 924 INTRA-LIGAND FREE ENERGY PREDICTED BY IDOCK:   -2.04 KCAL/MOL
REMARK 927      BINDING AFFINITY PREDICTED BY RF-SCORE:    0.00 PKD
ROOT
HETATM    1  O   UNL     1     -10.254   3.549  65.699  1.00  0.00    -0.401 OA 
HETATM    2  C   UNL     1      -9.234   3.915  66.629  1.00  0.00    -0.169 C  
HETATM    3  H   UNL     1      -9.874   3.082  64.963  1.00  0.00     0.000 HD 
ENDROOT
BRANCH   2   4
HETATM    4  C   UNL     1      -9.835   4.655  67.795  1.00  0.00    -0.183 A  
HETATM    5  C   UNL     1     -10.640   5.790  67.639  1.00  0.00    -0.239 A  
HETATM    6  O   UNL     1     -10.880   6.340  66.410  1.00  0.00    -0.519 OA 
HETATM    7  C   UNL     1     -11.212   6.430  68.733  1.00  0.00    -0.358 A  
HETATM    8  C   UNL     1     -10.966   5.956  70.019  1.00  0.00    -0.430 A  
HETATM    9  H   UNL     1     -11.425   7.110  66.304  1.00  0.00     0.000 HD 
HETATM   10  C   UNL     1     -10.161   4.824  70.221  1.00  0.00    -0.304 A  
HETATM   11  C   UNL     1      -9.622   4.170  69.098  1.00  0.00    -0.243 A  
BRANCH  10  12
HETATM   12  C   UNL     1      -9.843   4.317  71.615  1.00  0.00    -0.187 C  
HETATM   13  O   UNL     1      -8.461   4.557  71.925  1.00  0.00    -0.108 OA 
HETATM   14  H   UNL     1      -8.262   4.240  72.799  1.00  0.00     0.000 HD 
BRANCH  12  15
HETATM   15  C   UNL     1     -10.721   4.987  72.694  1.00  0.00    -0.222 C  
BRANCH  15  16
HETATM   16  N   UNL     1      -9.897   5.581  73.759  1.00  0.00    -0.162 NA 
HETATM   17  H   UNL     1      -8.900   5.447  73.590  1.00  0.00     0.000 HD 
BRANCH  16  18
HETATM   18  C   UNL     1     -10.238   6.990  73.929  1.00  0.00    -0.350 C  
BRANCH  18  19
HETATM   19  C   UNL     1      -9.410   7.846  72.978  1.00  0.00    -0.329 C  
BRANCH  19  20
HETATM   20  C   UNL     1     -10.327   8.679  72.085  1.00  0.00    -0.403 C  
BRANCH  20  21
HETATM   21  C   UNL     1      -9.539   9.306  70.944  1.00  0.00    -0.339 C  
BRANCH  21  22
HETATM   22  C   UNL     1     -10.459  10.015  69.957  1.00  0.00    -0.337 C  
BRANCH  22  23
HETATM   23  C   UNL     1     -11.714  10.504  70.662  1.00  0.00    -0.357 C  
BRANCH  23  24
HETATM   24  O   UNL     1     -12.260  11.583  69.913  1.00  0.00    -0.290 OA 
BRANCH  24  25
HETATM   25  C   UNL     1     -11.598  11.733  68.659  1.00  0.00    -0.309 C  
BRANCH  25  26
HETATM   26  C   UNL     1     -11.938  13.103  68.086  1.00  0.00    -0.333 C  
BRANCH  26  27
HETATM   27  C   UNL     1     -11.233  14.214  68.866  1.00  0.00    -0.294 C  
BRANCH  27  28
HETATM   28  C   UNL     1     -12.160  15.396  69.140  1.00  0.00    -0.270 C  
BRANCH  28  29
HETATM   29  C   UNL     1     -12.506  15.448  70.610  1.00  0.00    -0.478 A  
HETATM   30  C   UNL     1     -13.797  15.132  71.045  1.00  0.00    -0.423 A  
HETATM   31  C   UNL     1     -14.136  15.258  72.393  1.00  0.00    -0.622 A  
HETATM   32  C   UNL     1     -13.189  15.704  73.313  1.00  0.00    -0.666 A  
HETATM   33  C   UNL     1     -11.898  16.018  72.888  1.00  0.00    -0.555 A  
HETATM   34  C   UNL     1     -11.557  15.892  71.542  1.00  0.00    -0.537 A  
ENDBRANCH  28  29
ENDBRANCH  27  28
ENDBRANCH  26  27
ENDBRANCH  25  26
ENDBRANCH  24  25
ENDBRANCH  23  24
ENDBRANCH  22  23
ENDBRANCH  21  22
ENDBRANCH  20  21
ENDBRANCH  19  20
ENDBRANCH  18  19
ENDBRANCH  16  18
ENDBRANCH  15  16
ENDBRANCH  12  15
ENDBRANCH  10  12
ENDBRANCH   2   4
TORSDOF 16
ENDMDL
MODEL      118
REMARK 921   NORMALIZED FREE ENERGY PREDICTED BY IDOCK:   -5.20 KCAL/MOL
REMARK 922        TOTAL FREE ENERGY PREDICTED BY IDOCK:  -12.41 KCAL/MOL
REMARK 923 INTER-LIGAND FREE ENERGY PREDICTED BY IDOCK:   -9.58 KCAL/MOL
REMARK 924 INTRA-LIGAND FREE ENERGY PREDICTED BY IDOCK:   -2.83 KCAL/MOL
REMARK 927      BINDING AFFINITY PREDICTED BY RF-SCORE:    0.00 PKD
ROOT
HETATM    1  O   UNL     1     -12.474  11.541  63.031  1.00  0.00    -0.982 OA 
HETATM    2  C   UNL     1     -11.367  12.387  63.342  1.00  0.00    -0.433 C  
HETATM    3  H   UNL     1     -12.550  11.432  62.090  1.00  0.00     0.000 HD 
ENDROOT
BRANCH   2   4
HETATM    4  C   UNL     1     -11.247  12.560  64.834  1.00  0.00    -0.344 A  
HETATM    5  C   UNL     1     -12.194  13.255  65.595  1.00  0.00    -0.462 A  
HETATM    6  O   UNL     1     -13.263  13.882  65.018  1.00  0.00    -0.729 OA 
HETATM    7  C   UNL     1     -12.075  13.365  66.976  1.00  0.00    -0.390 A  
HETATM    8  C   UNL     1     -10.982  12.796  67.624  1.00  0.00    -0.274 A  
HETATM    9  H   UNL     1     -13.905  14.354  65.534  1.00  0.00     0.000 HD 
HETATM   10  C   UNL     1     -10.007  12.094  66.899  1.00  0.00    -0.217 A  
HETATM   11  C   UNL     1     -10.165  11.964  65.508  1.00  0.00    -0.290 A  
BRANCH  10  12
HETATM   12  C   UNL     1      -8.785  11.506  67.579  1.00  0.00    -0.145 C  
HETATM   13  O   UNL     1      -8.572  12.140  68.849  1.00  0.00    -0.363 OA 
HETATM   14  H   UNL     1      -7.807  11.772  69.275  1.00  0.00     0.000 HD 
BRANCH  12  15
HETATM   15  C   UNL     1      -8.914   9.983  67.796  1.00  0.00    -0.131 C  
BRANCH  15  16
HETATM   16  N   UNL     1      -7.653   9.291  67.484  1.00  0.00    -0.088 NA 
HETATM   17  H   UNL     1      -6.855   9.927  67.498  1.00  0.00     0.000 HD 
BRANCH  16  18
HETATM   18  C   UNL     1      -7.465   8.160  68.387  1.00  0.00    -0.100 C  
BRANCH  18  19
HETATM   19  C   UNL     1      -7.744   8.586  69.823  1.00  0.00    -0.092 C  
BRANCH  19  20
HETATM   20  C   UNL     1      -8.118   7.371  70.670  1.00  0.00    -0.110 C  
BRANCH  20  21
HETATM   21  C   UNL     1      -9.078   6.464  69.914  1.00  0.00    -0.142 C  
BRANCH  21  22
HETATM   22  C   UNL     1      -8.814   4.995  70.220  1.00  0.00    -0.143 C  
BRANCH  22  23
HETATM   23  C   UNL     1     -10.045   4.355  70.843  1.00  0.00    -0.129 C  
BRANCH  23  24
HETATM   24  O   UNL     1      -9.838   4.254  72.246  1.00  0.00    -0.152 OA 
BRANCH  24  25
HETATM   25  C   UNL     1     -10.854   4.941  72.974  1.00  0.00    -0.265 C  
BRANCH  25  26
HETATM   26  C   UNL     1     -10.196   5.986  73.867  1.00  0.00    -0.270 C  
BRANCH  26  27
HETATM   27  C   UNL     1     -10.597   7.400  73.443  1.00  0.00    -0.427 C  
BRANCH  27  28
HETATM   28  C   UNL     1     -11.635   7.387  72.322  1.00  0.00    -0.333 C  
BRANCH  28  29
HETATM   29  C   UNL     1     -11.921   8.800  71.871  1.00  0.00    -0.435 A  
HETATM   30  C   UNL     1     -13.049   9.479  72.344  1.00  0.00    -0.430 A  
HETATM   31  C   UNL     1     -13.356  10.753  71.865  1.00  0.00    -0.445 A  
HETATM   32  C   UNL     1     -12.540  11.355  70.909  1.00  0.00    -0.453 A  
HETATM   33  C   UNL     1     -11.412  10.687  70.434  1.00  0.00    -0.422 A  
HETATM   34  C   UNL     1     -11.103   9.414  70.912  1.00  0.00    -0.389 A  
ENDBRANCH  28  29
ENDBRANCH  27  28
ENDBRANCH  26  27
ENDBRANCH  25  26
ENDBRANCH  24  25
ENDBRANCH  23  24
ENDBRANCH  22  23
ENDBRANCH  21  22
ENDBRANCH  20  21
ENDBRANCH  19  20
ENDBRANCH  18  19
ENDBRANCH  16  18
ENDBRANCH  15  16
ENDBRANCH  12  15
ENDBRANCH  10  12
ENDBRANCH   2   4
TORSDOF 16
ENDMDL
MODEL      119
REMARK 921   NORMALIZED FREE ENERGY PREDICTED BY IDOCK:   -5.20 KCAL/MOL
REMARK 922        TOTAL FREE ENERGY PREDICTED BY IDOCK:  -12.40 KCAL/MOL
REMARK 923 INTER-LIGAND FREE ENERGY PREDICTED BY IDOCK:   -9.43 KCAL/MOL
REMARK 924 INTRA-LIGAND FREE ENERGY PREDICTED BY IDOCK:   -2.97 KCAL/MOL
REMARK 927      BINDING AFFINITY PREDICTED BY RF-SCORE:    0.00 PKD
ROOT
HETATM    1  O   UNL     1      -9.649   2.366  70.170  1.00  0.00    -0.105 OA 
HETATM    2  C   UNL     1      -9.310   3.451  71.035  1.00  0.00    -0.142 C  
HETATM    3  H   UNL     1      -9.202   1.574  70.447  1.00  0.00     0.000 HD 
ENDROOT
BRANCH   2   4
HETATM    4  C   UNL     1     -10.018   4.706  70.597  1.00  0.00    -0.293 A  
HETATM    5  C   UNL     1     -10.120   5.089  69.254  1.00  0.00    -0.200 A  
HETATM    6  O   UNL     1      -9.522   4.375  68.254  1.00  0.00    -0.138 OA 
HETATM    7  C   UNL     1     -10.812   6.234  68.877  1.00  0.00    -0.396 A  
HETATM    8  C   UNL     1     -11.401   7.039  69.849  1.00  0.00    -0.260 A  
HETATM    9  H   UNL     1      -9.590   4.635  67.342  1.00  0.00     0.000 HD 
HETATM   10  C   UNL     1     -11.319   6.694  71.207  1.00  0.00    -0.346 A  
HETATM   11  C   UNL     1     -10.645   5.512  71.564  1.00  0.00    -0.302 A  
BRANCH  10  12
HETATM   12  C   UNL     1     -11.914   7.579  72.286  1.00  0.00    -0.263 C  
HETATM   13  O   UNL     1     -11.364   7.235  73.567  1.00  0.00    -0.564 OA 
HETATM   14  H   UNL     1     -11.736   7.790  74.243  1.00  0.00     0.000 HD 
BRANCH  12  15
HETATM   15  C   UNL     1     -11.658   9.078  72.018  1.00  0.00    -0.343 C  
BRANCH  15  16
HETATM   16  N   UNL     1     -12.922   9.811  71.843  1.00  0.00    -0.417 NA 
HETATM   17  H   UNL     1     -13.199  10.304  72.692  1.00  0.00     0.000 HD 
BRANCH  16  18
HETATM   18  C   UNL     1     -12.825  10.710  70.697  1.00  0.00    -0.320 C  
BRANCH  18  19
HETATM   19  C   UNL     1     -11.390  10.754  70.188  1.00  0.00    -0.390 C  
BRANCH  19  20
HETATM   20  C   UNL     1     -11.323  11.516  68.866  1.00  0.00    -0.331 C  
BRANCH  20  21
HETATM   21  C   UNL     1     -11.263  10.550  67.692  1.00  0.00    -0.338 C  
BRANCH  21  22
HETATM   22  C   UNL     1      -9.825  10.277  67.268  1.00  0.00    -0.222 C  
BRANCH  22  23
HETATM   23  C   UNL     1      -9.786   9.202  66.192  1.00  0.00    -0.287 C  
BRANCH  23  24
HETATM   24  O   UNL     1      -8.449   9.089  65.719  1.00  0.00    -0.127 OA 
BRANCH  24  25
HETATM   25  C   UNL     1      -8.150  10.100  64.759  1.00  0.00    -0.153 C  
BRANCH  25  26
HETATM   26  C   UNL     1      -9.221  10.082  63.676  1.00  0.00    -0.314 C  
BRANCH  26  27
HETATM   27  C   UNL     1      -9.539  11.498  63.195  1.00  0.00    -0.381 C  
BRANCH  27  28
HETATM   28  C   UNL     1     -11.015  11.847  63.380  1.00  0.00    -0.470 C  
BRANCH  28  29
HETATM   29  C   UNL     1     -11.183  12.754  64.575  1.00  0.00    -0.373 A  
HETATM   30  C   UNL     1     -12.446  12.950  65.144  1.00  0.00    -0.561 A  
HETATM   31  C   UNL     1     -12.613  13.850  66.196  1.00  0.00    -0.426 A  
HETATM   32  C   UNL     1     -11.520  14.563  66.686  1.00  0.00    -0.373 A  
HETATM   33  C   UNL     1     -10.257  14.372  66.128  1.00  0.00    -0.317 A  
HETATM   34  C   UNL     1     -10.087  13.472  65.076  1.00  0.00    -0.280 A  
ENDBRANCH  28  29
ENDBRANCH  27  28
ENDBRANCH  26  27
ENDBRANCH  25  26
ENDBRANCH  24  25
ENDBRANCH  23  24
ENDBRANCH  22  23
ENDBRANCH  21  22
ENDBRANCH  20  21
ENDBRANCH  19  20
ENDBRANCH  18  19
ENDBRANCH  16  18
ENDBRANCH  15  16
ENDBRANCH  12  15
ENDBRANCH  10  12
ENDBRANCH   2   4
TORSDOF 16
ENDMDL
MODEL      120
REMARK 921   NORMALIZED FREE ENERGY PREDICTED BY IDOCK:   -5.19 KCAL/MOL
REMARK 922        TOTAL FREE ENERGY PREDICTED BY IDOCK:  -12.40 KCAL/MOL
REMARK 923 INTER-LIGAND FREE ENERGY PREDICTED BY IDOCK:   -9.51 KCAL/MOL
REMARK 924 INTRA-LIGAND FREE ENERGY PREDICTED BY IDOCK:   -2.88 KCAL/MOL
REMARK 927      BINDING AFFINITY PREDICTED BY RF-SCORE:    0.00 PKD
ROOT
HETATM    1  O   UNL     1      -8.771   8.154  74.085  1.00  0.00    -0.352 OA 
HETATM    2  C   UNL     1      -8.847   8.002  72.667  1.00  0.00    -0.203 C  
HETATM    3  H   UNL     1      -7.906   7.910  74.395  1.00  0.00     0.000 HD 
ENDROOT
BRANCH   2   4
HETATM    4  C   UNL     1     -10.218   8.387  72.175  1.00  0.00    -0.390 A  
HETATM    5  C   UNL     1     -11.377   7.697  72.545  1.00  0.00    -0.355 A  
HETATM    6  O   UNL     1     -11.330   6.580  73.332  1.00  0.00    -0.458 OA 
HETATM    7  C   UNL     1     -12.633   8.099  72.105  1.00  0.00    -0.349 A  
HETATM    8  C   UNL     1     -12.751   9.197  71.257  1.00  0.00    -0.340 A  
HETATM    9  H   UNL     1     -12.117   6.110  73.583  1.00  0.00     0.000 HD 
HETATM   10  C   UNL     1     -11.613   9.916  70.858  1.00  0.00    -0.456 A  
HETATM   11  C   UNL     1     -10.356   9.514  71.344  1.00  0.00    -0.216 A  
BRANCH  10  12
HETATM   12  C   UNL     1     -11.712  11.088  69.899  1.00  0.00    -0.346 C  
HETATM   13  O   UNL     1     -12.006  12.294  70.621  1.00  0.00    -0.491 OA 
HETATM   14  H   UNL     1     -12.068  13.028  70.020  1.00  0.00     0.000 HD 
BRANCH  12  15
HETATM   15  C   UNL     1     -10.413  11.292  69.090  1.00  0.00    -0.160 C  
BRANCH  15  16
HETATM   16  N   UNL     1     -10.677  12.006  67.830  1.00  0.00    -0.203 NA 
HETATM   17  H   UNL     1     -11.657  11.945  67.554  1.00  0.00     0.000 HD 
BRANCH  16  18
HETATM   18  C   UNL     1     -10.224  13.390  67.934  1.00  0.00    -0.241 C  
BRANCH  18  19
HETATM   19  C   UNL     1     -11.346  14.338  67.529  1.00  0.00    -0.346 C  
BRANCH  19  20
HETATM   20  C   UNL     1     -11.429  14.435  66.007  1.00  0.00    -0.349 C  
BRANCH  20  21
HETATM   21  C   UNL     1     -12.771  13.919  65.509  1.00  0.00    -0.536 C  
BRANCH  21  22
HETATM   22  C   UNL     1     -12.603  12.672  64.649  1.00  0.00    -0.517 C  
BRANCH  22  23
HETATM   23  C   UNL     1     -11.220  12.647  64.018  1.00  0.00    -0.406 C  
BRANCH  23  24
HETATM   24  O   UNL     1     -11.072  11.425  63.307  1.00  0.00    -0.319 OA 
BRANCH  24  25
HETATM   25  C   UNL     1      -9.749  10.908  63.430  1.00  0.00    -0.352 C  
BRANCH  25  26
HETATM   26  C   UNL     1      -9.392  10.817  64.908  1.00  0.00    -0.261 C  
BRANCH  26  27
HETATM   27  C   UNL     1      -9.697   9.424  65.461  1.00  0.00    -0.300 C  
BRANCH  27  28
HETATM   28  C   UNL     1      -8.720   9.021  66.564  1.00  0.00    -0.144 C  
BRANCH  28  29
HETATM   29  C   UNL     1      -9.323   7.927  67.412  1.00  0.00    -0.169 A  
HETATM   30  C   UNL     1     -10.629   7.484  67.172  1.00  0.00    -0.415 A  
HETATM   31  C   UNL     1     -11.213   6.530  68.006  1.00  0.00    -0.251 A  
HETATM   32  C   UNL     1     -10.499   6.015  69.086  1.00  0.00    -0.321 A  
HETATM   33  C   UNL     1      -9.196   6.447  69.330  1.00  0.00    -0.143 A  
HETATM   34  C   UNL     1      -8.609   7.401  68.498  1.00  0.00    -0.128 A  
ENDBRANCH  28  29
ENDBRANCH  27  28
ENDBRANCH  26  27
ENDBRANCH  25  26
ENDBRANCH  24  25
ENDBRANCH  23  24
ENDBRANCH  22  23
ENDBRANCH  21  22
ENDBRANCH  20  21
ENDBRANCH  19  20
ENDBRANCH  18  19
ENDBRANCH  16  18
ENDBRANCH  15  16
ENDBRANCH  12  15
ENDBRANCH  10  12
ENDBRANCH   2   4
TORSDOF 16
ENDMDL
MODEL      121
REMARK 921   NORMALIZED FREE ENERGY PREDICTED BY IDOCK:   -5.19 KCAL/MOL
REMARK 922        TOTAL FREE ENERGY PREDICTED BY IDOCK:  -12.39 KCAL/MOL
REMARK 923 INTER-LIGAND FREE ENERGY PREDICTED BY IDOCK:   -9.38 KCAL/MOL
REMARK 924 INTRA-LIGAND FREE ENERGY PREDICTED BY IDOCK:   -3.00 KCAL/MOL
REMARK 927      BINDING AFFINITY PREDICTED BY RF-SCORE:    0.00 PKD
ROOT
HETATM    1  O   UNL     1      -8.383  16.465  68.814  1.00  0.00    -0.218 OA 
HETATM    2  C   UNL     1      -9.514  16.897  68.057  1.00  0.00    -0.243 C  
HETATM    3  H   UNL     1      -7.818  17.204  69.010  1.00  0.00     0.000 HD 
ENDROOT
BRANCH   2   4
HETATM    4  C   UNL     1     -10.410  15.727  67.746  1.00  0.00    -0.275 A  
HETATM    5  C   UNL     1     -10.763  14.768  68.702  1.00  0.00    -0.253 A  
HETATM    6  O   UNL     1     -10.259  14.798  69.973  1.00  0.00    -0.452 OA 
HETATM    7  C   UNL     1     -11.623  13.719  68.396  1.00  0.00    -0.369 A  
HETATM    8  C   UNL     1     -12.131  13.596  67.105  1.00  0.00    -0.404 A  
HETATM    9  H   UNL     1     -10.498  14.147  70.622  1.00  0.00     0.000 HD 
HETATM   10  C   UNL     1     -11.800  14.534  66.114  1.00  0.00    -0.344 A  
HETATM   11  C   UNL     1     -10.958  15.607  66.456  1.00  0.00    -0.206 A  
BRANCH  10  12
HETATM   12  C   UNL     1     -12.306  14.394  64.691  1.00  0.00    -0.418 C  
HETATM   13  O   UNL     1     -11.793  15.460  63.877  1.00  0.00    -0.909 OA 
HETATM   14  H   UNL     1     -12.110  15.373  62.985  1.00  0.00     0.000 HD 
BRANCH  12  15
HETATM   15  C   UNL     1     -11.905  13.044  64.059  1.00  0.00    -0.445 C  
BRANCH  15  16
HETATM   16  N   UNL     1     -10.447  12.955  63.876  1.00  0.00    -0.473 NA 
HETATM   17  H   UNL     1      -9.939  13.235  64.714  1.00  0.00     0.000 HD 
BRANCH  16  18
HETATM   18  C   UNL     1     -10.078  11.612  63.437  1.00  0.00    -0.440 C  
BRANCH  18  19
HETATM   19  C   UNL     1      -9.292  10.902  64.532  1.00  0.00    -0.256 C  
BRANCH  19  20
HETATM   20  C   UNL     1     -10.132  10.801  65.803  1.00  0.00    -0.320 C  
BRANCH  20  21
HETATM   21  C   UNL     1     -10.218   9.358  66.277  1.00  0.00    -0.284 C  
BRANCH  21  22
HETATM   22  C   UNL     1      -9.257   8.461  65.506  1.00  0.00    -0.057 C  
BRANCH  22  23
HETATM   23  C   UNL     1      -8.179   7.922  66.434  1.00  0.00    -0.121 C  
BRANCH  23  24
HETATM   24  O   UNL     1      -7.111   8.859  66.473  1.00  0.00    -0.082 OA 
BRANCH  24  25
HETATM   25  C   UNL     1      -6.722   9.150  67.814  1.00  0.00    -0.065 C  
BRANCH  25  26
HETATM   26  C   UNL     1      -6.985  10.625  68.092  1.00  0.00    -0.073 C  
BRANCH  26  27
HETATM   27  C   UNL     1      -8.196  10.802  69.009  1.00  0.00    -0.139 C  
BRANCH  27  28
HETATM   28  C   UNL     1      -8.547   9.513  69.748  1.00  0.00    -0.201 C  
BRANCH  28  29
HETATM   29  C   UNL     1      -9.951   9.600  70.297  1.00  0.00    -0.326 A  
HETATM   30  C   UNL     1     -10.868  10.508  69.755  1.00  0.00    -0.335 A  
HETATM   31  C   UNL     1     -12.138  10.644  70.315  1.00  0.00    -0.423 A  
HETATM   32  C   UNL     1     -12.500   9.878  71.421  1.00  0.00    -0.495 A  
HETATM   33  C   UNL     1     -11.595   8.968  71.966  1.00  0.00    -0.413 A  
HETATM   34  C   UNL     1     -10.324   8.830  71.407  1.00  0.00    -0.348 A  
ENDBRANCH  28  29
ENDBRANCH  27  28
ENDBRANCH  26  27
ENDBRANCH  25  26
ENDBRANCH  24  25
ENDBRANCH  23  24
ENDBRANCH  22  23
ENDBRANCH  21  22
ENDBRANCH  20  21
ENDBRANCH  19  20
ENDBRANCH  18  19
ENDBRANCH  16  18
ENDBRANCH  15  16
ENDBRANCH  12  15
ENDBRANCH  10  12
ENDBRANCH   2   4
TORSDOF 16
ENDMDL
MODEL      122
REMARK 921   NORMALIZED FREE ENERGY PREDICTED BY IDOCK:   -5.19 KCAL/MOL
REMARK 922        TOTAL FREE ENERGY PREDICTED BY IDOCK:  -12.38 KCAL/MOL
REMARK 923 INTER-LIGAND FREE ENERGY PREDICTED BY IDOCK:  -10.06 KCAL/MOL
REMARK 924 INTRA-LIGAND FREE ENERGY PREDICTED BY IDOCK:   -2.32 KCAL/MOL
REMARK 927      BINDING AFFINITY PREDICTED BY RF-SCORE:    0.00 PKD
ROOT
HETATM    1  O   UNL     1     -13.754  10.451  72.412  1.00  0.00    -0.545 OA 
HETATM    2  C   UNL     1     -13.245  10.119  71.119  1.00  0.00    -0.355 C  
HETATM    3  H   UNL     1     -14.641  10.786  72.340  1.00  0.00     0.000 HD 
ENDROOT
BRANCH   2   4
HETATM    4  C   UNL     1     -11.840   9.589  71.234  1.00  0.00    -0.450 A  
HETATM    5  C   UNL     1     -11.463   8.642  72.193  1.00  0.00    -0.373 A  
HETATM    6  O   UNL     1     -12.340   8.183  73.136  1.00  0.00    -0.652 OA 
HETATM    7  C   UNL     1     -10.166   8.143  72.250  1.00  0.00    -0.348 A  
HETATM    8  C   UNL     1      -9.207   8.606  71.353  1.00  0.00    -0.303 A  
HETATM    9  H   UNL     1     -12.084   7.540  73.787  1.00  0.00     0.000 HD 
HETATM   10  C   UNL     1      -9.541   9.559  70.378  1.00  0.00    -0.326 A  
HETATM   11  C   UNL     1     -10.867  10.023  70.315  1.00  0.00    -0.370 A  
BRANCH  10  12
HETATM   12  C   UNL     1      -8.501  10.111  69.421  1.00  0.00    -0.171 C  
HETATM   13  O   UNL     1      -7.526   9.102  69.115  1.00  0.00    -0.070 OA 
HETATM   14  H   UNL     1      -6.875   9.447  68.515  1.00  0.00     0.000 HD 
BRANCH  12  15
HETATM   15  C   UNL     1      -9.129  10.615  68.104  1.00  0.00    -0.148 C  
BRANCH  15  16
HETATM   16  N   UNL     1      -9.066  12.083  68.011  1.00  0.00    -0.182 NA 
HETATM   17  H   UNL     1      -9.663  12.535  68.704  1.00  0.00     0.000 HD 
BRANCH  16  18
HETATM   18  C   UNL     1      -7.681  12.532  68.107  1.00  0.00    -0.141 C  
BRANCH  18  19
HETATM   19  C   UNL     1      -7.634  14.002  68.505  1.00  0.00    -0.130 C  
BRANCH  19  20
HETATM   20  C   UNL     1      -7.528  14.882  67.261  1.00  0.00    -0.193 C  
BRANCH  20  21
HETATM   21  C   UNL     1      -7.006  16.264  67.624  1.00  0.00    -0.168 C  
BRANCH  21  22
HETATM   22  C   UNL     1      -7.684  17.350  66.798  1.00  0.00    -0.273 C  
BRANCH  22  23
HETATM   23  C   UNL     1      -8.943  17.838  67.498  1.00  0.00    -0.244 C  
BRANCH  23  24
HETATM   24  O   UNL     1     -10.069  17.250  66.858  1.00  0.00    -0.284 OA 
BRANCH  24  25
HETATM   25  C   UNL     1     -10.894  16.554  67.790  1.00  0.00    -0.304 C  
BRANCH  25  26
HETATM   26  C   UNL     1     -11.168  15.155  67.253  1.00  0.00    -0.324 C  
BRANCH  26  27
HETATM   27  C   UNL     1     -12.023  14.350  68.232  1.00  0.00    -0.323 C  
BRANCH  27  28
HETATM   28  C   UNL     1     -11.252  13.987  69.499  1.00  0.00    -0.249 C  
BRANCH  28  29
HETATM   29  C   UNL     1     -11.986  14.506  70.714  1.00  0.00    -0.388 A  
HETATM   30  C   UNL     1     -11.525  15.642  71.387  1.00  0.00    -0.488 A  
HETATM   31  C   UNL     1     -12.156  16.072  72.554  1.00  0.00    -0.635 A  
HETATM   32  C   UNL     1     -13.249  15.369  73.058  1.00  0.00    -0.638 A  
HETATM   33  C   UNL     1     -13.717  14.237  72.392  1.00  0.00    -0.616 A  
HETATM   34  C   UNL     1     -13.088  13.805  71.224  1.00  0.00    -0.370 A  
ENDBRANCH  28  29
ENDBRANCH  27  28
ENDBRANCH  26  27
ENDBRANCH  25  26
ENDBRANCH  24  25
ENDBRANCH  23  24
ENDBRANCH  22  23
ENDBRANCH  21  22
ENDBRANCH  20  21
ENDBRANCH  19  20
ENDBRANCH  18  19
ENDBRANCH  16  18
ENDBRANCH  15  16
ENDBRANCH  12  15
ENDBRANCH  10  12
ENDBRANCH   2   4
TORSDOF 16
ENDMDL
MODEL      123
REMARK 921   NORMALIZED FREE ENERGY PREDICTED BY IDOCK:   -5.18 KCAL/MOL
REMARK 922        TOTAL FREE ENERGY PREDICTED BY IDOCK:  -12.37 KCAL/MOL
REMARK 923 INTER-LIGAND FREE ENERGY PREDICTED BY IDOCK:  -10.33 KCAL/MOL
REMARK 924 INTRA-LIGAND FREE ENERGY PREDICTED BY IDOCK:   -2.04 KCAL/MOL
REMARK 927      BINDING AFFINITY PREDICTED BY RF-SCORE:    0.00 PKD
ROOT
HETATM    1  O   UNL     1      -9.127   5.871  74.045  1.00  0.00    -0.125 OA 
HETATM    2  C   UNL     1      -9.799   5.198  72.979  1.00  0.00    -0.154 C  
HETATM    3  H   UNL     1      -8.870   5.248  74.716  1.00  0.00     0.000 HD 
ENDROOT
BRANCH   2   4
HETATM    4  C   UNL     1     -10.207   6.185  71.917  1.00  0.00    -0.231 A  
HETATM    5  C   UNL     1     -10.983   7.317  72.192  1.00  0.00    -0.239 A  
HETATM    6  O   UNL     1     -11.478   7.565  73.442  1.00  0.00    -0.629 OA 
HETATM    7  C   UNL     1     -11.313   8.230  71.196  1.00  0.00    -0.298 A  
HETATM    8  C   UNL     1     -10.888   8.011  69.888  1.00  0.00    -0.217 A  
HETATM    9  H   UNL     1     -12.005   8.333  73.629  1.00  0.00     0.000 HD 
HETATM   10  C   UNL     1     -10.111   6.887  69.568  1.00  0.00    -0.183 A  
HETATM   11  C   UNL     1      -9.759   5.995  70.597  1.00  0.00    -0.209 A  
BRANCH  10  12
HETATM   12  C   UNL     1      -9.675   6.605  68.142  1.00  0.00    -0.130 C  
HETATM   13  O   UNL     1      -9.604   5.189  67.918  1.00  0.00    -0.125 OA 
HETATM   14  H   UNL     1      -9.331   5.012  67.025  1.00  0.00     0.000 HD 
BRANCH  12  15
HETATM   15  C   UNL     1     -10.634   7.228  67.105  1.00  0.00    -0.346 C  
BRANCH  15  16
HETATM   16  N   UNL     1      -9.900   8.043  66.123  1.00  0.00    -0.467 NA 
HETATM   17  H   UNL     1     -10.401   8.116  65.237  1.00  0.00     0.000 HD 
BRANCH  16  18
HETATM   18  C   UNL     1      -9.594   9.353  66.688  1.00  0.00    -0.192 C  
BRANCH  18  19
HETATM   19  C   UNL     1     -10.216  10.449  65.832  1.00  0.00    -0.302 C  
BRANCH  19  20
HETATM   20  C   UNL     1      -9.701  10.354  64.398  1.00  0.00    -0.396 C  
BRANCH  20  21
HETATM   21  C   UNL     1     -10.052  11.612  63.616  1.00  0.00    -0.435 C  
BRANCH  21  22
HETATM   22  C   UNL     1     -11.561  11.786  63.489  1.00  0.00    -0.487 C  
BRANCH  22  23
HETATM   23  C   UNL     1     -11.962  13.206  63.856  1.00  0.00    -0.488 C  
BRANCH  23  24
HETATM   24  O   UNL     1     -12.991  13.143  64.836  1.00  0.00    -0.734 OA 
BRANCH  24  25
HETATM   25  C   UNL     1     -12.761  14.072  65.893  1.00  0.00    -0.397 C  
BRANCH  25  26
HETATM   26  C   UNL     1     -11.291  14.013  66.287  1.00  0.00    -0.336 C  
BRANCH  26  27
HETATM   27  C   UNL     1     -11.126  13.488  67.714  1.00  0.00    -0.291 C  
BRANCH  27  28
HETATM   28  C   UNL     1     -11.693  14.458  68.749  1.00  0.00    -0.372 C  
BRANCH  28  29
HETATM   29  C   UNL     1     -12.311  13.687  69.891  1.00  0.00    -0.310 A  
HETATM   30  C   UNL     1     -12.993  14.358  70.912  1.00  0.00    -0.413 A  
HETATM   31  C   UNL     1     -13.492  13.653  72.007  1.00  0.00    -0.573 A  
HETATM   32  C   UNL     1     -13.311  12.274  72.092  1.00  0.00    -0.473 A  
HETATM   33  C   UNL     1     -12.636  11.596  71.078  1.00  0.00    -0.431 A  
HETATM   34  C   UNL     1     -12.136  12.298  69.981  1.00  0.00    -0.346 A  
ENDBRANCH  28  29
ENDBRANCH  27  28
ENDBRANCH  26  27
ENDBRANCH  25  26
ENDBRANCH  24  25
ENDBRANCH  23  24
ENDBRANCH  22  23
ENDBRANCH  21  22
ENDBRANCH  20  21
ENDBRANCH  19  20
ENDBRANCH  18  19
ENDBRANCH  16  18
ENDBRANCH  15  16
ENDBRANCH  12  15
ENDBRANCH  10  12
ENDBRANCH   2   4
TORSDOF 16
ENDMDL
MODEL      124
REMARK 921   NORMALIZED FREE ENERGY PREDICTED BY IDOCK:   -5.17 KCAL/MOL
REMARK 922        TOTAL FREE ENERGY PREDICTED BY IDOCK:  -12.36 KCAL/MOL
REMARK 923 INTER-LIGAND FREE ENERGY PREDICTED BY IDOCK:   -9.37 KCAL/MOL
REMARK 924 INTRA-LIGAND FREE ENERGY PREDICTED BY IDOCK:   -2.99 KCAL/MOL
REMARK 927      BINDING AFFINITY PREDICTED BY RF-SCORE:    0.00 PKD
ROOT
HETATM    1  O   UNL     1     -13.048   7.118  70.506  1.00  0.00    -0.525 OA 
HETATM    2  C   UNL     1     -11.717   6.660  70.746  1.00  0.00    -0.388 C  
HETATM    3  H   UNL     1     -13.657   6.677  71.089  1.00  0.00     0.000 HD 
ENDROOT
BRANCH   2   4
HETATM    4  C   UNL     1     -10.753   7.357  69.822  1.00  0.00    -0.252 A  
HETATM    5  C   UNL     1     -10.761   7.169  68.435  1.00  0.00    -0.147 A  
HETATM    6  O   UNL     1     -11.610   6.282  67.833  1.00  0.00    -0.518 OA 
HETATM    7  C   UNL     1      -9.883   7.855  67.604  1.00  0.00    -0.212 A  
HETATM    8  C   UNL     1      -8.954   8.734  68.155  1.00  0.00    -0.141 A  
HETATM    9  H   UNL     1     -11.616   6.154  66.892  1.00  0.00     0.000 HD 
HETATM   10  C   UNL     1      -8.908   8.950  69.541  1.00  0.00    -0.144 A  
HETATM   11  C   UNL     1      -9.829   8.272  70.359  1.00  0.00    -0.194 A  
BRANCH  10  12
HETATM   12  C   UNL     1      -7.875   9.868  70.166  1.00  0.00    -0.171 C  
HETATM   13  O   UNL     1      -6.971   9.110  70.986  1.00  0.00    -0.091 OA 
HETATM   14  H   UNL     1      -6.323   9.685  71.377  1.00  0.00     0.000 HD 
BRANCH  12  15
HETATM   15  C   UNL     1      -7.061  10.639  69.105  1.00  0.00    -0.095 C  
BRANCH  15  16
HETATM   16  N   UNL     1      -7.644  11.966  68.847  1.00  0.00    -0.271 NA 
HETATM   17  H   UNL     1      -7.151  12.704  69.349  1.00  0.00     0.000 HD 
BRANCH  16  18
HETATM   18  C   UNL     1      -7.693  12.221  67.411  1.00  0.00    -0.165 C  
BRANCH  18  19
HETATM   19  C   UNL     1      -9.059  11.837  66.858  1.00  0.00    -0.192 C  
BRANCH  19  20
HETATM   20  C   UNL     1      -8.913  11.227  65.466  1.00  0.00    -0.139 C  
BRANCH  20  21
HETATM   21  C   UNL     1     -10.229  10.619  65.005  1.00  0.00    -0.380 C  
BRANCH  21  22
HETATM   22  C   UNL     1     -10.778  11.342  63.781  1.00  0.00    -0.470 C  
BRANCH  22  23
HETATM   23  C   UNL     1     -11.800  12.388  64.200  1.00  0.00    -0.413 C  
BRANCH  23  24
HETATM   24  O   UNL     1     -11.143  13.646  64.294  1.00  0.00    -0.375 OA 
BRANCH  24  25
HETATM   25  C   UNL     1     -11.831  14.529  65.176  1.00  0.00    -0.374 C  
BRANCH  25  26
HETATM   26  C   UNL     1     -11.108  14.544  66.517  1.00  0.00    -0.332 C  
BRANCH  26  27
HETATM   27  C   UNL     1     -11.946  13.862  67.600  1.00  0.00    -0.403 C  
BRANCH  27  28
HETATM   28  C   UNL     1     -11.180  13.729  68.915  1.00  0.00    -0.309 C  
BRANCH  28  29
HETATM   29  C   UNL     1     -11.906  12.780  69.839  1.00  0.00    -0.371 A  
HETATM   30  C   UNL     1     -12.568  13.262  70.973  1.00  0.00    -0.408 A  
HETATM   31  C   UNL     1     -13.169  12.376  71.867  1.00  0.00    -0.486 A  
HETATM   32  C   UNL     1     -13.109  11.003  71.637  1.00  0.00    -0.543 A  
HETATM   33  C   UNL     1     -12.455  10.513  70.507  1.00  0.00    -0.433 A  
HETATM   34  C   UNL     1     -11.854  11.397  69.611  1.00  0.00    -0.431 A  
ENDBRANCH  28  29
ENDBRANCH  27  28
ENDBRANCH  26  27
ENDBRANCH  25  26
ENDBRANCH  24  25
ENDBRANCH  23  24
ENDBRANCH  22  23
ENDBRANCH  21  22
ENDBRANCH  20  21
ENDBRANCH  19  20
ENDBRANCH  18  19
ENDBRANCH  16  18
ENDBRANCH  15  16
ENDBRANCH  12  15
ENDBRANCH  10  12
ENDBRANCH   2   4
TORSDOF 16
ENDMDL
MODEL      125
REMARK 921   NORMALIZED FREE ENERGY PREDICTED BY IDOCK:   -5.17 KCAL/MOL
REMARK 922        TOTAL FREE ENERGY PREDICTED BY IDOCK:  -12.35 KCAL/MOL
REMARK 923 INTER-LIGAND FREE ENERGY PREDICTED BY IDOCK:  -10.71 KCAL/MOL
REMARK 924 INTRA-LIGAND FREE ENERGY PREDICTED BY IDOCK:   -1.63 KCAL/MOL
REMARK 927      BINDING AFFINITY PREDICTED BY RF-SCORE:    0.00 PKD
ROOT
HETATM    1  O   UNL     1     -14.254   8.778  73.003  1.00  0.00    -1.075 OA 
HETATM    2  C   UNL     1     -13.211   7.994  72.422  1.00  0.00    -0.008 C  
HETATM    3  H   UNL     1     -14.745   8.259  73.629  1.00  0.00     0.000 HD 
ENDROOT
BRANCH   2   4
HETATM    4  C   UNL     1     -12.432   8.817  71.430  1.00  0.00    -0.348 A  
HETATM    5  C   UNL     1     -12.431  10.216  71.441  1.00  0.00    -0.423 A  
HETATM    6  O   UNL     1     -13.196  10.931  72.321  1.00  0.00    -0.613 OA 
HETATM    7  C   UNL     1     -11.672  10.949  70.535  1.00  0.00    -0.441 A  
HETATM    8  C   UNL     1     -10.910  10.286  69.575  1.00  0.00    -0.292 A  
HETATM    9  H   UNL     1     -13.195  11.881  72.328  1.00  0.00     0.000 HD 
HETATM   10  C   UNL     1     -10.886   8.883  69.526  1.00  0.00    -0.163 A  
HETATM   11  C   UNL     1     -11.633   8.162  70.475  1.00  0.00    -0.130 A  
BRANCH  10  12
HETATM   12  C   UNL     1     -10.100   8.142  68.461  1.00  0.00    -0.200 C  
HETATM   13  O   UNL     1     -10.933   7.160  67.826  1.00  0.00    -0.450 OA 
HETATM   14  H   UNL     1     -10.441   6.696  67.158  1.00  0.00     0.000 HD 
BRANCH  12  15
HETATM   15  C   UNL     1      -9.536   9.093  67.384  1.00  0.00    -0.143 C  
BRANCH  15  16
HETATM   16  N   UNL     1      -8.553   8.407  66.530  1.00  0.00    -0.115 NA 
HETATM   17  H   UNL     1      -8.650   7.393  66.574  1.00  0.00     0.000 HD 
BRANCH  16  18
HETATM   18  C   UNL     1      -8.644   8.906  65.161  1.00  0.00    -0.182 C  
BRANCH  18  19
HETATM   19  C   UNL     1      -9.053  10.373  65.166  1.00  0.00    -0.232 C  
BRANCH  19  20
HETATM   20  C   UNL     1      -9.117  10.907  63.737  1.00  0.00    -0.186 C  
BRANCH  20  21
HETATM   21  C   UNL     1     -10.532  11.344  63.389  1.00  0.00    -0.452 C  
BRANCH  21  22
HETATM   22  C   UNL     1     -11.373  11.558  64.642  1.00  0.00    -0.226 C  
BRANCH  22  23
HETATM   23  C   UNL     1     -12.113  12.884  64.562  1.00  0.00    -0.413 C  
BRANCH  23  24
HETATM   24  O   UNL     1     -12.438  13.297  65.883  1.00  0.00    -0.426 OA 
BRANCH  24  25
HETATM   25  C   UNL     1     -12.048  14.648  66.118  1.00  0.00    -0.201 C  
BRANCH  25  26
HETATM   26  C   UNL     1     -10.971  14.668  67.195  1.00  0.00    -0.316 C  
BRANCH  26  27
HETATM   27  C   UNL     1     -11.488  15.327  68.475  1.00  0.00    -0.355 C  
BRANCH  27  28
HETATM   28  C   UNL     1     -12.267  14.345  69.349  1.00  0.00    -0.305 C  
BRANCH  28  29
HETATM   29  C   UNL     1     -12.359  14.874  70.760  1.00  0.00    -0.392 A  
HETATM   30  C   UNL     1     -11.649  16.020  71.135  1.00  0.00    -0.492 A  
HETATM   31  C   UNL     1     -11.671  16.461  72.458  1.00  0.00    -0.447 A  
HETATM   32  C   UNL     1     -12.400  15.759  73.416  1.00  0.00    -0.638 A  
HETATM   33  C   UNL     1     -13.113  14.618  73.052  1.00  0.00    -0.616 A  
HETATM   34  C   UNL     1     -13.093  14.175  71.729  1.00  0.00    -0.434 A  
ENDBRANCH  28  29
ENDBRANCH  27  28
ENDBRANCH  26  27
ENDBRANCH  25  26
ENDBRANCH  24  25
ENDBRANCH  23  24
ENDBRANCH  22  23
ENDBRANCH  21  22
ENDBRANCH  20  21
ENDBRANCH  19  20
ENDBRANCH  18  19
ENDBRANCH  16  18
ENDBRANCH  15  16
ENDBRANCH  12  15
ENDBRANCH  10  12
ENDBRANCH   2   4
TORSDOF 16
ENDMDL
MODEL      126
REMARK 921   NORMALIZED FREE ENERGY PREDICTED BY IDOCK:   -5.16 KCAL/MOL
REMARK 922        TOTAL FREE ENERGY PREDICTED BY IDOCK:  -12.34 KCAL/MOL
REMARK 923 INTER-LIGAND FREE ENERGY PREDICTED BY IDOCK:   -9.00 KCAL/MOL
REMARK 924 INTRA-LIGAND FREE ENERGY PREDICTED BY IDOCK:   -3.34 KCAL/MOL
REMARK 927      BINDING AFFINITY PREDICTED BY RF-SCORE:    0.00 PKD
ROOT
HETATM    1  O   UNL     1     -11.562   4.530  65.189  1.00  0.00    -1.102 OA 
HETATM    2  C   UNL     1     -10.165   4.552  65.486  1.00  0.00    -0.231 C  
HETATM    3  H   UNL     1     -11.698   4.572  64.249  1.00  0.00     0.000 HD 
ENDROOT
BRANCH   2   4
HETATM    4  C   UNL     1      -9.948   4.486  66.975  1.00  0.00    -0.215 A  
HETATM    5  C   UNL     1      -9.215   3.464  67.590  1.00  0.00    -0.190 A  
HETATM    6  O   UNL     1      -8.699   2.418  66.876  1.00  0.00    -0.109 OA 
HETATM    7  C   UNL     1      -9.001   3.450  68.963  1.00  0.00    -0.185 A  
HETATM    8  C   UNL     1      -9.543   4.457  69.759  1.00  0.00    -0.276 A  
HETATM    9  H   UNL     1      -8.202   1.724  67.293  1.00  0.00     0.000 HD 
HETATM   10  C   UNL     1     -10.289   5.498  69.184  1.00  0.00    -0.318 A  
HETATM   11  C   UNL     1     -10.463   5.512  67.789  1.00  0.00    -0.245 A  
BRANCH  10  12
HETATM   12  C   UNL     1     -10.927   6.579  70.036  1.00  0.00    -0.332 C  
HETATM   13  O   UNL     1     -12.264   6.841  69.583  1.00  0.00    -0.504 OA 
HETATM   14  H   UNL     1     -12.664   7.518  70.117  1.00  0.00     0.000 HD 
BRANCH  12  15
HETATM   15  C   UNL     1     -10.971   6.194  71.530  1.00  0.00    -0.273 C  
BRANCH  15  16
HETATM   16  N   UNL     1     -12.144   6.781  72.197  1.00  0.00    -0.453 NA 
HETATM   17  H   UNL     1     -12.400   6.269  73.041  1.00  0.00     0.000 HD 
BRANCH  16  18
HETATM   18  C   UNL     1     -11.911   8.197  72.467  1.00  0.00    -0.350 C  
BRANCH  18  19
HETATM   19  C   UNL     1     -13.157   9.005  72.127  1.00  0.00    -0.496 C  
BRANCH  19  20
HETATM   20  C   UNL     1     -12.762  10.374  71.575  1.00  0.00    -0.564 C  
BRANCH  20  21
HETATM   21  C   UNL     1     -11.432  10.294  70.841  1.00  0.00    -0.425 C  
BRANCH  21  22
HETATM   22  C   UNL     1     -11.611  10.495  69.341  1.00  0.00    -0.318 C  
BRANCH  22  23
HETATM   23  C   UNL     1     -11.212  11.908  68.946  1.00  0.00    -0.254 C  
BRANCH  23  24
HETATM   24  O   UNL     1     -11.925  12.264  67.768  1.00  0.00    -0.474 OA 
BRANCH  24  25
HETATM   25  C   UNL     1     -11.289  11.750  66.600  1.00  0.00    -0.316 C  
BRANCH  25  26
HETATM   26  C   UNL     1      -9.828  12.182  66.606  1.00  0.00    -0.224 C  
BRANCH  26  27
HETATM   27  C   UNL     1      -8.936  11.107  65.984  1.00  0.00    -0.210 C  
BRANCH  27  28
HETATM   28  C   UNL     1      -9.609   9.736  65.983  1.00  0.00    -0.296 C  
BRANCH  28  29
HETATM   29  C   UNL     1      -8.776   8.754  66.773  1.00  0.00    -0.134 A  
HETATM   30  C   UNL     1      -8.596   8.924  68.150  1.00  0.00    -0.130 A  
HETATM   31  C   UNL     1      -7.762   8.063  68.863  1.00  0.00    -0.104 A  
HETATM   32  C   UNL     1      -7.099   7.029  68.205  1.00  0.00    -0.082 A  
HETATM   33  C   UNL     1      -7.274   6.849  66.834  1.00  0.00    -0.077 A  
HETATM   34  C   UNL     1      -8.109   7.709  66.118  1.00  0.00    -0.118 A  
ENDBRANCH  28  29
ENDBRANCH  27  28
ENDBRANCH  26  27
ENDBRANCH  25  26
ENDBRANCH  24  25
ENDBRANCH  23  24
ENDBRANCH  22  23
ENDBRANCH  21  22
ENDBRANCH  20  21
ENDBRANCH  19  20
ENDBRANCH  18  19
ENDBRANCH  16  18
ENDBRANCH  15  16
ENDBRANCH  12  15
ENDBRANCH  10  12
ENDBRANCH   2   4
TORSDOF 16
ENDMDL
MODEL      127
REMARK 921   NORMALIZED FREE ENERGY PREDICTED BY IDOCK:   -5.15 KCAL/MOL
REMARK 922        TOTAL FREE ENERGY PREDICTED BY IDOCK:  -12.31 KCAL/MOL
REMARK 923 INTER-LIGAND FREE ENERGY PREDICTED BY IDOCK:  -11.02 KCAL/MOL
REMARK 924 INTRA-LIGAND FREE ENERGY PREDICTED BY IDOCK:   -1.29 KCAL/MOL
REMARK 927      BINDING AFFINITY PREDICTED BY RF-SCORE:    0.00 PKD
ROOT
HETATM    1  O   UNL     1      -5.217  17.161  66.185  1.00  0.00    -0.334 OA 
HETATM    2  C   UNL     1      -5.724  18.483  65.998  1.00  0.00    -0.171 C  
HETATM    3  H   UNL     1      -4.287  17.135  65.991  1.00  0.00     0.000 HD 
ENDROOT
BRANCH   2   4
HETATM    4  C   UNL     1      -7.197  18.525  66.306  1.00  0.00    -0.288 A  
HETATM    5  C   UNL     1      -8.007  19.623  65.992  1.00  0.00    -0.328 A  
HETATM    6  O   UNL     1      -7.492  20.763  65.439  1.00  0.00    -0.494 OA 
HETATM    7  C   UNL     1      -9.372  19.617  66.255  1.00  0.00    -0.453 A  
HETATM    8  C   UNL     1      -9.954  18.510  66.866  1.00  0.00    -0.370 A  
HETATM    9  H   UNL     1      -8.041  21.508  65.226  1.00  0.00     0.000 HD 
HETATM   10  C   UNL     1      -9.178  17.389  67.202  1.00  0.00    -0.241 A  
HETATM   11  C   UNL     1      -7.807  17.402  66.894  1.00  0.00    -0.258 A  
BRANCH  10  12
HETATM   12  C   UNL     1      -9.783  16.190  67.909  1.00  0.00    -0.225 C  
HETATM   13  O   UNL     1     -10.490  16.615  69.085  1.00  0.00    -0.293 OA 
HETATM   14  H   UNL     1     -10.869  15.865  69.528  1.00  0.00     0.000 HD 
BRANCH  12  15
HETATM   15  C   UNL     1     -10.751  15.404  67.000  1.00  0.00    -0.321 C  
BRANCH  15  16
HETATM   16  N   UNL     1     -10.018  14.620  65.993  1.00  0.00    -0.300 NA 
HETATM   17  H   UNL     1      -9.690  13.730  66.366  1.00  0.00     0.000 HD 
BRANCH  16  18
HETATM   18  C   UNL     1     -10.840  14.443  64.800  1.00  0.00    -0.399 C  
BRANCH  18  19
HETATM   19  C   UNL     1     -10.567  13.080  64.176  1.00  0.00    -0.421 C  
BRANCH  19  20
HETATM   20  C   UNL     1     -11.197  11.977  65.022  1.00  0.00    -0.374 C  
BRANCH  20  21
HETATM   21  C   UNL     1     -10.228  10.817  65.201  1.00  0.00    -0.365 C  
BRANCH  21  22
HETATM   22  C   UNL     1      -9.882  10.601  66.669  1.00  0.00    -0.245 C  
BRANCH  22  23
HETATM   23  C   UNL     1     -10.826  11.398  67.557  1.00  0.00    -0.244 C  
BRANCH  23  24
HETATM   24  O   UNL     1     -11.431  10.506  68.484  1.00  0.00    -0.270 OA 
BRANCH  24  25
HETATM   25  C   UNL     1     -10.496  10.058  69.463  1.00  0.00    -0.240 C  
BRANCH  25  26
HETATM   26  C   UNL     1     -11.181  10.039  70.823  1.00  0.00    -0.428 C  
BRANCH  26  27
HETATM   27  C   UNL     1     -12.643  10.476  70.708  1.00  0.00    -0.474 C  
BRANCH  27  28
HETATM   28  C   UNL     1     -13.112  11.235  71.947  1.00  0.00    -0.510 C  
BRANCH  28  29
HETATM   29  C   UNL     1     -13.191  12.713  71.645  1.00  0.00    -0.394 A  
HETATM   30  C   UNL     1     -12.337  13.290  70.699  1.00  0.00    -0.416 A  
HETATM   31  C   UNL     1     -12.357  14.667  70.480  1.00  0.00    -0.400 A  
HETATM   32  C   UNL     1     -13.228  15.478  71.205  1.00  0.00    -0.588 A  
HETATM   33  C   UNL     1     -14.086  14.911  72.147  1.00  0.00    -0.616 A  
HETATM   34  C   UNL     1     -14.068  13.534  72.368  1.00  0.00    -0.563 A  
ENDBRANCH  28  29
ENDBRANCH  27  28
ENDBRANCH  26  27
ENDBRANCH  25  26
ENDBRANCH  24  25
ENDBRANCH  23  24
ENDBRANCH  22  23
ENDBRANCH  21  22
ENDBRANCH  20  21
ENDBRANCH  19  20
ENDBRANCH  18  19
ENDBRANCH  16  18
ENDBRANCH  15  16
ENDBRANCH  12  15
ENDBRANCH  10  12
ENDBRANCH   2   4
TORSDOF 16
ENDMDL
MODEL      128
REMARK 921   NORMALIZED FREE ENERGY PREDICTED BY IDOCK:   -5.15 KCAL/MOL
REMARK 922        TOTAL FREE ENERGY PREDICTED BY IDOCK:  -12.31 KCAL/MOL
REMARK 923 INTER-LIGAND FREE ENERGY PREDICTED BY IDOCK:   -9.56 KCAL/MOL
REMARK 924 INTRA-LIGAND FREE ENERGY PREDICTED BY IDOCK:   -2.75 KCAL/MOL
REMARK 927      BINDING AFFINITY PREDICTED BY RF-SCORE:    0.00 PKD
ROOT
HETATM    1  O   UNL     1     -13.382  10.794  71.926  1.00  0.00    -0.427 OA 
HETATM    2  C   UNL     1     -12.057  10.576  71.442  1.00  0.00    -0.282 C  
HETATM    3  H   UNL     1     -13.511  11.715  72.126  1.00  0.00     0.000 HD 
ENDROOT
BRANCH   2   4
HETATM    4  C   UNL     1     -11.852   9.117  71.126  1.00  0.00    -0.374 A  
HETATM    5  C   UNL     1     -12.483   8.092  71.839  1.00  0.00    -0.330 A  
HETATM    6  O   UNL     1     -13.281   8.350  72.919  1.00  0.00    -0.631 OA 
HETATM    7  C   UNL     1     -12.303   6.755  71.501  1.00  0.00    -0.407 A  
HETATM    8  C   UNL     1     -11.461   6.416  70.445  1.00  0.00    -0.458 A  
HETATM    9  H   UNL     1     -13.709   7.654  73.403  1.00  0.00     0.000 HD 
HETATM   10  C   UNL     1     -10.805   7.413  69.706  1.00  0.00    -0.246 A  
HETATM   11  C   UNL     1     -11.029   8.760  70.043  1.00  0.00    -0.216 A  
BRANCH  10  12
HETATM   12  C   UNL     1      -9.847   7.065  68.582  1.00  0.00    -0.148 C  
HETATM   13  O   UNL     1      -9.020   5.954  68.963  1.00  0.00    -0.121 OA 
HETATM   14  H   UNL     1      -8.421   5.735  68.259  1.00  0.00     0.000 HD 
BRANCH  12  15
HETATM   15  C   UNL     1     -10.587   6.711  67.274  1.00  0.00    -0.317 C  
BRANCH  15  16
HETATM   16  N   UNL     1      -9.939   7.338  66.109  1.00  0.00    -0.428 NA 
HETATM   17  H   UNL     1     -10.574   7.416  65.315  1.00  0.00     0.000 HD 
BRANCH  16  18
HETATM   18  C   UNL     1      -9.374   8.630  66.486  1.00  0.00    -0.200 C  
BRANCH  18  19
HETATM   19  C   UNL     1     -10.376   9.741  66.201  1.00  0.00    -0.215 C  
BRANCH  19  20
HETATM   20  C   UNL     1     -10.134  10.922  67.138  1.00  0.00    -0.235 C  
BRANCH  20  21
HETATM   21  C   UNL     1     -11.403  11.272  67.901  1.00  0.00    -0.367 C  
BRANCH  21  22
HETATM   22  C   UNL     1     -11.820  12.717  67.655  1.00  0.00    -0.390 C  
BRANCH  22  23
HETATM   23  C   UNL     1     -11.592  13.553  68.905  1.00  0.00    -0.323 C  
BRANCH  23  24
HETATM   24  O   UNL     1     -10.252  14.031  68.886  1.00  0.00    -0.223 OA 
BRANCH  24  25
HETATM   25  C   UNL     1     -10.198  15.415  68.547  1.00  0.00    -0.219 C  
BRANCH  25  26
HETATM   26  C   UNL     1      -8.982  15.654  67.660  1.00  0.00    -0.183 C  
BRANCH  26  27
HETATM   27  C   UNL     1      -9.073  14.834  66.372  1.00  0.00    -0.267 C  
BRANCH  27  28
HETATM   28  C   UNL     1     -10.158  15.361  65.435  1.00  0.00    -0.394 C  
BRANCH  28  29
HETATM   29  C   UNL     1     -10.840  14.208  64.738  1.00  0.00    -0.426 A  
HETATM   30  C   UNL     1     -12.237  14.133  64.693  1.00  0.00    -0.465 A  
HETATM   31  C   UNL     1     -12.864  13.027  64.120  1.00  0.00    -0.078 A  
HETATM   32  C   UNL     1     -12.102  11.988  63.591  1.00  0.00    -0.627 A  
HETATM   33  C   UNL     1     -10.710  12.055  63.627  1.00  0.00    -0.506 A  
HETATM   34  C   UNL     1     -10.080  13.160  64.199  1.00  0.00    -0.059 A  
ENDBRANCH  28  29
ENDBRANCH  27  28
ENDBRANCH  26  27
ENDBRANCH  25  26
ENDBRANCH  24  25
ENDBRANCH  23  24
ENDBRANCH  22  23
ENDBRANCH  21  22
ENDBRANCH  20  21
ENDBRANCH  19  20
ENDBRANCH  18  19
ENDBRANCH  16  18
ENDBRANCH  15  16
ENDBRANCH  12  15
ENDBRANCH  10  12
ENDBRANCH   2   4
TORSDOF 16
ENDMDL
MODEL      129
REMARK 921   NORMALIZED FREE ENERGY PREDICTED BY IDOCK:   -5.15 KCAL/MOL
REMARK 922        TOTAL FREE ENERGY PREDICTED BY IDOCK:  -12.31 KCAL/MOL
REMARK 923 INTER-LIGAND FREE ENERGY PREDICTED BY IDOCK:  -10.42 KCAL/MOL
REMARK 924 INTRA-LIGAND FREE ENERGY PREDICTED BY IDOCK:   -1.89 KCAL/MOL
REMARK 927      BINDING AFFINITY PREDICTED BY RF-SCORE:    0.00 PKD
ROOT
HETATM    1  O   UNL     1      -9.914  13.546  63.987  1.00  0.00    -0.734 OA 
HETATM    2  C   UNL     1     -10.791  12.420  63.955  1.00  0.00    -0.420 C  
HETATM    3  H   UNL     1     -10.380  14.333  63.726  1.00  0.00     0.000 HD 
ENDROOT
BRANCH   2   4
HETATM    4  C   UNL     1     -10.053  11.173  64.367  1.00  0.00    -0.377 A  
HETATM    5  C   UNL     1      -8.946  10.681  63.666  1.00  0.00    -0.202 A  
HETATM    6  O   UNL     1      -8.501  11.271  62.515  1.00  0.00    -0.454 OA 
HETATM    7  C   UNL     1      -8.262   9.549  64.092  1.00  0.00    -0.159 A  
HETATM    8  C   UNL     1      -8.693   8.866  65.227  1.00  0.00    -0.220 A  
HETATM    9  H   UNL     1      -7.750  10.937  62.039  1.00  0.00     0.000 HD 
HETATM   10  C   UNL     1      -9.802   9.322  65.957  1.00  0.00    -0.363 A  
HETATM   11  C   UNL     1     -10.456  10.490  65.529  1.00  0.00    -0.220 A  
BRANCH  10  12
HETATM   12  C   UNL     1     -10.316   8.569  67.170  1.00  0.00    -0.307 C  
HETATM   13  O   UNL     1     -10.850   7.297  66.771  1.00  0.00    -0.488 OA 
HETATM   14  H   UNL     1     -11.172   6.824  67.530  1.00  0.00     0.000 HD 
BRANCH  12  15
HETATM   15  C   UNL     1      -9.213   8.339  68.225  1.00  0.00    -0.134 C  
BRANCH  15  16
HETATM   16  N   UNL     1      -9.586   7.266  69.161  1.00  0.00    -0.155 NA 
HETATM   17  H   UNL     1      -8.892   6.519  69.182  1.00  0.00     0.000 HD 
BRANCH  16  18
HETATM   18  C   UNL     1      -9.831   7.821  70.488  1.00  0.00    -0.182 C  
BRANCH  18  19
HETATM   19  C   UNL     1     -11.139   7.277  71.048  1.00  0.00    -0.281 C  
BRANCH  19  20
HETATM   20  C   UNL     1     -12.225   8.348  70.986  1.00  0.00    -0.181 C  
BRANCH  20  21
HETATM   21  C   UNL     1     -11.680   9.693  71.445  1.00  0.00    -0.478 C  
BRANCH  21  22
HETATM   22  C   UNL     1     -12.543  10.844  70.941  1.00  0.00    -0.494 C  
BRANCH  22  23
HETATM   23  C   UNL     1     -13.466  11.335  72.046  1.00  0.00    -0.184 C  
BRANCH  23  24
HETATM   24  O   UNL     1     -13.066  12.649  72.415  1.00  0.00    -0.365 OA 
BRANCH  24  25
HETATM   25  C   UNL     1     -14.124  13.586  72.230  1.00  0.00    -0.465 C  
BRANCH  25  26
HETATM   26  C   UNL     1     -13.552  14.995  72.322  1.00  0.00    -0.547 C  
BRANCH  26  27
HETATM   27  C   UNL     1     -12.054  15.000  72.017  1.00  0.00    -0.454 C  
BRANCH  27  28
HETATM   28  C   UNL     1     -11.679  16.091  71.015  1.00  0.00    -0.458 C  
BRANCH  28  29
HETATM   29  C   UNL     1     -11.456  15.481  69.651  1.00  0.00    -0.337 A  
HETATM   30  C   UNL     1     -10.923  16.249  68.610  1.00  0.00    -0.340 A  
HETATM   31  C   UNL     1     -10.793  15.708  67.331  1.00  0.00    -0.315 A  
HETATM   32  C   UNL     1     -11.198  14.399  67.082  1.00  0.00    -0.337 A  
HETATM   33  C   UNL     1     -11.727  13.624  68.114  1.00  0.00    -0.392 A  
HETATM   34  C   UNL     1     -11.857  14.163  69.394  1.00  0.00    -0.378 A  
ENDBRANCH  28  29
ENDBRANCH  27  28
ENDBRANCH  26  27
ENDBRANCH  25  26
ENDBRANCH  24  25
ENDBRANCH  23  24
ENDBRANCH  22  23
ENDBRANCH  21  22
ENDBRANCH  20  21
ENDBRANCH  19  20
ENDBRANCH  18  19
ENDBRANCH  16  18
ENDBRANCH  15  16
ENDBRANCH  12  15
ENDBRANCH  10  12
ENDBRANCH   2   4
TORSDOF 16
ENDMDL
MODEL      130
REMARK 921   NORMALIZED FREE ENERGY PREDICTED BY IDOCK:   -5.15 KCAL/MOL
REMARK 922        TOTAL FREE ENERGY PREDICTED BY IDOCK:  -12.31 KCAL/MOL
REMARK 923 INTER-LIGAND FREE ENERGY PREDICTED BY IDOCK:   -9.87 KCAL/MOL
REMARK 924 INTRA-LIGAND FREE ENERGY PREDICTED BY IDOCK:   -2.44 KCAL/MOL
REMARK 927      BINDING AFFINITY PREDICTED BY RF-SCORE:    0.00 PKD
ROOT
HETATM    1  O   UNL     1     -14.057   9.095  73.210  1.00  0.00    -1.165 OA 
HETATM    2  C   UNL     1     -13.371   9.285  71.972  1.00  0.00    -0.450 C  
HETATM    3  H   UNL     1     -14.808   9.675  73.262  1.00  0.00     0.000 HD 
ENDROOT
BRANCH   2   4
HETATM    4  C   UNL     1     -12.181   8.366  71.889  1.00  0.00    -0.395 A  
HETATM    5  C   UNL     1     -12.295   6.972  71.945  1.00  0.00    -0.323 A  
HETATM    6  O   UNL     1     -13.498   6.355  72.146  1.00  0.00    -0.434 OA 
HETATM    7  C   UNL     1     -11.182   6.148  71.828  1.00  0.00    -0.338 A  
HETATM    8  C   UNL     1      -9.917   6.710  71.675  1.00  0.00    -0.187 A  
HETATM    9  H   UNL     1     -13.576   5.409  72.184  1.00  0.00     0.000 HD 
HETATM   10  C   UNL     1      -9.757   8.104  71.618  1.00  0.00    -0.238 A  
HETATM   11  C   UNL     1     -10.901   8.918  71.702  1.00  0.00    -0.420 A  
BRANCH  10  12
HETATM   12  C   UNL     1      -8.384   8.739  71.498  1.00  0.00    -0.152 C  
HETATM   13  O   UNL     1      -7.377   7.835  71.977  1.00  0.00    -0.067 OA 
HETATM   14  H   UNL     1      -6.518   8.232  71.902  1.00  0.00     0.000 HD 
BRANCH  12  15
HETATM   15  C   UNL     1      -8.050   9.135  70.044  1.00  0.00    -0.128 C  
BRANCH  15  16
HETATM   16  N   UNL     1      -8.378  10.547  69.787  1.00  0.00    -0.379 NA 
HETATM   17  H   UNL     1      -7.956  11.168  70.477  1.00  0.00     0.000 HD 
BRANCH  16  18
HETATM   18  C   UNL     1      -8.003  10.909  68.424  1.00  0.00    -0.127 C  
BRANCH  18  19
HETATM   19  C   UNL     1      -9.126  11.701  67.766  1.00  0.00    -0.175 C  
BRANCH  19  20
HETATM   20  C   UNL     1     -10.470  11.325  68.386  1.00  0.00    -0.219 C  
BRANCH  20  21
HETATM   21  C   UNL     1     -11.447  12.488  68.295  1.00  0.00    -0.355 C  
BRANCH  21  22
HETATM   22  C   UNL     1     -12.159  12.722  69.622  1.00  0.00    -0.286 C  
BRANCH  22  23
HETATM   23  C   UNL     1     -12.132  14.199  69.982  1.00  0.00    -0.346 C  
BRANCH  23  24
HETATM   24  O   UNL     1     -10.927  14.763  69.479  1.00  0.00    -0.257 OA 
BRANCH  24  25
HETATM   25  C   UNL     1     -11.136  16.083  68.983  1.00  0.00    -0.320 C  
BRANCH  25  26
HETATM   26  C   UNL     1     -10.201  16.318  67.804  1.00  0.00    -0.270 C  
BRANCH  26  27
HETATM   27  C   UNL     1     -10.847  15.867  66.493  1.00  0.00    -0.198 C  
BRANCH  27  28
HETATM   28  C   UNL     1      -9.917  14.970  65.677  1.00  0.00    -0.387 C  
BRANCH  28  29
HETATM   29  C   UNL     1     -10.721  13.909  64.964  1.00  0.00    -0.397 A  
HETATM   30  C   UNL     1     -10.101  12.742  64.502  1.00  0.00    -0.267 A  
HETATM   31  C   UNL     1     -10.828  11.800  63.774  1.00  0.00    -0.490 A  
HETATM   32  C   UNL     1     -12.177  12.018  63.501  1.00  0.00    -0.653 A  
HETATM   33  C   UNL     1     -12.804  13.176  63.960  1.00  0.00     0.023 A  
HETATM   34  C   UNL     1     -12.079  14.119  64.689  1.00  0.00    -0.469 A  
ENDBRANCH  28  29
ENDBRANCH  27  28
ENDBRANCH  26  27
ENDBRANCH  25  26
ENDBRANCH  24  25
ENDBRANCH  23  24
ENDBRANCH  22  23
ENDBRANCH  21  22
ENDBRANCH  20  21
ENDBRANCH  19  20
ENDBRANCH  18  19
ENDBRANCH  16  18
ENDBRANCH  15  16
ENDBRANCH  12  15
ENDBRANCH  10  12
ENDBRANCH   2   4
TORSDOF 16
ENDMDL
MODEL      131
REMARK 921   NORMALIZED FREE ENERGY PREDICTED BY IDOCK:   -5.15 KCAL/MOL
REMARK 922        TOTAL FREE ENERGY PREDICTED BY IDOCK:  -12.30 KCAL/MOL
REMARK 923 INTER-LIGAND FREE ENERGY PREDICTED BY IDOCK:   -9.67 KCAL/MOL
REMARK 924 INTRA-LIGAND FREE ENERGY PREDICTED BY IDOCK:   -2.64 KCAL/MOL
REMARK 927      BINDING AFFINITY PREDICTED BY RF-SCORE:    0.00 PKD
ROOT
HETATM    1  O   UNL     1     -12.037  16.193  72.054  1.00  0.00    -0.476 OA 
HETATM    2  C   UNL     1     -12.737  15.712  70.906  1.00  0.00    -0.445 C  
HETATM    3  H   UNL     1     -12.099  17.141  72.103  1.00  0.00     0.000 HD 
ENDROOT
BRANCH   2   4
HETATM    4  C   UNL     1     -12.638  14.211  70.827  1.00  0.00    -0.432 A  
HETATM    5  C   UNL     1     -13.110  13.367  71.838  1.00  0.00    -0.383 A  
HETATM    6  O   UNL     1     -13.637  13.859  73.000  1.00  0.00    -0.628 OA 
HETATM    7  C   UNL     1     -13.039  11.983  71.721  1.00  0.00    -0.460 A  
HETATM    8  C   UNL     1     -12.465  11.414  70.587  1.00  0.00    -0.419 A  
HETATM    9  H   UNL     1     -13.957  13.285  73.687  1.00  0.00     0.000 HD 
HETATM   10  C   UNL     1     -11.975  12.224  69.550  1.00  0.00    -0.333 A  
HETATM   11  C   UNL     1     -12.090  13.620  69.674  1.00  0.00    -0.378 A  
BRANCH  10  12
HETATM   12  C   UNL     1     -11.306  11.626  68.327  1.00  0.00    -0.285 C  
HETATM   13  O   UNL     1     -11.772  10.285  68.114  1.00  0.00    -0.711 OA 
HETATM   14  H   UNL     1     -11.354   9.910  67.348  1.00  0.00     0.000 HD 
BRANCH  12  15
HETATM   15  C   UNL     1     -11.571  12.456  67.053  1.00  0.00    -0.365 C  
BRANCH  15  16
HETATM   16  N   UNL     1     -10.334  13.081  66.556  1.00  0.00    -0.269 NA 
HETATM   17  H   UNL     1      -9.519  12.488  66.711  1.00  0.00     0.000 HD 
BRANCH  16  18
HETATM   18  C   UNL     1     -10.486  13.445  65.151  1.00  0.00    -0.347 C  
BRANCH  18  19
HETATM   19  C   UNL     1     -11.213  12.337  64.400  1.00  0.00    -0.389 C  
BRANCH  19  20
HETATM   20  C   UNL     1     -10.318  11.772  63.298  1.00  0.00    -0.446 C  
BRANCH  20  21
HETATM   21  C   UNL     1      -9.259  10.851  63.886  1.00  0.00    -0.222 C  
BRANCH  21  22
HETATM   22  C   UNL     1      -9.861   9.890  64.905  1.00  0.00    -0.282 C  
BRANCH  22  23
HETATM   23  C   UNL     1      -8.935   9.744  66.103  1.00  0.00    -0.152 C  
BRANCH  23  24
HETATM   24  O   UNL     1      -7.637  10.185  65.724  1.00  0.00    -0.121 OA 
BRANCH  24  25
HETATM   25  C   UNL     1      -6.848  10.518  66.864  1.00  0.00    -0.091 C  
BRANCH  25  26
HETATM   26  C   UNL     1      -7.765  10.659  68.072  1.00  0.00    -0.100 C  
BRANCH  26  27
HETATM   27  C   UNL     1      -7.531   9.527  69.073  1.00  0.00    -0.074 C  
BRANCH  27  28
HETATM   28  C   UNL     1      -8.415   9.667  70.311  1.00  0.00    -0.221 C  
BRANCH  28  29
HETATM   29  C   UNL     1      -9.518   8.635  70.275  1.00  0.00    -0.182 A  
HETATM   30  C   UNL     1      -9.604   7.728  69.214  1.00  0.00    -0.159 A  
HETATM   31  C   UNL     1     -10.668   6.829  69.141  1.00  0.00    -0.287 A  
HETATM   32  C   UNL     1     -11.654   6.832  70.125  1.00  0.00    -0.397 A  
HETATM   33  C   UNL     1     -11.575   7.731  71.188  1.00  0.00    -0.301 A  
HETATM   34  C   UNL     1     -10.511   8.630  71.264  1.00  0.00    -0.311 A  
ENDBRANCH  28  29
ENDBRANCH  27  28
ENDBRANCH  26  27
ENDBRANCH  25  26
ENDBRANCH  24  25
ENDBRANCH  23  24
ENDBRANCH  22  23
ENDBRANCH  21  22
ENDBRANCH  20  21
ENDBRANCH  19  20
ENDBRANCH  18  19
ENDBRANCH  16  18
ENDBRANCH  15  16
ENDBRANCH  12  15
ENDBRANCH  10  12
ENDBRANCH   2   4
TORSDOF 16
ENDMDL
MODEL      132
REMARK 921   NORMALIZED FREE ENERGY PREDICTED BY IDOCK:   -5.14 KCAL/MOL
REMARK 922        TOTAL FREE ENERGY PREDICTED BY IDOCK:  -12.29 KCAL/MOL
REMARK 923 INTER-LIGAND FREE ENERGY PREDICTED BY IDOCK:   -9.72 KCAL/MOL
REMARK 924 INTRA-LIGAND FREE ENERGY PREDICTED BY IDOCK:   -2.57 KCAL/MOL
REMARK 927      BINDING AFFINITY PREDICTED BY RF-SCORE:    0.00 PKD
ROOT
HETATM    1  O   UNL     1     -12.421  14.018  67.875  1.00  0.00    -0.487 OA 
HETATM    2  C   UNL     1     -11.208  13.949  67.125  1.00  0.00    -0.313 C  
HETATM    3  H   UNL     1     -12.284  14.509  68.677  1.00  0.00     0.000 HD 
ENDROOT
BRANCH   2   4
HETATM    4  C   UNL     1     -11.424  13.170  65.855  1.00  0.00    -0.366 A  
HETATM    5  C   UNL     1     -12.586  13.287  65.083  1.00  0.00    -0.453 A  
HETATM    6  O   UNL     1     -13.634  14.074  65.472  1.00  0.00    -0.673 OA 
HETATM    7  C   UNL     1     -12.742  12.583  63.894  1.00  0.00    -0.414 A  
HETATM    8  C   UNL     1     -11.737  11.721  63.464  1.00  0.00    -0.485 A  
HETATM    9  H   UNL     1     -14.423  14.153  64.949  1.00  0.00     0.000 HD 
HETATM   10  C   UNL     1     -10.557  11.570  64.210  1.00  0.00    -0.405 A  
HETATM   11  C   UNL     1     -10.405  12.319  65.390  1.00  0.00    -0.298 A  
BRANCH  10  12
HETATM   12  C   UNL     1      -9.468  10.603  63.783  1.00  0.00    -0.290 C  
HETATM   13  O   UNL     1      -8.446  11.299  63.053  1.00  0.00    -0.432 OA 
HETATM   14  H   UNL     1      -7.764  10.694  62.786  1.00  0.00     0.000 HD 
BRANCH  12  15
HETATM   15  C   UNL     1      -8.821   9.885  64.987  1.00  0.00    -0.190 C  
BRANCH  15  16
HETATM   16  N   UNL     1      -9.628   8.730  65.414  1.00  0.00    -0.426 NA 
HETATM   17  H   UNL     1      -9.502   7.927  64.797  1.00  0.00     0.000 HD 
BRANCH  16  18
HETATM   18  C   UNL     1      -9.334   8.401  66.805  1.00  0.00    -0.184 C  
BRANCH  18  19
HETATM   19  C   UNL     1     -10.532   8.736  67.685  1.00  0.00    -0.310 C  
BRANCH  19  20
HETATM   20  C   UNL     1     -10.560   7.823  68.909  1.00  0.00    -0.168 C  
BRANCH  20  21
HETATM   21  C   UNL     1     -11.070   6.439  68.535  1.00  0.00    -0.385 C  
BRANCH  21  22
HETATM   22  C   UNL     1     -10.245   5.343  69.200  1.00  0.00    -0.302 C  
BRANCH  22  23
HETATM   23  C   UNL     1      -8.764   5.563  68.935  1.00  0.00    -0.102 C  
BRANCH  23  24
HETATM   24  O   UNL     1      -8.041   5.215  70.109  1.00  0.00    -0.080 OA 
BRANCH  24  25
HETATM   25  C   UNL     1      -8.144   6.231  71.104  1.00  0.00    -0.118 C  
BRANCH  25  26
HETATM   26  C   UNL     1      -8.546   5.586  72.424  1.00  0.00    -0.118 C  
BRANCH  26  27
HETATM   27  C   UNL     1      -9.989   5.939  72.791  1.00  0.00    -0.197 C  
BRANCH  27  28
HETATM   28  C   UNL     1     -10.187   7.447  72.939  1.00  0.00    -0.310 C  
BRANCH  28  29
HETATM   29  C   UNL     1     -11.555   7.837  72.432  1.00  0.00    -0.410 A  
HETATM   30  C   UNL     1     -12.457   6.859  72.001  1.00  0.00    -0.285 A  
HETATM   31  C   UNL     1     -13.688   7.226  71.458  1.00  0.00    -0.451 A  
HETATM   32  C   UNL     1     -14.026   8.572  71.339  1.00  0.00    -0.331 A  
HETATM   33  C   UNL     1     -13.135   9.555  71.770  1.00  0.00    -0.504 A  
HETATM   34  C   UNL     1     -11.903   9.190  72.313  1.00  0.00    -0.235 A  
ENDBRANCH  28  29
ENDBRANCH  27  28
ENDBRANCH  26  27
ENDBRANCH  25  26
ENDBRANCH  24  25
ENDBRANCH  23  24
ENDBRANCH  22  23
ENDBRANCH  21  22
ENDBRANCH  20  21
ENDBRANCH  19  20
ENDBRANCH  18  19
ENDBRANCH  16  18
ENDBRANCH  15  16
ENDBRANCH  12  15
ENDBRANCH  10  12
ENDBRANCH   2   4
TORSDOF 16
ENDMDL
MODEL      133
REMARK 921   NORMALIZED FREE ENERGY PREDICTED BY IDOCK:   -5.13 KCAL/MOL
REMARK 922        TOTAL FREE ENERGY PREDICTED BY IDOCK:  -12.28 KCAL/MOL
REMARK 923 INTER-LIGAND FREE ENERGY PREDICTED BY IDOCK:  -10.22 KCAL/MOL
REMARK 924 INTRA-LIGAND FREE ENERGY PREDICTED BY IDOCK:   -2.06 KCAL/MOL
REMARK 927      BINDING AFFINITY PREDICTED BY RF-SCORE:    0.00 PKD
ROOT
HETATM    1  O   UNL     1     -14.207   8.425  72.514  1.00  0.00    -0.609 OA 
HETATM    2  C   UNL     1     -13.649   9.700  72.192  1.00  0.00    -0.389 C  
HETATM    3  H   UNL     1     -15.093   8.527  72.840  1.00  0.00     0.000 HD 
ENDROOT
BRANCH   2   4
HETATM    4  C   UNL     1     -12.244   9.538  71.676  1.00  0.00    -0.477 A  
HETATM    5  C   UNL     1     -11.347   8.600  72.200  1.00  0.00    -0.364 A  
HETATM    6  O   UNL     1     -11.673   7.810  73.267  1.00  0.00    -0.659 OA 
HETATM    7  C   UNL     1     -10.067   8.448  71.678  1.00  0.00    -0.308 A  
HETATM    8  C   UNL     1      -9.649   9.257  70.625  1.00  0.00    -0.334 A  
HETATM    9  H   UNL     1     -11.064   7.173  73.624  1.00  0.00     0.000 HD 
HETATM   10  C   UNL     1     -10.515  10.214  70.071  1.00  0.00    -0.325 A  
HETATM   11  C   UNL     1     -11.817  10.326  70.591  1.00  0.00    -0.439 A  
BRANCH  10  12
HETATM   12  C   UNL     1     -10.065  11.137  68.954  1.00  0.00    -0.186 C  
HETATM   13  O   UNL     1      -8.704  11.542  69.166  1.00  0.00    -0.373 OA 
HETATM   14  H   UNL     1      -8.422  12.120  68.467  1.00  0.00     0.000 HD 
BRANCH  12  15
HETATM   15  C   UNL     1     -10.178  10.471  67.566  1.00  0.00    -0.206 C  
BRANCH  15  16
HETATM   16  N   UNL     1     -10.217  11.479  66.494  1.00  0.00    -0.212 NA 
HETATM   17  H   UNL     1      -9.689  11.183  65.673  1.00  0.00     0.000 HD 
BRANCH  16  18
HETATM   18  C   UNL     1     -11.601  11.807  66.164  1.00  0.00    -0.142 C  
BRANCH  18  19
HETATM   19  C   UNL     1     -11.703  12.236  64.706  1.00  0.00    -0.419 C  
BRANCH  19  20
HETATM   20  C   UNL     1     -12.107  13.706  64.617  1.00  0.00    -0.449 C  
BRANCH  20  21
HETATM   21  C   UNL     1     -12.234  14.314  66.006  1.00  0.00    -0.422 C  
BRANCH  21  22
HETATM   22  C   UNL     1     -11.157  15.362  66.257  1.00  0.00    -0.226 C  
BRANCH  22  23
HETATM   23  C   UNL     1     -10.342  14.999  67.489  1.00  0.00    -0.241 C  
BRANCH  23  24
HETATM   24  O   UNL     1      -9.272  14.153  67.087  1.00  0.00    -0.211 OA 
BRANCH  24  25
HETATM   25  C   UNL     1      -8.039  14.556  67.678  1.00  0.00    -0.179 C  
BRANCH  25  26
HETATM   26  C   UNL     1      -7.436  15.675  66.839  1.00  0.00    -0.169 C  
BRANCH  26  27
HETATM   27  C   UNL     1      -6.609  16.626  67.706  1.00  0.00    -0.158 C  
BRANCH  27  28
HETATM   28  C   UNL     1      -7.440  17.243  68.829  1.00  0.00    -0.260 C  
BRANCH  28  29
HETATM   29  C   UNL     1      -8.269  18.383  68.288  1.00  0.00    -0.317 A  
HETATM   30  C   UNL     1      -7.667  19.412  67.555  1.00  0.00    -0.289 A  
HETATM   31  C   UNL     1      -8.420  20.504  67.125  1.00  0.00    -0.357 A  
HETATM   32  C   UNL     1      -9.778  20.579  67.427  1.00  0.00    -0.587 A  
HETATM   33  C   UNL     1     -10.388  19.557  68.154  1.00  0.00    -0.550 A  
HETATM   34  C   UNL     1      -9.637  18.463  68.584  1.00  0.00    -0.363 A  
ENDBRANCH  28  29
ENDBRANCH  27  28
ENDBRANCH  26  27
ENDBRANCH  25  26
ENDBRANCH  24  25
ENDBRANCH  23  24
ENDBRANCH  22  23
ENDBRANCH  21  22
ENDBRANCH  20  21
ENDBRANCH  19  20
ENDBRANCH  18  19
ENDBRANCH  16  18
ENDBRANCH  15  16
ENDBRANCH  12  15
ENDBRANCH  10  12
ENDBRANCH   2   4
TORSDOF 16
ENDMDL
MODEL      134
REMARK 921   NORMALIZED FREE ENERGY PREDICTED BY IDOCK:   -5.11 KCAL/MOL
REMARK 922        TOTAL FREE ENERGY PREDICTED BY IDOCK:  -12.23 KCAL/MOL
REMARK 923 INTER-LIGAND FREE ENERGY PREDICTED BY IDOCK:   -9.57 KCAL/MOL
REMARK 924 INTRA-LIGAND FREE ENERGY PREDICTED BY IDOCK:   -2.66 KCAL/MOL
REMARK 927      BINDING AFFINITY PREDICTED BY RF-SCORE:    0.00 PKD
ROOT
HETATM    1  O   UNL     1      -7.608   5.474  66.383  1.00  0.00    -0.089 OA 
HETATM    2  C   UNL     1      -8.632   6.080  65.594  1.00  0.00    -0.153 C  
HETATM    3  H   UNL     1      -7.175   4.787  65.889  1.00  0.00     0.000 HD 
ENDROOT
BRANCH   2   4
HETATM    4  C   UNL     1      -9.318   7.168  66.378  1.00  0.00    -0.190 A  
HETATM    5  C   UNL     1     -10.060   6.915  67.537  1.00  0.00    -0.174 A  
HETATM    6  O   UNL     1     -10.265   5.644  67.998  1.00  0.00    -0.159 OA 
HETATM    7  C   UNL     1     -10.651   7.945  68.260  1.00  0.00    -0.163 A  
HETATM    8  C   UNL     1     -10.528   9.259  67.818  1.00  0.00    -0.313 A  
HETATM    9  H   UNL     1     -10.769   5.472  68.785  1.00  0.00     0.000 HD 
HETATM   10  C   UNL     1      -9.796   9.558  66.658  1.00  0.00    -0.293 A  
HETATM   11  C   UNL     1      -9.177   8.505  65.962  1.00  0.00    -0.262 A  
BRANCH  10  12
HETATM   12  C   UNL     1      -9.687  10.977  66.134  1.00  0.00    -0.217 C  
HETATM   13  O   UNL     1      -8.716  11.712  66.894  1.00  0.00    -0.172 OA 
HETATM   14  H   UNL     1      -8.647  12.601  66.566  1.00  0.00     0.000 HD 
BRANCH  12  15
HETATM   15  C   UNL     1      -9.291  11.020  64.642  1.00  0.00    -0.205 C  
BRANCH  15  16
HETATM   16  N   UNL     1     -10.004  12.094  63.932  1.00  0.00    -0.529 NA 
HETATM   17  H   UNL     1      -9.498  12.404  63.102  1.00  0.00     0.000 HD 
BRANCH  16  18
HETATM   18  C   UNL     1     -11.364  11.669  63.617  1.00  0.00    -0.394 C  
BRANCH  18  19
HETATM   19  C   UNL     1     -12.250  12.886  63.383  1.00  0.00    -0.574 C  
BRANCH  19  20
HETATM   20  C   UNL     1     -11.863  14.011  64.340  1.00  0.00    -0.453 C  
BRANCH  20  21
HETATM   21  C   UNL     1     -12.715  13.961  65.600  1.00  0.00    -0.534 C  
BRANCH  21  22
HETATM   22  C   UNL     1     -11.899  13.512  66.807  1.00  0.00    -0.450 C  
BRANCH  22  23
HETATM   23  C   UNL     1     -11.811  14.633  67.832  1.00  0.00    -0.320 C  
BRANCH  23  24
HETATM   24  O   UNL     1     -12.140  14.100  69.109  1.00  0.00    -0.341 OA 
BRANCH  24  25
HETATM   25  C   UNL     1     -11.895  12.696  69.167  1.00  0.00    -0.297 C  
BRANCH  25  26
HETATM   26  C   UNL     1     -12.284  12.187  70.548  1.00  0.00    -0.392 C  
BRANCH  26  27
HETATM   27  C   UNL     1     -12.763  10.736  70.483  1.00  0.00    -0.388 C  
BRANCH  27  28
HETATM   28  C   UNL     1     -12.693  10.049  71.846  1.00  0.00    -0.493 C  
BRANCH  28  29
HETATM   29  C   UNL     1     -11.872   8.786  71.743  1.00  0.00    -0.414 A  
HETATM   30  C   UNL     1     -12.498   7.544  71.594  1.00  0.00    -0.371 A  
HETATM   31  C   UNL     1     -11.742   6.371  71.580  1.00  0.00    -0.367 A  
HETATM   32  C   UNL     1     -10.357   6.432  71.719  1.00  0.00    -0.231 A  
HETATM   33  C   UNL     1      -9.724   7.665  71.864  1.00  0.00    -0.203 A  
HETATM   34  C   UNL     1     -10.477   8.839  71.878  1.00  0.00    -0.423 A  
ENDBRANCH  28  29
ENDBRANCH  27  28
ENDBRANCH  26  27
ENDBRANCH  25  26
ENDBRANCH  24  25
ENDBRANCH  23  24
ENDBRANCH  22  23
ENDBRANCH  21  22
ENDBRANCH  20  21
ENDBRANCH  19  20
ENDBRANCH  18  19
ENDBRANCH  16  18
ENDBRANCH  15  16
ENDBRANCH  12  15
ENDBRANCH  10  12
ENDBRANCH   2   4
TORSDOF 16
ENDMDL
MODEL      135
REMARK 921   NORMALIZED FREE ENERGY PREDICTED BY IDOCK:   -5.10 KCAL/MOL
REMARK 922        TOTAL FREE ENERGY PREDICTED BY IDOCK:  -12.22 KCAL/MOL
REMARK 923 INTER-LIGAND FREE ENERGY PREDICTED BY IDOCK:   -9.16 KCAL/MOL
REMARK 924 INTRA-LIGAND FREE ENERGY PREDICTED BY IDOCK:   -3.05 KCAL/MOL
REMARK 927      BINDING AFFINITY PREDICTED BY RF-SCORE:    0.00 PKD
ROOT
HETATM    1  O   UNL     1      -9.556  12.331  64.295  1.00  0.00    -0.499 OA 
HETATM    2  C   UNL     1     -10.708  13.160  64.131  1.00  0.00    -0.374 C  
HETATM    3  H   UNL     1      -9.418  11.804  63.516  1.00  0.00     0.000 HD 
ENDROOT
BRANCH   2   4
HETATM    4  C   UNL     1     -10.928  13.996  65.365  1.00  0.00    -0.321 A  
HETATM    5  C   UNL     1     -11.526  13.491  66.525  1.00  0.00    -0.339 A  
HETATM    6  O   UNL     1     -12.011  12.215  66.589  1.00  0.00    -0.616 OA 
HETATM    7  C   UNL     1     -11.681  14.277  67.662  1.00  0.00    -0.421 A  
HETATM    8  C   UNL     1     -11.258  15.604  67.649  1.00  0.00    -0.274 A  
HETATM    9  H   UNL     1     -12.417  11.872  67.377  1.00  0.00     0.000 HD 
HETATM   10  C   UNL     1     -10.657  16.151  66.505  1.00  0.00    -0.268 A  
HETATM   11  C   UNL     1     -10.477  15.328  65.379  1.00  0.00    -0.422 A  
BRANCH  10  12
HETATM   12  C   UNL     1     -10.230  17.606  66.454  1.00  0.00    -0.364 C  
HETATM   13  O   UNL     1     -10.988  18.377  67.399  1.00  0.00    -0.351 OA 
HETATM   14  H   UNL     1     -10.721  19.288  67.368  1.00  0.00     0.000 HD 
BRANCH  12  15
HETATM   15  C   UNL     1      -8.727  17.784  66.755  1.00  0.00    -0.256 C  
BRANCH  15  16
HETATM   16  N   UNL     1      -8.513  18.299  68.117  1.00  0.00    -0.270 NA 
HETATM   17  H   UNL     1      -9.385  18.364  68.642  1.00  0.00     0.000 HD 
BRANCH  16  18
HETATM   18  C   UNL     1      -7.518  17.487  68.810  1.00  0.00    -0.258 C  
BRANCH  18  19
HETATM   19  C   UNL     1      -6.610  16.799  67.798  1.00  0.00    -0.161 C  
BRANCH  19  20
HETATM   20  C   UNL     1      -6.474  15.316  68.135  1.00  0.00    -0.133 C  
BRANCH  20  21
HETATM   21  C   UNL     1      -7.444  14.486  67.306  1.00  0.00    -0.126 C  
BRANCH  21  22
HETATM   22  C   UNL     1      -7.201  12.994  67.494  1.00  0.00    -0.154 C  
BRANCH  22  23
HETATM   23  C   UNL     1      -8.470  12.307  67.973  1.00  0.00    -0.171 C  
BRANCH  23  24
HETATM   24  O   UNL     1      -8.892  11.391  66.971  1.00  0.00    -0.158 OA 
BRANCH  24  25
HETATM   25  C   UNL     1      -8.639  10.042  67.359  1.00  0.00    -0.125 C  
BRANCH  25  26
HETATM   26  C   UNL     1      -9.743   9.155  66.796  1.00  0.00    -0.271 C  
BRANCH  26  27
HETATM   27  C   UNL     1     -10.818   8.883  67.849  1.00  0.00    -0.096 C  
BRANCH  27  28
HETATM   28  C   UNL     1     -10.293   9.089  69.269  1.00  0.00    -0.227 C  
BRANCH  28  29
HETATM   29  C   UNL     1     -11.306   9.856  70.086  1.00  0.00    -0.335 A  
HETATM   30  C   UNL     1     -11.540  11.211  69.833  1.00  0.00    -0.416 A  
HETATM   31  C   UNL     1     -12.416  11.937  70.640  1.00  0.00    -0.347 A  
HETATM   32  C   UNL     1     -13.061  11.315  71.707  1.00  0.00    -0.527 A  
HETATM   33  C   UNL     1     -12.836   9.963  71.965  1.00  0.00    -0.488 A  
HETATM   34  C   UNL     1     -11.961   9.235  71.159  1.00  0.00    -0.394 A  
ENDBRANCH  28  29
ENDBRANCH  27  28
ENDBRANCH  26  27
ENDBRANCH  25  26
ENDBRANCH  24  25
ENDBRANCH  23  24
ENDBRANCH  22  23
ENDBRANCH  21  22
ENDBRANCH  20  21
ENDBRANCH  19  20
ENDBRANCH  18  19
ENDBRANCH  16  18
ENDBRANCH  15  16
ENDBRANCH  12  15
ENDBRANCH  10  12
ENDBRANCH   2   4
TORSDOF 16
ENDMDL
MODEL      136
REMARK 921   NORMALIZED FREE ENERGY PREDICTED BY IDOCK:   -5.10 KCAL/MOL
REMARK 922        TOTAL FREE ENERGY PREDICTED BY IDOCK:  -12.22 KCAL/MOL
REMARK 923 INTER-LIGAND FREE ENERGY PREDICTED BY IDOCK:   -9.21 KCAL/MOL
REMARK 924 INTRA-LIGAND FREE ENERGY PREDICTED BY IDOCK:   -3.00 KCAL/MOL
REMARK 927      BINDING AFFINITY PREDICTED BY RF-SCORE:    0.00 PKD
ROOT
HETATM    1  O   UNL     1     -13.520   8.921  72.975  1.00  0.00    -0.897 OA 
HETATM    2  C   UNL     1     -12.473   8.118  72.427  1.00  0.00    -0.262 C  
HETATM    3  H   UNL     1     -14.034   8.414  73.593  1.00  0.00     0.000 HD 
ENDROOT
BRANCH   2   4
HETATM    4  C   UNL     1     -11.659   8.921  71.448  1.00  0.00    -0.382 A  
HETATM    5  C   UNL     1     -12.231   9.841  70.561  1.00  0.00    -0.130 A  
HETATM    6  O   UNL     1     -13.584  10.022  70.484  1.00  0.00    -0.520 OA 
HETATM    7  C   UNL     1     -11.449  10.596  69.693  1.00  0.00    -0.361 A  
HETATM    8  C   UNL     1     -10.067  10.424  69.680  1.00  0.00    -0.226 A  
HETATM    9  H   UNL     1     -13.972  10.646  69.882  1.00  0.00     0.000 HD 
HETATM   10  C   UNL     1      -9.452   9.509  70.550  1.00  0.00    -0.306 A  
HETATM   11  C   UNL     1     -10.259   8.783  71.444  1.00  0.00    -0.350 A  
BRANCH  10  12
HETATM   12  C   UNL     1      -7.954   9.274  70.521  1.00  0.00    -0.167 C  
HETATM   13  O   UNL     1      -7.675   7.911  70.166  1.00  0.00    -0.085 OA 
HETATM   14  H   UNL     1      -6.736   7.763  70.147  1.00  0.00     0.000 HD 
BRANCH  12  15
HETATM   15  C   UNL     1      -7.235  10.208  69.525  1.00  0.00    -0.115 C  
BRANCH  15  16
HETATM   16  N   UNL     1      -6.866  11.483  70.161  1.00  0.00    -0.456 NA 
HETATM   17  H   UNL     1      -6.059  11.383  70.777  1.00  0.00     0.000 HD 
BRANCH  16  18
HETATM   18  C   UNL     1      -6.653  12.508  69.144  1.00  0.00    -0.100 C  
BRANCH  18  19
HETATM   19  C   UNL     1      -7.310  12.089  67.835  1.00  0.00    -0.104 C  
BRANCH  19  20
HETATM   20  C   UNL     1      -8.478  13.017  67.510  1.00  0.00    -0.190 C  
BRANCH  20  21
HETATM   21  C   UNL     1      -7.977  14.416  67.182  1.00  0.00    -0.147 C  
BRANCH  21  22
HETATM   22  C   UNL     1      -9.132  15.398  67.024  1.00  0.00    -0.247 C  
BRANCH  22  23
HETATM   23  C   UNL     1     -10.105  15.259  68.185  1.00  0.00    -0.229 C  
BRANCH  23  24
HETATM   24  O   UNL     1     -11.429  15.335  67.672  1.00  0.00    -0.331 OA 
BRANCH  24  25
HETATM   25  C   UNL     1     -11.975  14.037  67.444  1.00  0.00    -0.404 C  
BRANCH  25  26
HETATM   26  C   UNL     1     -12.645  14.021  66.076  1.00  0.00    -0.452 C  
BRANCH  26  27
HETATM   27  C   UNL     1     -12.237  12.781  65.280  1.00  0.00    -0.535 C  
BRANCH  27  28
HETATM   28  C   UNL     1     -11.477  11.774  66.141  1.00  0.00    -0.288 C  
BRANCH  28  29
HETATM   29  C   UNL     1     -10.480  11.021  65.293  1.00  0.00    -0.316 A  
HETATM   30  C   UNL     1     -10.295  11.359  63.948  1.00  0.00    -0.434 A  
HETATM   31  C   UNL     1      -9.433  10.612  63.145  1.00  0.00    -0.360 A  
HETATM   32  C   UNL     1      -8.752   9.520  63.680  1.00  0.00    -0.239 A  
HETATM   33  C   UNL     1      -8.927   9.178  65.020  1.00  0.00    -0.221 A  
HETATM   34  C   UNL     1      -9.788   9.924  65.825  1.00  0.00    -0.356 A  
ENDBRANCH  28  29
ENDBRANCH  27  28
ENDBRANCH  26  27
ENDBRANCH  25  26
ENDBRANCH  24  25
ENDBRANCH  23  24
ENDBRANCH  22  23
ENDBRANCH  21  22
ENDBRANCH  20  21
ENDBRANCH  19  20
ENDBRANCH  18  19
ENDBRANCH  16  18
ENDBRANCH  15  16
ENDBRANCH  12  15
ENDBRANCH  10  12
ENDBRANCH   2   4
TORSDOF 16
ENDMDL
MODEL      137
REMARK 921   NORMALIZED FREE ENERGY PREDICTED BY IDOCK:   -5.09 KCAL/MOL
REMARK 922        TOTAL FREE ENERGY PREDICTED BY IDOCK:  -12.19 KCAL/MOL
REMARK 923 INTER-LIGAND FREE ENERGY PREDICTED BY IDOCK:  -10.49 KCAL/MOL
REMARK 924 INTRA-LIGAND FREE ENERGY PREDICTED BY IDOCK:   -1.70 KCAL/MOL
REMARK 927      BINDING AFFINITY PREDICTED BY RF-SCORE:    0.00 PKD
ROOT
HETATM    1  O   UNL     1      -8.881  20.857  66.957  1.00  0.00    -0.588 OA 
HETATM    2  C   UNL     1     -10.065  20.061  67.013  1.00  0.00    -0.457 C  
HETATM    3  H   UNL     1      -9.100  21.778  67.042  1.00  0.00     0.000 HD 
ENDROOT
BRANCH   2   4
HETATM    4  C   UNL     1      -9.718  18.602  66.877  1.00  0.00    -0.333 A  
HETATM    5  C   UNL     1      -8.551  18.155  66.246  1.00  0.00    -0.179 A  
HETATM    6  O   UNL     1      -7.677  19.022  65.651  1.00  0.00    -0.465 OA 
HETATM    7  C   UNL     1      -8.240  16.803  66.170  1.00  0.00    -0.300 A  
HETATM    8  C   UNL     1      -9.112  15.860  66.708  1.00  0.00    -0.275 A  
HETATM    9  H   UNL     1      -6.886  18.720  65.222  1.00  0.00     0.000 HD 
HETATM   10  C   UNL     1     -10.295  16.264  67.346  1.00  0.00    -0.285 A  
HETATM   11  C   UNL     1     -10.573  17.639  67.444  1.00  0.00    -0.320 A  
BRANCH  10  12
HETATM   12  C   UNL     1     -11.282  15.252  67.899  1.00  0.00    -0.331 C  
HETATM   13  O   UNL     1     -12.161  14.800  66.858  1.00  0.00    -0.398 OA 
HETATM   14  H   UNL     1     -12.779  14.166  67.204  1.00  0.00     0.000 HD 
BRANCH  12  15
HETATM   15  C   UNL     1     -10.575  14.030  68.524  1.00  0.00    -0.254 C  
BRANCH  15  16
HETATM   16  N   UNL     1     -10.980  13.841  69.927  1.00  0.00    -0.446 NA 
HETATM   17  H   UNL     1     -11.148  14.729  70.399  1.00  0.00     0.000 HD 
BRANCH  16  18
HETATM   18  C   UNL     1     -12.139  12.956  69.998  1.00  0.00    -0.286 C  
BRANCH  18  19
HETATM   19  C   UNL     1     -12.963  13.274  71.240  1.00  0.00    -0.353 C  
BRANCH  19  20
HETATM   20  C   UNL     1     -13.240  11.996  72.029  1.00  0.00    -0.481 C  
BRANCH  20  21
HETATM   21  C   UNL     1     -12.723  10.778  71.279  1.00  0.00    -0.546 C  
BRANCH  21  22
HETATM   22  C   UNL     1     -12.680   9.547  72.177  1.00  0.00    -0.442 C  
BRANCH  22  23
HETATM   23  C   UNL     1     -11.405   8.757  71.930  1.00  0.00    -0.361 C  
BRANCH  23  24
HETATM   24  O   UNL     1     -10.438   9.630  71.358  1.00  0.00    -0.272 OA 
BRANCH  24  25
HETATM   25  C   UNL     1      -9.835   9.053  70.202  1.00  0.00    -0.187 C  
BRANCH  25  26
HETATM   26  C   UNL     1      -9.502  10.166  69.217  1.00  0.00    -0.231 C  
BRANCH  26  27
HETATM   27  C   UNL     1     -10.563  10.263  68.119  1.00  0.00    -0.258 C  
BRANCH  27  28
HETATM   28  C   UNL     1     -10.177   9.459  66.879  1.00  0.00    -0.318 C  
BRANCH  28  29
HETATM   29  C   UNL     1     -10.215  10.346  65.658  1.00  0.00    -0.308 A  
HETATM   30  C   UNL     1     -10.977  11.520  65.658  1.00  0.00    -0.296 A  
HETATM   31  C   UNL     1     -11.075  12.296  64.503  1.00  0.00    -0.368 A  
HETATM   32  C   UNL     1     -10.415  11.904  63.340  1.00  0.00    -0.487 A  
HETATM   33  C   UNL     1      -9.650  10.739  63.332  1.00  0.00    -0.375 A  
HETATM   34  C   UNL     1      -9.550   9.961  64.485  1.00  0.00    -0.290 A  
ENDBRANCH  28  29
ENDBRANCH  27  28
ENDBRANCH  26  27
ENDBRANCH  25  26
ENDBRANCH  24  25
ENDBRANCH  23  24
ENDBRANCH  22  23
ENDBRANCH  21  22
ENDBRANCH  20  21
ENDBRANCH  19  20
ENDBRANCH  18  19
ENDBRANCH  16  18
ENDBRANCH  15  16
ENDBRANCH  12  15
ENDBRANCH  10  12
ENDBRANCH   2   4
TORSDOF 16
ENDMDL
MODEL      138
REMARK 921   NORMALIZED FREE ENERGY PREDICTED BY IDOCK:   -5.09 KCAL/MOL
REMARK 922        TOTAL FREE ENERGY PREDICTED BY IDOCK:  -12.19 KCAL/MOL
REMARK 923 INTER-LIGAND FREE ENERGY PREDICTED BY IDOCK:   -9.23 KCAL/MOL
REMARK 924 INTRA-LIGAND FREE ENERGY PREDICTED BY IDOCK:   -2.96 KCAL/MOL
REMARK 927      BINDING AFFINITY PREDICTED BY RF-SCORE:    0.00 PKD
ROOT
HETATM    1  O   UNL     1      -9.458  16.195  69.276  1.00  0.00    -0.238 OA 
HETATM    2  C   UNL     1      -9.426  16.028  67.858  1.00  0.00    -0.210 C  
HETATM    3  H   UNL     1      -8.956  16.961  69.528  1.00  0.00     0.000 HD 
ENDROOT
BRANCH   2   4
HETATM    4  C   UNL     1     -10.222  14.814  67.458  1.00  0.00    -0.233 A  
HETATM    5  C   UNL     1     -11.555  14.623  67.838  1.00  0.00    -0.348 A  
HETATM    6  O   UNL     1     -12.204  15.504  68.657  1.00  0.00    -0.567 OA 
HETATM    7  C   UNL     1     -12.276  13.509  67.422  1.00  0.00    -0.278 A  
HETATM    8  C   UNL     1     -11.661  12.544  66.629  1.00  0.00    -0.453 A  
HETATM    9  H   UNL     1     -13.109  15.375  68.916  1.00  0.00     0.000 HD 
HETATM   10  C   UNL     1     -10.324  12.693  66.228  1.00  0.00    -0.269 A  
HETATM   11  C   UNL     1      -9.625  13.845  66.631  1.00  0.00    -0.297 A  
BRANCH  10  12
HETATM   12  C   UNL     1      -9.621  11.632  65.403  1.00  0.00    -0.205 C  
HETATM   13  O   UNL     1      -8.252  11.509  65.819  1.00  0.00    -0.374 OA 
HETATM   14  H   UNL     1      -7.811  10.844  65.302  1.00  0.00     0.000 HD 
BRANCH  12  15
HETATM   15  C   UNL     1     -10.305  10.253  65.521  1.00  0.00    -0.169 C  
BRANCH  15  16
HETATM   16  N   UNL     1      -9.342   9.161  65.307  1.00  0.00    -0.418 NA 
HETATM   17  H   UNL     1      -8.430   9.508  65.010  1.00  0.00     0.000 HD 
BRANCH  16  18
HETATM   18  C   UNL     1      -9.247   8.334  66.506  1.00  0.00    -0.187 C  
BRANCH  18  19
HETATM   19  C   UNL     1     -10.634   8.110  67.097  1.00  0.00    -0.355 C  
BRANCH  19  20
HETATM   20  C   UNL     1     -10.878   6.618  67.315  1.00  0.00    -0.456 C  
BRANCH  20  21
HETATM   21  C   UNL     1     -11.161   6.330  68.782  1.00  0.00    -0.357 C  
BRANCH  21  22
HETATM   22  C   UNL     1     -10.190   5.299  69.345  1.00  0.00    -0.321 C  
BRANCH  22  23
HETATM   23  C   UNL     1      -8.805   5.498  68.747  1.00  0.00    -0.107 C  
BRANCH  23  24
HETATM   24  O   UNL     1      -7.840   5.275  69.767  1.00  0.00    -0.071 OA 
BRANCH  24  25
HETATM   25  C   UNL     1      -7.766   6.381  70.665  1.00  0.00    -0.105 C  
BRANCH  25  26
HETATM   26  C   UNL     1      -7.648   7.664  69.853  1.00  0.00    -0.092 C  
BRANCH  26  27
HETATM   27  C   UNL     1      -8.444   8.798  70.501  1.00  0.00    -0.181 C  
BRANCH  27  28
HETATM   28  C   UNL     1      -9.444   8.278  71.531  1.00  0.00    -0.244 C  
BRANCH  28  29
HETATM   29  C   UNL     1     -10.763   8.997  71.376  1.00  0.00    -0.401 A  
HETATM   30  C   UNL     1     -10.891  10.055  70.469  1.00  0.00    -0.380 A  
HETATM   31  C   UNL     1     -12.086  10.770  70.385  1.00  0.00    -0.443 A  
HETATM   32  C   UNL     1     -13.159  10.437  71.209  1.00  0.00    -0.494 A  
HETATM   33  C   UNL     1     -13.042   9.382  72.114  1.00  0.00    -0.526 A  
HETATM   34  C   UNL     1     -11.849   8.665  72.199  1.00  0.00    -0.447 A  
ENDBRANCH  28  29
ENDBRANCH  27  28
ENDBRANCH  26  27
ENDBRANCH  25  26
ENDBRANCH  24  25
ENDBRANCH  23  24
ENDBRANCH  22  23
ENDBRANCH  21  22
ENDBRANCH  20  21
ENDBRANCH  19  20
ENDBRANCH  18  19
ENDBRANCH  16  18
ENDBRANCH  15  16
ENDBRANCH  12  15
ENDBRANCH  10  12
ENDBRANCH   2   4
TORSDOF 16
ENDMDL
MODEL      139
REMARK 921   NORMALIZED FREE ENERGY PREDICTED BY IDOCK:   -5.09 KCAL/MOL
REMARK 922        TOTAL FREE ENERGY PREDICTED BY IDOCK:  -12.19 KCAL/MOL
REMARK 923 INTER-LIGAND FREE ENERGY PREDICTED BY IDOCK:   -9.84 KCAL/MOL
REMARK 924 INTRA-LIGAND FREE ENERGY PREDICTED BY IDOCK:   -2.34 KCAL/MOL
REMARK 927      BINDING AFFINITY PREDICTED BY RF-SCORE:    0.00 PKD
ROOT
HETATM    1  O   UNL     1      -6.337  16.928  69.737  1.00  0.00    -0.228 OA 
HETATM    2  C   UNL     1      -6.981  15.660  69.604  1.00  0.00    -0.167 C  
HETATM    3  H   UNL     1      -5.647  16.879  70.389  1.00  0.00     0.000 HD 
ENDROOT
BRANCH   2   4
HETATM    4  C   UNL     1      -8.074  15.737  68.571  1.00  0.00    -0.153 A  
HETATM    5  C   UNL     1      -7.816  15.908  67.206  1.00  0.00    -0.187 A  
HETATM    6  O   UNL     1      -6.546  16.081  66.729  1.00  0.00    -0.270 OA 
HETATM    7  C   UNL     1      -8.844  15.938  66.271  1.00  0.00    -0.386 A  
HETATM    8  C   UNL     1     -10.166  15.821  66.693  1.00  0.00    -0.290 A  
HETATM    9  H   UNL     1      -6.371  16.198  65.802  1.00  0.00     0.000 HD 
HETATM   10  C   UNL     1     -10.470  15.652  68.053  1.00  0.00    -0.263 A  
HETATM   11  C   UNL     1      -9.413  15.588  68.977  1.00  0.00    -0.242 A  
BRANCH  10  12
HETATM   12  C   UNL     1     -11.905  15.568  68.539  1.00  0.00    -0.258 C  
HETATM   13  O   UNL     1     -12.520  14.362  68.058  1.00  0.00    -0.585 OA 
HETATM   14  H   UNL     1     -13.418  14.309  68.363  1.00  0.00     0.000 HD 
BRANCH  12  15
HETATM   15  C   UNL     1     -12.002  15.599  70.080  1.00  0.00    -0.368 C  
BRANCH  15  16
HETATM   16  N   UNL     1     -13.324  16.073  70.521  1.00  0.00    -0.457 NA 
HETATM   17  H   UNL     1     -14.016  16.023  69.774  1.00  0.00     0.000 HD 
BRANCH  16  18
HETATM   18  C   UNL     1     -13.748  15.339  71.709  1.00  0.00    -0.504 C  
BRANCH  18  19
HETATM   19  C   UNL     1     -12.809  14.166  71.962  1.00  0.00    -0.423 C  
BRANCH  19  20
HETATM   20  C   UNL     1     -13.600  12.953  72.446  1.00  0.00    -0.577 C  
BRANCH  20  21
HETATM   21  C   UNL     1     -13.101  11.683  71.773  1.00  0.00    -0.487 C  
BRANCH  21  22
HETATM   22  C   UNL     1     -12.164  11.998  70.613  1.00  0.00    -0.409 C  
BRANCH  22  23
HETATM   23  C   UNL     1     -12.389  11.020  69.471  1.00  0.00    -0.197 C  
BRANCH  23  24
HETATM   24  O   UNL     1     -12.072  11.675  68.249  1.00  0.00    -0.552 OA 
BRANCH  24  25
HETATM   25  C   UNL     1     -11.035  10.993  67.547  1.00  0.00    -0.281 C  
BRANCH  25  26
HETATM   26  C   UNL     1     -10.880   9.596  68.135  1.00  0.00    -0.241 C  
BRANCH  26  27
HETATM   27  C   UNL     1      -9.421   9.311  68.494  1.00  0.00    -0.150 C  
BRANCH  27  28
HETATM   28  C   UNL     1      -9.176   9.392  69.999  1.00  0.00    -0.245 C  
BRANCH  28  29
HETATM   29  C   UNL     1     -10.046   8.388  70.716  1.00  0.00    -0.226 A  
HETATM   30  C   UNL     1     -10.920   8.801  71.728  1.00  0.00    -0.415 A  
HETATM   31  C   UNL     1     -11.663   7.862  72.444  1.00  0.00    -0.423 A  
HETATM   32  C   UNL     1     -11.537   6.505  72.156  1.00  0.00    -0.349 A  
HETATM   33  C   UNL     1     -10.672   6.083  71.147  1.00  0.00    -0.323 A  
HETATM   34  C   UNL     1      -9.928   7.020  70.429  1.00  0.00    -0.187 A  
ENDBRANCH  28  29
ENDBRANCH  27  28
ENDBRANCH  26  27
ENDBRANCH  25  26
ENDBRANCH  24  25
ENDBRANCH  23  24
ENDBRANCH  22  23
ENDBRANCH  21  22
ENDBRANCH  20  21
ENDBRANCH  19  20
ENDBRANCH  18  19
ENDBRANCH  16  18
ENDBRANCH  15  16
ENDBRANCH  12  15
ENDBRANCH  10  12
ENDBRANCH   2   4
TORSDOF 16
ENDMDL
MODEL      140
REMARK 921   NORMALIZED FREE ENERGY PREDICTED BY IDOCK:   -5.08 KCAL/MOL
REMARK 922        TOTAL FREE ENERGY PREDICTED BY IDOCK:  -12.18 KCAL/MOL
REMARK 923 INTER-LIGAND FREE ENERGY PREDICTED BY IDOCK:  -10.50 KCAL/MOL
REMARK 924 INTRA-LIGAND FREE ENERGY PREDICTED BY IDOCK:   -1.68 KCAL/MOL
REMARK 927      BINDING AFFINITY PREDICTED BY RF-SCORE:    0.00 PKD
ROOT
HETATM    1  O   UNL     1      -8.087  11.411  65.523  1.00  0.00    -0.361 OA 
HETATM    2  C   UNL     1      -8.511  11.629  66.869  1.00  0.00    -0.168 C  
HETATM    3  H   UNL     1      -7.314  10.858  65.508  1.00  0.00     0.000 HD 
ENDROOT
BRANCH   2   4
HETATM    4  C   UNL     1      -9.736  12.505  66.894  1.00  0.00    -0.232 A  
HETATM    5  C   UNL     1     -10.853  12.268  66.085  1.00  0.00    -0.279 A  
HETATM    6  O   UNL     1     -10.877  11.256  65.166  1.00  0.00    -0.270 OA 
HETATM    7  C   UNL     1     -11.985  13.073  66.156  1.00  0.00    -0.488 A  
HETATM    8  C   UNL     1     -12.010  14.156  67.032  1.00  0.00    -0.471 A  
HETATM    9  H   UNL     1     -11.635  11.095  64.617  1.00  0.00     0.000 HD 
HETATM   10  C   UNL     1     -10.909  14.431  67.858  1.00  0.00    -0.256 A  
HETATM   11  C   UNL     1      -9.789  13.583  67.795  1.00  0.00    -0.233 A  
BRANCH  10  12
HETATM   12  C   UNL     1     -10.897  15.632  68.786  1.00  0.00    -0.262 C  
HETATM   13  O   UNL     1     -10.970  16.847  68.024  1.00  0.00    -0.354 OA 
HETATM   14  H   UNL     1     -10.963  17.599  68.605  1.00  0.00     0.000 HD 
BRANCH  12  15
HETATM   15  C   UNL     1     -12.065  15.602  69.794  1.00  0.00    -0.326 C  
BRANCH  15  16
HETATM   16  N   UNL     1     -11.762  16.412  70.986  1.00  0.00    -0.597 NA 
HETATM   17  H   UNL     1     -11.877  17.410  70.808  1.00  0.00     0.000 HD 
BRANCH  16  18
HETATM   18  C   UNL     1     -12.569  15.962  72.116  1.00  0.00    -0.451 C  
BRANCH  18  19
HETATM   19  C   UNL     1     -13.746  15.132  71.620  1.00  0.00    -0.578 C  
BRANCH  19  20
HETATM   20  C   UNL     1     -13.721  13.746  72.260  1.00  0.00    -0.673 C  
BRANCH  20  21
HETATM   21  C   UNL     1     -12.984  12.756  71.369  1.00  0.00    -0.359 C  
BRANCH  21  22
HETATM   22  C   UNL     1     -13.189  11.322  71.842  1.00  0.00    -0.491 C  
BRANCH  22  23
HETATM   23  C   UNL     1     -12.390  10.361  70.976  1.00  0.00    -0.387 C  
BRANCH  23  24
HETATM   24  O   UNL     1     -12.834   9.037  71.246  1.00  0.00    -0.311 OA 
BRANCH  24  25
HETATM   25  C   UNL     1     -12.396   8.592  72.528  1.00  0.00    -0.309 C  
BRANCH  25  26
HETATM   26  C   UNL     1     -11.908   7.154  72.407  1.00  0.00    -0.224 C  
BRANCH  26  27
HETATM   27  C   UNL     1     -12.193   6.593  71.013  1.00  0.00    -0.344 C  
BRANCH  27  28
HETATM   28  C   UNL     1     -10.927   6.063  70.342  1.00  0.00    -0.399 C  
BRANCH  28  29
HETATM   29  C   UNL     1     -10.674   6.813  69.056  1.00  0.00    -0.280 A  
HETATM   30  C   UNL     1     -10.829   6.174  67.821  1.00  0.00    -0.413 A  
HETATM   31  C   UNL     1     -10.517   6.844  66.637  1.00  0.00    -0.213 A  
HETATM   32  C   UNL     1     -10.046   8.154  66.680  1.00  0.00    -0.344 A  
HETATM   33  C   UNL     1      -9.892   8.800  67.906  1.00  0.00    -0.207 A  
HETATM   34  C   UNL     1     -10.204   8.133  69.090  1.00  0.00    -0.219 A  
ENDBRANCH  28  29
ENDBRANCH  27  28
ENDBRANCH  26  27
ENDBRANCH  25  26
ENDBRANCH  24  25
ENDBRANCH  23  24
ENDBRANCH  22  23
ENDBRANCH  21  22
ENDBRANCH  20  21
ENDBRANCH  19  20
ENDBRANCH  18  19
ENDBRANCH  16  18
ENDBRANCH  15  16
ENDBRANCH  12  15
ENDBRANCH  10  12
ENDBRANCH   2   4
TORSDOF 16
ENDMDL
MODEL      141
REMARK 921   NORMALIZED FREE ENERGY PREDICTED BY IDOCK:   -5.08 KCAL/MOL
REMARK 922        TOTAL FREE ENERGY PREDICTED BY IDOCK:  -12.18 KCAL/MOL
REMARK 923 INTER-LIGAND FREE ENERGY PREDICTED BY IDOCK:   -9.20 KCAL/MOL
REMARK 924 INTRA-LIGAND FREE ENERGY PREDICTED BY IDOCK:   -2.98 KCAL/MOL
REMARK 927      BINDING AFFINITY PREDICTED BY RF-SCORE:    0.00 PKD
ROOT
HETATM    1  O   UNL     1     -11.489  15.558  69.500  1.00  0.00    -0.285 OA 
HETATM    2  C   UNL     1     -12.501  15.212  70.446  1.00  0.00    -0.368 C  
HETATM    3  H   UNL     1     -11.484  16.497  69.354  1.00  0.00     0.000 HD 
ENDROOT
BRANCH   2   4
HETATM    4  C   UNL     1     -12.509  13.723  70.678  1.00  0.00    -0.429 A  
HETATM    5  C   UNL     1     -13.191  13.126  71.744  1.00  0.00    -0.403 A  
HETATM    6  O   UNL     1     -13.845  13.869  72.688  1.00  0.00    -0.666 OA 
HETATM    7  C   UNL     1     -13.211  11.746  71.912  1.00  0.00    -0.468 A  
HETATM    8  C   UNL     1     -12.521  10.931  71.018  1.00  0.00    -0.514 A  
HETATM    9  H   UNL     1     -14.308  13.464  73.412  1.00  0.00     0.000 HD 
HETATM   10  C   UNL     1     -11.820  11.488  69.937  1.00  0.00    -0.430 A  
HETATM   11  C   UNL     1     -11.843  12.884  69.766  1.00  0.00    -0.380 A  
BRANCH  10  12
HETATM   12  C   UNL     1     -11.024  10.623  68.978  1.00  0.00    -0.248 C  
HETATM   13  O   UNL     1     -11.841  10.246  67.858  1.00  0.00    -0.647 OA 
HETATM   14  H   UNL     1     -11.342   9.704  67.257  1.00  0.00     0.000 HD 
BRANCH  12  15
HETATM   15  C   UNL     1      -9.760  11.340  68.457  1.00  0.00    -0.198 C  
BRANCH  15  16
HETATM   16  N   UNL     1      -8.564  10.923  69.206  1.00  0.00    -0.371 NA 
HETATM   17  H   UNL     1      -8.247  11.646  69.853  1.00  0.00     0.000 HD 
BRANCH  16  18
HETATM   18  C   UNL     1      -8.814   9.655  69.884  1.00  0.00    -0.221 C  
BRANCH  18  19
HETATM   19  C   UNL     1      -8.043   8.535  69.197  1.00  0.00    -0.117 C  
BRANCH  19  20
HETATM   20  C   UNL     1      -7.513   7.547  70.233  1.00  0.00    -0.085 C  
BRANCH  20  21
HETATM   21  C   UNL     1      -7.008   6.280  69.558  1.00  0.00    -0.071 C  
BRANCH  21  22
HETATM   22  C   UNL     1      -6.857   6.472  68.054  1.00  0.00    -0.074 C  
BRANCH  22  23
HETATM   23  C   UNL     1      -7.227   5.193  67.318  1.00  0.00    -0.081 C  
BRANCH  23  24
HETATM   24  O   UNL     1      -8.345   5.463  66.482  1.00  0.00    -0.108 OA 
BRANCH  24  25
HETATM   25  C   UNL     1      -9.564   5.042  67.090  1.00  0.00    -0.152 C  
BRANCH  25  26
HETATM   26  C   UNL     1     -10.536   6.214  67.103  1.00  0.00    -0.374 C  
BRANCH  26  27
HETATM   27  C   UNL     1     -11.157   6.397  68.489  1.00  0.00    -0.385 C  
BRANCH  27  28
HETATM   28  C   UNL     1     -10.612   5.386  69.496  1.00  0.00    -0.316 C  
BRANCH  28  29
HETATM   29  C   UNL     1     -10.603   5.992  70.880  1.00  0.00    -0.310 A  
HETATM   30  C   UNL     1     -10.151   5.249  71.976  1.00  0.00    -0.247 A  
HETATM   31  C   UNL     1     -10.219   5.782  73.263  1.00  0.00    -0.217 A  
HETATM   32  C   UNL     1     -10.741   7.058  73.465  1.00  0.00    -0.368 A  
HETATM   33  C   UNL     1     -11.190   7.807  72.378  1.00  0.00    -0.392 A  
HETATM   34  C   UNL     1     -11.123   7.277  71.090  1.00  0.00    -0.275 A  
ENDBRANCH  28  29
ENDBRANCH  27  28
ENDBRANCH  26  27
ENDBRANCH  25  26
ENDBRANCH  24  25
ENDBRANCH  23  24
ENDBRANCH  22  23
ENDBRANCH  21  22
ENDBRANCH  20  21
ENDBRANCH  19  20
ENDBRANCH  18  19
ENDBRANCH  16  18
ENDBRANCH  15  16
ENDBRANCH  12  15
ENDBRANCH  10  12
ENDBRANCH   2   4
TORSDOF 16
ENDMDL
MODEL      142
REMARK 921   NORMALIZED FREE ENERGY PREDICTED BY IDOCK:   -5.08 KCAL/MOL
REMARK 922        TOTAL FREE ENERGY PREDICTED BY IDOCK:  -12.17 KCAL/MOL
REMARK 923 INTER-LIGAND FREE ENERGY PREDICTED BY IDOCK:  -10.08 KCAL/MOL
REMARK 924 INTRA-LIGAND FREE ENERGY PREDICTED BY IDOCK:   -2.10 KCAL/MOL
REMARK 927      BINDING AFFINITY PREDICTED BY RF-SCORE:    0.00 PKD
ROOT
HETATM    1  O   UNL     1     -11.172   3.308  64.376  1.00  0.00    -0.578 OA 
HETATM    2  C   UNL     1     -10.071   4.143  64.737  1.00  0.00    -0.192 C  
HETATM    3  H   UNL     1     -11.261   3.273  63.430  1.00  0.00     0.000 HD 
ENDROOT
BRANCH   2   4
HETATM    4  C   UNL     1      -9.929   4.199  66.235  1.00  0.00    -0.185 A  
HETATM    5  C   UNL     1      -9.504   3.105  66.998  1.00  0.00    -0.094 A  
HETATM    6  O   UNL     1      -9.250   1.887  66.431  1.00  0.00    -0.286 OA 
HETATM    7  C   UNL     1      -9.346   3.198  68.376  1.00  0.00    -0.244 A  
HETATM    8  C   UNL     1      -9.638   4.394  69.026  1.00  0.00    -0.244 A  
HETATM    9  H   UNL     1      -8.962   1.144  66.949  1.00  0.00     0.000 HD 
HETATM   10  C   UNL     1     -10.072   5.515  68.301  1.00  0.00    -0.226 A  
HETATM   11  C   UNL     1     -10.189   5.409  66.903  1.00  0.00    -0.279 A  
BRANCH  10  12
HETATM   12  C   UNL     1     -10.438   6.814  68.994  1.00  0.00    -0.206 C  
HETATM   13  O   UNL     1     -11.254   7.622  68.130  1.00  0.00    -0.398 OA 
HETATM   14  H   UNL     1     -11.484   8.435  68.564  1.00  0.00     0.000 HD 
BRANCH  12  15
HETATM   15  C   UNL     1     -11.195   6.575  70.318  1.00  0.00    -0.374 C  
BRANCH  15  16
HETATM   16  N   UNL     1     -12.301   7.534  70.480  1.00  0.00    -0.527 NA 
HETATM   17  H   UNL     1     -13.195   7.065  70.621  1.00  0.00     0.000 HD 
BRANCH  16  18
HETATM   18  C   UNL     1     -11.998   8.470  71.558  1.00  0.00    -0.303 C  
BRANCH  18  19
HETATM   19  C   UNL     1     -12.192   9.902  71.076  1.00  0.00    -0.446 C  
BRANCH  19  20
HETATM   20  C   UNL     1     -11.026  10.320  70.183  1.00  0.00    -0.377 C  
BRANCH  20  21
HETATM   21  C   UNL     1     -11.533  10.821  68.838  1.00  0.00    -0.362 C  
BRANCH  21  22
HETATM   22  C   UNL     1     -11.757  12.328  68.854  1.00  0.00    -0.380 C  
BRANCH  22  23
HETATM   23  C   UNL     1     -10.459  13.059  68.550  1.00  0.00    -0.249 C  
BRANCH  23  24
HETATM   24  O   UNL     1     -10.629  13.794  67.345  1.00  0.00    -0.257 OA 
BRANCH  24  25
HETATM   25  C   UNL     1     -12.009  13.969  67.031  1.00  0.00    -0.438 C  
BRANCH  25  26
HETATM   26  C   UNL     1     -12.162  14.046  65.518  1.00  0.00    -0.455 C  
BRANCH  26  27
HETATM   27  C   UNL     1     -12.504  12.676  64.931  1.00  0.00    -0.564 C  
BRANCH  27  28
HETATM   28  C   UNL     1     -11.661  12.356  63.698  1.00  0.00    -0.580 C  
BRANCH  28  29
HETATM   29  C   UNL     1     -10.669  11.264  64.022  1.00  0.00    -0.444 A  
HETATM   30  C   UNL     1     -10.642  10.687  65.297  1.00  0.00    -0.191 A  
HETATM   31  C   UNL     1      -9.674   9.737  65.619  1.00  0.00    -0.357 A  
HETATM   32  C   UNL     1      -8.724   9.358  64.672  1.00  0.00    -0.229 A  
HETATM   33  C   UNL     1      -8.745   9.925  63.399  1.00  0.00    -0.230 A  
HETATM   34  C   UNL     1      -9.713  10.875  63.073  1.00  0.00    -0.380 A  
ENDBRANCH  28  29
ENDBRANCH  27  28
ENDBRANCH  26  27
ENDBRANCH  25  26
ENDBRANCH  24  25
ENDBRANCH  23  24
ENDBRANCH  22  23
ENDBRANCH  21  22
ENDBRANCH  20  21
ENDBRANCH  19  20
ENDBRANCH  18  19
ENDBRANCH  16  18
ENDBRANCH  15  16
ENDBRANCH  12  15
ENDBRANCH  10  12
ENDBRANCH   2   4
TORSDOF 16
ENDMDL
MODEL      143
REMARK 921   NORMALIZED FREE ENERGY PREDICTED BY IDOCK:   -5.07 KCAL/MOL
REMARK 922        TOTAL FREE ENERGY PREDICTED BY IDOCK:  -12.17 KCAL/MOL
REMARK 923 INTER-LIGAND FREE ENERGY PREDICTED BY IDOCK:   -9.87 KCAL/MOL
REMARK 924 INTRA-LIGAND FREE ENERGY PREDICTED BY IDOCK:   -2.30 KCAL/MOL
REMARK 927      BINDING AFFINITY PREDICTED BY RF-SCORE:    0.00 PKD
ROOT
HETATM    1  O   UNL     1     -12.999  12.478  64.475  1.00  0.00    -0.752 OA 
HETATM    2  C   UNL     1     -12.217  13.517  63.884  1.00  0.00    -0.399 C  
HETATM    3  H   UNL     1     -13.466  11.996  63.802  1.00  0.00     0.000 HD 
ENDROOT
BRANCH   2   4
HETATM    4  C   UNL     1     -11.476  14.281  64.950  1.00  0.00    -0.378 A  
HETATM    5  C   UNL     1     -11.174  15.643  64.834  1.00  0.00    -0.369 A  
HETATM    6  O   UNL     1     -11.479  16.356  63.708  1.00  0.00    -1.590 OA 
HETATM    7  C   UNL     1     -10.522  16.330  65.851  1.00  0.00    -0.359 A  
HETATM    8  C   UNL     1     -10.135  15.654  67.006  1.00  0.00    -0.253 A  
HETATM    9  H   UNL     1     -11.274  17.280  63.629  1.00  0.00     0.000 HD 
HETATM   10  C   UNL     1     -10.414  14.287  67.161  1.00  0.00    -0.266 A  
HETATM   11  C   UNL     1     -11.106  13.620  66.135  1.00  0.00    -0.299 A  
BRANCH  10  12
HETATM   12  C   UNL     1      -9.961  13.521  68.389  1.00  0.00    -0.232 C  
HETATM   13  O   UNL     1     -10.934  13.648  69.438  1.00  0.00    -0.392 OA 
HETATM   14  H   UNL     1     -10.651  13.168  70.207  1.00  0.00     0.000 HD 
BRANCH  12  15
HETATM   15  C   UNL     1      -9.738  12.023  68.093  1.00  0.00    -0.199 C  
BRANCH  15  16
HETATM   16  N   UNL     1      -9.994  11.200  69.287  1.00  0.00    -0.420 NA 
HETATM   17  H   UNL     1     -10.403  11.744  70.045  1.00  0.00     0.000 HD 
BRANCH  16  18
HETATM   18  C   UNL     1     -10.818  10.048  68.934  1.00  0.00    -0.220 C  
BRANCH  18  19
HETATM   19  C   UNL     1     -10.781   9.821  67.428  1.00  0.00    -0.314 C  
BRANCH  19  20
HETATM   20  C   UNL     1     -10.230   8.431  67.117  1.00  0.00    -0.362 C  
BRANCH  20  21
HETATM   21  C   UNL     1      -8.744   8.501  66.801  1.00  0.00    -0.133 C  
BRANCH  21  22
HETATM   22  C   UNL     1      -8.358   7.504  65.715  1.00  0.00    -0.144 C  
BRANCH  22  23
HETATM   23  C   UNL     1      -9.139   6.210  65.884  1.00  0.00    -0.085 C  
BRANCH  23  24
HETATM   24  O   UNL     1      -8.217   5.158  66.140  1.00  0.00    -0.108 OA 
BRANCH  24  25
HETATM   25  C   UNL     1      -8.624   4.367  67.253  1.00  0.00    -0.104 C  
BRANCH  25  26
HETATM   26  C   UNL     1      -8.213   5.077  68.537  1.00  0.00    -0.085 C  
BRANCH  26  27
HETATM   27  C   UNL     1      -9.263   4.884  69.631  1.00  0.00    -0.172 C  
BRANCH  27  28
HETATM   28  C   UNL     1     -10.572   5.597  69.299  1.00  0.00    -0.359 C  
BRANCH  28  29
HETATM   29  C   UNL     1     -10.881   6.625  70.361  1.00  0.00    -0.316 A  
HETATM   30  C   UNL     1      -9.854   7.170  71.140  1.00  0.00    -0.180 A  
HETATM   31  C   UNL     1     -10.150   8.059  72.174  1.00  0.00    -0.298 A  
HETATM   32  C   UNL     1     -11.473   8.407  72.438  1.00  0.00    -0.451 A  
HETATM   33  C   UNL     1     -12.503   7.873  71.665  1.00  0.00    -0.344 A  
HETATM   34  C   UNL     1     -12.210   6.984  70.630  1.00  0.00    -0.289 A  
ENDBRANCH  28  29
ENDBRANCH  27  28
ENDBRANCH  26  27
ENDBRANCH  25  26
ENDBRANCH  24  25
ENDBRANCH  23  24
ENDBRANCH  22  23
ENDBRANCH  21  22
ENDBRANCH  20  21
ENDBRANCH  19  20
ENDBRANCH  18  19
ENDBRANCH  16  18
ENDBRANCH  15  16
ENDBRANCH  12  15
ENDBRANCH  10  12
ENDBRANCH   2   4
TORSDOF 16
ENDMDL
MODEL      144
REMARK 921   NORMALIZED FREE ENERGY PREDICTED BY IDOCK:   -5.07 KCAL/MOL
REMARK 922        TOTAL FREE ENERGY PREDICTED BY IDOCK:  -12.15 KCAL/MOL
REMARK 923 INTER-LIGAND FREE ENERGY PREDICTED BY IDOCK:  -11.00 KCAL/MOL
REMARK 924 INTRA-LIGAND FREE ENERGY PREDICTED BY IDOCK:   -1.16 KCAL/MOL
REMARK 927      BINDING AFFINITY PREDICTED BY RF-SCORE:    0.00 PKD
ROOT
HETATM    1  O   UNL     1     -11.058   4.766  65.883  1.00  0.00    -0.738 OA 
HETATM    2  C   UNL     1     -10.728   5.946  66.617  1.00  0.00    -0.252 C  
HETATM    3  H   UNL     1     -11.136   4.966  64.957  1.00  0.00     0.000 HD 
ENDROOT
BRANCH   2   4
HETATM    4  C   UNL     1     -10.604   5.629  68.084  1.00  0.00    -0.256 A  
HETATM    5  C   UNL     1      -9.847   4.554  68.566  1.00  0.00    -0.089 A  
HETATM    6  O   UNL     1      -9.220   3.679  67.723  1.00  0.00    -0.151 OA 
HETATM    7  C   UNL     1      -9.720   4.309  69.928  1.00  0.00    -0.291 A  
HETATM    8  C   UNL     1     -10.376   5.129  70.843  1.00  0.00    -0.282 A  
HETATM    9  H   UNL     1      -8.706   2.950  68.050  1.00  0.00     0.000 HD 
HETATM   10  C   UNL     1     -11.149   6.215  70.403  1.00  0.00    -0.420 A  
HETATM   11  C   UNL     1     -11.234   6.466  69.022  1.00  0.00    -0.402 A  
BRANCH  10  12
HETATM   12  C   UNL     1     -11.909   7.094  71.379  1.00  0.00    -0.308 C  
HETATM   13  O   UNL     1     -11.836   6.540  72.702  1.00  0.00    -0.483 OA 
HETATM   14  H   UNL     1     -12.312   7.090  73.314  1.00  0.00     0.000 HD 
BRANCH  12  15
HETATM   15  C   UNL     1     -11.364   8.538  71.410  1.00  0.00    -0.271 C  
BRANCH  15  16
HETATM   16  N   UNL     1     -12.325   9.456  72.042  1.00  0.00    -0.363 NA 
HETATM   17  H   UNL     1     -12.041   9.717  72.986  1.00  0.00     0.000 HD 
BRANCH  16  18
HETATM   18  C   UNL     1     -12.534  10.625  71.193  1.00  0.00    -0.418 C  
BRANCH  18  19
HETATM   19  C   UNL     1     -13.437  11.629  71.898  1.00  0.00    -0.269 C  
BRANCH  19  20
HETATM   20  C   UNL     1     -13.125  13.045  71.419  1.00  0.00    -0.336 C  
BRANCH  20  21
HETATM   21  C   UNL     1     -13.598  14.072  72.437  1.00  0.00    -0.658 C  
BRANCH  21  22
HETATM   22  C   UNL     1     -13.219  15.487  72.017  1.00  0.00    -0.549 C  
BRANCH  22  23
HETATM   23  C   UNL     1     -12.762  15.504  70.567  1.00  0.00    -0.388 C  
BRANCH  23  24
HETATM   24  O   UNL     1     -11.382  15.844  70.534  1.00  0.00    -0.332 OA 
BRANCH  24  25
HETATM   25  C   UNL     1     -10.698  15.149  69.494  1.00  0.00    -0.266 C  
BRANCH  25  26
HETATM   26  C   UNL     1     -11.601  15.089  68.269  1.00  0.00    -0.355 C  
BRANCH  26  27
HETATM   27  C   UNL     1     -10.803  15.329  66.986  1.00  0.00    -0.321 C  
BRANCH  27  28
HETATM   28  C   UNL     1      -9.465  16.011  67.265  1.00  0.00    -0.220 C  
BRANCH  28  29
HETATM   29  C   UNL     1      -9.630  17.511  67.202  1.00  0.00    -0.262 A  
HETATM   30  C   UNL     1      -9.230  18.314  68.276  1.00  0.00    -0.322 A  
HETATM   31  C   UNL     1      -9.456  19.690  68.250  1.00  0.00    -0.453 A  
HETATM   32  C   UNL     1     -10.085  20.273  67.152  1.00  0.00    -0.556 A  
HETATM   33  C   UNL     1     -10.484  19.482  66.075  1.00  0.00    -0.611 A  
HETATM   34  C   UNL     1     -10.258  18.106  66.099  1.00  0.00    -0.372 A  
ENDBRANCH  28  29
ENDBRANCH  27  28
ENDBRANCH  26  27
ENDBRANCH  25  26
ENDBRANCH  24  25
ENDBRANCH  23  24
ENDBRANCH  22  23
ENDBRANCH  21  22
ENDBRANCH  20  21
ENDBRANCH  19  20
ENDBRANCH  18  19
ENDBRANCH  16  18
ENDBRANCH  15  16
ENDBRANCH  12  15
ENDBRANCH  10  12
ENDBRANCH   2   4
TORSDOF 16
ENDMDL
MODEL      145
REMARK 921   NORMALIZED FREE ENERGY PREDICTED BY IDOCK:   -5.02 KCAL/MOL
REMARK 922        TOTAL FREE ENERGY PREDICTED BY IDOCK:  -12.06 KCAL/MOL
REMARK 923 INTER-LIGAND FREE ENERGY PREDICTED BY IDOCK:   -8.42 KCAL/MOL
REMARK 924 INTRA-LIGAND FREE ENERGY PREDICTED BY IDOCK:   -3.64 KCAL/MOL
REMARK 927      BINDING AFFINITY PREDICTED BY RF-SCORE:    0.00 PKD
ROOT
HETATM    1  O   UNL     1     -12.589   8.200  72.948  1.00  0.00    -0.614 OA 
HETATM    2  C   UNL     1     -13.087   7.421  71.860  1.00  0.00    -0.245 C  
HETATM    3  H   UNL     1     -13.279   8.749  73.303  1.00  0.00     0.000 HD 
ENDROOT
BRANCH   2   4
HETATM    4  C   UNL     1     -11.993   6.551  71.299  1.00  0.00    -0.364 A  
HETATM    5  C   UNL     1     -11.235   5.680  72.090  1.00  0.00    -0.227 A  
HETATM    6  O   UNL     1     -11.399   5.612  73.446  1.00  0.00    -0.472 OA 
HETATM    7  C   UNL     1     -10.256   4.863  71.537  1.00  0.00    -0.264 A  
HETATM    8  C   UNL     1      -9.999   4.919  70.170  1.00  0.00    -0.325 A  
HETATM    9  H   UNL     1     -10.885   5.021  73.983  1.00  0.00     0.000 HD 
HETATM   10  C   UNL     1     -10.732   5.782  69.340  1.00  0.00    -0.397 A  
HETATM   11  C   UNL     1     -11.742   6.574  69.915  1.00  0.00    -0.349 A  
BRANCH  10  12
HETATM   12  C   UNL     1     -10.437   5.893  67.855  1.00  0.00    -0.236 C  
HETATM   13  O   UNL     1     -11.499   6.597  67.192  1.00  0.00    -0.779 OA 
HETATM   14  H   UNL     1     -11.315   6.667  66.263  1.00  0.00     0.000 HD 
BRANCH  12  15
HETATM   15  C   UNL     1      -9.105   6.622  67.578  1.00  0.00    -0.116 C  
BRANCH  15  16
HETATM   16  N   UNL     1      -9.292   7.732  66.630  1.00  0.00    -0.178 NA 
HETATM   17  H   UNL     1     -10.244   8.096  66.651  1.00  0.00     0.000 HD 
BRANCH  16  18
HETATM   18  C   UNL     1      -8.302   8.775  66.878  1.00  0.00    -0.108 C  
BRANCH  18  19
HETATM   19  C   UNL     1      -8.429   9.875  65.832  1.00  0.00    -0.137 C  
BRANCH  19  20
HETATM   20  C   UNL     1      -9.825   9.855  65.213  1.00  0.00    -0.373 C  
BRANCH  20  21
HETATM   21  C   UNL     1     -10.567  11.147  65.518  1.00  0.00    -0.289 C  
BRANCH  21  22
HETATM   22  C   UNL     1      -9.716  12.094  66.356  1.00  0.00    -0.243 C  
BRANCH  22  23
HETATM   23  C   UNL     1     -10.570  13.227  66.903  1.00  0.00    -0.264 C  
BRANCH  23  24
HETATM   24  O   UNL     1     -11.097  12.825  68.162  1.00  0.00    -0.231 OA 
BRANCH  24  25
HETATM   25  C   UNL     1     -10.444  11.656  68.651  1.00  0.00    -0.213 C  
BRANCH  25  26
HETATM   26  C   UNL     1     -11.481  10.751  69.302  1.00  0.00    -0.369 C  
BRANCH  26  27
HETATM   27  C   UNL     1     -10.842   9.863  70.370  1.00  0.00    -0.380 C  
BRANCH  27  28
HETATM   28  C   UNL     1      -9.330   9.743  70.184  1.00  0.00    -0.261 C  
BRANCH  28  29
HETATM   29  C   UNL     1      -8.771   8.731  71.154  1.00  0.00    -0.265 A  
HETATM   30  C   UNL     1      -9.198   8.714  72.486  1.00  0.00    -0.204 A  
HETATM   31  C   UNL     1      -8.622   7.832  73.400  1.00  0.00    -0.267 A  
HETATM   32  C   UNL     1      -7.613   6.963  72.991  1.00  0.00    -0.089 A  
HETATM   33  C   UNL     1      -7.183   6.969  71.665  1.00  0.00    -0.078 A  
HETATM   34  C   UNL     1      -7.758   7.850  70.749  1.00  0.00    -0.083 A  
ENDBRANCH  28  29
ENDBRANCH  27  28
ENDBRANCH  26  27
ENDBRANCH  25  26
ENDBRANCH  24  25
ENDBRANCH  23  24
ENDBRANCH  22  23
ENDBRANCH  21  22
ENDBRANCH  20  21
ENDBRANCH  19  20
ENDBRANCH  18  19
ENDBRANCH  16  18
ENDBRANCH  15  16
ENDBRANCH  12  15
ENDBRANCH  10  12
ENDBRANCH   2   4
TORSDOF 16
ENDMDL
MODEL      146
REMARK 921   NORMALIZED FREE ENERGY PREDICTED BY IDOCK:   -5.02 KCAL/MOL
REMARK 922        TOTAL FREE ENERGY PREDICTED BY IDOCK:  -12.06 KCAL/MOL
REMARK 923 INTER-LIGAND FREE ENERGY PREDICTED BY IDOCK:   -9.75 KCAL/MOL
REMARK 924 INTRA-LIGAND FREE ENERGY PREDICTED BY IDOCK:   -2.31 KCAL/MOL
REMARK 927      BINDING AFFINITY PREDICTED BY RF-SCORE:    0.00 PKD
ROOT
HETATM    1  O   UNL     1      -8.858  11.712  62.820  1.00  0.00    -0.623 OA 
HETATM    2  C   UNL     1      -9.972  11.751  63.714  1.00  0.00    -0.355 C  
HETATM    3  H   UNL     1      -8.975  12.347  62.123  1.00  0.00     0.000 HD 
ENDROOT
BRANCH   2   4
HETATM    4  C   UNL     1      -9.787  10.744  64.819  1.00  0.00    -0.358 A  
HETATM    5  C   UNL     1      -9.409   9.417  64.580  1.00  0.00    -0.044 A  
HETATM    6  O   UNL     1      -9.245   8.932  63.312  1.00  0.00    -0.371 OA 
HETATM    7  C   UNL     1      -9.210   8.520  65.623  1.00  0.00    -0.161 A  
HETATM    8  C   UNL     1      -9.412   8.932  66.938  1.00  0.00    -0.230 A  
HETATM    9  H   UNL     1      -8.988   8.032  63.150  1.00  0.00     0.000 HD 
HETATM   10  C   UNL     1      -9.796  10.252  67.222  1.00  0.00    -0.222 A  
HETATM   11  C   UNL     1      -9.957  11.153  66.154  1.00  0.00    -0.273 A  
BRANCH  10  12
HETATM   12  C   UNL     1     -10.066  10.710  68.644  1.00  0.00    -0.183 C  
HETATM   13  O   UNL     1      -8.942  11.449  69.146  1.00  0.00    -0.379 OA 
HETATM   14  H   UNL     1      -9.111  11.737  70.036  1.00  0.00     0.000 HD 
BRANCH  12  15
HETATM   15  C   UNL     1     -11.329  11.592  68.743  1.00  0.00    -0.265 C  
BRANCH  15  16
HETATM   16  N   UNL     1     -11.191  12.602  69.805  1.00  0.00    -0.482 NA 
HETATM   17  H   UNL     1     -10.259  12.596  70.219  1.00  0.00     0.000 HD 
BRANCH  16  18
HETATM   18  C   UNL     1     -11.553  13.920  69.292  1.00  0.00    -0.309 C  
BRANCH  18  19
HETATM   19  C   UNL     1     -12.010  13.809  67.843  1.00  0.00    -0.391 C  
BRANCH  19  20
HETATM   20  C   UNL     1     -11.400  14.934  67.010  1.00  0.00    -0.345 C  
BRANCH  20  21
HETATM   21  C   UNL     1     -11.461  14.599  65.527  1.00  0.00    -0.341 C  
BRANCH  21  22
HETATM   22  C   UNL     1     -11.075  15.797  64.669  1.00  0.00    -0.376 C  
BRANCH  22  23
HETATM   23  C   UNL     1     -10.552  16.927  65.543  1.00  0.00    -0.202 C  
BRANCH  23  24
HETATM   24  O   UNL     1     -10.972  18.163  64.979  1.00  0.00    -0.726 OA 
BRANCH  24  25
HETATM   25  C   UNL     1     -10.530  19.270  65.761  1.00  0.00    -0.359 C  
BRANCH  25  26
HETATM   26  C   UNL     1     -10.528  18.864  67.229  1.00  0.00    -0.510 C  
BRANCH  26  27
HETATM   27  C   UNL     1      -9.854  19.931  68.093  1.00  0.00    -0.524 C  
BRANCH  27  28
HETATM   28  C   UNL     1      -8.628  19.385  68.822  1.00  0.00    -0.371 C  
BRANCH  28  29
HETATM   29  C   UNL     1      -8.226  18.055  68.228  1.00  0.00    -0.298 A  
HETATM   30  C   UNL     1      -8.546  16.861  68.884  1.00  0.00    -0.206 A  
HETATM   31  C   UNL     1      -8.104  15.640  68.376  1.00  0.00    -0.137 A  
HETATM   32  C   UNL     1      -7.339  15.602  67.212  1.00  0.00    -0.255 A  
HETATM   33  C   UNL     1      -7.019  16.787  66.550  1.00  0.00    -0.224 A  
HETATM   34  C   UNL     1      -7.460  18.010  67.055  1.00  0.00    -0.228 A  
ENDBRANCH  28  29
ENDBRANCH  27  28
ENDBRANCH  26  27
ENDBRANCH  25  26
ENDBRANCH  24  25
ENDBRANCH  23  24
ENDBRANCH  22  23
ENDBRANCH  21  22
ENDBRANCH  20  21
ENDBRANCH  19  20
ENDBRANCH  18  19
ENDBRANCH  16  18
ENDBRANCH  15  16
ENDBRANCH  12  15
ENDBRANCH  10  12
ENDBRANCH   2   4
TORSDOF 16
ENDMDL
MODEL      147
REMARK 921   NORMALIZED FREE ENERGY PREDICTED BY IDOCK:   -5.01 KCAL/MOL
REMARK 922        TOTAL FREE ENERGY PREDICTED BY IDOCK:  -12.04 KCAL/MOL
REMARK 923 INTER-LIGAND FREE ENERGY PREDICTED BY IDOCK:   -9.81 KCAL/MOL
REMARK 924 INTRA-LIGAND FREE ENERGY PREDICTED BY IDOCK:   -2.23 KCAL/MOL
REMARK 927      BINDING AFFINITY PREDICTED BY RF-SCORE:    0.00 PKD
ROOT
HETATM    1  O   UNL     1      -5.834  16.574  69.441  1.00  0.00    -0.147 OA 
HETATM    2  C   UNL     1      -6.903  15.695  69.792  1.00  0.00    -0.134 C  
HETATM    3  H   UNL     1      -5.169  16.570  70.120  1.00  0.00     0.000 HD 
ENDROOT
BRANCH   2   4
HETATM    4  C   UNL     1      -7.957  15.702  68.716  1.00  0.00    -0.172 A  
HETATM    5  C   UNL     1      -7.647  15.688  67.351  1.00  0.00    -0.198 A  
HETATM    6  O   UNL     1      -6.356  15.734  66.905  1.00  0.00    -0.280 OA 
HETATM    7  C   UNL     1      -8.643  15.657  66.381  1.00  0.00    -0.319 A  
HETATM    8  C   UNL     1      -9.982  15.663  66.763  1.00  0.00    -0.258 A  
HETATM    9  H   UNL     1      -6.145  15.726  65.979  1.00  0.00     0.000 HD 
HETATM   10  C   UNL     1     -10.337  15.680  68.121  1.00  0.00    -0.246 A  
HETATM   11  C   UNL     1      -9.315  15.675  69.085  1.00  0.00    -0.252 A  
BRANCH  10  12
HETATM   12  C   UNL     1     -11.789  15.733  68.559  1.00  0.00    -0.221 C  
HETATM   13  O   UNL     1     -12.536  14.685  67.921  1.00  0.00    -0.586 OA 
HETATM   14  H   UNL     1     -13.445  14.717  68.196  1.00  0.00     0.000 HD 
BRANCH  12  15
HETATM   15  C   UNL     1     -11.942  15.597  70.089  1.00  0.00    -0.367 C  
BRANCH  15  16
HETATM   16  N   UNL     1     -13.226  14.970  70.442  1.00  0.00    -0.655 NA 
HETATM   17  H   UNL     1     -13.742  14.665  69.616  1.00  0.00     0.000 HD 
BRANCH  16  18
HETATM   18  C   UNL     1     -13.007  13.876  71.383  1.00  0.00    -0.355 C  
BRANCH  18  19
HETATM   19  C   UNL     1     -12.386  12.685  70.665  1.00  0.00    -0.375 C  
BRANCH  19  20
HETATM   20  C   UNL     1     -12.714  11.392  71.408  1.00  0.00    -0.489 C  
BRANCH  20  21
HETATM   21  C   UNL     1     -11.777  10.273  70.977  1.00  0.00    -0.461 C  
BRANCH  21  22
HETATM   22  C   UNL     1     -11.175  10.548  69.605  1.00  0.00    -0.342 C  
BRANCH  22  23
HETATM   23  C   UNL     1      -9.705  10.158  69.585  1.00  0.00    -0.221 C  
BRANCH  23  24
HETATM   24  O   UNL     1      -9.612   8.747  69.735  1.00  0.00    -0.167 OA 
BRANCH  24  25
HETATM   25  C   UNL     1      -9.782   8.078  68.487  1.00  0.00    -0.159 C  
BRANCH  25  26
HETATM   26  C   UNL     1      -8.944   8.788  67.432  1.00  0.00    -0.143 C  
BRANCH  26  27
HETATM   27  C   UNL     1      -9.705   8.899  66.110  1.00  0.00    -0.338 C  
BRANCH  27  28
HETATM   28  C   UNL     1      -9.198  10.059  65.255  1.00  0.00    -0.268 C  
BRANCH  28  29
HETATM   29  C   UNL     1     -10.332  11.012  64.957  1.00  0.00    -0.360 A  
HETATM   30  C   UNL     1     -10.728  11.251  63.636  1.00  0.00    -0.438 A  
HETATM   31  C   UNL     1     -11.720  12.191  63.358  1.00  0.00    -0.533 A  
HETATM   32  C   UNL     1     -12.321  12.900  64.396  1.00  0.00    -0.468 A  
HETATM   33  C   UNL     1     -11.936  12.666  65.715  1.00  0.00    -0.503 A  
HETATM   34  C   UNL     1     -10.945  11.726  65.996  1.00  0.00    -0.355 A  
ENDBRANCH  28  29
ENDBRANCH  27  28
ENDBRANCH  26  27
ENDBRANCH  25  26
ENDBRANCH  24  25
ENDBRANCH  23  24
ENDBRANCH  22  23
ENDBRANCH  21  22
ENDBRANCH  20  21
ENDBRANCH  19  20
ENDBRANCH  18  19
ENDBRANCH  16  18
ENDBRANCH  15  16
ENDBRANCH  12  15
ENDBRANCH  10  12
ENDBRANCH   2   4
TORSDOF 16
ENDMDL
MODEL      148
REMARK 921   NORMALIZED FREE ENERGY PREDICTED BY IDOCK:   -5.00 KCAL/MOL
REMARK 922        TOTAL FREE ENERGY PREDICTED BY IDOCK:  -12.02 KCAL/MOL
REMARK 923 INTER-LIGAND FREE ENERGY PREDICTED BY IDOCK:  -11.14 KCAL/MOL
REMARK 924 INTRA-LIGAND FREE ENERGY PREDICTED BY IDOCK:   -0.88 KCAL/MOL
REMARK 927      BINDING AFFINITY PREDICTED BY RF-SCORE:    0.00 PKD
ROOT
HETATM    1  O   UNL     1     -11.445   4.385  65.007  1.00  0.00    -1.090 OA 
HETATM    2  C   UNL     1     -10.064   4.293  65.362  1.00  0.00    -0.225 C  
HETATM    3  H   UNL     1     -11.538   4.436  64.062  1.00  0.00     0.000 HD 
ENDROOT
BRANCH   2   4
HETATM    4  C   UNL     1      -9.916   4.213  66.858  1.00  0.00    -0.127 A  
HETATM    5  C   UNL     1      -9.468   3.061  67.515  1.00  0.00    -0.123 A  
HETATM    6  O   UNL     1      -9.197   1.905  66.838  1.00  0.00    -0.274 OA 
HETATM    7  C   UNL     1      -9.306   3.029  68.896  1.00  0.00    -0.228 A  
HETATM    8  C   UNL     1      -9.615   4.155  69.655  1.00  0.00    -0.277 A  
HETATM    9  H   UNL     1      -8.893   1.123  67.283  1.00  0.00     0.000 HD 
HETATM   10  C   UNL     1     -10.071   5.330  69.037  1.00  0.00    -0.272 A  
HETATM   11  C   UNL     1     -10.194   5.352  67.636  1.00  0.00    -0.236 A  
BRANCH  10  12
HETATM   12  C   UNL     1     -10.457   6.553  69.848  1.00  0.00    -0.213 C  
HETATM   13  O   UNL     1     -11.101   7.522  69.006  1.00  0.00    -0.428 OA 
HETATM   14  H   UNL     1     -11.342   8.288  69.514  1.00  0.00     0.000 HD 
BRANCH  12  15
HETATM   15  C   UNL     1     -11.400   6.203  71.019  1.00  0.00    -0.282 C  
BRANCH  15  16
HETATM   16  N   UNL     1     -12.577   7.087  71.038  1.00  0.00    -0.509 NA 
HETATM   17  H   UNL     1     -13.451   6.560  71.035  1.00  0.00     0.000 HD 
BRANCH  16  18
HETATM   18  C   UNL     1     -12.496   8.004  72.170  1.00  0.00    -0.296 C  
BRANCH  18  19
HETATM   19  C   UNL     1     -13.680   8.963  72.152  1.00  0.00    -0.527 C  
BRANCH  19  20
HETATM   20  C   UNL     1     -13.189  10.406  72.064  1.00  0.00    -0.497 C  
BRANCH  20  21
HETATM   21  C   UNL     1     -12.052  10.527  71.061  1.00  0.00    -0.492 C  
BRANCH  21  22
HETATM   22  C   UNL     1     -12.549  11.043  69.715  1.00  0.00    -0.151 C  
BRANCH  22  23
HETATM   23  C   UNL     1     -11.441  11.796  68.996  1.00  0.00    -0.297 C  
BRANCH  23  24
HETATM   24  O   UNL     1     -11.804  11.931  67.628  1.00  0.00    -0.534 OA 
BRANCH  24  25
HETATM   25  C   UNL     1     -11.113  13.014  67.010  1.00  0.00    -0.281 C  
BRANCH  25  26
HETATM   26  C   UNL     1     -11.992  14.257  67.076  1.00  0.00    -0.463 C  
BRANCH  26  27
HETATM   27  C   UNL     1     -11.204  15.458  67.603  1.00  0.00    -0.311 C  
BRANCH  27  28
HETATM   28  C   UNL     1     -10.578  16.272  66.472  1.00  0.00    -0.256 C  
BRANCH  28  29
HETATM   29  C   UNL     1     -10.300  17.679  66.944  1.00  0.00    -0.329 A  
HETATM   30  C   UNL     1     -10.246  17.970  68.311  1.00  0.00    -0.402 A  
HETATM   31  C   UNL     1     -10.069  19.284  68.745  1.00  0.00    -0.477 A  
HETATM   32  C   UNL     1      -9.948  20.316  67.817  1.00  0.00    -0.529 A  
HETATM   33  C   UNL     1      -9.997  20.035  66.452  1.00  0.00    -0.601 A  
HETATM   34  C   UNL     1     -10.174  18.722  66.015  1.00  0.00    -0.413 A  
ENDBRANCH  28  29
ENDBRANCH  27  28
ENDBRANCH  26  27
ENDBRANCH  25  26
ENDBRANCH  24  25
ENDBRANCH  23  24
ENDBRANCH  22  23
ENDBRANCH  21  22
ENDBRANCH  20  21
ENDBRANCH  19  20
ENDBRANCH  18  19
ENDBRANCH  16  18
ENDBRANCH  15  16
ENDBRANCH  12  15
ENDBRANCH  10  12
ENDBRANCH   2   4
TORSDOF 16
ENDMDL
MODEL      149
REMARK 921   NORMALIZED FREE ENERGY PREDICTED BY IDOCK:   -5.00 KCAL/MOL
REMARK 922        TOTAL FREE ENERGY PREDICTED BY IDOCK:  -12.02 KCAL/MOL
REMARK 923 INTER-LIGAND FREE ENERGY PREDICTED BY IDOCK:   -9.63 KCAL/MOL
REMARK 924 INTRA-LIGAND FREE ENERGY PREDICTED BY IDOCK:   -2.39 KCAL/MOL
REMARK 927      BINDING AFFINITY PREDICTED BY RF-SCORE:    0.00 PKD
ROOT
HETATM    1  O   UNL     1     -11.679   6.497  68.963  1.00  0.00    -0.595 OA 
HETATM    2  C   UNL     1     -11.063   6.736  67.697  1.00  0.00    -0.230 C  
HETATM    3  H   UNL     1     -12.341   5.819  68.884  1.00  0.00     0.000 HD 
ENDROOT
BRANCH   2   4
HETATM    4  C   UNL     1     -10.015   7.810  67.824  1.00  0.00    -0.220 A  
HETATM    5  C   UNL     1      -8.911   7.696  68.678  1.00  0.00    -0.133 A  
HETATM    6  O   UNL     1      -8.750   6.621  69.506  1.00  0.00    -0.134 OA 
HETATM    7  C   UNL     1      -7.940   8.688  68.745  1.00  0.00    -0.114 A  
HETATM    8  C   UNL     1      -8.069   9.837  67.968  1.00  0.00    -0.105 A  
HETATM    9  H   UNL     1      -8.001   6.543  70.086  1.00  0.00     0.000 HD 
HETATM   10  C   UNL     1      -9.162   9.994  67.101  1.00  0.00    -0.161 A  
HETATM   11  C   UNL     1     -10.114   8.962  67.022  1.00  0.00    -0.331 A  
BRANCH  10  12
HETATM   12  C   UNL     1      -9.346  11.256  66.279  1.00  0.00    -0.207 C  
HETATM   13  O   UNL     1      -8.598  11.163  65.057  1.00  0.00    -0.372 OA 
HETATM   14  H   UNL     1      -8.714  11.954  64.542  1.00  0.00     0.000 HD 
BRANCH  12  15
HETATM   15  C   UNL     1     -10.829  11.520  65.939  1.00  0.00    -0.260 C  
BRANCH  15  16
HETATM   16  N   UNL     1     -11.046  11.541  64.484  1.00  0.00    -0.304 NA 
HETATM   17  H   UNL     1     -10.934  10.617  64.067  1.00  0.00     0.000 HD 
BRANCH  16  18
HETATM   18  C   UNL     1     -12.350  12.122  64.180  1.00  0.00    -0.409 C  
BRANCH  18  19
HETATM   19  C   UNL     1     -12.175  13.458  63.470  1.00  0.00    -0.468 C  
BRANCH  19  20
HETATM   20  C   UNL     1     -12.285  14.606  64.471  1.00  0.00    -0.473 C  
BRANCH  20  21
HETATM   21  C   UNL     1     -10.982  15.389  64.536  1.00  0.00    -0.223 C  
BRANCH  21  22
HETATM   22  C   UNL     1     -10.181  15.034  65.783  1.00  0.00    -0.361 C  
BRANCH  22  23
HETATM   23  C   UNL     1     -10.290  16.145  66.816  1.00  0.00    -0.291 C  
BRANCH  23  24
HETATM   24  O   UNL     1     -10.414  15.551  68.102  1.00  0.00    -0.249 OA 
BRANCH  24  25
HETATM   25  C   UNL     1     -10.946  16.472  69.052  1.00  0.00    -0.306 C  
BRANCH  25  26
HETATM   26  C   UNL     1     -11.388  15.700  70.289  1.00  0.00    -0.357 C  
BRANCH  26  27
HETATM   27  C   UNL     1     -12.056  14.380  69.902  1.00  0.00    -0.398 C  
BRANCH  27  28
HETATM   28  C   UNL     1     -12.784  13.741  71.083  1.00  0.00    -0.438 C  
BRANCH  28  29
HETATM   29  C   UNL     1     -12.649  12.238  71.018  1.00  0.00    -0.352 A  
HETATM   30  C   UNL     1     -13.285  11.428  71.965  1.00  0.00    -0.432 A  
HETATM   31  C   UNL     1     -13.094  10.046  71.952  1.00  0.00    -0.563 A  
HETATM   32  C   UNL     1     -12.265   9.465  70.994  1.00  0.00    -0.354 A  
HETATM   33  C   UNL     1     -11.631  10.264  70.044  1.00  0.00    -0.349 A  
HETATM   34  C   UNL     1     -11.820  11.646  70.055  1.00  0.00    -0.435 A  
ENDBRANCH  28  29
ENDBRANCH  27  28
ENDBRANCH  26  27
ENDBRANCH  25  26
ENDBRANCH  24  25
ENDBRANCH  23  24
ENDBRANCH  22  23
ENDBRANCH  21  22
ENDBRANCH  20  21
ENDBRANCH  19  20
ENDBRANCH  18  19
ENDBRANCH  16  18
ENDBRANCH  15  16
ENDBRANCH  12  15
ENDBRANCH  10  12
ENDBRANCH   2   4
TORSDOF 16
ENDMDL
MODEL      150
REMARK 921   NORMALIZED FREE ENERGY PREDICTED BY IDOCK:   -4.99 KCAL/MOL
REMARK 922        TOTAL FREE ENERGY PREDICTED BY IDOCK:  -12.00 KCAL/MOL
REMARK 923 INTER-LIGAND FREE ENERGY PREDICTED BY IDOCK:   -9.73 KCAL/MOL
REMARK 924 INTRA-LIGAND FREE ENERGY PREDICTED BY IDOCK:   -2.27 KCAL/MOL
REMARK 927      BINDING AFFINITY PREDICTED BY RF-SCORE:    0.00 PKD
ROOT
HETATM    1  O   UNL     1      -8.805   8.492  73.106  1.00  0.00    -0.320 OA 
HETATM    2  C   UNL     1      -9.325   8.279  71.793  1.00  0.00    -0.202 C  
HETATM    3  H   UNL     1      -7.958   8.069  73.197  1.00  0.00     0.000 HD 
ENDROOT
BRANCH   2   4
HETATM    4  C   UNL     1     -10.667   8.948  71.650  1.00  0.00    -0.418 A  
HETATM    5  C   UNL     1     -11.803   8.526  72.350  1.00  0.00    -0.367 A  
HETATM    6  O   UNL     1     -11.779   7.429  73.167  1.00  0.00    -0.582 OA 
HETATM    7  C   UNL     1     -13.019   9.186  72.226  1.00  0.00    -0.492 A  
HETATM    8  C   UNL     1     -13.129  10.280  71.370  1.00  0.00    -0.512 A  
HETATM    9  H   UNL     1     -12.550   7.142  73.642  1.00  0.00     0.000 HD 
HETATM   10  C   UNL     1     -12.015  10.734  70.645  1.00  0.00    -0.466 A  
HETATM   11  C   UNL     1     -10.786  10.073  70.814  1.00  0.00    -0.330 A  
BRANCH  10  12
HETATM   12  C   UNL     1     -12.123  11.894  69.673  1.00  0.00    -0.239 C  
HETATM   13  O   UNL     1     -11.859  13.132  70.351  1.00  0.00    -0.501 OA 
HETATM   14  H   UNL     1     -11.926  13.859  69.742  1.00  0.00     0.000 HD 
BRANCH  12  15
HETATM   15  C   UNL     1     -11.144  11.754  68.488  1.00  0.00    -0.239 C  
BRANCH  15  16
HETATM   16  N   UNL     1     -11.843  11.900  67.200  1.00  0.00    -0.620 NA 
HETATM   17  H   UNL     1     -12.833  11.664  67.274  1.00  0.00     0.000 HD 
BRANCH  16  18
HETATM   18  C   UNL     1     -11.641  13.245  66.670  1.00  0.00    -0.365 C  
BRANCH  18  19
HETATM   19  C   UNL     1     -10.631  13.209  65.530  1.00  0.00    -0.299 C  
BRANCH  19  20
HETATM   20  C   UNL     1     -10.170  14.625  65.190  1.00  0.00    -0.414 C  
BRANCH  20  21
HETATM   21  C   UNL     1     -10.673  15.617  66.228  1.00  0.00    -0.295 C  
BRANCH  21  22
HETATM   22  C   UNL     1     -10.141  17.020  65.961  1.00  0.00    -0.318 C  
BRANCH  22  23
HETATM   23  C   UNL     1     -10.829  18.028  66.869  1.00  0.00    -0.072 C  
BRANCH  23  24
HETATM   24  O   UNL     1     -10.195  17.992  68.142  1.00  0.00    -0.345 OA 
BRANCH  24  25
HETATM   25  C   UNL     1      -9.915  19.306  68.621  1.00  0.00    -0.431 C  
BRANCH  25  26
HETATM   26  C   UNL     1      -8.695  19.847  67.886  1.00  0.00    -0.348 C  
BRANCH  26  27
HETATM   27  C   UNL     1      -7.409  19.536  68.654  1.00  0.00    -0.381 C  
BRANCH  27  28
HETATM   28  C   UNL     1      -6.485  18.608  67.869  1.00  0.00    -0.213 C  
BRANCH  28  29
HETATM   29  C   UNL     1      -6.912  17.172  68.063  1.00  0.00    -0.175 A  
HETATM   30  C   UNL     1      -7.413  16.743  69.297  1.00  0.00    -0.134 A  
HETATM   31  C   UNL     1      -7.731  15.400  69.499  1.00  0.00    -0.210 A  
HETATM   32  C   UNL     1      -7.549  14.477  68.472  1.00  0.00    -0.123 A  
HETATM   33  C   UNL     1      -7.055  14.896  67.237  1.00  0.00    -0.103 A  
HETATM   34  C   UNL     1      -6.736  16.238  67.032  1.00  0.00    -0.217 A  
ENDBRANCH  28  29
ENDBRANCH  27  28
ENDBRANCH  26  27
ENDBRANCH  25  26
ENDBRANCH  24  25
ENDBRANCH  23  24
ENDBRANCH  22  23
ENDBRANCH  21  22
ENDBRANCH  20  21
ENDBRANCH  19  20
ENDBRANCH  18  19
ENDBRANCH  16  18
ENDBRANCH  15  16
ENDBRANCH  12  15
ENDBRANCH  10  12
ENDBRANCH   2   4
TORSDOF 16
ENDMDL
MODEL      151
REMARK 921   NORMALIZED FREE ENERGY PREDICTED BY IDOCK:   -4.95 KCAL/MOL
REMARK 922        TOTAL FREE ENERGY PREDICTED BY IDOCK:  -11.92 KCAL/MOL
REMARK 923 INTER-LIGAND FREE ENERGY PREDICTED BY IDOCK:   -9.61 KCAL/MOL
REMARK 924 INTRA-LIGAND FREE ENERGY PREDICTED BY IDOCK:   -2.31 KCAL/MOL
REMARK 927      BINDING AFFINITY PREDICTED BY RF-SCORE:    0.00 PKD
ROOT
HETATM    1  O   UNL     1     -10.660   5.238  69.674  1.00  0.00    -0.294 OA 
HETATM    2  C   UNL     1     -11.235   6.270  68.871  1.00  0.00    -0.309 C  
HETATM    3  H   UNL     1     -11.248   5.010  70.385  1.00  0.00     0.000 HD 
ENDROOT
BRANCH   2   4
HETATM    4  C   UNL     1     -10.304   6.632  67.743  1.00  0.00    -0.239 A  
HETATM    5  C   UNL     1      -9.787   5.683  66.854  1.00  0.00    -0.159 A  
HETATM    6  O   UNL     1     -10.045   4.348  66.994  1.00  0.00    -0.193 OA 
HETATM    7  C   UNL     1      -8.959   6.052  65.799  1.00  0.00    -0.116 A  
HETATM    8  C   UNL     1      -8.611   7.390  65.629  1.00  0.00    -0.128 A  
HETATM    9  H   UNL     1      -9.694   3.704  66.390  1.00  0.00     0.000 HD 
HETATM   10  C   UNL     1      -9.104   8.374  66.501  1.00  0.00    -0.217 A  
HETATM   11  C   UNL     1      -9.969   7.982  67.538  1.00  0.00    -0.253 A  
BRANCH  10  12
HETATM   12  C   UNL     1      -8.702   9.830  66.361  1.00  0.00    -0.131 C  
HETATM   13  O   UNL     1      -8.057  10.045  65.096  1.00  0.00    -0.131 OA 
HETATM   14  H   UNL     1      -7.805  10.957  65.008  1.00  0.00     0.000 HD 
BRANCH  12  15
HETATM   15  C   UNL     1      -9.911  10.783  66.474  1.00  0.00    -0.203 C  
BRANCH  15  16
HETATM   16  N   UNL     1     -10.517  11.033  65.157  1.00  0.00    -0.279 NA 
HETATM   17  H   UNL     1     -11.018  10.217  64.806  1.00  0.00     0.000 HD 
BRANCH  16  18
HETATM   18  C   UNL     1     -11.372  12.215  65.215  1.00  0.00    -0.336 C  
BRANCH  18  19
HETATM   19  C   UNL     1     -11.495  12.700  66.654  1.00  0.00    -0.409 C  
BRANCH  19  20
HETATM   20  C   UNL     1     -12.067  14.115  66.686  1.00  0.00    -0.480 C  
BRANCH  20  21
HETATM   21  C   UNL     1     -11.051  15.093  67.257  1.00  0.00    -0.332 C  
BRANCH  21  22
HETATM   22  C   UNL     1     -10.357  14.520  68.487  1.00  0.00    -0.242 C  
BRANCH  22  23
HETATM   23  C   UNL     1     -10.401  15.519  69.632  1.00  0.00    -0.283 C  
BRANCH  23  24
HETATM   24  O   UNL     1     -11.748  15.642  70.070  1.00  0.00    -0.308 OA 
BRANCH  24  25
HETATM   25  C   UNL     1     -11.817  16.038  71.438  1.00  0.00    -0.470 C  
BRANCH  25  26
HETATM   26  C   UNL     1     -13.128  15.534  72.029  1.00  0.00    -0.535 C  
BRANCH  26  27
HETATM   27  C   UNL     1     -12.920  14.219  72.782  1.00  0.00    -0.545 C  
BRANCH  27  28
HETATM   28  C   UNL     1     -13.847  13.116  72.274  1.00  0.00    -0.586 C  
BRANCH  28  29
HETATM   29  C   UNL     1     -13.032  11.995  71.674  1.00  0.00    -0.439 A  
HETATM   30  C   UNL     1     -12.187  12.237  70.586  1.00  0.00    -0.378 A  
HETATM   31  C   UNL     1     -11.497  11.186  69.983  1.00  0.00    -0.376 A  
HETATM   32  C   UNL     1     -11.649   9.886  70.460  1.00  0.00    -0.386 A  
HETATM   33  C   UNL     1     -12.486   9.635  71.546  1.00  0.00    -0.476 A  
HETATM   34  C   UNL     1     -13.177  10.685  72.152  1.00  0.00    -0.379 A  
ENDBRANCH  28  29
ENDBRANCH  27  28
ENDBRANCH  26  27
ENDBRANCH  25  26
ENDBRANCH  24  25
ENDBRANCH  23  24
ENDBRANCH  22  23
ENDBRANCH  21  22
ENDBRANCH  20  21
ENDBRANCH  19  20
ENDBRANCH  18  19
ENDBRANCH  16  18
ENDBRANCH  15  16
ENDBRANCH  12  15
ENDBRANCH  10  12
ENDBRANCH   2   4
TORSDOF 16
ENDMDL
MODEL      152
REMARK 921   NORMALIZED FREE ENERGY PREDICTED BY IDOCK:   -4.94 KCAL/MOL
REMARK 922        TOTAL FREE ENERGY PREDICTED BY IDOCK:  -11.90 KCAL/MOL
REMARK 923 INTER-LIGAND FREE ENERGY PREDICTED BY IDOCK:   -9.46 KCAL/MOL
REMARK 924 INTRA-LIGAND FREE ENERGY PREDICTED BY IDOCK:   -2.44 KCAL/MOL
REMARK 927      BINDING AFFINITY PREDICTED BY RF-SCORE:    0.00 PKD
ROOT
HETATM    1  O   UNL     1     -10.233   4.607  67.491  1.00  0.00    -0.115 OA 
HETATM    2  C   UNL     1      -9.414   4.852  68.636  1.00  0.00    -0.144 C  
HETATM    3  H   UNL     1      -9.701   4.298  66.767  1.00  0.00     0.000 HD 
ENDROOT
BRANCH   2   4
HETATM    4  C   UNL     1     -10.257   5.342  69.784  1.00  0.00    -0.364 A  
HETATM    5  C   UNL     1     -11.334   6.219  69.613  1.00  0.00    -0.422 A  
HETATM    6  O   UNL     1     -11.651   6.741  68.390  1.00  0.00    -0.514 OA 
HETATM    7  C   UNL     1     -12.117   6.624  70.688  1.00  0.00    -0.342 A  
HETATM    8  C   UNL     1     -11.818   6.174  71.971  1.00  0.00    -0.336 A  
HETATM    9  H   UNL     1     -12.382   7.337  68.274  1.00  0.00     0.000 HD 
HETATM   10  C   UNL     1     -10.744   5.296  72.188  1.00  0.00    -0.271 A  
HETATM   11  C   UNL     1      -9.987   4.871  71.082  1.00  0.00    -0.278 A  
BRANCH  10  12
HETATM   12  C   UNL     1     -10.373   4.829  73.583  1.00  0.00    -0.206 C  
HETATM   13  O   UNL     1      -9.206   3.993  73.529  1.00  0.00    -0.101 OA 
HETATM   14  H   UNL     1      -8.973   3.700  74.403  1.00  0.00     0.000 HD 
BRANCH  12  15
HETATM   15  C   UNL     1     -10.100   6.008  74.540  1.00  0.00    -0.314 C  
BRANCH  15  16
HETATM   16  N   UNL     1      -8.704   6.465  74.439  1.00  0.00    -0.136 NA 
HETATM   17  H   UNL     1      -8.158   5.886  73.800  1.00  0.00     0.000 HD 
BRANCH  16  18
HETATM   18  C   UNL     1      -8.663   7.876  74.069  1.00  0.00    -0.246 C  
BRANCH  18  19
HETATM   19  C   UNL     1      -8.405   8.016  72.574  1.00  0.00    -0.211 C  
BRANCH  19  20
HETATM   20  C   UNL     1      -9.506   8.852  71.925  1.00  0.00    -0.301 C  
BRANCH  20  21
HETATM   21  C   UNL     1      -9.169   9.151  70.472  1.00  0.00    -0.286 C  
BRANCH  21  22
HETATM   22  C   UNL     1     -10.208  10.065  69.835  1.00  0.00    -0.304 C  
BRANCH  22  23
HETATM   23  C   UNL     1     -11.454  10.134  70.704  1.00  0.00    -0.349 C  
BRANCH  23  24
HETATM   24  O   UNL     1     -12.369  11.045  70.107  1.00  0.00    -0.310 OA 
BRANCH  24  25
HETATM   25  C   UNL     1     -12.342  12.312  70.759  1.00  0.00    -0.290 C  
BRANCH  25  26
HETATM   26  C   UNL     1     -12.067  13.393  69.721  1.00  0.00    -0.374 C  
BRANCH  26  27
HETATM   27  C   UNL     1     -11.798  12.777  68.347  1.00  0.00    -0.353 C  
BRANCH  27  28
HETATM   28  C   UNL     1     -11.606  13.844  67.270  1.00  0.00    -0.393 C  
BRANCH  28  29
HETATM   29  C   UNL     1     -11.524  13.193  65.910  1.00  0.00    -0.366 A  
HETATM   30  C   UNL     1     -12.360  13.614  64.871  1.00  0.00    -0.442 A  
HETATM   31  C   UNL     1     -12.339  12.959  63.640  1.00  0.00    -0.520 A  
HETATM   32  C   UNL     1     -11.485  11.876  63.439  1.00  0.00    -0.470 A  
HETATM   33  C   UNL     1     -10.645  11.451  64.468  1.00  0.00    -0.390 A  
HETATM   34  C   UNL     1     -10.664  12.106  65.700  1.00  0.00    -0.312 A  
ENDBRANCH  28  29
ENDBRANCH  27  28
ENDBRANCH  26  27
ENDBRANCH  25  26
ENDBRANCH  24  25
ENDBRANCH  23  24
ENDBRANCH  22  23
ENDBRANCH  21  22
ENDBRANCH  20  21
ENDBRANCH  19  20
ENDBRANCH  18  19
ENDBRANCH  16  18
ENDBRANCH  15  16
ENDBRANCH  12  15
ENDBRANCH  10  12
ENDBRANCH   2   4
TORSDOF 16
ENDMDL
MODEL      153
REMARK 921   NORMALIZED FREE ENERGY PREDICTED BY IDOCK:   -4.93 KCAL/MOL
REMARK 922        TOTAL FREE ENERGY PREDICTED BY IDOCK:  -11.89 KCAL/MOL
REMARK 923 INTER-LIGAND FREE ENERGY PREDICTED BY IDOCK:   -8.99 KCAL/MOL
REMARK 924 INTRA-LIGAND FREE ENERGY PREDICTED BY IDOCK:   -2.90 KCAL/MOL
REMARK 927      BINDING AFFINITY PREDICTED BY RF-SCORE:    0.00 PKD
ROOT
HETATM    1  O   UNL     1      -9.607   5.505  68.669  1.00  0.00    -0.123 OA 
HETATM    2  C   UNL     1     -10.433   6.327  67.843  1.00  0.00    -0.230 C  
HETATM    3  H   UNL     1     -10.119   5.135  69.379  1.00  0.00     0.000 HD 
ENDROOT
BRANCH   2   4
HETATM    4  C   UNL     1      -9.622   6.914  66.717  1.00  0.00    -0.215 A  
HETATM    5  C   UNL     1      -8.771   6.145  65.915  1.00  0.00    -0.154 A  
HETATM    6  O   UNL     1      -8.572   4.812  66.147  1.00  0.00    -0.114 OA 
HETATM    7  C   UNL     1      -8.064   6.708  64.859  1.00  0.00    -0.115 A  
HETATM    8  C   UNL     1      -8.178   8.071  64.599  1.00  0.00    -0.109 A  
HETATM    9  H   UNL     1      -7.994   4.290  65.603  1.00  0.00     0.000 HD 
HETATM   10  C   UNL     1      -9.017   8.881  65.381  1.00  0.00    -0.232 A  
HETATM   11  C   UNL     1      -9.750   8.283  66.421  1.00  0.00    -0.300 A  
BRANCH  10  12
HETATM   12  C   UNL     1      -9.121  10.376  65.144  1.00  0.00    -0.198 C  
HETATM   13  O   UNL     1      -8.339  10.750  63.999  1.00  0.00    -0.346 OA 
HETATM   14  H   UNL     1      -8.405  11.687  63.851  1.00  0.00     0.000 HD 
BRANCH  12  15
HETATM   15  C   UNL     1     -10.580  10.831  64.925  1.00  0.00    -0.188 C  
BRANCH  15  16
HETATM   16  N   UNL     1     -10.795  11.279  63.539  1.00  0.00    -0.627 NA 
HETATM   17  H   UNL     1     -11.064  10.509  62.927  1.00  0.00     0.000 HD 
BRANCH  16  18
HETATM   18  C   UNL     1     -11.769  12.366  63.510  1.00  0.00    -0.510 C  
BRANCH  18  19
HETATM   19  C   UNL     1     -12.186  12.732  64.929  1.00  0.00    -0.519 C  
BRANCH  19  20
HETATM   20  C   UNL     1     -12.513  14.221  65.015  1.00  0.00    -0.409 C  
BRANCH  20  21
HETATM   21  C   UNL     1     -11.242  15.055  64.944  1.00  0.00    -0.423 C  
BRANCH  21  22
HETATM   22  C   UNL     1     -10.171  14.519  65.887  1.00  0.00    -0.339 C  
BRANCH  22  23
HETATM   23  C   UNL     1      -9.399  15.667  66.517  1.00  0.00    -0.276 C  
BRANCH  23  24
HETATM   24  O   UNL     1     -10.334  16.600  67.046  1.00  0.00    -0.296 OA 
BRANCH  24  25
HETATM   25  C   UNL     1     -10.353  16.567  68.471  1.00  0.00    -0.289 C  
BRANCH  25  26
HETATM   26  C   UNL     1     -11.707  16.040  68.931  1.00  0.00    -0.322 C  
BRANCH  26  27
HETATM   27  C   UNL     1     -11.565  14.667  69.591  1.00  0.00    -0.349 C  
BRANCH  27  28
HETATM   28  C   UNL     1     -12.035  13.541  68.672  1.00  0.00    -0.378 C  
BRANCH  28  29
HETATM   29  C   UNL     1     -11.385  12.240  69.081  1.00  0.00    -0.330 A  
HETATM   30  C   UNL     1     -11.952  11.450  70.087  1.00  0.00    -0.460 A  
HETATM   31  C   UNL     1     -11.308  10.291  70.519  1.00  0.00    -0.422 A  
HETATM   32  C   UNL     1     -10.093   9.913  69.950  1.00  0.00    -0.297 A  
HETATM   33  C   UNL     1      -9.523  10.692  68.944  1.00  0.00    -0.199 A  
HETATM   34  C   UNL     1     -10.165  11.852  68.510  1.00  0.00    -0.221 A  
ENDBRANCH  28  29
ENDBRANCH  27  28
ENDBRANCH  26  27
ENDBRANCH  25  26
ENDBRANCH  24  25
ENDBRANCH  23  24
ENDBRANCH  22  23
ENDBRANCH  21  22
ENDBRANCH  20  21
ENDBRANCH  19  20
ENDBRANCH  18  19
ENDBRANCH  16  18
ENDBRANCH  15  16
ENDBRANCH  12  15
ENDBRANCH  10  12
ENDBRANCH   2   4
TORSDOF 16
ENDMDL
MODEL      154
REMARK 921   NORMALIZED FREE ENERGY PREDICTED BY IDOCK:   -4.93 KCAL/MOL
REMARK 922        TOTAL FREE ENERGY PREDICTED BY IDOCK:  -11.88 KCAL/MOL
REMARK 923 INTER-LIGAND FREE ENERGY PREDICTED BY IDOCK:   -9.20 KCAL/MOL
REMARK 924 INTRA-LIGAND FREE ENERGY PREDICTED BY IDOCK:   -2.68 KCAL/MOL
REMARK 927      BINDING AFFINITY PREDICTED BY RF-SCORE:    0.00 PKD
ROOT
HETATM    1  O   UNL     1     -10.530   6.417  66.009  1.00  0.00    -0.340 OA 
HETATM    2  C   UNL     1     -11.039   6.648  67.323  1.00  0.00    -0.345 C  
HETATM    3  H   UNL     1     -11.056   5.763  65.563  1.00  0.00     0.000 HD 
ENDROOT
BRANCH   2   4
HETATM    4  C   UNL     1     -10.206   7.685  68.030  1.00  0.00    -0.248 A  
HETATM    5  C   UNL     1     -10.002   8.971  67.518  1.00  0.00    -0.207 A  
HETATM    6  O   UNL     1     -10.498   9.349  66.301  1.00  0.00    -0.185 OA 
HETATM    7  C   UNL     1      -9.258   9.919  68.211  1.00  0.00    -0.130 A  
HETATM    8  C   UNL     1      -8.678   9.586  69.432  1.00  0.00    -0.166 A  
HETATM    9  H   UNL     1     -10.360  10.222  65.953  1.00  0.00     0.000 HD 
HETATM   10  C   UNL     1      -8.853   8.305  69.980  1.00  0.00    -0.134 A  
HETATM   11  C   UNL     1      -9.639   7.373  69.279  1.00  0.00    -0.154 A  
BRANCH  10  12
HETATM   12  C   UNL     1      -8.193   7.906  71.287  1.00  0.00    -0.101 C  
HETATM   13  O   UNL     1      -8.071   9.048  72.148  1.00  0.00    -0.359 OA 
HETATM   14  H   UNL     1      -7.658   8.798  72.967  1.00  0.00     0.000 HD 
BRANCH  12  15
HETATM   15  C   UNL     1      -8.982   6.804  72.026  1.00  0.00    -0.138 C  
BRANCH  15  16
HETATM   16  N   UNL     1      -9.455   7.276  73.338  1.00  0.00    -0.185 NA 
HETATM   17  H   UNL     1      -9.167   8.236  73.524  1.00  0.00     0.000 HD 
BRANCH  16  18
HETATM   18  C   UNL     1     -10.901   7.110  73.438  1.00  0.00    -0.319 C  
BRANCH  18  19
HETATM   19  C   UNL     1     -11.434   6.406  72.197  1.00  0.00    -0.344 C  
BRANCH  19  20
HETATM   20  C   UNL     1     -12.524   7.249  71.539  1.00  0.00    -0.408 C  
BRANCH  20  21
HETATM   21  C   UNL     1     -12.658   8.594  72.238  1.00  0.00    -0.457 C  
BRANCH  21  22
HETATM   22  C   UNL     1     -11.787   9.655  71.576  1.00  0.00    -0.483 C  
BRANCH  22  23
HETATM   23  C   UNL     1     -12.633  10.556  70.691  1.00  0.00    -0.369 C  
BRANCH  23  24
HETATM   24  O   UNL     1     -12.934  11.742  71.415  1.00  0.00    -0.398 OA 
BRANCH  24  25
HETATM   25  C   UNL     1     -12.518  12.906  70.705  1.00  0.00    -0.286 C  
BRANCH  25  26
HETATM   26  C   UNL     1     -11.618  12.482  69.552  1.00  0.00    -0.348 C  
BRANCH  26  27
HETATM   27  C   UNL     1     -11.825  13.384  68.334  1.00  0.00    -0.401 C  
BRANCH  27  28
HETATM   28  C   UNL     1     -10.628  13.346  67.386  1.00  0.00    -0.254 C  
BRANCH  28  29
HETATM   29  C   UNL     1     -11.090  13.010  65.988  1.00  0.00    -0.301 A  
HETATM   30  C   UNL     1     -12.438  13.139  65.637  1.00  0.00    -0.485 A  
HETATM   31  C   UNL     1     -12.877  12.751  64.371  1.00  0.00    -0.288 A  
HETATM   32  C   UNL     1     -11.972  12.230  63.448  1.00  0.00    -0.588 A  
HETATM   33  C   UNL     1     -10.626  12.101  63.787  1.00  0.00    -0.482 A  
HETATM   34  C   UNL     1     -10.185  12.488  65.052  1.00  0.00    -0.301 A  
ENDBRANCH  28  29
ENDBRANCH  27  28
ENDBRANCH  26  27
ENDBRANCH  25  26
ENDBRANCH  24  25
ENDBRANCH  23  24
ENDBRANCH  22  23
ENDBRANCH  21  22
ENDBRANCH  20  21
ENDBRANCH  19  20
ENDBRANCH  18  19
ENDBRANCH  16  18
ENDBRANCH  15  16
ENDBRANCH  12  15
ENDBRANCH  10  12
ENDBRANCH   2   4
TORSDOF 16
ENDMDL
MODEL      155
REMARK 921   NORMALIZED FREE ENERGY PREDICTED BY IDOCK:   -4.92 KCAL/MOL
REMARK 922        TOTAL FREE ENERGY PREDICTED BY IDOCK:  -11.87 KCAL/MOL
REMARK 923 INTER-LIGAND FREE ENERGY PREDICTED BY IDOCK:   -9.30 KCAL/MOL
REMARK 924 INTRA-LIGAND FREE ENERGY PREDICTED BY IDOCK:   -2.56 KCAL/MOL
REMARK 927      BINDING AFFINITY PREDICTED BY RF-SCORE:    0.00 PKD
ROOT
HETATM    1  O   UNL     1      -8.592  14.433  69.159  1.00  0.00    -0.346 OA 
HETATM    2  C   UNL     1      -9.323  14.820  67.995  1.00  0.00    -0.196 C  
HETATM    3  H   UNL     1      -8.197  15.195  69.567  1.00  0.00     0.000 HD 
ENDROOT
BRANCH   2   4
HETATM    4  C   UNL     1      -9.949  13.613  67.348  1.00  0.00    -0.234 A  
HETATM    5  C   UNL     1     -11.007  13.704  66.437  1.00  0.00    -0.297 A  
HETATM    6  O   UNL     1     -11.587  14.902  66.124  1.00  0.00    -0.324 OA 
HETATM    7  C   UNL     1     -11.540  12.574  65.827  1.00  0.00    -0.439 A  
HETATM    8  C   UNL     1     -11.033  11.315  66.140  1.00  0.00    -0.252 A  
HETATM    9  H   UNL     1     -12.306  14.965  65.506  1.00  0.00     0.000 HD 
HETATM   10  C   UNL     1      -9.975  11.177  67.052  1.00  0.00    -0.223 A  
HETATM   11  C   UNL     1      -9.427  12.337  67.629  1.00  0.00    -0.188 A  
BRANCH  10  12
HETATM   12  C   UNL     1      -9.438   9.813  67.441  1.00  0.00    -0.152 C  
HETATM   13  O   UNL     1      -9.582   9.611  68.856  1.00  0.00    -0.153 OA 
HETATM   14  H   UNL     1      -9.245   8.756  69.100  1.00  0.00     0.000 HD 
BRANCH  12  15
HETATM   15  C   UNL     1     -10.157   8.668  66.696  1.00  0.00    -0.294 C  
BRANCH  15  16
HETATM   16  N   UNL     1     -10.806   7.743  67.640  1.00  0.00    -0.506 NA 
HETATM   17  H   UNL     1     -11.736   8.063  67.910  1.00  0.00     0.000 HD 
BRANCH  16  18
HETATM   18  C   UNL     1     -10.832   6.395  67.082  1.00  0.00    -0.393 C  
BRANCH  18  19
HETATM   19  C   UNL     1     -10.224   5.408  68.071  1.00  0.00    -0.221 C  
BRANCH  19  20
HETATM   20  C   UNL     1     -10.125   6.044  69.456  1.00  0.00    -0.246 C  
BRANCH  20  21
HETATM   21  C   UNL     1     -10.069   4.973  70.536  1.00  0.00    -0.323 C  
BRANCH  21  22
HETATM   22  C   UNL     1      -9.117   5.365  71.660  1.00  0.00    -0.154 C  
BRANCH  22  23
HETATM   23  C   UNL     1      -8.815   6.854  71.601  1.00  0.00    -0.128 C  
BRANCH  23  24
HETATM   24  O   UNL     1      -8.999   7.402  72.900  1.00  0.00    -0.128 OA 
BRANCH  24  25
HETATM   25  C   UNL     1     -10.339   7.850  73.092  1.00  0.00    -0.290 C  
BRANCH  25  26
HETATM   26  C   UNL     1     -10.699   8.815  71.970  1.00  0.00    -0.417 C  
BRANCH  26  27
HETATM   27  C   UNL     1     -12.194   9.139  71.983  1.00  0.00    -0.443 C  
BRANCH  27  28
HETATM   28  C   UNL     1     -12.634   9.858  70.709  1.00  0.00    -0.324 C  
BRANCH  28  29
HETATM   29  C   UNL     1     -12.688  11.347  70.952  1.00  0.00    -0.397 A  
HETATM   30  C   UNL     1     -11.966  12.225  70.135  1.00  0.00    -0.377 A  
HETATM   31  C   UNL     1     -11.953  13.592  70.411  1.00  0.00    -0.372 A  
HETATM   32  C   UNL     1     -12.657  14.092  71.504  1.00  0.00    -0.432 A  
HETATM   33  C   UNL     1     -13.382  13.226  72.321  1.00  0.00    -0.630 A  
HETATM   34  C   UNL     1     -13.397  11.858  72.048  1.00  0.00    -0.425 A  
ENDBRANCH  28  29
ENDBRANCH  27  28
ENDBRANCH  26  27
ENDBRANCH  25  26
ENDBRANCH  24  25
ENDBRANCH  23  24
ENDBRANCH  22  23
ENDBRANCH  21  22
ENDBRANCH  20  21
ENDBRANCH  19  20
ENDBRANCH  18  19
ENDBRANCH  16  18
ENDBRANCH  15  16
ENDBRANCH  12  15
ENDBRANCH  10  12
ENDBRANCH   2   4
TORSDOF 16
ENDMDL
MODEL      156
REMARK 921   NORMALIZED FREE ENERGY PREDICTED BY IDOCK:   -4.91 KCAL/MOL
REMARK 922        TOTAL FREE ENERGY PREDICTED BY IDOCK:  -11.86 KCAL/MOL
REMARK 923 INTER-LIGAND FREE ENERGY PREDICTED BY IDOCK:   -8.68 KCAL/MOL
REMARK 924 INTRA-LIGAND FREE ENERGY PREDICTED BY IDOCK:   -3.17 KCAL/MOL
REMARK 927      BINDING AFFINITY PREDICTED BY RF-SCORE:    0.00 PKD
ROOT
HETATM    1  O   UNL     1     -13.573  11.568  72.279  1.00  0.00    -0.535 OA 
HETATM    2  C   UNL     1     -13.183  10.826  71.122  1.00  0.00    -0.175 C  
HETATM    3  H   UNL     1     -14.244  12.201  72.051  1.00  0.00     0.000 HD 
ENDROOT
BRANCH   2   4
HETATM    4  C   UNL     1     -12.118   9.823  71.482  1.00  0.00    -0.493 A  
HETATM    5  C   UNL     1     -12.322   8.806  72.423  1.00  0.00    -0.344 A  
HETATM    6  O   UNL     1     -13.489   8.700  73.128  1.00  0.00    -0.883 OA 
HETATM    7  C   UNL     1     -11.332   7.872  72.707  1.00  0.00    -0.453 A  
HETATM    8  C   UNL     1     -10.099   7.952  72.066  1.00  0.00    -0.260 A  
HETATM    9  H   UNL     1     -13.627   8.011  73.767  1.00  0.00     0.000 HD 
HETATM   10  C   UNL     1      -9.851   8.958  71.118  1.00  0.00    -0.345 A  
HETATM   11  C   UNL     1     -10.878   9.871  70.820  1.00  0.00    -0.387 A  
BRANCH  10  12
HETATM   12  C   UNL     1      -8.500   9.092  70.441  1.00  0.00    -0.199 C  
HETATM   13  O   UNL     1      -7.453   9.094  71.423  1.00  0.00    -0.280 OA 
HETATM   14  H   UNL     1      -6.607   9.178  70.999  1.00  0.00     0.000 HD 
BRANCH  12  15
HETATM   15  C   UNL     1      -8.238   7.954  69.432  1.00  0.00    -0.130 C  
BRANCH  15  16
HETATM   16  N   UNL     1      -8.700   8.321  68.083  1.00  0.00    -0.136 NA 
HETATM   17  H   UNL     1      -9.716   8.404  68.036  1.00  0.00     0.000 HD 
BRANCH  16  18
HETATM   18  C   UNL     1      -8.031   9.539  67.638  1.00  0.00    -0.106 C  
BRANCH  18  19
HETATM   19  C   UNL     1      -9.053  10.520  67.076  1.00  0.00    -0.156 C  
BRANCH  19  20
HETATM   20  C   UNL     1      -8.373  11.838  66.712  1.00  0.00    -0.165 C  
BRANCH  20  21
HETATM   21  C   UNL     1      -7.166  12.084  67.605  1.00  0.00    -0.117 C  
BRANCH  21  22
HETATM   22  C   UNL     1      -6.724  13.542  67.555  1.00  0.00    -0.144 C  
BRANCH  22  23
HETATM   23  C   UNL     1      -7.139  14.264  68.827  1.00  0.00    -0.105 C  
BRANCH  23  24
HETATM   24  O   UNL     1      -7.042  15.665  68.601  1.00  0.00    -0.118 OA 
BRANCH  24  25
HETATM   25  C   UNL     1      -6.874  15.959  67.216  1.00  0.00    -0.197 C  
BRANCH  25  26
HETATM   26  C   UNL     1      -8.029  16.841  66.758  1.00  0.00    -0.275 C  
BRANCH  26  27
HETATM   27  C   UNL     1      -9.061  16.029  65.974  1.00  0.00    -0.361 C  
BRANCH  27  28
HETATM   28  C   UNL     1     -10.453  16.122  66.595  1.00  0.00    -0.300 C  
BRANCH  28  29
HETATM   29  C   UNL     1     -10.910  14.753  67.039  1.00  0.00    -0.315 A  
HETATM   30  C   UNL     1     -11.510  13.877  66.128  1.00  0.00    -0.351 A  
HETATM   31  C   UNL     1     -12.004  12.645  66.557  1.00  0.00    -0.401 A  
HETATM   32  C   UNL     1     -11.906  12.282  67.899  1.00  0.00    -0.358 A  
HETATM   33  C   UNL     1     -11.308  13.148  68.814  1.00  0.00    -0.333 A  
HETATM   34  C   UNL     1     -10.812  14.380  68.387  1.00  0.00    -0.256 A  
ENDBRANCH  28  29
ENDBRANCH  27  28
ENDBRANCH  26  27
ENDBRANCH  25  26
ENDBRANCH  24  25
ENDBRANCH  23  24
ENDBRANCH  22  23
ENDBRANCH  21  22
ENDBRANCH  20  21
ENDBRANCH  19  20
ENDBRANCH  18  19
ENDBRANCH  16  18
ENDBRANCH  15  16
ENDBRANCH  12  15
ENDBRANCH  10  12
ENDBRANCH   2   4
TORSDOF 16
ENDMDL
MODEL      157
REMARK 921   NORMALIZED FREE ENERGY PREDICTED BY IDOCK:   -4.91 KCAL/MOL
REMARK 922        TOTAL FREE ENERGY PREDICTED BY IDOCK:  -11.85 KCAL/MOL
REMARK 923 INTER-LIGAND FREE ENERGY PREDICTED BY IDOCK:  -10.28 KCAL/MOL
REMARK 924 INTRA-LIGAND FREE ENERGY PREDICTED BY IDOCK:   -1.57 KCAL/MOL
REMARK 927      BINDING AFFINITY PREDICTED BY RF-SCORE:    0.00 PKD
ROOT
HETATM    1  O   UNL     1     -14.275   9.124  72.904  1.00  0.00    -1.016 OA 
HETATM    2  C   UNL     1     -12.918   8.810  72.585  1.00  0.00    -0.243 C  
HETATM    3  H   UNL     1     -14.579   8.576  73.618  1.00  0.00     0.000 HD 
ENDROOT
BRANCH   2   4
HETATM    4  C   UNL     1     -12.435   9.678  71.453  1.00  0.00    -0.465 A  
HETATM    5  C   UNL     1     -12.695  11.052  71.387  1.00  0.00    -0.429 A  
HETATM    6  O   UNL     1     -13.466  11.685  72.323  1.00  0.00    -0.610 OA 
HETATM    7  C   UNL     1     -12.204  11.834  70.348  1.00  0.00    -0.416 A  
HETATM    8  C   UNL     1     -11.456  11.245  69.332  1.00  0.00    -0.370 A  
HETATM    9  H   UNL     1     -13.642  12.617  72.278  1.00  0.00     0.000 HD 
HETATM   10  C   UNL     1     -11.176   9.870  69.357  1.00  0.00    -0.196 A  
HETATM   11  C   UNL     1     -11.651   9.104  70.436  1.00  0.00    -0.181 A  
BRANCH  10  12
HETATM   12  C   UNL     1     -10.402   9.199  68.237  1.00  0.00    -0.214 C  
HETATM   13  O   UNL     1     -11.139   8.076  67.731  1.00  0.00    -0.485 OA 
HETATM   14  H   UNL     1     -10.654   7.656  67.030  1.00  0.00     0.000 HD 
BRANCH  12  15
HETATM   15  C   UNL     1     -10.103  10.168  67.073  1.00  0.00    -0.223 C  
BRANCH  15  16
HETATM   16  N   UNL     1      -9.175   9.564  66.103  1.00  0.00    -0.164 NA 
HETATM   17  H   UNL     1      -9.179   8.546  66.153  1.00  0.00     0.000 HD 
BRANCH  16  18
HETATM   18  C   UNL     1      -9.473  10.046  64.757  1.00  0.00    -0.304 C  
BRANCH  18  19
HETATM   19  C   UNL     1     -10.291  11.329  64.832  1.00  0.00    -0.362 C  
BRANCH  19  20
HETATM   20  C   UNL     1     -10.939  11.620  63.480  1.00  0.00    -0.485 C  
BRANCH  20  21
HETATM   21  C   UNL     1     -12.341  12.182  63.666  1.00  0.00    -0.673 C  
BRANCH  21  22
HETATM   22  C   UNL     1     -12.419  13.091  64.886  1.00  0.00    -0.512 C  
BRANCH  22  23
HETATM   23  C   UNL     1     -12.177  14.538  64.483  1.00  0.00    -0.465 C  
BRANCH  23  24
HETATM   24  O   UNL     1     -11.613  15.225  65.592  1.00  0.00    -0.205 OA 
BRANCH  24  25
HETATM   25  C   UNL     1     -11.325  14.334  66.667  1.00  0.00    -0.349 C  
BRANCH  25  26
HETATM   26  C   UNL     1     -11.885  14.922  67.956  1.00  0.00    -0.296 C  
BRANCH  26  27
HETATM   27  C   UNL     1     -10.893  15.897  68.590  1.00  0.00    -0.291 C  
BRANCH  27  28
HETATM   28  C   UNL     1      -9.892  16.437  67.571  1.00  0.00    -0.239 C  
BRANCH  28  29
HETATM   29  C   UNL     1      -8.484  16.107  68.008  1.00  0.00    -0.168 A  
HETATM   30  C   UNL     1      -8.251  15.498  69.246  1.00  0.00    -0.255 A  
HETATM   31  C   UNL     1      -6.947  15.268  69.683  1.00  0.00    -0.188 A  
HETATM   32  C   UNL     1      -5.867  15.646  68.888  1.00  0.00    -0.103 A  
HETATM   33  C   UNL     1      -6.089  16.250  67.651  1.00  0.00    -0.173 A  
HETATM   34  C   UNL     1      -7.393  16.482  67.212  1.00  0.00    -0.199 A  
ENDBRANCH  28  29
ENDBRANCH  27  28
ENDBRANCH  26  27
ENDBRANCH  25  26
ENDBRANCH  24  25
ENDBRANCH  23  24
ENDBRANCH  22  23
ENDBRANCH  21  22
ENDBRANCH  20  21
ENDBRANCH  19  20
ENDBRANCH  18  19
ENDBRANCH  16  18
ENDBRANCH  15  16
ENDBRANCH  12  15
ENDBRANCH  10  12
ENDBRANCH   2   4
TORSDOF 16
ENDMDL
MODEL      158
REMARK 921   NORMALIZED FREE ENERGY PREDICTED BY IDOCK:   -4.91 KCAL/MOL
REMARK 922        TOTAL FREE ENERGY PREDICTED BY IDOCK:  -11.85 KCAL/MOL
REMARK 923 INTER-LIGAND FREE ENERGY PREDICTED BY IDOCK:  -10.23 KCAL/MOL
REMARK 924 INTRA-LIGAND FREE ENERGY PREDICTED BY IDOCK:   -1.62 KCAL/MOL
REMARK 927      BINDING AFFINITY PREDICTED BY RF-SCORE:    0.00 PKD
ROOT
HETATM    1  O   UNL     1      -7.998   9.204  71.599  1.00  0.00    -0.342 OA 
HETATM    2  C   UNL     1      -8.065   8.936  70.198  1.00  0.00    -0.122 C  
HETATM    3  H   UNL     1      -7.272   9.788  71.787  1.00  0.00     0.000 HD 
ENDROOT
BRANCH   2   4
HETATM    4  C   UNL     1      -9.216   8.010  69.900  1.00  0.00    -0.152 A  
HETATM    5  C   UNL     1      -9.399   7.407  68.650  1.00  0.00    -0.139 A  
HETATM    6  O   UNL     1      -8.573   7.673  67.593  1.00  0.00    -0.116 OA 
HETATM    7  C   UNL     1     -10.450   6.527  68.416  1.00  0.00    -0.258 A  
HETATM    8  C   UNL     1     -11.361   6.251  69.432  1.00  0.00    -0.448 A  
HETATM    9  H   UNL     1      -8.697   7.264  66.745  1.00  0.00     0.000 HD 
HETATM   10  C   UNL     1     -11.217   6.838  70.699  1.00  0.00    -0.361 A  
HETATM   11  C   UNL     1     -10.127   7.697  70.925  1.00  0.00    -0.194 A  
BRANCH  10  12
HETATM   12  C   UNL     1     -12.224   6.588  71.807  1.00  0.00    -0.322 C  
HETATM   13  O   UNL     1     -11.682   7.004  73.070  1.00  0.00    -0.523 OA 
HETATM   14  H   UNL     1     -12.312   6.848  73.764  1.00  0.00     0.000 HD 
BRANCH  12  15
HETATM   15  C   UNL     1     -13.555   7.329  71.564  1.00  0.00    -0.356 C  
BRANCH  15  16
HETATM   16  N   UNL     1     -13.329   8.636  70.924  1.00  0.00    -0.445 NA 
HETATM   17  H   UNL     1     -14.021   8.832  70.201  1.00  0.00     0.000 HD 
BRANCH  16  18
HETATM   18  C   UNL     1     -13.281   9.687  71.935  1.00  0.00    -0.446 C  
BRANCH  18  19
HETATM   19  C   UNL     1     -12.491  10.880  71.411  1.00  0.00    -0.460 C  
BRANCH  19  20
HETATM   20  C   UNL     1     -12.545  10.918  69.885  1.00  0.00    -0.211 C  
BRANCH  20  21
HETATM   21  C   UNL     1     -11.157  11.146  69.304  1.00  0.00    -0.318 C  
BRANCH  21  22
HETATM   22  C   UNL     1     -11.149  12.314  68.324  1.00  0.00    -0.282 C  
BRANCH  22  23
HETATM   23  C   UNL     1     -10.861  11.819  66.915  1.00  0.00    -0.271 C  
BRANCH  23  24
HETATM   24  O   UNL     1     -11.917  12.247  66.064  1.00  0.00    -0.570 OA 
BRANCH  24  25
HETATM   25  C   UNL     1     -11.465  13.217  65.122  1.00  0.00    -0.295 C  
BRANCH  25  26
HETATM   26  C   UNL     1     -12.017  14.581  65.518  1.00  0.00    -0.312 C  
BRANCH  26  27
HETATM   27  C   UNL     1     -10.887  15.586  65.745  1.00  0.00    -0.337 C  
BRANCH  27  28
HETATM   28  C   UNL     1     -10.679  15.886  67.229  1.00  0.00    -0.306 C  
BRANCH  28  29
HETATM   29  C   UNL     1     -10.428  17.362  67.424  1.00  0.00    -0.336 A  
HETATM   30  C   UNL     1     -10.578  18.254  66.356  1.00  0.00    -0.318 A  
HETATM   31  C   UNL     1     -10.269  19.604  66.518  1.00  0.00    -0.588 A  
HETATM   32  C   UNL     1      -9.804  20.073  67.745  1.00  0.00    -0.545 A  
HETATM   33  C   UNL     1      -9.655  19.192  68.816  1.00  0.00    -0.474 A  
HETATM   34  C   UNL     1      -9.964  17.841  68.658  1.00  0.00    -0.379 A  
ENDBRANCH  28  29
ENDBRANCH  27  28
ENDBRANCH  26  27
ENDBRANCH  25  26
ENDBRANCH  24  25
ENDBRANCH  23  24
ENDBRANCH  22  23
ENDBRANCH  21  22
ENDBRANCH  20  21
ENDBRANCH  19  20
ENDBRANCH  18  19
ENDBRANCH  16  18
ENDBRANCH  15  16
ENDBRANCH  12  15
ENDBRANCH  10  12
ENDBRANCH   2   4
TORSDOF 16
ENDMDL
MODEL      159
REMARK 921   NORMALIZED FREE ENERGY PREDICTED BY IDOCK:   -4.91 KCAL/MOL
REMARK 922        TOTAL FREE ENERGY PREDICTED BY IDOCK:  -11.84 KCAL/MOL
REMARK 923 INTER-LIGAND FREE ENERGY PREDICTED BY IDOCK:   -9.46 KCAL/MOL
REMARK 924 INTRA-LIGAND FREE ENERGY PREDICTED BY IDOCK:   -2.38 KCAL/MOL
REMARK 927      BINDING AFFINITY PREDICTED BY RF-SCORE:    0.00 PKD
ROOT
HETATM    1  O   UNL     1     -11.403   7.465  73.268  1.00  0.00    -0.591 OA 
HETATM    2  C   UNL     1     -11.772   7.596  71.894  1.00  0.00    -0.289 C  
HETATM    3  H   UNL     1     -11.169   6.564  73.460  1.00  0.00     0.000 HD 
ENDROOT
BRANCH   2   4
HETATM    4  C   UNL     1     -12.144   9.023  71.589  1.00  0.00    -0.422 A  
HETATM    5  C   UNL     1     -13.166   9.701  72.264  1.00  0.00    -0.404 A  
HETATM    6  O   UNL     1     -13.941   9.083  73.206  1.00  0.00    -1.205 OA 
HETATM    7  C   UNL     1     -13.462  11.031  71.986  1.00  0.00    -0.286 A  
HETATM    8  C   UNL     1     -12.748  11.707  71.000  1.00  0.00    -0.395 A  
HETATM    9  H   UNL     1     -14.635   9.543  73.663  1.00  0.00     0.000 HD 
HETATM   10  C   UNL     1     -11.717  11.064  70.296  1.00  0.00    -0.445 A  
HETATM   11  C   UNL     1     -11.411   9.730  70.619  1.00  0.00    -0.401 A  
BRANCH  10  12
HETATM   12  C   UNL     1     -10.957  11.767  69.187  1.00  0.00    -0.209 C  
HETATM   13  O   UNL     1     -10.135  10.827  68.479  1.00  0.00    -0.162 OA 
HETATM   14  H   UNL     1      -9.658  11.267  67.784  1.00  0.00     0.000 HD 
BRANCH  12  15
HETATM   15  C   UNL     1     -11.901  12.463  68.183  1.00  0.00    -0.315 C  
BRANCH  15  16
HETATM   16  N   UNL     1     -11.878  11.788  66.875  1.00  0.00    -0.585 NA 
HETATM   17  H   UNL     1     -12.535  11.009  66.836  1.00  0.00     0.000 HD 
BRANCH  16  18
HETATM   18  C   UNL     1     -12.113  12.755  65.808  1.00  0.00    -0.448 C  
BRANCH  18  19
HETATM   19  C   UNL     1     -10.801  13.092  65.110  1.00  0.00    -0.320 C  
BRANCH  19  20
HETATM   20  C   UNL     1     -10.841  12.622  63.658  1.00  0.00    -0.437 C  
BRANCH  20  21
HETATM   21  C   UNL     1     -10.586  11.124  63.570  1.00  0.00    -0.393 C  
BRANCH  21  22
HETATM   22  C   UNL     1      -9.186  10.768  64.055  1.00  0.00    -0.252 C  
BRANCH  22  23
HETATM   23  C   UNL     1      -9.237   9.559  64.976  1.00  0.00    -0.236 C  
BRANCH  23  24
HETATM   24  O   UNL     1      -8.567   9.887  66.186  1.00  0.00    -0.126 OA 
BRANCH  24  25
HETATM   25  C   UNL     1      -7.222   9.415  66.182  1.00  0.00    -0.092 C  
BRANCH  25  26
HETATM   26  C   UNL     1      -7.015   8.512  67.392  1.00  0.00    -0.078 C  
BRANCH  26  27
HETATM   27  C   UNL     1      -8.206   8.594  68.348  1.00  0.00    -0.122 C  
BRANCH  27  28
HETATM   28  C   UNL     1      -7.839   8.136  69.758  1.00  0.00    -0.105 C  
BRANCH  28  29
HETATM   29  C   UNL     1      -8.527   6.828  70.070  1.00  0.00    -0.140 A  
HETATM   30  C   UNL     1      -9.432   6.270  69.161  1.00  0.00    -0.139 A  
HETATM   31  C   UNL     1     -10.127   5.104  69.485  1.00  0.00    -0.316 A  
HETATM   32  C   UNL     1      -9.924   4.491  70.719  1.00  0.00    -0.269 A  
HETATM   33  C   UNL     1      -9.021   5.038  71.630  1.00  0.00    -0.152 A  
HETATM   34  C   UNL     1      -8.325   6.203  71.308  1.00  0.00    -0.124 A  
ENDBRANCH  28  29
ENDBRANCH  27  28
ENDBRANCH  26  27
ENDBRANCH  25  26
ENDBRANCH  24  25
ENDBRANCH  23  24
ENDBRANCH  22  23
ENDBRANCH  21  22
ENDBRANCH  20  21
ENDBRANCH  19  20
ENDBRANCH  18  19
ENDBRANCH  16  18
ENDBRANCH  15  16
ENDBRANCH  12  15
ENDBRANCH  10  12
ENDBRANCH   2   4
TORSDOF 16
ENDMDL
MODEL      160
REMARK 921   NORMALIZED FREE ENERGY PREDICTED BY IDOCK:   -4.90 KCAL/MOL
REMARK 922        TOTAL FREE ENERGY PREDICTED BY IDOCK:  -11.84 KCAL/MOL
REMARK 923 INTER-LIGAND FREE ENERGY PREDICTED BY IDOCK:  -10.71 KCAL/MOL
REMARK 924 INTRA-LIGAND FREE ENERGY PREDICTED BY IDOCK:   -1.13 KCAL/MOL
REMARK 927      BINDING AFFINITY PREDICTED BY RF-SCORE:    0.00 PKD
ROOT
HETATM    1  O   UNL     1      -9.942  20.467  67.469  1.00  0.00    -0.420 OA 
HETATM    2  C   UNL     1     -10.427  19.700  66.366  1.00  0.00    -0.513 C  
HETATM    3  H   UNL     1     -10.371  21.314  67.493  1.00  0.00     0.000 HD 
ENDROOT
BRANCH   2   4
HETATM    4  C   UNL     1      -9.747  18.356  66.327  1.00  0.00    -0.298 A  
HETATM    5  C   UNL     1      -8.378  18.192  66.568  1.00  0.00    -0.265 A  
HETATM    6  O   UNL     1      -7.553  19.259  66.792  1.00  0.00    -0.227 OA 
HETATM    7  C   UNL     1      -7.786  16.935  66.562  1.00  0.00    -0.326 A  
HETATM    8  C   UNL     1      -8.556  15.808  66.288  1.00  0.00    -0.307 A  
HETATM    9  H   UNL     1      -6.624  19.148  66.955  1.00  0.00     0.000 HD 
HETATM   10  C   UNL     1      -9.933  15.927  66.036  1.00  0.00    -0.360 A  
HETATM   11  C   UNL     1     -10.518  17.205  66.083  1.00  0.00    -0.277 A  
BRANCH  10  12
HETATM   12  C   UNL     1     -10.782  14.719  65.691  1.00  0.00    -0.336 C  
HETATM   13  O   UNL     1     -10.253  14.058  64.531  1.00  0.00    -0.622 OA 
HETATM   14  H   UNL     1     -10.785  13.300  64.315  1.00  0.00     0.000 HD 
BRANCH  12  15
HETATM   15  C   UNL     1     -10.856  13.706  66.854  1.00  0.00    -0.283 C  
BRANCH  15  16
HETATM   16  N   UNL     1     -10.621  14.364  68.149  1.00  0.00    -0.233 NA 
HETATM   17  H   UNL     1     -10.045  15.200  68.054  1.00  0.00     0.000 HD 
BRANCH  16  18
HETATM   18  C   UNL     1     -11.893  14.649  68.805  1.00  0.00    -0.313 C  
BRANCH  18  19
HETATM   19  C   UNL     1     -11.670  15.560  70.005  1.00  0.00    -0.363 C  
BRANCH  19  20
HETATM   20  C   UNL     1     -12.916  15.584  70.888  1.00  0.00    -0.526 C  
BRANCH  20  21
HETATM   21  C   UNL     1     -12.639  14.919  72.228  1.00  0.00    -0.413 C  
BRANCH  21  22
HETATM   22  C   UNL     1     -13.532  13.702  72.441  1.00  0.00    -0.685 C  
BRANCH  22  23
HETATM   23  C   UNL     1     -12.964  12.495  71.711  1.00  0.00    -0.313 C  
BRANCH  23  24
HETATM   24  O   UNL     1     -13.529  11.320  72.278  1.00  0.00    -0.341 OA 
BRANCH  24  25
HETATM   25  C   UNL     1     -12.915  10.143  71.758  1.00  0.00    -0.462 C  
BRANCH  25  26
HETATM   26  C   UNL     1     -11.613  10.533  71.069  1.00  0.00    -0.318 C  
BRANCH  26  27
HETATM   27  C   UNL     1     -10.613   9.376  71.091  1.00  0.00    -0.403 C  
BRANCH  27  28
HETATM   28  C   UNL     1     -11.279   8.039  70.770  1.00  0.00    -0.275 C  
BRANCH  28  29
HETATM   29  C   UNL     1     -10.864   7.001  71.786  1.00  0.00    -0.250 A  
HETATM   30  C   UNL     1     -10.707   5.663  71.408  1.00  0.00    -0.310 A  
HETATM   31  C   UNL     1     -10.403   4.693  72.363  1.00  0.00    -0.262 A  
HETATM   32  C   UNL     1     -10.256   5.052  73.702  1.00  0.00    -0.233 A  
HETATM   33  C   UNL     1     -10.408   6.383  74.087  1.00  0.00    -0.335 A  
HETATM   34  C   UNL     1     -10.712   7.355  73.134  1.00  0.00    -0.436 A  
ENDBRANCH  28  29
ENDBRANCH  27  28
ENDBRANCH  26  27
ENDBRANCH  25  26
ENDBRANCH  24  25
ENDBRANCH  23  24
ENDBRANCH  22  23
ENDBRANCH  21  22
ENDBRANCH  20  21
ENDBRANCH  19  20
ENDBRANCH  18  19
ENDBRANCH  16  18
ENDBRANCH  15  16
ENDBRANCH  12  15
ENDBRANCH  10  12
ENDBRANCH   2   4
TORSDOF 16
ENDMDL
MODEL      161
REMARK 921   NORMALIZED FREE ENERGY PREDICTED BY IDOCK:   -4.89 KCAL/MOL
REMARK 922        TOTAL FREE ENERGY PREDICTED BY IDOCK:  -11.81 KCAL/MOL
REMARK 923 INTER-LIGAND FREE ENERGY PREDICTED BY IDOCK:   -9.50 KCAL/MOL
REMARK 924 INTRA-LIGAND FREE ENERGY PREDICTED BY IDOCK:   -2.31 KCAL/MOL
REMARK 927      BINDING AFFINITY PREDICTED BY RF-SCORE:    0.00 PKD
ROOT
HETATM    1  O   UNL     1      -8.614   2.647  68.962  1.00  0.00    -0.064 OA 
HETATM    2  C   UNL     1      -8.303   3.843  69.677  1.00  0.00    -0.056 C  
HETATM    3  H   UNL     1      -7.861   2.067  68.949  1.00  0.00     0.000 HD 
ENDROOT
BRANCH   2   4
HETATM    4  C   UNL     1      -9.496   4.763  69.696  1.00  0.00    -0.223 A  
HETATM    5  C   UNL     1     -10.123   5.215  68.530  1.00  0.00    -0.144 A  
HETATM    6  O   UNL     1      -9.648   4.899  67.287  1.00  0.00    -0.137 OA 
HETATM    7  C   UNL     1     -11.246   6.033  68.580  1.00  0.00    -0.147 A  
HETATM    8  C   UNL     1     -11.752   6.439  69.812  1.00  0.00    -0.261 A  
HETATM    9  H   UNL     1     -10.074   5.206  66.495  1.00  0.00     0.000 HD 
HETATM   10  C   UNL     1     -11.151   6.012  71.007  1.00  0.00    -0.348 A  
HETATM   11  C   UNL     1     -10.039   5.155  70.933  1.00  0.00    -0.302 A  
BRANCH  10  12
HETATM   12  C   UNL     1     -11.658   6.478  72.359  1.00  0.00    -0.255 C  
HETATM   13  O   UNL     1     -10.914   5.845  73.411  1.00  0.00    -0.348 OA 
HETATM   14  H   UNL     1     -11.231   6.136  74.258  1.00  0.00     0.000 HD 
BRANCH  12  15
HETATM   15  C   UNL     1     -11.555   8.009  72.525  1.00  0.00    -0.403 C  
BRANCH  15  16
HETATM   16  N   UNL     1     -12.888   8.635  72.533  1.00  0.00    -0.557 NA 
HETATM   17  H   UNL     1     -13.357   8.521  73.432  1.00  0.00     0.000 HD 
BRANCH  16  18
HETATM   18  C   UNL     1     -12.785  10.038  72.145  1.00  0.00    -0.265 C  
BRANCH  18  19
HETATM   19  C   UNL     1     -12.888  10.170  70.631  1.00  0.00    -0.314 C  
BRANCH  19  20
HETATM   20  C   UNL     1     -11.635  10.842  70.073  1.00  0.00    -0.417 C  
BRANCH  20  21
HETATM   21  C   UNL     1     -10.917   9.917  69.101  1.00  0.00    -0.233 C  
BRANCH  21  22
HETATM   22  C   UNL     1     -10.361  10.687  67.909  1.00  0.00    -0.231 C  
BRANCH  22  23
HETATM   23  C   UNL     1      -9.097  11.435  68.307  1.00  0.00    -0.179 C  
BRANCH  23  24
HETATM   24  O   UNL     1      -9.000  12.608  67.509  1.00  0.00    -0.170 OA 
BRANCH  24  25
HETATM   25  C   UNL     1     -10.270  12.988  66.983  1.00  0.00    -0.245 C  
BRANCH  25  26
HETATM   26  C   UNL     1     -10.651  14.347  67.555  1.00  0.00    -0.265 C  
BRANCH  26  27
HETATM   27  C   UNL     1     -11.701  14.203  68.658  1.00  0.00    -0.385 C  
BRANCH  27  28
HETATM   28  C   UNL     1     -12.040  15.546  69.303  1.00  0.00    -0.284 C  
BRANCH  28  29
HETATM   29  C   UNL     1     -12.386  15.344  70.759  1.00  0.00    -0.447 A  
HETATM   30  C   UNL     1     -11.782  16.129  71.747  1.00  0.00    -0.568 A  
HETATM   31  C   UNL     1     -12.042  15.888  73.096  1.00  0.00    -0.611 A  
HETATM   32  C   UNL     1     -12.905  14.859  73.467  1.00  0.00    -0.594 A  
HETATM   33  C   UNL     1     -13.515  14.074  72.490  1.00  0.00    -0.661 A  
HETATM   34  C   UNL     1     -13.257  14.313  71.140  1.00  0.00    -0.387 A  
ENDBRANCH  28  29
ENDBRANCH  27  28
ENDBRANCH  26  27
ENDBRANCH  25  26
ENDBRANCH  24  25
ENDBRANCH  23  24
ENDBRANCH  22  23
ENDBRANCH  21  22
ENDBRANCH  20  21
ENDBRANCH  19  20
ENDBRANCH  18  19
ENDBRANCH  16  18
ENDBRANCH  15  16
ENDBRANCH  12  15
ENDBRANCH  10  12
ENDBRANCH   2   4
TORSDOF 16
ENDMDL
MODEL      162
REMARK 921   NORMALIZED FREE ENERGY PREDICTED BY IDOCK:   -4.89 KCAL/MOL
REMARK 922        TOTAL FREE ENERGY PREDICTED BY IDOCK:  -11.81 KCAL/MOL
REMARK 923 INTER-LIGAND FREE ENERGY PREDICTED BY IDOCK:   -9.90 KCAL/MOL
REMARK 924 INTRA-LIGAND FREE ENERGY PREDICTED BY IDOCK:   -1.90 KCAL/MOL
REMARK 927      BINDING AFFINITY PREDICTED BY RF-SCORE:    0.00 PKD
ROOT
HETATM    1  O   UNL     1     -12.515   8.231  72.590  1.00  0.00    -0.575 OA 
HETATM    2  C   UNL     1     -11.219   8.669  72.178  1.00  0.00    -0.367 C  
HETATM    3  H   UNL     1     -12.444   7.662  73.348  1.00  0.00     0.000 HD 
ENDROOT
BRANCH   2   4
HETATM    4  C   UNL     1     -11.331   9.570  70.977  1.00  0.00    -0.423 A  
HETATM    5  C   UNL     1     -12.204  10.663  70.928  1.00  0.00    -0.395 A  
HETATM    6  O   UNL     1     -13.064  10.944  71.953  1.00  0.00    -0.482 OA 
HETATM    7  C   UNL     1     -12.259  11.500  69.820  1.00  0.00    -0.310 A  
HETATM    8  C   UNL     1     -11.449  11.241  68.717  1.00  0.00    -0.359 A  
HETATM    9  H   UNL     1     -13.657  11.686  71.921  1.00  0.00     0.000 HD 
HETATM   10  C   UNL     1     -10.562  10.153  68.721  1.00  0.00    -0.236 A  
HETATM   11  C   UNL     1     -10.497   9.341  69.867  1.00  0.00    -0.247 A  
BRANCH  10  12
HETATM   12  C   UNL     1      -9.703   9.826  67.514  1.00  0.00    -0.157 C  
HETATM   13  O   UNL     1     -10.212   8.661  66.847  1.00  0.00    -0.256 OA 
HETATM   14  H   UNL     1      -9.675   8.456  66.090  1.00  0.00     0.000 HD 
BRANCH  12  15
HETATM   15  C   UNL     1      -9.645  10.994  66.506  1.00  0.00    -0.195 C  
BRANCH  15  16
HETATM   16  N   UNL     1      -9.623  10.500  65.119  1.00  0.00    -0.236 NA 
HETATM   17  H   UNL     1      -9.761   9.491  65.071  1.00  0.00     0.000 HD 
BRANCH  16  18
HETATM   18  C   UNL     1     -10.602  11.224  64.314  1.00  0.00    -0.358 C  
BRANCH  18  19
HETATM   19  C   UNL     1     -10.630  12.692  64.722  1.00  0.00    -0.341 C  
BRANCH  19  20
HETATM   20  C   UNL     1     -12.056  13.232  64.645  1.00  0.00    -0.458 C  
BRANCH  20  21
HETATM   21  C   UNL     1     -12.402  14.016  65.903  1.00  0.00    -0.515 C  
BRANCH  21  22
HETATM   22  C   UNL     1     -11.147  14.517  66.609  1.00  0.00    -0.333 C  
BRANCH  22  23
HETATM   23  C   UNL     1     -11.496  15.051  67.990  1.00  0.00    -0.342 C  
BRANCH  23  24
HETATM   24  O   UNL     1     -10.399  14.798  68.859  1.00  0.00    -0.231 OA 
BRANCH  24  25
HETATM   25  C   UNL     1     -10.221  15.858  69.796  1.00  0.00    -0.268 C  
BRANCH  25  26
HETATM   26  C   UNL     1     -10.301  17.186  69.054  1.00  0.00    -0.331 C  
BRANCH  26  27
HETATM   27  C   UNL     1      -8.909  17.671  68.646  1.00  0.00    -0.259 C  
BRANCH  27  28
HETATM   28  C   UNL     1      -8.923  18.371  67.289  1.00  0.00    -0.265 C  
BRANCH  28  29
HETATM   29  C   UNL     1      -7.865  19.449  67.255  1.00  0.00    -0.285 A  
HETATM   30  C   UNL     1      -7.516  20.061  66.047  1.00  0.00    -0.328 A  
HETATM   31  C   UNL     1      -6.484  20.999  66.005  1.00  0.00    -0.220 A  
HETATM   32  C   UNL     1      -5.792  21.328  67.169  1.00  0.00    -0.403 A  
HETATM   33  C   UNL     1      -6.135  20.726  68.378  1.00  0.00    -0.379 A  
HETATM   34  C   UNL     1      -7.168  19.789  68.423  1.00  0.00    -0.352 A  
ENDBRANCH  28  29
ENDBRANCH  27  28
ENDBRANCH  26  27
ENDBRANCH  25  26
ENDBRANCH  24  25
ENDBRANCH  23  24
ENDBRANCH  22  23
ENDBRANCH  21  22
ENDBRANCH  20  21
ENDBRANCH  19  20
ENDBRANCH  18  19
ENDBRANCH  16  18
ENDBRANCH  15  16
ENDBRANCH  12  15
ENDBRANCH  10  12
ENDBRANCH   2   4
TORSDOF 16
ENDMDL
MODEL      163
REMARK 921   NORMALIZED FREE ENERGY PREDICTED BY IDOCK:   -4.88 KCAL/MOL
REMARK 922        TOTAL FREE ENERGY PREDICTED BY IDOCK:  -11.79 KCAL/MOL
REMARK 923 INTER-LIGAND FREE ENERGY PREDICTED BY IDOCK:   -9.04 KCAL/MOL
REMARK 924 INTRA-LIGAND FREE ENERGY PREDICTED BY IDOCK:   -2.75 KCAL/MOL
REMARK 927      BINDING AFFINITY PREDICTED BY RF-SCORE:    0.00 PKD
ROOT
HETATM    1  O   UNL     1      -9.974  12.820  63.409  1.00  0.00    -0.642 OA 
HETATM    2  C   UNL     1     -10.438  11.498  63.685  1.00  0.00    -0.427 C  
HETATM    3  H   UNL     1      -9.784  12.915  62.483  1.00  0.00     0.000 HD 
ENDROOT
BRANCH   2   4
HETATM    4  C   UNL     1     -10.740  11.347  65.153  1.00  0.00    -0.332 A  
HETATM    5  C   UNL     1     -11.559  12.239  65.854  1.00  0.00    -0.393 A  
HETATM    6  O   UNL     1     -12.090  13.350  65.258  1.00  0.00    -0.367 OA 
HETATM    7  C   UNL     1     -11.850  12.053  67.201  1.00  0.00    -0.251 A  
HETATM    8  C   UNL     1     -11.299  10.972  67.884  1.00  0.00    -0.381 A  
HETATM    9  H   UNL     1     -12.646  13.956  65.734  1.00  0.00     0.000 HD 
HETATM   10  C   UNL     1     -10.468  10.055  67.221  1.00  0.00    -0.313 A  
HETATM   11  C   UNL     1     -10.217  10.243  65.850  1.00  0.00    -0.293 A  
BRANCH  10  12
HETATM   12  C   UNL     1      -9.822   8.896  67.956  1.00  0.00    -0.168 C  
HETATM   13  O   UNL     1      -8.439   9.185  68.215  1.00  0.00    -0.123 OA 
HETATM   14  H   UNL     1      -8.034   8.459  68.676  1.00  0.00     0.000 HD 
BRANCH  12  15
HETATM   15  C   UNL     1     -10.528   8.587  69.294  1.00  0.00    -0.215 C  
BRANCH  15  16
HETATM   16  N   UNL     1      -9.859   9.264  70.417  1.00  0.00    -0.222 NA 
HETATM   17  H   UNL     1      -9.631  10.234  70.198  1.00  0.00     0.000 HD 
BRANCH  16  18
HETATM   18  C   UNL     1     -10.672   9.153  71.624  1.00  0.00    -0.371 C  
BRANCH  18  19
HETATM   19  C   UNL     1     -12.133   9.437  71.298  1.00  0.00    -0.424 C  
BRANCH  19  20
HETATM   20  C   UNL     1     -12.332  10.927  71.024  1.00  0.00    -0.498 C  
BRANCH  20  21
HETATM   21  C   UNL     1     -13.350  11.519  71.988  1.00  0.00    -0.397 C  
BRANCH  21  22
HETATM   22  C   UNL     1     -13.371  13.040  71.910  1.00  0.00    -0.539 C  
BRANCH  22  23
HETATM   23  C   UNL     1     -12.436  13.526  70.813  1.00  0.00    -0.353 C  
BRANCH  23  24
HETATM   24  O   UNL     1     -12.789  14.863  70.481  1.00  0.00    -0.355 OA 
BRANCH  24  25
HETATM   25  C   UNL     1     -11.998  15.358  69.403  1.00  0.00    -0.327 C  
BRANCH  25  26
HETATM   26  C   UNL     1     -10.882  16.225  69.971  1.00  0.00    -0.329 C  
BRANCH  26  27
HETATM   27  C   UNL     1      -9.509  15.685  69.568  1.00  0.00    -0.275 C  
BRANCH  27  28
HETATM   28  C   UNL     1      -9.617  14.565  68.536  1.00  0.00    -0.220 C  
BRANCH  28  29
HETATM   29  C   UNL     1      -8.250  13.979  68.268  1.00  0.00    -0.153 A  
HETATM   30  C   UNL     1      -7.095  14.711  68.564  1.00  0.00    -0.112 A  
HETATM   31  C   UNL     1      -5.837  14.202  68.241  1.00  0.00    -0.116 A  
HETATM   32  C   UNL     1      -5.724  12.961  67.619  1.00  0.00    -0.130 A  
HETATM   33  C   UNL     1      -6.869  12.222  67.323  1.00  0.00    -0.140 A  
HETATM   34  C   UNL     1      -8.129  12.729  67.645  1.00  0.00    -0.175 A  
ENDBRANCH  28  29
ENDBRANCH  27  28
ENDBRANCH  26  27
ENDBRANCH  25  26
ENDBRANCH  24  25
ENDBRANCH  23  24
ENDBRANCH  22  23
ENDBRANCH  21  22
ENDBRANCH  20  21
ENDBRANCH  19  20
ENDBRANCH  18  19
ENDBRANCH  16  18
ENDBRANCH  15  16
ENDBRANCH  12  15
ENDBRANCH  10  12
ENDBRANCH   2   4
TORSDOF 16
ENDMDL
MODEL      164
REMARK 921   NORMALIZED FREE ENERGY PREDICTED BY IDOCK:   -4.87 KCAL/MOL
REMARK 922        TOTAL FREE ENERGY PREDICTED BY IDOCK:  -11.77 KCAL/MOL
REMARK 923 INTER-LIGAND FREE ENERGY PREDICTED BY IDOCK:   -8.62 KCAL/MOL
REMARK 924 INTRA-LIGAND FREE ENERGY PREDICTED BY IDOCK:   -3.15 KCAL/MOL
REMARK 927      BINDING AFFINITY PREDICTED BY RF-SCORE:    0.00 PKD
ROOT
HETATM    1  O   UNL     1     -12.798   6.741  70.361  1.00  0.00    -0.440 OA 
HETATM    2  C   UNL     1     -11.433   6.331  70.282  1.00  0.00    -0.358 C  
HETATM    3  H   UNL     1     -13.292   6.134  70.901  1.00  0.00     0.000 HD 
ENDROOT
BRANCH   2   4
HETATM    4  C   UNL     1     -10.649   7.292  69.427  1.00  0.00    -0.238 A  
HETATM    5  C   UNL     1     -10.757   7.326  68.032  1.00  0.00    -0.146 A  
HETATM    6  O   UNL     1     -11.539   6.438  67.347  1.00  0.00    -0.678 OA 
HETATM    7  C   UNL     1     -10.049   8.250  67.271  1.00  0.00    -0.315 A  
HETATM    8  C   UNL     1      -9.193   9.151  67.899  1.00  0.00    -0.144 A  
HETATM    9  H   UNL     1     -11.612   6.461  66.400  1.00  0.00     0.000 HD 
HETATM   10  C   UNL     1      -9.051   9.148  69.295  1.00  0.00    -0.146 A  
HETATM   11  C   UNL     1      -9.804   8.229  70.047  1.00  0.00    -0.182 A  
BRANCH  10  12
HETATM   12  C   UNL     1      -8.090  10.090  69.996  1.00  0.00    -0.136 C  
HETATM   13  O   UNL     1      -7.439   9.413  71.083  1.00  0.00    -0.294 OA 
HETATM   14  H   UNL     1      -6.836  10.003  71.521  1.00  0.00     0.000 HD 
BRANCH  12  15
HETATM   15  C   UNL     1      -7.015  10.646  69.037  1.00  0.00    -0.080 C  
BRANCH  15  16
HETATM   16  N   UNL     1      -7.013  12.118  69.034  1.00  0.00    -0.159 NA 
HETATM   17  H   UNL     1      -6.068  12.499  69.083  1.00  0.00     0.000 HD 
BRANCH  16  18
HETATM   18  C   UNL     1      -7.746  12.618  67.875  1.00  0.00    -0.141 C  
BRANCH  18  19
HETATM   19  C   UNL     1      -8.945  13.440  68.329  1.00  0.00    -0.176 C  
BRANCH  19  20
HETATM   20  C   UNL     1     -10.243  12.728  67.959  1.00  0.00    -0.228 C  
BRANCH  20  21
HETATM   21  C   UNL     1     -11.384  13.189  68.855  1.00  0.00    -0.335 C  
BRANCH  21  22
HETATM   22  C   UNL     1     -12.066  14.431  68.294  1.00  0.00    -0.260 C  
BRANCH  22  23
HETATM   23  C   UNL     1     -11.801  15.630  69.191  1.00  0.00    -0.362 C  
BRANCH  23  24
HETATM   24  O   UNL     1     -11.372  16.714  68.377  1.00  0.00    -0.321 OA 
BRANCH  24  25
HETATM   25  C   UNL     1      -9.950  16.809  68.341  1.00  0.00    -0.268 C  
BRANCH  25  26
HETATM   26  C   UNL     1      -9.526  17.303  66.964  1.00  0.00    -0.264 C  
BRANCH  26  27
HETATM   27  C   UNL     1      -9.427  16.144  65.971  1.00  0.00    -0.374 C  
BRANCH  27  28
HETATM   28  C   UNL     1     -10.681  16.025  65.106  1.00  0.00    -0.429 C  
BRANCH  28  29
HETATM   29  C   UNL     1     -11.000  14.570  64.860  1.00  0.00    -0.421 A  
HETATM   30  C   UNL     1      -9.972  13.645  64.647  1.00  0.00    -0.077 A  
HETATM   31  C   UNL     1     -10.271  12.318  64.340  1.00  0.00    -0.341 A  
HETATM   32  C   UNL     1     -11.598  11.906  64.241  1.00  0.00    -0.405 A  
HETATM   33  C   UNL     1     -12.630  12.819  64.455  1.00  0.00    -0.463 A  
HETATM   34  C   UNL     1     -12.333  14.147  64.763  1.00  0.00    -0.436 A  
ENDBRANCH  28  29
ENDBRANCH  27  28
ENDBRANCH  26  27
ENDBRANCH  25  26
ENDBRANCH  24  25
ENDBRANCH  23  24
ENDBRANCH  22  23
ENDBRANCH  21  22
ENDBRANCH  20  21
ENDBRANCH  19  20
ENDBRANCH  18  19
ENDBRANCH  16  18
ENDBRANCH  15  16
ENDBRANCH  12  15
ENDBRANCH  10  12
ENDBRANCH   2   4
TORSDOF 16
ENDMDL
MODEL      165
REMARK 921   NORMALIZED FREE ENERGY PREDICTED BY IDOCK:   -4.87 KCAL/MOL
REMARK 922        TOTAL FREE ENERGY PREDICTED BY IDOCK:  -11.77 KCAL/MOL
REMARK 923 INTER-LIGAND FREE ENERGY PREDICTED BY IDOCK:   -9.55 KCAL/MOL
REMARK 924 INTRA-LIGAND FREE ENERGY PREDICTED BY IDOCK:   -2.21 KCAL/MOL
REMARK 927      BINDING AFFINITY PREDICTED BY RF-SCORE:    0.00 PKD
ROOT
HETATM    1  O   UNL     1     -10.127   8.019  66.710  1.00  0.00    -0.253 OA 
HETATM    2  C   UNL     1      -9.333   8.922  65.939  1.00  0.00    -0.236 C  
HETATM    3  H   UNL     1     -10.161   7.168  66.286  1.00  0.00     0.000 HD 
ENDROOT
BRANCH   2   4
HETATM    4  C   UNL     1      -9.279  10.269  66.609  1.00  0.00    -0.179 A  
HETATM    5  C   UNL     1      -8.551  10.504  67.781  1.00  0.00    -0.118 A  
HETATM    6  O   UNL     1      -7.889   9.500  68.432  1.00  0.00    -0.085 OA 
HETATM    7  C   UNL     1      -8.489  11.768  68.356  1.00  0.00    -0.155 A  
HETATM    8  C   UNL     1      -9.183  12.827  67.776  1.00  0.00    -0.199 A  
HETATM    9  H   UNL     1      -7.395   9.659  69.227  1.00  0.00     0.000 HD 
HETATM   10  C   UNL     1      -9.929  12.635  66.602  1.00  0.00    -0.247 A  
HETATM   11  C   UNL     1      -9.948  11.356  66.018  1.00  0.00    -0.269 A  
BRANCH  10  12
HETATM   12  C   UNL     1     -10.729  13.763  65.979  1.00  0.00    -0.284 C  
HETATM   13  O   UNL     1     -11.102  13.421  64.635  1.00  0.00    -0.332 OA 
HETATM   14  H   UNL     1     -11.603  14.127  64.244  1.00  0.00     0.000 HD 
BRANCH  12  15
HETATM   15  C   UNL     1     -12.005  14.089  66.784  1.00  0.00    -0.444 C  
BRANCH  15  16
HETATM   16  N   UNL     1     -11.806  15.267  67.645  1.00  0.00    -0.343 NA 
HETATM   17  H   UNL     1     -12.443  16.026  67.406  1.00  0.00     0.000 HD 
BRANCH  16  18
HETATM   18  C   UNL     1     -11.913  14.885  69.049  1.00  0.00    -0.272 C  
BRANCH  18  19
HETATM   19  C   UNL     1     -11.129  15.861  69.917  1.00  0.00    -0.343 C  
BRANCH  19  20
HETATM   20  C   UNL     1     -11.642  15.817  71.355  1.00  0.00    -0.511 C  
BRANCH  20  21
HETATM   21  C   UNL     1     -13.106  15.402  71.391  1.00  0.00    -0.563 C  
BRANCH  21  22
HETATM   22  C   UNL     1     -13.445  14.670  72.684  1.00  0.00    -0.580 C  
BRANCH  22  23
HETATM   23  C   UNL     1     -13.839  13.231  72.388  1.00  0.00    -0.529 C  
BRANCH  23  24
HETATM   24  O   UNL     1     -13.145  12.805  71.222  1.00  0.00    -0.278 OA 
BRANCH  24  25
HETATM   25  C   UNL     1     -12.675  11.466  71.355  1.00  0.00    -0.384 C  
BRANCH  25  26
HETATM   26  C   UNL     1     -11.745  11.154  70.190  1.00  0.00    -0.439 C  
BRANCH  26  27
HETATM   27  C   UNL     1     -10.743  10.061  70.565  1.00  0.00    -0.352 C  
BRANCH  27  28
HETATM   28  C   UNL     1     -11.298   8.663  70.302  1.00  0.00    -0.146 C  
BRANCH  28  29
HETATM   29  C   UNL     1     -11.008   7.764  71.480  1.00  0.00    -0.267 A  
HETATM   30  C   UNL     1     -11.567   6.484  71.550  1.00  0.00    -0.366 A  
HETATM   31  C   UNL     1     -11.364   5.686  72.676  1.00  0.00    -0.356 A  
HETATM   32  C   UNL     1     -10.603   6.163  73.741  1.00  0.00    -0.261 A  
HETATM   33  C   UNL     1     -10.039   7.437  73.680  1.00  0.00    -0.376 A  
HETATM   34  C   UNL     1     -10.240   8.236  72.555  1.00  0.00    -0.386 A  
ENDBRANCH  28  29
ENDBRANCH  27  28
ENDBRANCH  26  27
ENDBRANCH  25  26
ENDBRANCH  24  25
ENDBRANCH  23  24
ENDBRANCH  22  23
ENDBRANCH  21  22
ENDBRANCH  20  21
ENDBRANCH  19  20
ENDBRANCH  18  19
ENDBRANCH  16  18
ENDBRANCH  15  16
ENDBRANCH  12  15
ENDBRANCH  10  12
ENDBRANCH   2   4
TORSDOF 16
ENDMDL
MODEL      166
REMARK 921   NORMALIZED FREE ENERGY PREDICTED BY IDOCK:   -4.87 KCAL/MOL
REMARK 922        TOTAL FREE ENERGY PREDICTED BY IDOCK:  -11.76 KCAL/MOL
REMARK 923 INTER-LIGAND FREE ENERGY PREDICTED BY IDOCK:   -9.91 KCAL/MOL
REMARK 924 INTRA-LIGAND FREE ENERGY PREDICTED BY IDOCK:   -1.85 KCAL/MOL
REMARK 927      BINDING AFFINITY PREDICTED BY RF-SCORE:    0.00 PKD
ROOT
HETATM    1  O   UNL     1     -10.784  20.549  69.803  1.00  0.00    -0.521 OA 
HETATM    2  C   UNL     1      -9.803  19.538  69.567  1.00  0.00    -0.047 C  
HETATM    3  H   UNL     1     -10.596  21.005  70.616  1.00  0.00     0.000 HD 
ENDROOT
BRANCH   2   4
HETATM    4  C   UNL     1     -10.100  18.816  68.279  1.00  0.00    -0.431 A  
HETATM    5  C   UNL     1     -10.105  19.456  67.034  1.00  0.00    -0.387 A  
HETATM    6  O   UNL     1      -9.902  20.803  66.916  1.00  0.00    -0.618 OA 
HETATM    7  C   UNL     1     -10.346  18.755  65.858  1.00  0.00    -0.385 A  
HETATM    8  C   UNL     1     -10.614  17.390  65.909  1.00  0.00    -0.201 A  
HETATM    9  H   UNL     1      -9.906  21.238  66.072  1.00  0.00     0.000 HD 
HETATM   10  C   UNL     1     -10.624  16.709  67.137  1.00  0.00    -0.264 A  
HETATM   11  C   UNL     1     -10.341  17.430  68.310  1.00  0.00    -0.374 A  
BRANCH  10  12
HETATM   12  C   UNL     1     -10.958  15.231  67.220  1.00  0.00    -0.327 C  
HETATM   13  O   UNL     1     -12.379  15.050  67.314  1.00  0.00    -0.309 OA 
HETATM   14  H   UNL     1     -12.589  14.124  67.366  1.00  0.00     0.000 HD 
BRANCH  12  15
HETATM   15  C   UNL     1     -10.433  14.444  66.000  1.00  0.00    -0.301 C  
BRANCH  15  16
HETATM   16  N   UNL     1      -8.992  14.167  66.125  1.00  0.00    -0.471 NA 
HETATM   17  H   UNL     1      -8.425  14.986  65.904  1.00  0.00     0.000 HD 
BRANCH  16  18
HETATM   18  C   UNL     1      -8.696  13.639  67.453  1.00  0.00    -0.213 C  
BRANCH  18  19
HETATM   19  C   UNL     1      -7.402  12.836  67.419  1.00  0.00    -0.135 C  
BRANCH  19  20
HETATM   20  C   UNL     1      -7.698  11.352  67.622  1.00  0.00    -0.121 C  
BRANCH  20  21
HETATM   21  C   UNL     1      -7.593  10.597  66.305  1.00  0.00    -0.137 C  
BRANCH  21  22
HETATM   22  C   UNL     1      -8.565   9.425  66.256  1.00  0.00    -0.142 C  
BRANCH  22  23
HETATM   23  C   UNL     1      -9.273   9.268  67.593  1.00  0.00    -0.124 C  
BRANCH  23  24
HETATM   24  O   UNL     1     -10.659   9.518  67.399  1.00  0.00    -0.268 OA 
BRANCH  24  25
HETATM   25  C   UNL     1     -10.929  10.915  67.302  1.00  0.00    -0.294 C  
BRANCH  25  26
HETATM   26  C   UNL     1     -12.014  11.276  68.308  1.00  0.00    -0.215 C  
BRANCH  26  27
HETATM   27  C   UNL     1     -11.413  11.546  69.689  1.00  0.00    -0.373 C  
BRANCH  27  28
HETATM   28  C   UNL     1     -12.481  11.575  70.780  1.00  0.00    -0.444 C  
BRANCH  28  29
HETATM   29  C   UNL     1     -12.663  12.987  71.284  1.00  0.00    -0.385 A  
HETATM   30  C   UNL     1     -12.130  14.067  70.573  1.00  0.00    -0.424 A  
HETATM   31  C   UNL     1     -12.229  15.363  71.081  1.00  0.00    -0.429 A  
HETATM   32  C   UNL     1     -12.859  15.587  72.303  1.00  0.00    -0.493 A  
HETATM   33  C   UNL     1     -13.397  14.518  73.017  1.00  0.00    -0.510 A  
HETATM   34  C   UNL     1     -13.300  13.221  72.512  1.00  0.00    -0.569 A  
ENDBRANCH  28  29
ENDBRANCH  27  28
ENDBRANCH  26  27
ENDBRANCH  25  26
ENDBRANCH  24  25
ENDBRANCH  23  24
ENDBRANCH  22  23
ENDBRANCH  21  22
ENDBRANCH  20  21
ENDBRANCH  19  20
ENDBRANCH  18  19
ENDBRANCH  16  18
ENDBRANCH  15  16
ENDBRANCH  12  15
ENDBRANCH  10  12
ENDBRANCH   2   4
TORSDOF 16
ENDMDL
MODEL      167
REMARK 921   NORMALIZED FREE ENERGY PREDICTED BY IDOCK:   -4.86 KCAL/MOL
REMARK 922        TOTAL FREE ENERGY PREDICTED BY IDOCK:  -11.76 KCAL/MOL
REMARK 923 INTER-LIGAND FREE ENERGY PREDICTED BY IDOCK:   -8.99 KCAL/MOL
REMARK 924 INTRA-LIGAND FREE ENERGY PREDICTED BY IDOCK:   -2.76 KCAL/MOL
REMARK 927      BINDING AFFINITY PREDICTED BY RF-SCORE:    0.00 PKD
ROOT
HETATM    1  O   UNL     1     -12.662   8.315  72.776  1.00  0.00    -0.615 OA 
HETATM    2  C   UNL     1     -13.104   7.606  71.618  1.00  0.00    -0.353 C  
HETATM    3  H   UNL     1     -13.349   8.893  73.089  1.00  0.00     0.000 HD 
ENDROOT
BRANCH   2   4
HETATM    4  C   UNL     1     -12.016   6.690  71.122  1.00  0.00    -0.412 A  
HETATM    5  C   UNL     1     -11.293   5.842  71.969  1.00  0.00    -0.267 A  
HETATM    6  O   UNL     1     -11.489   5.839  73.322  1.00  0.00    -0.488 OA 
HETATM    7  C   UNL     1     -10.320   4.981  71.476  1.00  0.00    -0.252 A  
HETATM    8  C   UNL     1     -10.031   4.970  70.114  1.00  0.00    -0.328 A  
HETATM    9  H   UNL     1     -10.998   5.263  73.898  1.00  0.00     0.000 HD 
HETATM   10  C   UNL     1     -10.728   5.808  69.229  1.00  0.00    -0.386 A  
HETATM   11  C   UNL     1     -11.734   6.644  69.744  1.00  0.00    -0.279 A  
BRANCH  10  12
HETATM   12  C   UNL     1     -10.399   5.845  67.748  1.00  0.00    -0.210 C  
HETATM   13  O   UNL     1     -11.445   6.514  67.026  1.00  0.00    -0.752 OA 
HETATM   14  H   UNL     1     -11.239   6.538  66.099  1.00  0.00     0.000 HD 
BRANCH  12  15
HETATM   15  C   UNL     1      -9.060   6.560  67.466  1.00  0.00    -0.115 C  
BRANCH  15  16
HETATM   16  N   UNL     1      -9.261   8.004  67.259  1.00  0.00    -0.136 NA 
HETATM   17  H   UNL     1     -10.200   8.214  66.923  1.00  0.00     0.000 HD 
BRANCH  16  18
HETATM   18  C   UNL     1      -8.942   8.734  68.482  1.00  0.00    -0.138 C  
BRANCH  18  19
HETATM   19  C   UNL     1      -7.967   9.864  68.176  1.00  0.00    -0.100 C  
BRANCH  19  20
HETATM   20  C   UNL     1      -8.174  10.367  66.748  1.00  0.00    -0.126 C  
BRANCH  20  21
HETATM   21  C   UNL     1      -8.479  11.857  66.742  1.00  0.00    -0.167 C  
BRANCH  21  22
HETATM   22  C   UNL     1      -8.211  12.486  68.105  1.00  0.00    -0.170 C  
BRANCH  22  23
HETATM   23  C   UNL     1      -8.172  14.002  67.988  1.00  0.00    -0.155 C  
BRANCH  23  24
HETATM   24  O   UNL     1      -8.741  14.371  66.738  1.00  0.00    -0.223 OA 
BRANCH  24  25
HETATM   25  C   UNL     1      -9.021  15.768  66.686  1.00  0.00    -0.280 C  
BRANCH  25  26
HETATM   26  C   UNL     1      -9.792  16.162  67.940  1.00  0.00    -0.235 C  
BRANCH  26  27
HETATM   27  C   UNL     1     -11.283  15.862  67.783  1.00  0.00    -0.258 C  
BRANCH  27  28
HETATM   28  C   UNL     1     -11.885  15.275  69.059  1.00  0.00    -0.342 C  
BRANCH  28  29
HETATM   29  C   UNL     1     -11.938  13.769  68.957  1.00  0.00    -0.399 A  
HETATM   30  C   UNL     1     -11.974  12.982  70.112  1.00  0.00    -0.374 A  
HETATM   31  C   UNL     1     -11.941  11.590  70.018  1.00  0.00    -0.435 A  
HETATM   32  C   UNL     1     -11.870  10.977  68.769  1.00  0.00    -0.352 A  
HETATM   33  C   UNL     1     -11.838  11.753  67.611  1.00  0.00    -0.241 A  
HETATM   34  C   UNL     1     -11.871  13.145  67.703  1.00  0.00    -0.405 A  
ENDBRANCH  28  29
ENDBRANCH  27  28
ENDBRANCH  26  27
ENDBRANCH  25  26
ENDBRANCH  24  25
ENDBRANCH  23  24
ENDBRANCH  22  23
ENDBRANCH  21  22
ENDBRANCH  20  21
ENDBRANCH  19  20
ENDBRANCH  18  19
ENDBRANCH  16  18
ENDBRANCH  15  16
ENDBRANCH  12  15
ENDBRANCH  10  12
ENDBRANCH   2   4
TORSDOF 16
ENDMDL
MODEL      168
REMARK 921   NORMALIZED FREE ENERGY PREDICTED BY IDOCK:   -4.85 KCAL/MOL
REMARK 922        TOTAL FREE ENERGY PREDICTED BY IDOCK:  -11.73 KCAL/MOL
REMARK 923 INTER-LIGAND FREE ENERGY PREDICTED BY IDOCK:  -10.35 KCAL/MOL
REMARK 924 INTRA-LIGAND FREE ENERGY PREDICTED BY IDOCK:   -1.37 KCAL/MOL
REMARK 927      BINDING AFFINITY PREDICTED BY RF-SCORE:    0.00 PKD
ROOT
HETATM    1  O   UNL     1      -9.769   3.474  68.628  1.00  0.00    -0.128 OA 
HETATM    2  C   UNL     1      -9.576   4.867  68.876  1.00  0.00    -0.158 C  
HETATM    3  H   UNL     1      -9.325   3.218  67.828  1.00  0.00     0.000 HD 
ENDROOT
BRANCH   2   4
HETATM    4  C   UNL     1     -10.281   5.274  70.143  1.00  0.00    -0.350 A  
HETATM    5  C   UNL     1     -10.106   4.599  71.357  1.00  0.00    -0.178 A  
HETATM    6  O   UNL     1      -9.327   3.480  71.454  1.00  0.00    -0.118 OA 
HETATM    7  C   UNL     1     -10.742   5.020  72.520  1.00  0.00    -0.271 A  
HETATM    8  C   UNL     1     -11.593   6.122  72.483  1.00  0.00    -0.294 A  
HETATM    9  H   UNL     1      -9.209   3.022  72.278  1.00  0.00     0.000 HD 
HETATM   10  C   UNL     1     -11.800   6.825  71.285  1.00  0.00    -0.396 A  
HETATM   11  C   UNL     1     -11.119   6.403  70.130  1.00  0.00    -0.428 A  
BRANCH  10  12
HETATM   12  C   UNL     1     -12.758   8.000  71.212  1.00  0.00    -0.217 C  
HETATM   13  O   UNL     1     -14.069   7.546  70.841  1.00  0.00    -0.647 OA 
HETATM   14  H   UNL     1     -14.669   8.282  70.795  1.00  0.00     0.000 HD 
BRANCH  12  15
HETATM   15  C   UNL     1     -12.852   8.760  72.552  1.00  0.00    -0.316 C  
BRANCH  15  16
HETATM   16  N   UNL     1     -13.145  10.186  72.336  1.00  0.00    -0.494 NA 
HETATM   17  H   UNL     1     -13.211  10.700  73.215  1.00  0.00     0.000 HD 
BRANCH  16  18
HETATM   18  C   UNL     1     -12.156  10.770  71.435  1.00  0.00    -0.195 C  
BRANCH  18  19
HETATM   19  C   UNL     1     -12.607  12.156  70.991  1.00  0.00    -0.359 C  
BRANCH  19  20
HETATM   20  C   UNL     1     -11.751  12.640  69.823  1.00  0.00    -0.354 C  
BRANCH  20  21
HETATM   21  C   UNL     1     -10.999  11.478  69.191  1.00  0.00    -0.276 C  
BRANCH  21  22
HETATM   22  C   UNL     1     -11.461  11.229  67.760  1.00  0.00    -0.350 C  
BRANCH  22  23
HETATM   23  C   UNL     1     -11.778  12.546  67.070  1.00  0.00    -0.367 C  
BRANCH  23  24
HETATM   24  O   UNL     1     -12.142  12.272  65.723  1.00  0.00    -0.587 OA 
BRANCH  24  25
HETATM   25  C   UNL     1     -12.044  13.438  64.909  1.00  0.00    -0.392 C  
BRANCH  25  26
HETATM   26  C   UNL     1     -11.830  14.648  65.809  1.00  0.00    -0.274 C  
BRANCH  26  27
HETATM   27  C   UNL     1     -10.939  15.688  65.128  1.00  0.00    -0.411 C  
BRANCH  27  28
HETATM   28  C   UNL     1      -9.678  15.979  65.939  1.00  0.00    -0.378 C  
BRANCH  28  29
HETATM   29  C   UNL     1      -9.785  17.339  66.585  1.00  0.00    -0.295 A  
HETATM   30  C   UNL     1      -9.549  17.493  67.956  1.00  0.00    -0.282 A  
HETATM   31  C   UNL     1      -9.727  18.735  68.566  1.00  0.00    -0.426 A  
HETATM   32  C   UNL     1     -10.143  19.830  67.812  1.00  0.00    -0.551 A  
HETATM   33  C   UNL     1     -10.377  19.688  66.445  1.00  0.00    -0.609 A  
HETATM   34  C   UNL     1     -10.200  18.447  65.832  1.00  0.00    -0.250 A  
ENDBRANCH  28  29
ENDBRANCH  27  28
ENDBRANCH  26  27
ENDBRANCH  25  26
ENDBRANCH  24  25
ENDBRANCH  23  24
ENDBRANCH  22  23
ENDBRANCH  21  22
ENDBRANCH  20  21
ENDBRANCH  19  20
ENDBRANCH  18  19
ENDBRANCH  16  18
ENDBRANCH  15  16
ENDBRANCH  12  15
ENDBRANCH  10  12
ENDBRANCH   2   4
TORSDOF 16
ENDMDL
MODEL      169
REMARK 921   NORMALIZED FREE ENERGY PREDICTED BY IDOCK:   -4.84 KCAL/MOL
REMARK 922        TOTAL FREE ENERGY PREDICTED BY IDOCK:  -11.72 KCAL/MOL
REMARK 923 INTER-LIGAND FREE ENERGY PREDICTED BY IDOCK:   -9.73 KCAL/MOL
REMARK 924 INTRA-LIGAND FREE ENERGY PREDICTED BY IDOCK:   -1.99 KCAL/MOL
REMARK 927      BINDING AFFINITY PREDICTED BY RF-SCORE:    0.00 PKD
ROOT
HETATM    1  O   UNL     1      -8.893   8.200  64.394  1.00  0.00    -0.390 OA 
HETATM    2  C   UNL     1      -8.791   9.483  63.776  1.00  0.00    -0.210 C  
HETATM    3  H   UNL     1      -8.843   7.515  63.737  1.00  0.00     0.000 HD 
ENDROOT
BRANCH   2   4
HETATM    4  C   UNL     1      -8.870  10.570  64.816  1.00  0.00    -0.211 A  
HETATM    5  C   UNL     1      -8.032  10.608  65.937  1.00  0.00    -0.157 A  
HETATM    6  O   UNL     1      -7.125   9.618  66.192  1.00  0.00    -0.090 OA 
HETATM    7  C   UNL     1      -8.103  11.644  66.861  1.00  0.00    -0.164 A  
HETATM    8  C   UNL     1      -9.041  12.660  66.692  1.00  0.00    -0.193 A  
HETATM    9  H   UNL     1      -6.556   9.644  66.953  1.00  0.00     0.000 HD 
HETATM   10  C   UNL     1      -9.905  12.657  65.584  1.00  0.00    -0.213 A  
HETATM   11  C   UNL     1      -9.791  11.619  64.643  1.00  0.00    -0.259 A  
BRANCH  10  12
HETATM   12  C   UNL     1     -10.964  13.728  65.405  1.00  0.00    -0.309 C  
HETATM   13  O   UNL     1     -11.423  13.746  64.044  1.00  0.00    -0.570 OA 
HETATM   14  H   UNL     1     -12.087  14.417  63.931  1.00  0.00     0.000 HD 
BRANCH  12  15
HETATM   15  C   UNL     1     -12.175  13.513  66.337  1.00  0.00    -0.400 C  
BRANCH  15  16
HETATM   16  N   UNL     1     -12.393  14.682  67.206  1.00  0.00    -0.502 NA 
HETATM   17  H   UNL     1     -13.384  14.862  67.363  1.00  0.00     0.000 HD 
BRANCH  16  18
HETATM   18  C   UNL     1     -11.663  14.518  68.459  1.00  0.00    -0.318 C  
BRANCH  18  19
HETATM   19  C   UNL     1     -11.853  15.747  69.339  1.00  0.00    -0.361 C  
BRANCH  19  20
HETATM   20  C   UNL     1     -12.036  15.328  70.796  1.00  0.00    -0.399 C  
BRANCH  20  21
HETATM   21  C   UNL     1     -13.215  14.376  70.937  1.00  0.00    -0.347 C  
BRANCH  21  22
HETATM   22  C   UNL     1     -13.307  13.809  72.349  1.00  0.00    -0.635 C  
BRANCH  22  23
HETATM   23  C   UNL     1     -13.364  12.290  72.305  1.00  0.00    -0.270 C  
BRANCH  23  24
HETATM   24  O   UNL     1     -12.662  11.847  71.150  1.00  0.00    -0.371 OA 
BRANCH  24  25
HETATM   25  C   UNL     1     -12.053  10.577  71.366  1.00  0.00    -0.282 C  
BRANCH  25  26
HETATM   26  C   UNL     1     -13.106   9.610  71.892  1.00  0.00    -0.530 C  
BRANCH  26  27
HETATM   27  C   UNL     1     -12.776   8.170  71.495  1.00  0.00    -0.327 C  
BRANCH  27  28
HETATM   28  C   UNL     1     -11.276   7.960  71.302  1.00  0.00    -0.283 C  
BRANCH  28  29
HETATM   29  C   UNL     1     -10.987   7.610  69.862  1.00  0.00    -0.208 A  
HETATM   30  C   UNL     1     -10.566   8.597  68.963  1.00  0.00    -0.179 A  
HETATM   31  C   UNL     1     -10.377   8.288  67.616  1.00  0.00    -0.313 A  
HETATM   32  C   UNL     1     -10.610   6.994  67.157  1.00  0.00    -0.412 A  
HETATM   33  C   UNL     1     -11.027   6.003  68.045  1.00  0.00    -0.340 A  
HETATM   34  C   UNL     1     -11.216   6.309  69.393  1.00  0.00    -0.489 A  
ENDBRANCH  28  29
ENDBRANCH  27  28
ENDBRANCH  26  27
ENDBRANCH  25  26
ENDBRANCH  24  25
ENDBRANCH  23  24
ENDBRANCH  22  23
ENDBRANCH  21  22
ENDBRANCH  20  21
ENDBRANCH  19  20
ENDBRANCH  18  19
ENDBRANCH  16  18
ENDBRANCH  15  16
ENDBRANCH  12  15
ENDBRANCH  10  12
ENDBRANCH   2   4
TORSDOF 16
ENDMDL
MODEL      170
REMARK 921   NORMALIZED FREE ENERGY PREDICTED BY IDOCK:   -4.84 KCAL/MOL
REMARK 922        TOTAL FREE ENERGY PREDICTED BY IDOCK:  -11.72 KCAL/MOL
REMARK 923 INTER-LIGAND FREE ENERGY PREDICTED BY IDOCK:   -9.98 KCAL/MOL
REMARK 924 INTRA-LIGAND FREE ENERGY PREDICTED BY IDOCK:   -1.74 KCAL/MOL
REMARK 927      BINDING AFFINITY PREDICTED BY RF-SCORE:    0.00 PKD
ROOT
HETATM    1  O   UNL     1     -10.623  19.487  68.571  1.00  0.00    -0.468 OA 
HETATM    2  C   UNL     1      -9.950  18.228  68.601  1.00  0.00    -0.389 C  
HETATM    3  H   UNL     1     -10.362  20.016  69.317  1.00  0.00     0.000 HD 
ENDROOT
BRANCH   2   4
HETATM    4  C   UNL     1     -10.362  17.390  67.419  1.00  0.00    -0.343 A  
HETATM    5  C   UNL     1     -10.338  17.869  66.104  1.00  0.00    -0.352 A  
HETATM    6  O   UNL     1      -9.997  19.161  65.815  1.00  0.00    -0.462 OA 
HETATM    7  C   UNL     1     -10.689  17.059  65.030  1.00  0.00     0.006 A  
HETATM    8  C   UNL     1     -11.098  15.748  65.257  1.00  0.00    -0.280 A  
HETATM    9  H   UNL     1      -9.981  19.487  64.922  1.00  0.00     0.000 HD 
HETATM   10  C   UNL     1     -11.141  15.228  66.560  1.00  0.00    -0.271 A  
HETATM   11  C   UNL     1     -10.748  16.053  67.628  1.00  0.00    -0.320 A  
BRANCH  10  12
HETATM   12  C   UNL     1     -11.627  13.817  66.834  1.00  0.00    -0.370 C  
HETATM   13  O   UNL     1     -12.770  13.848  67.703  1.00  0.00    -0.238 OA 
HETATM   14  H   UNL     1     -13.075  12.964  67.875  1.00  0.00     0.000 HD 
BRANCH  12  15
HETATM   15  C   UNL     1     -12.004  13.067  65.538  1.00  0.00    -0.424 C  
BRANCH  15  16
HETATM   16  N   UNL     1     -11.022  12.016  65.226  1.00  0.00    -0.300 NA 
HETATM   17  H   UNL     1     -10.285  12.353  64.608  1.00  0.00     0.000 HD 
BRANCH  16  18
HETATM   18  C   UNL     1     -10.485  11.450  66.459  1.00  0.00    -0.249 C  
BRANCH  18  19
HETATM   19  C   UNL     1      -9.691  10.187  66.152  1.00  0.00    -0.275 C  
BRANCH  19  20
HETATM   20  C   UNL     1      -9.814   9.193  67.305  1.00  0.00    -0.244 C  
BRANCH  20  21
HETATM   21  C   UNL     1     -10.505   7.918  66.844  1.00  0.00    -0.388 C  
BRANCH  21  22
HETATM   22  C   UNL     1     -10.699   6.942  67.998  1.00  0.00    -0.276 C  
BRANCH  22  23
HETATM   23  C   UNL     1      -9.867   7.369  69.197  1.00  0.00    -0.168 C  
BRANCH  23  24
HETATM   24  O   UNL     1     -10.270   6.597  70.322  1.00  0.00    -0.184 OA 
BRANCH  24  25
HETATM   25  C   UNL     1     -11.686   6.442  70.367  1.00  0.00    -0.321 C  
BRANCH  25  26
HETATM   26  C   UNL     1     -12.161   6.688  71.793  1.00  0.00    -0.400 C  
BRANCH  26  27
HETATM   27  C   UNL     1     -11.925   8.142  72.207  1.00  0.00    -0.434 C  
BRANCH  27  28
HETATM   28  C   UNL     1     -13.133   9.026  71.904  1.00  0.00    -0.459 C  
BRANCH  28  29
HETATM   29  C   UNL     1     -12.671  10.380  71.421  1.00  0.00    -0.551 A  
HETATM   30  C   UNL     1     -13.254  11.548  71.925  1.00  0.00    -0.479 A  
HETATM   31  C   UNL     1     -12.883  12.794  71.420  1.00  0.00    -0.371 A  
HETATM   32  C   UNL     1     -11.930  12.882  70.407  1.00  0.00    -0.329 A  
HETATM   33  C   UNL     1     -11.342  11.724  69.901  1.00  0.00    -0.201 A  
HETATM   34  C   UNL     1     -11.711  10.476  70.405  1.00  0.00    -0.434 A  
ENDBRANCH  28  29
ENDBRANCH  27  28
ENDBRANCH  26  27
ENDBRANCH  25  26
ENDBRANCH  24  25
ENDBRANCH  23  24
ENDBRANCH  22  23
ENDBRANCH  21  22
ENDBRANCH  20  21
ENDBRANCH  19  20
ENDBRANCH  18  19
ENDBRANCH  16  18
ENDBRANCH  15  16
ENDBRANCH  12  15
ENDBRANCH  10  12
ENDBRANCH   2   4
TORSDOF 16
ENDMDL
MODEL      171
REMARK 921   NORMALIZED FREE ENERGY PREDICTED BY IDOCK:   -4.84 KCAL/MOL
REMARK 922        TOTAL FREE ENERGY PREDICTED BY IDOCK:  -11.71 KCAL/MOL
REMARK 923 INTER-LIGAND FREE ENERGY PREDICTED BY IDOCK:   -9.13 KCAL/MOL
REMARK 924 INTRA-LIGAND FREE ENERGY PREDICTED BY IDOCK:   -2.58 KCAL/MOL
REMARK 927      BINDING AFFINITY PREDICTED BY RF-SCORE:    0.00 PKD
ROOT
HETATM    1  O   UNL     1      -6.852  12.500  66.492  1.00  0.00    -0.294 OA 
HETATM    2  C   UNL     1      -7.975  12.099  67.278  1.00  0.00    -0.176 C  
HETATM    3  H   UNL     1      -6.161  11.850  66.551  1.00  0.00     0.000 HD 
ENDROOT
BRANCH   2   4
HETATM    4  C   UNL     1      -9.070  13.129  67.185  1.00  0.00    -0.230 A  
HETATM    5  C   UNL     1      -9.794  13.362  66.010  1.00  0.00    -0.263 A  
HETATM    6  O   UNL     1      -9.506  12.707  64.845  1.00  0.00    -0.462 OA 
HETATM    7  C   UNL     1     -10.825  14.293  65.965  1.00  0.00    -0.303 A  
HETATM    8  C   UNL     1     -11.137  15.035  67.101  1.00  0.00    -0.332 A  
HETATM    9  H   UNL     1      -9.997  12.865  64.047  1.00  0.00     0.000 HD 
HETATM   10  C   UNL     1     -10.434  14.837  68.300  1.00  0.00    -0.241 A  
HETATM   11  C   UNL     1      -9.419  13.864  68.333  1.00  0.00    -0.211 A  
BRANCH  10  12
HETATM   12  C   UNL     1     -10.727  15.666  69.537  1.00  0.00    -0.271 C  
HETATM   13  O   UNL     1     -10.452  17.052  69.279  1.00  0.00    -0.323 OA 
HETATM   14  H   UNL     1     -10.636  17.571  70.054  1.00  0.00     0.000 HD 
BRANCH  12  15
HETATM   15  C   UNL     1     -12.193  15.524  70.000  1.00  0.00    -0.355 C  
BRANCH  15  16
HETATM   16  N   UNL     1     -12.298  15.604  71.466  1.00  0.00    -0.393 NA 
HETATM   17  H   UNL     1     -12.579  16.534  71.778  1.00  0.00     0.000 HD 
BRANCH  16  18
HETATM   18  C   UNL     1     -13.196  14.566  71.962  1.00  0.00    -0.362 C  
BRANCH  18  19
HETATM   19  C   UNL     1     -12.887  13.239  71.280  1.00  0.00    -0.398 C  
BRANCH  19  20
HETATM   20  C   UNL     1     -13.531  12.089  72.050  1.00  0.00    -0.364 C  
BRANCH  20  21
HETATM   21  C   UNL     1     -12.834  10.774  71.733  1.00  0.00    -0.528 C  
BRANCH  21  22
HETATM   22  C   UNL     1     -13.681   9.579  72.153  1.00  0.00    -0.447 C  
BRANCH  22  23
HETATM   23  C   UNL     1     -12.882   8.291  72.021  1.00  0.00    -0.340 C  
BRANCH  23  24
HETATM   24  O   UNL     1     -11.573   8.521  72.529  1.00  0.00    -0.372 OA 
BRANCH  24  25
HETATM   25  C   UNL     1     -10.931   7.299  72.886  1.00  0.00    -0.337 C  
BRANCH  25  26
HETATM   26  C   UNL     1      -9.448   7.409  72.556  1.00  0.00    -0.192 C  
BRANCH  26  27
HETATM   27  C   UNL     1      -9.193   8.529  71.545  1.00  0.00    -0.288 C  
BRANCH  27  28
HETATM   28  C   UNL     1      -8.990   7.987  70.132  1.00  0.00    -0.150 C  
BRANCH  28  29
HETATM   29  C   UNL     1      -9.696   8.874  69.135  1.00  0.00    -0.168 A  
HETATM   30  C   UNL     1     -10.519   9.917  69.573  1.00  0.00    -0.261 A  
HETATM   31  C   UNL     1     -11.234  10.685  68.653  1.00  0.00    -0.337 A  
HETATM   32  C   UNL     1     -11.133  10.414  67.290  1.00  0.00    -0.251 A  
HETATM   33  C   UNL     1     -10.313   9.379  66.843  1.00  0.00    -0.308 A  
HETATM   34  C   UNL     1      -9.597   8.610  67.761  1.00  0.00    -0.178 A  
ENDBRANCH  28  29
ENDBRANCH  27  28
ENDBRANCH  26  27
ENDBRANCH  25  26
ENDBRANCH  24  25
ENDBRANCH  23  24
ENDBRANCH  22  23
ENDBRANCH  21  22
ENDBRANCH  20  21
ENDBRANCH  19  20
ENDBRANCH  18  19
ENDBRANCH  16  18
ENDBRANCH  15  16
ENDBRANCH  12  15
ENDBRANCH  10  12
ENDBRANCH   2   4
TORSDOF 16
ENDMDL
MODEL      172
REMARK 921   NORMALIZED FREE ENERGY PREDICTED BY IDOCK:   -4.82 KCAL/MOL
REMARK 922        TOTAL FREE ENERGY PREDICTED BY IDOCK:  -11.68 KCAL/MOL
REMARK 923 INTER-LIGAND FREE ENERGY PREDICTED BY IDOCK:   -8.85 KCAL/MOL
REMARK 924 INTRA-LIGAND FREE ENERGY PREDICTED BY IDOCK:   -2.84 KCAL/MOL
REMARK 927      BINDING AFFINITY PREDICTED BY RF-SCORE:    0.00 PKD
ROOT
HETATM    1  O   UNL     1     -11.049  15.871  67.678  1.00  0.00    -0.323 OA 
HETATM    2  C   UNL     1     -11.212  16.207  69.057  1.00  0.00    -0.347 C  
HETATM    3  H   UNL     1     -10.743  16.627  67.190  1.00  0.00     0.000 HD 
ENDROOT
BRANCH   2   4
HETATM    4  C   UNL     1     -11.696  15.009  69.831  1.00  0.00    -0.343 A  
HETATM    5  C   UNL     1     -12.331  15.115  71.074  1.00  0.00    -0.347 A  
HETATM    6  O   UNL     1     -12.495  16.321  71.698  1.00  0.00    -0.575 OA 
HETATM    7  C   UNL     1     -12.801  13.994  71.747  1.00  0.00    -0.424 A  
HETATM    8  C   UNL     1     -12.620  12.728  71.195  1.00  0.00    -0.365 A  
HETATM    9  H   UNL     1     -12.925  16.393  72.542  1.00  0.00     0.000 HD 
HETATM   10  C   UNL     1     -11.984  12.576  69.952  1.00  0.00    -0.371 A  
HETATM   11  C   UNL     1     -11.549  13.726  69.271  1.00  0.00    -0.362 A  
BRANCH  10  12
HETATM   12  C   UNL     1     -11.736  11.204  69.353  1.00  0.00    -0.332 C  
HETATM   13  O   UNL     1     -12.832  10.327  69.656  1.00  0.00    -0.577 OA 
HETATM   14  H   UNL     1     -12.677   9.467  69.281  1.00  0.00     0.000 HD 
BRANCH  12  15
HETATM   15  C   UNL     1     -11.551  11.261  67.821  1.00  0.00    -0.230 C  
BRANCH  15  16
HETATM   16  N   UNL     1     -10.210  10.796  67.429  1.00  0.00    -0.195 NA 
HETATM   17  H   UNL     1      -9.606  10.647  68.238  1.00  0.00     0.000 HD 
BRANCH  16  18
HETATM   18  C   UNL     1     -10.317   9.601  66.599  1.00  0.00    -0.208 C  
BRANCH  18  19
HETATM   19  C   UNL     1     -10.581   8.381  67.473  1.00  0.00    -0.285 C  
BRANCH  19  20
HETATM   20  C   UNL     1      -9.872   7.157  66.897  1.00  0.00    -0.271 C  
BRANCH  20  21
HETATM   21  C   UNL     1     -10.114   5.935  67.772  1.00  0.00    -0.190 C  
BRANCH  21  22
HETATM   22  C   UNL     1     -11.035   6.261  68.941  1.00  0.00    -0.435 C  
BRANCH  22  23
HETATM   23  C   UNL     1     -10.728   5.356  70.124  1.00  0.00    -0.225 C  
BRANCH  23  24
HETATM   24  O   UNL     1     -11.355   5.898  71.279  1.00  0.00    -0.261 OA 
BRANCH  24  25
HETATM   25  C   UNL     1     -12.040   7.112  70.979  1.00  0.00    -0.350 C  
BRANCH  25  26
HETATM   26  C   UNL     1     -11.771   8.116  72.093  1.00  0.00    -0.418 C  
BRANCH  26  27
HETATM   27  C   UNL     1     -10.681   7.606  73.039  1.00  0.00    -0.449 C  
BRANCH  27  28
HETATM   28  C   UNL     1      -9.449   8.508  73.028  1.00  0.00    -0.127 C  
BRANCH  28  29
HETATM   29  C   UNL     1      -8.652   8.275  71.767  1.00  0.00    -0.213 A  
HETATM   30  C   UNL     1      -8.619   9.247  70.760  1.00  0.00    -0.254 A  
HETATM   31  C   UNL     1      -7.949   8.997  69.563  1.00  0.00    -0.099 A  
HETATM   32  C   UNL     1      -7.311   7.775  69.361  1.00  0.00    -0.086 A  
HETATM   33  C   UNL     1      -7.335   6.802  70.359  1.00  0.00    -0.081 A  
HETATM   34  C   UNL     1      -8.004   7.049  71.558  1.00  0.00    -0.103 A  
ENDBRANCH  28  29
ENDBRANCH  27  28
ENDBRANCH  26  27
ENDBRANCH  25  26
ENDBRANCH  24  25
ENDBRANCH  23  24
ENDBRANCH  22  23
ENDBRANCH  21  22
ENDBRANCH  20  21
ENDBRANCH  19  20
ENDBRANCH  18  19
ENDBRANCH  16  18
ENDBRANCH  15  16
ENDBRANCH  12  15
ENDBRANCH  10  12
ENDBRANCH   2   4
TORSDOF 16
ENDMDL
MODEL      173
REMARK 921   NORMALIZED FREE ENERGY PREDICTED BY IDOCK:   -4.82 KCAL/MOL
REMARK 922        TOTAL FREE ENERGY PREDICTED BY IDOCK:  -11.68 KCAL/MOL
REMARK 923 INTER-LIGAND FREE ENERGY PREDICTED BY IDOCK:   -8.53 KCAL/MOL
REMARK 924 INTRA-LIGAND FREE ENERGY PREDICTED BY IDOCK:   -3.15 KCAL/MOL
REMARK 927      BINDING AFFINITY PREDICTED BY RF-SCORE:    0.00 PKD
ROOT
HETATM    1  O   UNL     1     -11.528   6.429  68.822  1.00  0.00    -0.572 OA 
HETATM    2  C   UNL     1     -11.150   6.768  67.487  1.00  0.00    -0.265 C  
HETATM    3  H   UNL     1     -12.383   6.013  68.826  1.00  0.00     0.000 HD 
ENDROOT
BRANCH   2   4
HETATM    4  C   UNL     1      -9.796   7.427  67.481  1.00  0.00    -0.203 A  
HETATM    5  C   UNL     1      -8.650   6.809  67.996  1.00  0.00    -0.122 A  
HETATM    6  O   UNL     1      -8.703   5.584  68.602  1.00  0.00    -0.108 OA 
HETATM    7  C   UNL     1      -7.406   7.426  67.943  1.00  0.00    -0.093 A  
HETATM    8  C   UNL     1      -7.288   8.698  67.388  1.00  0.00    -0.089 A  
HETATM    9  H   UNL     1      -7.926   5.164  68.952  1.00  0.00     0.000 HD 
HETATM   10  C   UNL     1      -8.412   9.356  66.864  1.00  0.00    -0.128 A  
HETATM   11  C   UNL     1      -9.654   8.698  66.895  1.00  0.00    -0.254 A  
BRANCH  10  12
HETATM   12  C   UNL     1      -8.315  10.760  66.296  1.00  0.00    -0.160 C  
HETATM   13  O   UNL     1      -7.474  10.765  65.132  1.00  0.00    -0.346 OA 
HETATM   14  H   UNL     1      -7.413  11.644  64.776  1.00  0.00     0.000 HD 
BRANCH  12  15
HETATM   15  C   UNL     1      -9.697  11.333  65.917  1.00  0.00    -0.224 C  
BRANCH  15  16
HETATM   16  N   UNL     1      -9.743  11.717  64.496  1.00  0.00    -0.398 NA 
HETATM   17  H   UNL     1      -9.024  11.244  63.949  1.00  0.00     0.000 HD 
BRANCH  16  18
HETATM   18  C   UNL     1     -11.080  11.486  63.958  1.00  0.00    -0.365 C  
BRANCH  18  19
HETATM   19  C   UNL     1     -11.684  12.799  63.477  1.00  0.00    -0.597 C  
BRANCH  19  20
HETATM   20  C   UNL     1     -12.259  13.578  64.658  1.00  0.00    -0.450 C  
BRANCH  20  21
HETATM   21  C   UNL     1     -11.536  14.906  64.829  1.00  0.00    -0.410 C  
BRANCH  21  22
HETATM   22  C   UNL     1     -11.007  15.072  66.249  1.00  0.00    -0.338 C  
BRANCH  22  23
HETATM   23  C   UNL     1     -11.894  14.326  67.234  1.00  0.00    -0.413 C  
BRANCH  23  24
HETATM   24  O   UNL     1     -11.059  13.622  68.145  1.00  0.00    -0.240 OA 
BRANCH  24  25
HETATM   25  C   UNL     1     -11.633  13.577  69.449  1.00  0.00    -0.312 C  
BRANCH  25  26
HETATM   26  C   UNL     1     -12.163  12.172  69.704  1.00  0.00    -0.183 C  
BRANCH  26  27
HETATM   27  C   UNL     1     -11.051  11.132  69.561  1.00  0.00    -0.311 C  
BRANCH  27  28
HETATM   28  C   UNL     1     -11.478   9.763  70.088  1.00  0.00    -0.272 C  
BRANCH  28  29
HETATM   29  C   UNL     1     -10.347   9.138  70.870  1.00  0.00    -0.349 A  
HETATM   30  C   UNL     1     -10.615   8.340  71.988  1.00  0.00    -0.365 A  
HETATM   31  C   UNL     1      -9.568   7.830  72.755  1.00  0.00    -0.281 A  
HETATM   32  C   UNL     1      -8.247   8.115  72.414  1.00  0.00    -0.206 A  
HETATM   33  C   UNL     1      -7.971   8.907  71.300  1.00  0.00    -0.172 A  
HETATM   34  C   UNL     1      -9.016   9.418  70.530  1.00  0.00    -0.303 A  
ENDBRANCH  28  29
ENDBRANCH  27  28
ENDBRANCH  26  27
ENDBRANCH  25  26
ENDBRANCH  24  25
ENDBRANCH  23  24
ENDBRANCH  22  23
ENDBRANCH  21  22
ENDBRANCH  20  21
ENDBRANCH  19  20
ENDBRANCH  18  19
ENDBRANCH  16  18
ENDBRANCH  15  16
ENDBRANCH  12  15
ENDBRANCH  10  12
ENDBRANCH   2   4
TORSDOF 16
ENDMDL
MODEL      174
REMARK 921   NORMALIZED FREE ENERGY PREDICTED BY IDOCK:   -4.82 KCAL/MOL
REMARK 922        TOTAL FREE ENERGY PREDICTED BY IDOCK:  -11.68 KCAL/MOL
REMARK 923 INTER-LIGAND FREE ENERGY PREDICTED BY IDOCK:   -9.83 KCAL/MOL
REMARK 924 INTRA-LIGAND FREE ENERGY PREDICTED BY IDOCK:   -1.85 KCAL/MOL
REMARK 927      BINDING AFFINITY PREDICTED BY RF-SCORE:    0.00 PKD
ROOT
HETATM    1  O   UNL     1     -12.150  12.548  65.156  1.00  0.00    -0.417 OA 
HETATM    2  C   UNL     1     -12.123  13.846  64.560  1.00  0.00    -0.443 C  
HETATM    3  H   UNL     1     -12.663  11.952  64.622  1.00  0.00     0.000 HD 
ENDROOT
BRANCH   2   4
HETATM    4  C   UNL     1     -11.312  14.791  65.406  1.00  0.00    -0.356 A  
HETATM    5  C   UNL     1     -11.060  16.116  65.034  1.00  0.00    -0.294 A  
HETATM    6  O   UNL     1     -11.485  16.621  63.836  1.00  0.00    -1.604 OA 
HETATM    7  C   UNL     1     -10.338  16.977  65.854  1.00  0.00    -0.310 A  
HETATM    8  C   UNL     1      -9.829  16.514  67.064  1.00  0.00    -0.259 A  
HETATM    9  H   UNL     1     -11.314  17.521  63.583  1.00  0.00     0.000 HD 
HETATM   10  C   UNL     1     -10.054  15.190  67.475  1.00  0.00    -0.232 A  
HETATM   11  C   UNL     1     -10.817  14.348  66.647  1.00  0.00    -0.304 A  
BRANCH  10  12
HETATM   12  C   UNL     1      -9.471  14.652  68.768  1.00  0.00    -0.199 C  
HETATM   13  O   UNL     1     -10.372  13.703  69.360  1.00  0.00    -0.428 OA 
HETATM   14  H   UNL     1     -10.006  13.366  70.169  1.00  0.00     0.000 HD 
BRANCH  12  15
HETATM   15  C   UNL     1      -8.101  13.973  68.551  1.00  0.00    -0.139 C  
BRANCH  15  16
HETATM   16  N   UNL     1      -8.132  12.564  68.976  1.00  0.00    -0.323 NA 
HETATM   17  H   UNL     1      -9.081  12.244  69.171  1.00  0.00     0.000 HD 
BRANCH  16  18
HETATM   18  C   UNL     1      -7.468  11.726  67.982  1.00  0.00    -0.101 C  
BRANCH  18  19
HETATM   19  C   UNL     1      -7.205  10.340  68.559  1.00  0.00    -0.080 C  
BRANCH  19  20
HETATM   20  C   UNL     1      -8.213   9.338  68.000  1.00  0.00    -0.115 C  
BRANCH  20  21
HETATM   21  C   UNL     1      -7.739   7.911  68.238  1.00  0.00    -0.121 C  
BRANCH  21  22
HETATM   22  C   UNL     1      -7.901   7.055  66.987  1.00  0.00    -0.108 C  
BRANCH  22  23
HETATM   23  C   UNL     1      -9.227   7.360  66.306  1.00  0.00    -0.135 C  
BRANCH  23  24
HETATM   24  O   UNL     1     -10.078   6.231  66.456  1.00  0.00    -0.167 OA 
BRANCH  24  25
HETATM   25  C   UNL     1     -11.099   6.473  67.421  1.00  0.00    -0.327 C  
BRANCH  25  26
HETATM   26  C   UNL     1     -10.687   5.835  68.742  1.00  0.00    -0.318 C  
BRANCH  26  27
HETATM   27  C   UNL     1     -11.474   6.433  69.909  1.00  0.00    -0.483 C  
BRANCH  27  28
HETATM   28  C   UNL     1     -10.620   7.380  70.750  1.00  0.00    -0.234 C  
BRANCH  28  29
HETATM   29  C   UNL     1     -11.300   8.724  70.861  1.00  0.00    -0.322 A  
HETATM   30  C   UNL     1     -12.099   9.024  71.969  1.00  0.00    -0.440 A  
HETATM   31  C   UNL     1     -12.790  10.234  72.032  1.00  0.00    -0.457 A  
HETATM   32  C   UNL     1     -12.691  11.150  70.987  1.00  0.00    -0.476 A  
HETATM   33  C   UNL     1     -11.894  10.861  69.879  1.00  0.00    -0.427 A  
HETATM   34  C   UNL     1     -11.201   9.652  69.815  1.00  0.00    -0.208 A  
ENDBRANCH  28  29
ENDBRANCH  27  28
ENDBRANCH  26  27
ENDBRANCH  25  26
ENDBRANCH  24  25
ENDBRANCH  23  24
ENDBRANCH  22  23
ENDBRANCH  21  22
ENDBRANCH  20  21
ENDBRANCH  19  20
ENDBRANCH  18  19
ENDBRANCH  16  18
ENDBRANCH  15  16
ENDBRANCH  12  15
ENDBRANCH  10  12
ENDBRANCH   2   4
TORSDOF 16
ENDMDL
MODEL      175
REMARK 921   NORMALIZED FREE ENERGY PREDICTED BY IDOCK:   -4.79 KCAL/MOL
REMARK 922        TOTAL FREE ENERGY PREDICTED BY IDOCK:  -11.63 KCAL/MOL
REMARK 923 INTER-LIGAND FREE ENERGY PREDICTED BY IDOCK:   -8.91 KCAL/MOL
REMARK 924 INTRA-LIGAND FREE ENERGY PREDICTED BY IDOCK:   -2.72 KCAL/MOL
REMARK 927      BINDING AFFINITY PREDICTED BY RF-SCORE:    0.00 PKD
ROOT
HETATM    1  O   UNL     1      -8.049   8.817  73.283  1.00  0.00    -0.407 OA 
HETATM    2  C   UNL     1      -7.664   7.490  72.921  1.00  0.00    -0.092 C  
HETATM    3  H   UNL     1      -7.381   9.215  73.829  1.00  0.00     0.000 HD 
ENDROOT
BRANCH   2   4
HETATM    4  C   UNL     1      -8.722   6.859  72.056  1.00  0.00    -0.126 A  
HETATM    5  C   UNL     1      -9.982   6.493  72.544  1.00  0.00    -0.170 A  
HETATM    6  O   UNL     1     -10.310   6.630  73.865  1.00  0.00    -0.311 OA 
HETATM    7  C   UNL     1     -10.953   5.946  71.713  1.00  0.00    -0.327 A  
HETATM    8  C   UNL     1     -10.668   5.730  70.367  1.00  0.00    -0.372 A  
HETATM    9  H   UNL     1     -11.165   6.382  74.197  1.00  0.00     0.000 HD 
HETATM   10  C   UNL     1      -9.416   6.077  69.836  1.00  0.00    -0.175 A  
HETATM   11  C   UNL     1      -8.462   6.663  70.687  1.00  0.00    -0.138 A  
BRANCH  10  12
HETATM   12  C   UNL     1      -9.069   5.809  68.384  1.00  0.00    -0.118 C  
HETATM   13  O   UNL     1      -8.321   4.587  68.272  1.00  0.00    -0.090 OA 
HETATM   14  H   UNL     1      -8.104   4.419  67.362  1.00  0.00     0.000 HD 
BRANCH  12  15
HETATM   15  C   UNL     1     -10.325   5.709  67.492  1.00  0.00    -0.222 C  
BRANCH  15  16
HETATM   16  N   UNL     1     -10.432   6.869  66.591  1.00  0.00    -0.487 NA 
HETATM   17  H   UNL     1     -11.097   6.705  65.836  1.00  0.00     0.000 HD 
BRANCH  16  18
HETATM   18  C   UNL     1     -10.758   8.069  67.356  1.00  0.00    -0.190 C  
BRANCH  18  19
HETATM   19  C   UNL     1     -10.606   9.304  66.478  1.00  0.00    -0.117 C  
BRANCH  19  20
HETATM   20  C   UNL     1      -9.150   9.764  66.464  1.00  0.00    -0.182 C  
BRANCH  20  21
HETATM   21  C   UNL     1      -9.020  11.114  65.773  1.00  0.00    -0.207 C  
BRANCH  21  22
HETATM   22  C   UNL     1      -9.619  11.083  64.372  1.00  0.00    -0.301 C  
BRANCH  22  23
HETATM   23  C   UNL     1     -10.537  12.278  64.164  1.00  0.00    -0.376 C  
BRANCH  23  24
HETATM   24  O   UNL     1     -11.471  12.319  65.235  1.00  0.00    -0.331 OA 
BRANCH  24  25
HETATM   25  C   UNL     1     -11.968  13.639  65.442  1.00  0.00    -0.378 C  
BRANCH  25  26
HETATM   26  C   UNL     1     -12.004  13.921  66.939  1.00  0.00    -0.467 C  
BRANCH  26  27
HETATM   27  C   UNL     1     -11.757  12.644  67.743  1.00  0.00    -0.412 C  
BRANCH  27  28
HETATM   28  C   UNL     1     -11.618  12.928  69.238  1.00  0.00    -0.368 C  
BRANCH  28  29
HETATM   29  C   UNL     1     -11.804  11.652  70.024  1.00  0.00    -0.435 A  
HETATM   30  C   UNL     1     -12.805  11.558  70.996  1.00  0.00    -0.358 A  
HETATM   31  C   UNL     1     -12.923  10.408  71.777  1.00  0.00    -0.580 A  
HETATM   32  C   UNL     1     -12.040   9.345  71.592  1.00  0.00    -0.462 A  
HETATM   33  C   UNL     1     -11.042   9.428  70.623  1.00  0.00    -0.351 A  
HETATM   34  C   UNL     1     -10.922  10.577  69.841  1.00  0.00    -0.359 A  
ENDBRANCH  28  29
ENDBRANCH  27  28
ENDBRANCH  26  27
ENDBRANCH  25  26
ENDBRANCH  24  25
ENDBRANCH  23  24
ENDBRANCH  22  23
ENDBRANCH  21  22
ENDBRANCH  20  21
ENDBRANCH  19  20
ENDBRANCH  18  19
ENDBRANCH  16  18
ENDBRANCH  15  16
ENDBRANCH  12  15
ENDBRANCH  10  12
ENDBRANCH   2   4
TORSDOF 16
ENDMDL
MODEL      176
REMARK 921   NORMALIZED FREE ENERGY PREDICTED BY IDOCK:   -4.79 KCAL/MOL
REMARK 922        TOTAL FREE ENERGY PREDICTED BY IDOCK:  -11.61 KCAL/MOL
REMARK 923 INTER-LIGAND FREE ENERGY PREDICTED BY IDOCK:   -7.79 KCAL/MOL
REMARK 924 INTRA-LIGAND FREE ENERGY PREDICTED BY IDOCK:   -3.81 KCAL/MOL
REMARK 927      BINDING AFFINITY PREDICTED BY RF-SCORE:    0.00 PKD
ROOT
HETATM    1  O   UNL     1     -11.234   8.700  71.947  1.00  0.00    -0.296 OA 
HETATM    2  C   UNL     1     -10.732   7.565  71.241  1.00  0.00    -0.225 C  
HETATM    3  H   UNL     1     -11.264   8.520  72.880  1.00  0.00     0.000 HD 
ENDROOT
BRANCH   2   4
HETATM    4  C   UNL     1     -10.684   7.851  69.763  1.00  0.00    -0.233 A  
HETATM    5  C   UNL     1     -10.590   6.841  68.798  1.00  0.00    -0.226 A  
HETATM    6  O   UNL     1     -10.468   5.523  69.144  1.00  0.00    -0.238 OA 
HETATM    7  C   UNL     1     -10.586   7.133  67.439  1.00  0.00    -0.372 A  
HETATM    8  C   UNL     1     -10.653   8.458  67.016  1.00  0.00    -0.316 A  
HETATM    9  H   UNL     1     -10.403   4.838  68.490  1.00  0.00     0.000 HD 
HETATM   10  C   UNL     1     -10.744   9.502  67.950  1.00  0.00    -0.285 A  
HETATM   11  C   UNL     1     -10.783   9.182  69.318  1.00  0.00    -0.199 A  
BRANCH  10  12
HETATM   12  C   UNL     1     -10.773  10.955  67.513  1.00  0.00    -0.252 C  
HETATM   13  O   UNL     1     -12.126  11.434  67.478  1.00  0.00    -0.592 OA 
HETATM   14  H   UNL     1     -12.144  12.344  67.205  1.00  0.00     0.000 HD 
BRANCH  12  15
HETATM   15  C   UNL     1      -9.945  11.862  68.448  1.00  0.00    -0.203 C  
BRANCH  15  16
HETATM   16  N   UNL     1     -10.724  13.034  68.881  1.00  0.00    -0.374 NA 
HETATM   17  H   UNL     1     -10.756  13.117  69.898  1.00  0.00     0.000 HD 
BRANCH  16  18
HETATM   18  C   UNL     1     -10.204  14.242  68.250  1.00  0.00    -0.244 C  
BRANCH  18  19
HETATM   19  C   UNL     1     -11.300  14.919  67.437  1.00  0.00    -0.354 C  
BRANCH  19  20
HETATM   20  C   UNL     1     -10.773  15.299  66.055  1.00  0.00    -0.324 C  
BRANCH  20  21
HETATM   21  C   UNL     1     -10.523  14.054  65.215  1.00  0.00    -0.398 C  
BRANCH  21  22
HETATM   22  C   UNL     1     -11.827  13.460  64.697  1.00  0.00    -0.430 C  
BRANCH  22  23
HETATM   23  C   UNL     1     -11.569  12.621  63.455  1.00  0.00    -0.514 C  
BRANCH  23  24
HETATM   24  O   UNL     1     -11.121  11.336  63.867  1.00  0.00    -0.380 OA 
BRANCH  24  25
HETATM   25  C   UNL     1      -9.907  10.972  63.213  1.00  0.00    -0.368 C  
BRANCH  25  26
HETATM   26  C   UNL     1      -9.223   9.878  64.022  1.00  0.00    -0.302 C  
BRANCH  26  27
HETATM   27  C   UNL     1      -8.218  10.473  65.009  1.00  0.00    -0.120 C  
BRANCH  27  28
HETATM   28  C   UNL     1      -6.972   9.601  65.151  1.00  0.00    -0.106 C  
BRANCH  28  29
HETATM   29  C   UNL     1      -6.905   9.022  66.544  1.00  0.00    -0.079 A  
HETATM   30  C   UNL     1      -6.926   7.636  66.737  1.00  0.00    -0.079 A  
HETATM   31  C   UNL     1      -6.946   7.106  68.027  1.00  0.00    -0.079 A  
HETATM   32  C   UNL     1      -6.947   7.955  69.132  1.00  0.00    -0.057 A  
HETATM   33  C   UNL     1      -6.922   9.337  68.949  1.00  0.00    -0.064 A  
HETATM   34  C   UNL     1      -6.902   9.870  67.660  1.00  0.00    -0.084 A  
ENDBRANCH  28  29
ENDBRANCH  27  28
ENDBRANCH  26  27
ENDBRANCH  25  26
ENDBRANCH  24  25
ENDBRANCH  23  24
ENDBRANCH  22  23
ENDBRANCH  21  22
ENDBRANCH  20  21
ENDBRANCH  19  20
ENDBRANCH  18  19
ENDBRANCH  16  18
ENDBRANCH  15  16
ENDBRANCH  12  15
ENDBRANCH  10  12
ENDBRANCH   2   4
TORSDOF 16
ENDMDL
MODEL      177
REMARK 921   NORMALIZED FREE ENERGY PREDICTED BY IDOCK:   -4.78 KCAL/MOL
REMARK 922        TOTAL FREE ENERGY PREDICTED BY IDOCK:  -11.60 KCAL/MOL
REMARK 923 INTER-LIGAND FREE ENERGY PREDICTED BY IDOCK:   -8.30 KCAL/MOL
REMARK 924 INTRA-LIGAND FREE ENERGY PREDICTED BY IDOCK:   -3.30 KCAL/MOL
REMARK 927      BINDING AFFINITY PREDICTED BY RF-SCORE:    0.00 PKD
ROOT
HETATM    1  O   UNL     1      -9.589   3.718  68.281  1.00  0.00    -0.164 OA 
HETATM    2  C   UNL     1      -9.823   5.118  68.433  1.00  0.00    -0.152 C  
HETATM    3  H   UNL     1      -9.219   3.538  67.424  1.00  0.00     0.000 HD 
ENDROOT
BRANCH   2   4
HETATM    4  C   UNL     1     -10.410   5.404  69.790  1.00  0.00    -0.375 A  
HETATM    5  C   UNL     1      -9.915   4.829  70.966  1.00  0.00    -0.209 A  
HETATM    6  O   UNL     1      -8.900   3.913  70.948  1.00  0.00    -0.075 OA 
HETATM    7  C   UNL     1     -10.454   5.140  72.209  1.00  0.00    -0.277 A  
HETATM    8  C   UNL     1     -11.526   6.025  72.297  1.00  0.00    -0.364 A  
HETATM    9  H   UNL     1      -8.564   3.522  71.746  1.00  0.00     0.000 HD 
HETATM   10  C   UNL     1     -12.056   6.622  71.142  1.00  0.00    -0.391 A  
HETATM   11  C   UNL     1     -11.473   6.320  69.899  1.00  0.00    -0.459 A  
BRANCH  10  12
HETATM   12  C   UNL     1     -13.252   7.553  71.209  1.00  0.00    -0.257 C  
HETATM   13  O   UNL     1     -14.263   6.998  72.065  1.00  0.00    -0.577 OA 
HETATM   14  H   UNL     1     -15.012   7.581  72.108  1.00  0.00     0.000 HD 
BRANCH  12  15
HETATM   15  C   UNL     1     -12.871   8.955  71.729  1.00  0.00    -0.365 C  
BRANCH  15  16
HETATM   16  N   UNL     1     -13.328  10.008  70.806  1.00  0.00    -0.578 NA 
HETATM   17  H   UNL     1     -13.805  10.764  71.296  1.00  0.00     0.000 HD 
BRANCH  16  18
HETATM   18  C   UNL     1     -12.208  10.494  70.007  1.00  0.00    -0.250 C  
BRANCH  18  19
HETATM   19  C   UNL     1     -10.899   9.935  70.548  1.00  0.00    -0.391 C  
BRANCH  19  20
HETATM   20  C   UNL     1      -9.937   9.640  69.399  1.00  0.00    -0.207 C  
BRANCH  20  21
HETATM   21  C   UNL     1      -8.514  10.025  69.778  1.00  0.00    -0.189 C  
BRANCH  21  22
HETATM   22  C   UNL     1      -7.491   9.296  68.915  1.00  0.00    -0.075 C  
BRANCH  22  23
HETATM   23  C   UNL     1      -8.189   8.321  67.979  1.00  0.00    -0.128 C  
BRANCH  23  24
HETATM   24  O   UNL     1      -7.440   8.240  66.773  1.00  0.00    -0.084 OA 
BRANCH  24  25
HETATM   25  C   UNL     1      -8.291   8.103  65.638  1.00  0.00    -0.143 C  
BRANCH  25  26
HETATM   26  C   UNL     1      -9.657   8.686  65.977  1.00  0.00    -0.265 C  
BRANCH  26  27
HETATM   27  C   UNL     1      -9.910   9.980  65.201  1.00  0.00    -0.388 C  
BRANCH  27  28
HETATM   28  C   UNL     1      -9.056  11.134  65.721  1.00  0.00    -0.222 C  
BRANCH  28  29
HETATM   29  C   UNL     1      -9.876  12.004  66.645  1.00  0.00    -0.220 A  
HETATM   30  C   UNL     1     -11.265  12.083  66.496  1.00  0.00    -0.387 A  
HETATM   31  C   UNL     1     -12.011  12.948  67.297  1.00  0.00    -0.371 A  
HETATM   32  C   UNL     1     -11.374  13.742  68.249  1.00  0.00    -0.317 A  
HETATM   33  C   UNL     1      -9.991  13.667  68.407  1.00  0.00    -0.235 A  
HETATM   34  C   UNL     1      -9.243  12.803  67.608  1.00  0.00    -0.192 A  
ENDBRANCH  28  29
ENDBRANCH  27  28
ENDBRANCH  26  27
ENDBRANCH  25  26
ENDBRANCH  24  25
ENDBRANCH  23  24
ENDBRANCH  22  23
ENDBRANCH  21  22
ENDBRANCH  20  21
ENDBRANCH  19  20
ENDBRANCH  18  19
ENDBRANCH  16  18
ENDBRANCH  15  16
ENDBRANCH  12  15
ENDBRANCH  10  12
ENDBRANCH   2   4
TORSDOF 16
ENDMDL
MODEL      178
REMARK 921   NORMALIZED FREE ENERGY PREDICTED BY IDOCK:   -4.78 KCAL/MOL
REMARK 922        TOTAL FREE ENERGY PREDICTED BY IDOCK:  -11.59 KCAL/MOL
REMARK 923 INTER-LIGAND FREE ENERGY PREDICTED BY IDOCK:  -10.14 KCAL/MOL
REMARK 924 INTRA-LIGAND FREE ENERGY PREDICTED BY IDOCK:   -1.45 KCAL/MOL
REMARK 927      BINDING AFFINITY PREDICTED BY RF-SCORE:    0.00 PKD
ROOT
HETATM    1  O   UNL     1     -12.441  16.251  71.679  1.00  0.00    -0.575 OA 
HETATM    2  C   UNL     1     -11.603  15.190  71.219  1.00  0.00    -0.358 C  
HETATM    3  H   UNL     1     -12.633  16.141  72.603  1.00  0.00     0.000 HD 
ENDROOT
BRANCH   2   4
HETATM    4  C   UNL     1     -11.298  15.365  69.754  1.00  0.00    -0.317 A  
HETATM    5  C   UNL     1     -10.811  16.563  69.219  1.00  0.00    -0.326 A  
HETATM    6  O   UNL     1     -10.640  17.679  69.990  1.00  0.00    -0.088 OA 
HETATM    7  C   UNL     1     -10.503  16.683  67.869  1.00  0.00    -0.322 A  
HETATM    8  C   UNL     1     -10.702  15.601  67.015  1.00  0.00    -0.314 A  
HETATM    9  H   UNL     1     -10.310  18.493  69.627  1.00  0.00     0.000 HD 
HETATM   10  C   UNL     1     -11.194  14.382  67.509  1.00  0.00    -0.329 A  
HETATM   11  C   UNL     1     -11.464  14.272  68.884  1.00  0.00    -0.318 A  
BRANCH  10  12
HETATM   12  C   UNL     1     -11.462  13.205  66.589  1.00  0.00    -0.348 C  
HETATM   13  O   UNL     1     -12.062  12.129  67.326  1.00  0.00    -0.565 OA 
HETATM   14  H   UNL     1     -12.230  11.392  66.750  1.00  0.00     0.000 HD 
BRANCH  12  15
HETATM   15  C   UNL     1     -12.388  13.583  65.413  1.00  0.00    -0.478 C  
BRANCH  15  16
HETATM   16  N   UNL     1     -13.148  12.416  64.937  1.00  0.00    -0.657 NA 
HETATM   17  H   UNL     1     -14.111  12.656  64.703  1.00  0.00     0.000 HD 
BRANCH  16  18
HETATM   18  C   UNL     1     -12.454  11.789  63.816  1.00  0.00    -0.327 C  
BRANCH  18  19
HETATM   19  C   UNL     1     -11.323  12.689  63.333  1.00  0.00    -0.456 C  
BRANCH  19  20
HETATM   20  C   UNL     1      -9.993  11.940  63.389  1.00  0.00    -0.435 C  
BRANCH  20  21
HETATM   21  C   UNL     1     -10.158  10.605  64.102  1.00  0.00    -0.402 C  
BRANCH  21  22
HETATM   22  C   UNL     1      -8.808  10.003  64.474  1.00  0.00    -0.231 C  
BRANCH  22  23
HETATM   23  C   UNL     1      -8.915   9.236  65.783  1.00  0.00    -0.192 C  
BRANCH  23  24
HETATM   24  O   UNL     1     -10.110   9.636  66.442  1.00  0.00    -0.240 OA 
BRANCH  24  25
HETATM   25  C   UNL     1     -10.383   8.812  67.572  1.00  0.00    -0.268 C  
BRANCH  25  26
HETATM   26  C   UNL     1     -10.249   7.352  67.158  1.00  0.00    -0.347 C  
BRANCH  26  27
HETATM   27  C   UNL     1     -10.854   6.424  68.213  1.00  0.00    -0.384 C  
BRANCH  27  28
HETATM   28  C   UNL     1      -9.781   5.773  69.084  1.00  0.00    -0.189 C  
BRANCH  28  29
HETATM   29  C   UNL     1     -10.233   5.748  70.524  1.00  0.00    -0.284 A  
HETATM   30  C   UNL     1     -10.970   6.812  71.054  1.00  0.00    -0.297 A  
HETATM   31  C   UNL     1     -11.318   6.824  72.405  1.00  0.00    -0.306 A  
HETATM   32  C   UNL     1     -10.928   5.776  73.236  1.00  0.00    -0.292 A  
HETATM   33  C   UNL     1     -10.196   4.709  72.717  1.00  0.00    -0.232 A  
HETATM   34  C   UNL     1      -9.848   4.694  71.366  1.00  0.00    -0.264 A  
ENDBRANCH  28  29
ENDBRANCH  27  28
ENDBRANCH  26  27
ENDBRANCH  25  26
ENDBRANCH  24  25
ENDBRANCH  23  24
ENDBRANCH  22  23
ENDBRANCH  21  22
ENDBRANCH  20  21
ENDBRANCH  19  20
ENDBRANCH  18  19
ENDBRANCH  16  18
ENDBRANCH  15  16
ENDBRANCH  12  15
ENDBRANCH  10  12
ENDBRANCH   2   4
TORSDOF 16
ENDMDL
MODEL      179
REMARK 921   NORMALIZED FREE ENERGY PREDICTED BY IDOCK:   -4.78 KCAL/MOL
REMARK 922        TOTAL FREE ENERGY PREDICTED BY IDOCK:  -11.59 KCAL/MOL
REMARK 923 INTER-LIGAND FREE ENERGY PREDICTED BY IDOCK:   -9.26 KCAL/MOL
REMARK 924 INTRA-LIGAND FREE ENERGY PREDICTED BY IDOCK:   -2.33 KCAL/MOL
REMARK 927      BINDING AFFINITY PREDICTED BY RF-SCORE:    0.00 PKD
ROOT
HETATM    1  O   UNL     1      -7.849   9.206  71.368  1.00  0.00    -0.310 OA 
HETATM    2  C   UNL     1      -8.351   9.293  70.033  1.00  0.00    -0.168 C  
HETATM    3  H   UNL     1      -7.158   9.846  71.501  1.00  0.00     0.000 HD 
ENDROOT
BRANCH   2   4
HETATM    4  C   UNL     1      -9.445   8.279  69.822  1.00  0.00    -0.163 A  
HETATM    5  C   UNL     1      -9.683   7.668  68.586  1.00  0.00    -0.155 A  
HETATM    6  O   UNL     1      -8.971   8.003  67.467  1.00  0.00    -0.136 OA 
HETATM    7  C   UNL     1     -10.676   6.708  68.430  1.00  0.00    -0.314 A  
HETATM    8  C   UNL     1     -11.475   6.356  69.515  1.00  0.00    -0.412 A  
HETATM    9  H   UNL     1      -9.133   7.588  66.628  1.00  0.00     0.000 HD 
HETATM   10  C   UNL     1     -11.273   6.948  70.772  1.00  0.00    -0.338 A  
HETATM   11  C   UNL     1     -10.239   7.890  70.916  1.00  0.00    -0.213 A  
BRANCH  10  12
HETATM   12  C   UNL     1     -12.160   6.613  71.957  1.00  0.00    -0.310 C  
HETATM   13  O   UNL     1     -11.599   7.155  73.163  1.00  0.00    -0.549 OA 
HETATM   14  H   UNL     1     -12.155   6.945  73.905  1.00  0.00     0.000 HD 
BRANCH  12  15
HETATM   15  C   UNL     1     -13.594   7.158  71.784  1.00  0.00    -0.263 C  
BRANCH  15  16
HETATM   16  N   UNL     1     -13.596   8.428  71.039  1.00  0.00    -0.533 NA 
HETATM   17  H   UNL     1     -14.415   8.518  70.438  1.00  0.00     0.000 HD 
BRANCH  16  18
HETATM   18  C   UNL     1     -13.470   9.551  71.963  1.00  0.00    -0.443 C  
BRANCH  18  19
HETATM   19  C   UNL     1     -12.475  10.567  71.418  1.00  0.00    -0.516 C  
BRANCH  19  20
HETATM   20  C   UNL     1     -12.873  10.989  70.005  1.00  0.00    -0.050 C  
BRANCH  20  21
HETATM   21  C   UNL     1     -11.690  10.867  69.056  1.00  0.00    -0.391 C  
BRANCH  21  22
HETATM   22  C   UNL     1     -10.960  12.196  68.902  1.00  0.00    -0.269 C  
BRANCH  22  23
HETATM   23  C   UNL     1     -11.927  13.355  69.092  1.00  0.00    -0.317 C  
BRANCH  23  24
HETATM   24  O   UNL     1     -11.294  14.341  69.898  1.00  0.00    -0.253 OA 
BRANCH  24  25
HETATM   25  C   UNL     1     -11.409  15.639  69.320  1.00  0.00    -0.345 C  
BRANCH  25  26
HETATM   26  C   UNL     1     -10.289  15.825  68.305  1.00  0.00    -0.239 C  
BRANCH  26  27
HETATM   27  C   UNL     1     -10.850  16.187  66.929  1.00  0.00    -0.175 C  
BRANCH  27  28
HETATM   28  C   UNL     1     -10.007  15.603  65.797  1.00  0.00    -0.390 C  
BRANCH  28  29
HETATM   29  C   UNL     1     -10.559  14.258  65.387  1.00  0.00    -0.367 A  
HETATM   30  C   UNL     1     -11.838  14.157  64.828  1.00  0.00    -0.425 A  
HETATM   31  C   UNL     1     -12.377  12.907  64.525  1.00  0.00    -0.483 A  
HETATM   32  C   UNL     1     -11.644  11.749  64.781  1.00  0.00    -0.241 A  
HETATM   33  C   UNL     1     -10.368  11.840  65.334  1.00  0.00    -0.311 A  
HETATM   34  C   UNL     1      -9.826  13.089  65.638  1.00  0.00    -0.181 A  
ENDBRANCH  28  29
ENDBRANCH  27  28
ENDBRANCH  26  27
ENDBRANCH  25  26
ENDBRANCH  24  25
ENDBRANCH  23  24
ENDBRANCH  22  23
ENDBRANCH  21  22
ENDBRANCH  20  21
ENDBRANCH  19  20
ENDBRANCH  18  19
ENDBRANCH  16  18
ENDBRANCH  15  16
ENDBRANCH  12  15
ENDBRANCH  10  12
ENDBRANCH   2   4
TORSDOF 16
ENDMDL
MODEL      180
REMARK 921   NORMALIZED FREE ENERGY PREDICTED BY IDOCK:   -4.77 KCAL/MOL
REMARK 922        TOTAL FREE ENERGY PREDICTED BY IDOCK:  -11.57 KCAL/MOL
REMARK 923 INTER-LIGAND FREE ENERGY PREDICTED BY IDOCK:   -9.84 KCAL/MOL
REMARK 924 INTRA-LIGAND FREE ENERGY PREDICTED BY IDOCK:   -1.73 KCAL/MOL
REMARK 927      BINDING AFFINITY PREDICTED BY RF-SCORE:    0.00 PKD
ROOT
HETATM    1  O   UNL     1     -11.504   6.498  66.948  1.00  0.00    -0.762 OA 
HETATM    2  C   UNL     1     -10.251   6.266  67.593  1.00  0.00    -0.169 C  
HETATM    3  H   UNL     1     -11.703   5.786  66.351  1.00  0.00     0.000 HD 
ENDROOT
BRANCH   2   4
HETATM    4  C   UNL     1      -9.936   7.394  68.539  1.00  0.00    -0.172 A  
HETATM    5  C   UNL     1     -10.756   7.725  69.624  1.00  0.00    -0.223 A  
HETATM    6  O   UNL     1     -11.939   7.080  69.856  1.00  0.00    -0.593 OA 
HETATM    7  C   UNL     1     -10.420   8.749  70.503  1.00  0.00    -0.246 A  
HETATM    8  C   UNL     1      -9.255   9.484  70.296  1.00  0.00    -0.303 A  
HETATM    9  H   UNL     1     -12.496   7.305  70.592  1.00  0.00     0.000 HD 
HETATM   10  C   UNL     1      -8.406   9.188  69.217  1.00  0.00    -0.123 A  
HETATM   11  C   UNL     1      -8.747   8.125  68.362  1.00  0.00    -0.134 A  
BRANCH  10  12
HETATM   12  C   UNL     1      -7.156  10.005  68.946  1.00  0.00    -0.068 C  
HETATM   13  O   UNL     1      -6.450   9.468  67.817  1.00  0.00    -0.058 OA 
HETATM   14  H   UNL     1      -5.668   9.980  67.647  1.00  0.00     0.000 HD 
BRANCH  12  15
HETATM   15  C   UNL     1      -7.478  11.490  68.676  1.00  0.00    -0.116 C  
BRANCH  15  16
HETATM   16  N   UNL     1      -8.339  11.642  67.491  1.00  0.00    -0.144 NA 
HETATM   17  H   UNL     1      -8.360  10.795  66.923  1.00  0.00     0.000 HD 
BRANCH  16  18
HETATM   18  C   UNL     1      -9.677  12.061  67.895  1.00  0.00    -0.194 C  
BRANCH  18  19
HETATM   19  C   UNL     1     -10.662  11.834  66.755  1.00  0.00    -0.289 C  
BRANCH  19  20
HETATM   20  C   UNL     1     -10.375  10.501  66.069  1.00  0.00    -0.279 C  
BRANCH  20  21
HETATM   21  C   UNL     1     -10.182  10.698  64.572  1.00  0.00    -0.399 C  
BRANCH  21  22
HETATM   22  C   UNL     1     -10.587  12.102  64.138  1.00  0.00    -0.403 C  
BRANCH  22  23
HETATM   23  C   UNL     1     -11.928  12.067  63.422  1.00  0.00    -0.471 C  
BRANCH  23  24
HETATM   24  O   UNL     1     -12.456  13.387  63.394  1.00  0.00    -0.753 OA 
BRANCH  24  25
HETATM   25  C   UNL     1     -12.527  13.948  64.702  1.00  0.00    -0.325 C  
BRANCH  25  26
HETATM   26  C   UNL     1     -11.623  15.173  64.760  1.00  0.00    -0.364 C  
BRANCH  26  27
HETATM   27  C   UNL     1     -11.004  15.333  66.150  1.00  0.00    -0.307 C  
BRANCH  27  28
HETATM   28  C   UNL     1      -9.704  16.134  66.107  1.00  0.00    -0.352 C  
BRANCH  28  29
HETATM   29  C   UNL     1      -9.900  17.470  66.783  1.00  0.00    -0.306 A  
HETATM   30  C   UNL     1     -10.181  18.612  66.027  1.00  0.00    -0.386 A  
HETATM   31  C   UNL     1     -10.282  19.859  66.645  1.00  0.00    -0.609 A  
HETATM   32  C   UNL     1     -10.100  19.972  68.022  1.00  0.00    -0.557 A  
HETATM   33  C   UNL     1      -9.823  18.839  68.785  1.00  0.00    -0.434 A  
HETATM   34  C   UNL     1      -9.722  17.591  68.169  1.00  0.00    -0.302 A  
ENDBRANCH  28  29
ENDBRANCH  27  28
ENDBRANCH  26  27
ENDBRANCH  25  26
ENDBRANCH  24  25
ENDBRANCH  23  24
ENDBRANCH  22  23
ENDBRANCH  21  22
ENDBRANCH  20  21
ENDBRANCH  19  20
ENDBRANCH  18  19
ENDBRANCH  16  18
ENDBRANCH  15  16
ENDBRANCH  12  15
ENDBRANCH  10  12
ENDBRANCH   2   4
TORSDOF 16
ENDMDL
MODEL      181
REMARK 921   NORMALIZED FREE ENERGY PREDICTED BY IDOCK:   -4.76 KCAL/MOL
REMARK 922        TOTAL FREE ENERGY PREDICTED BY IDOCK:  -11.56 KCAL/MOL
REMARK 923 INTER-LIGAND FREE ENERGY PREDICTED BY IDOCK:   -9.45 KCAL/MOL
REMARK 924 INTRA-LIGAND FREE ENERGY PREDICTED BY IDOCK:   -2.11 KCAL/MOL
REMARK 927      BINDING AFFINITY PREDICTED BY RF-SCORE:    0.00 PKD
ROOT
HETATM    1  O   UNL     1      -6.995  20.602  67.628  1.00  0.00    -0.302 OA 
HETATM    2  C   UNL     1      -7.742  19.720  68.467  1.00  0.00    -0.289 C  
HETATM    3  H   UNL     1      -6.349  21.074  68.141  1.00  0.00     0.000 HD 
ENDROOT
BRANCH   2   4
HETATM    4  C   UNL     1      -8.766  18.972  67.654  1.00  0.00    -0.317 A  
HETATM    5  C   UNL     1      -9.534  19.582  66.655  1.00  0.00    -0.360 A  
HETATM    6  O   UNL     1      -9.447  20.922  66.397  1.00  0.00    -0.511 OA 
HETATM    7  C   UNL     1     -10.445  18.857  65.896  1.00  0.00    -0.450 A  
HETATM    8  C   UNL     1     -10.624  17.498  66.141  1.00  0.00    -0.211 A  
HETATM    9  H   UNL     1      -9.968  21.336  65.719  1.00  0.00     0.000 HD 
HETATM   10  C   UNL     1      -9.878  16.847  67.136  1.00  0.00    -0.270 A  
HETATM   11  C   UNL     1      -8.936  17.592  67.868  1.00  0.00    -0.251 A  
BRANCH  10  12
HETATM   12  C   UNL     1     -10.089  15.378  67.451  1.00  0.00    -0.233 C  
HETATM   13  O   UNL     1     -10.579  14.689  66.290  1.00  0.00    -0.293 OA 
HETATM   14  H   UNL     1     -10.711  13.769  66.487  1.00  0.00     0.000 HD 
BRANCH  12  15
HETATM   15  C   UNL     1      -8.792  14.691  67.930  1.00  0.00    -0.170 C  
BRANCH  15  16
HETATM   16  N   UNL     1      -8.218  13.842  66.874  1.00  0.00    -0.406 NA 
HETATM   17  H   UNL     1      -7.315  14.191  66.552  1.00  0.00     0.000 HD 
BRANCH  16  18
HETATM   18  C   UNL     1      -8.136  12.459  67.333  1.00  0.00    -0.177 C  
BRANCH  18  19
HETATM   19  C   UNL     1      -8.998  12.269  68.575  1.00  0.00    -0.070 C  
BRANCH  19  20
HETATM   20  C   UNL     1      -9.387  10.800  68.727  1.00  0.00    -0.186 C  
BRANCH  20  21
HETATM   21  C   UNL     1      -8.355   9.900  68.062  1.00  0.00    -0.113 C  
BRANCH  21  22
HETATM   22  C   UNL     1      -8.609   8.431  68.382  1.00  0.00    -0.139 C  
BRANCH  22  23
HETATM   23  C   UNL     1     -10.023   8.242  68.909  1.00  0.00    -0.186 C  
BRANCH  23  24
HETATM   24  O   UNL     1      -9.945   7.670  70.209  1.00  0.00    -0.187 OA 
BRANCH  24  25
HETATM   25  C   UNL     1     -11.150   7.879  70.943  1.00  0.00    -0.255 C  
BRANCH  25  26
HETATM   26  C   UNL     1     -11.059   9.219  71.663  1.00  0.00    -0.438 C  
BRANCH  26  27
HETATM   27  C   UNL     1     -12.407   9.942  71.647  1.00  0.00    -0.496 C  
BRANCH  27  28
HETATM   28  C   UNL     1     -12.522  10.909  70.470  1.00  0.00    -0.438 C  
BRANCH  28  29
HETATM   29  C   UNL     1     -12.634  12.327  70.979  1.00  0.00    -0.352 A  
HETATM   30  C   UNL     1     -11.945  13.365  70.343  1.00  0.00    -0.358 A  
HETATM   31  C   UNL     1     -11.985  14.659  70.861  1.00  0.00    -0.388 A  
HETATM   32  C   UNL     1     -12.712  14.925  72.020  1.00  0.00    -0.394 A  
HETATM   33  C   UNL     1     -13.405  13.898  72.659  1.00  0.00    -0.640 A  
HETATM   34  C   UNL     1     -13.367  12.602  72.142  1.00  0.00    -0.570 A  
ENDBRANCH  28  29
ENDBRANCH  27  28
ENDBRANCH  26  27
ENDBRANCH  25  26
ENDBRANCH  24  25
ENDBRANCH  23  24
ENDBRANCH  22  23
ENDBRANCH  21  22
ENDBRANCH  20  21
ENDBRANCH  19  20
ENDBRANCH  18  19
ENDBRANCH  16  18
ENDBRANCH  15  16
ENDBRANCH  12  15
ENDBRANCH  10  12
ENDBRANCH   2   4
TORSDOF 16
ENDMDL
MODEL      182
REMARK 921   NORMALIZED FREE ENERGY PREDICTED BY IDOCK:   -4.76 KCAL/MOL
REMARK 922        TOTAL FREE ENERGY PREDICTED BY IDOCK:  -11.56 KCAL/MOL
REMARK 923 INTER-LIGAND FREE ENERGY PREDICTED BY IDOCK:   -9.24 KCAL/MOL
REMARK 924 INTRA-LIGAND FREE ENERGY PREDICTED BY IDOCK:   -2.32 KCAL/MOL
REMARK 927      BINDING AFFINITY PREDICTED BY RF-SCORE:    0.00 PKD
ROOT
HETATM    1  O   UNL     1     -10.666  18.291  67.273  1.00  0.00    -0.404 OA 
HETATM    2  C   UNL     1     -10.293  17.176  66.463  1.00  0.00    -0.306 C  
HETATM    3  H   UNL     1     -11.582  18.503  67.137  1.00  0.00     0.000 HD 
ENDROOT
BRANCH   2   4
HETATM    4  C   UNL     1      -8.840  16.840  66.677  1.00  0.00    -0.286 A  
HETATM    5  C   UNL     1      -7.816  17.785  66.547  1.00  0.00    -0.266 A  
HETATM    6  O   UNL     1      -8.067  19.069  66.150  1.00  0.00    -0.338 OA 
HETATM    7  C   UNL     1      -6.488  17.454  66.788  1.00  0.00    -0.239 A  
HETATM    8  C   UNL     1      -6.153  16.150  67.145  1.00  0.00    -0.101 A  
HETATM    9  H   UNL     1      -7.372  19.710  66.061  1.00  0.00     0.000 HD 
HETATM   10  C   UNL     1      -7.149  15.169  67.283  1.00  0.00    -0.161 A  
HETATM   11  C   UNL     1      -8.489  15.535  67.069  1.00  0.00    -0.266 A  
BRANCH  10  12
HETATM   12  C   UNL     1      -6.802  13.732  67.626  1.00  0.00    -0.175 C  
HETATM   13  O   UNL     1      -6.046  13.684  68.845  1.00  0.00    -0.080 OA 
HETATM   14  H   UNL     1      -5.829  12.784  69.060  1.00  0.00     0.000 HD 
BRANCH  12  15
HETATM   15  C   UNL     1      -8.060  12.851  67.782  1.00  0.00    -0.166 C  
BRANCH  15  16
HETATM   16  N   UNL     1      -7.727  11.422  67.660  1.00  0.00    -0.115 NA 
HETATM   17  H   UNL     1      -7.278  11.061  68.501  1.00  0.00     0.000 HD 
BRANCH  16  18
HETATM   18  C   UNL     1      -8.920  10.658  67.306  1.00  0.00    -0.136 C  
BRANCH  18  19
HETATM   19  C   UNL     1      -8.833  10.194  65.858  1.00  0.00    -0.167 C  
BRANCH  19  20
HETATM   20  C   UNL     1     -10.127  10.528  65.119  1.00  0.00    -0.383 C  
BRANCH  20  21
HETATM   21  C   UNL     1      -9.954  11.780  64.272  1.00  0.00    -0.287 C  
BRANCH  21  22
HETATM   22  C   UNL     1     -11.090  11.934  63.267  1.00  0.00    -0.390 C  
BRANCH  22  23
HETATM   23  C   UNL     1     -12.391  12.257  63.986  1.00  0.00    -0.475 C  
BRANCH  23  24
HETATM   24  O   UNL     1     -12.361  13.625  64.375  1.00  0.00    -0.527 OA 
BRANCH  24  25
HETATM   25  C   UNL     1     -12.906  13.807  65.680  1.00  0.00    -0.408 C  
BRANCH  25  26
HETATM   26  C   UNL     1     -11.771  13.777  66.695  1.00  0.00    -0.421 C  
BRANCH  26  27
HETATM   27  C   UNL     1     -11.946  12.620  67.680  1.00  0.00    -0.309 C  
BRANCH  27  28
HETATM   28  C   UNL     1     -11.860  13.088  69.131  1.00  0.00    -0.360 C  
BRANCH  28  29
HETATM   29  C   UNL     1     -11.970  11.903  70.061  1.00  0.00    -0.409 A  
HETATM   30  C   UNL     1     -11.173  10.770  69.862  1.00  0.00    -0.371 A  
HETATM   31  C   UNL     1     -11.333   9.646  70.672  1.00  0.00    -0.379 A  
HETATM   32  C   UNL     1     -12.291   9.644  71.683  1.00  0.00    -0.489 A  
HETATM   33  C   UNL     1     -13.088  10.769  71.891  1.00  0.00    -0.557 A  
HETATM   34  C   UNL     1     -12.929  11.895  71.083  1.00  0.00    -0.266 A  
ENDBRANCH  28  29
ENDBRANCH  27  28
ENDBRANCH  26  27
ENDBRANCH  25  26
ENDBRANCH  24  25
ENDBRANCH  23  24
ENDBRANCH  22  23
ENDBRANCH  21  22
ENDBRANCH  20  21
ENDBRANCH  19  20
ENDBRANCH  18  19
ENDBRANCH  16  18
ENDBRANCH  15  16
ENDBRANCH  12  15
ENDBRANCH  10  12
ENDBRANCH   2   4
TORSDOF 16
ENDMDL
MODEL      183
REMARK 921   NORMALIZED FREE ENERGY PREDICTED BY IDOCK:   -4.75 KCAL/MOL
REMARK 922        TOTAL FREE ENERGY PREDICTED BY IDOCK:  -11.53 KCAL/MOL
REMARK 923 INTER-LIGAND FREE ENERGY PREDICTED BY IDOCK:   -9.69 KCAL/MOL
REMARK 924 INTRA-LIGAND FREE ENERGY PREDICTED BY IDOCK:   -1.84 KCAL/MOL
REMARK 927      BINDING AFFINITY PREDICTED BY RF-SCORE:    0.00 PKD
ROOT
HETATM    1  O   UNL     1     -10.742  20.600  69.874  1.00  0.00    -0.535 OA 
HETATM    2  C   UNL     1      -9.624  19.815  69.454  1.00  0.00    -0.021 C  
HETATM    3  H   UNL     1     -10.506  21.129  70.628  1.00  0.00     0.000 HD 
ENDROOT
BRANCH   2   4
HETATM    4  C   UNL     1      -9.997  18.976  68.260  1.00  0.00    -0.459 A  
HETATM    5  C   UNL     1     -10.127  19.508  66.971  1.00  0.00    -0.397 A  
HETATM    6  O   UNL     1      -9.986  20.845  66.726  1.00  0.00    -0.536 OA 
HETATM    7  C   UNL     1     -10.435  18.701  65.882  1.00  0.00    -0.395 A  
HETATM    8  C   UNL     1     -10.645  17.337  66.067  1.00  0.00    -0.217 A  
HETATM    9  H   UNL     1     -10.075  21.206  65.852  1.00  0.00     0.000 HD 
HETATM   10  C   UNL     1     -10.529  16.764  67.344  1.00  0.00    -0.310 A  
HETATM   11  C   UNL     1     -10.181  17.592  68.425  1.00  0.00    -0.372 A  
BRANCH  10  12
HETATM   12  C   UNL     1     -10.798  15.289  67.576  1.00  0.00    -0.304 C  
HETATM   13  O   UNL     1     -12.175  15.088  67.932  1.00  0.00    -0.518 OA 
HETATM   14  H   UNL     1     -12.344  14.164  68.077  1.00  0.00     0.000 HD 
BRANCH  12  15
HETATM   15  C   UNL     1     -10.472  14.433  66.334  1.00  0.00    -0.295 C  
BRANCH  15  16
HETATM   16  N   UNL     1      -9.041  14.089  66.284  1.00  0.00    -0.490 NA 
HETATM   17  H   UNL     1      -8.512  14.739  65.703  1.00  0.00     0.000 HD 
BRANCH  16  18
HETATM   18  C   UNL     1      -8.501  14.001  67.637  1.00  0.00    -0.191 C  
BRANCH  18  19
HETATM   19  C   UNL     1      -7.069  13.481  67.594  1.00  0.00    -0.176 C  
BRANCH  19  20
HETATM   20  C   UNL     1      -7.050  11.969  67.807  1.00  0.00    -0.108 C  
BRANCH  20  21
HETATM   21  C   UNL     1      -6.809  11.245  66.490  1.00  0.00    -0.101 C  
BRANCH  21  22
HETATM   22  C   UNL     1      -7.606   9.948  66.414  1.00  0.00    -0.101 C  
BRANCH  22  23
HETATM   23  C   UNL     1      -8.450   9.772  67.668  1.00  0.00    -0.122 C  
BRANCH  23  24
HETATM   24  O   UNL     1      -9.785   9.483  67.273  1.00  0.00    -0.154 OA 
BRANCH  24  25
HETATM   25  C   UNL     1     -10.462  10.654  66.825  1.00  0.00    -0.247 C  
BRANCH  25  26
HETATM   26  C   UNL     1     -11.565  10.995  67.819  1.00  0.00    -0.277 C  
BRANCH  26  27
HETATM   27  C   UNL     1     -11.003  11.752  69.023  1.00  0.00    -0.276 C  
BRANCH  27  28
HETATM   28  C   UNL     1     -12.010  11.831  70.169  1.00  0.00    -0.421 C  
BRANCH  28  29
HETATM   29  C   UNL     1     -11.972  10.554  70.976  1.00  0.00    -0.466 A  
HETATM   30  C   UNL     1     -10.793   9.806  71.062  1.00  0.00    -0.378 A  
HETATM   31  C   UNL     1     -10.781   8.587  71.740  1.00  0.00    -0.373 A  
HETATM   32  C   UNL     1     -11.946   8.106  72.333  1.00  0.00    -0.431 A  
HETATM   33  C   UNL     1     -13.125   8.846  72.256  1.00  0.00    -0.491 A  
HETATM   34  C   UNL     1     -13.140  10.066  71.579  1.00  0.00    -0.531 A  
ENDBRANCH  28  29
ENDBRANCH  27  28
ENDBRANCH  26  27
ENDBRANCH  25  26
ENDBRANCH  24  25
ENDBRANCH  23  24
ENDBRANCH  22  23
ENDBRANCH  21  22
ENDBRANCH  20  21
ENDBRANCH  19  20
ENDBRANCH  18  19
ENDBRANCH  16  18
ENDBRANCH  15  16
ENDBRANCH  12  15
ENDBRANCH  10  12
ENDBRANCH   2   4
TORSDOF 16
ENDMDL
MODEL      184
REMARK 921   NORMALIZED FREE ENERGY PREDICTED BY IDOCK:   -4.73 KCAL/MOL
REMARK 922        TOTAL FREE ENERGY PREDICTED BY IDOCK:  -11.50 KCAL/MOL
REMARK 923 INTER-LIGAND FREE ENERGY PREDICTED BY IDOCK:   -8.94 KCAL/MOL
REMARK 924 INTRA-LIGAND FREE ENERGY PREDICTED BY IDOCK:   -2.56 KCAL/MOL
REMARK 927      BINDING AFFINITY PREDICTED BY RF-SCORE:    0.00 PKD
ROOT
HETATM    1  O   UNL     1     -12.197  16.237  71.855  1.00  0.00    -0.566 OA 
HETATM    2  C   UNL     1     -12.823  15.662  70.708  1.00  0.00    -0.404 C  
HETATM    3  H   UNL     1     -12.293  17.183  71.843  1.00  0.00     0.000 HD 
ENDROOT
BRANCH   2   4
HETATM    4  C   UNL     1     -12.671  14.164  70.728  1.00  0.00    -0.414 A  
HETATM    5  C   UNL     1     -13.136  13.368  71.782  1.00  0.00    -0.388 A  
HETATM    6  O   UNL     1     -13.705  13.913  72.899  1.00  0.00    -0.680 OA 
HETATM    7  C   UNL     1     -13.014  11.984  71.754  1.00  0.00    -0.445 A  
HETATM    8  C   UNL     1     -12.396  11.365  70.671  1.00  0.00    -0.466 A  
HETATM    9  H   UNL     1     -14.021  13.374  73.614  1.00  0.00     0.000 HD 
HETATM   10  C   UNL     1     -11.911  12.125  69.595  1.00  0.00    -0.391 A  
HETATM   11  C   UNL     1     -12.077  13.521  69.627  1.00  0.00    -0.365 A  
BRANCH  10  12
HETATM   12  C   UNL     1     -11.194  11.475  68.426  1.00  0.00    -0.255 C  
HETATM   13  O   UNL     1     -11.985  11.593  67.234  1.00  0.00    -0.627 OA 
HETATM   14  H   UNL     1     -11.536  11.186  66.501  1.00  0.00     0.000 HD 
BRANCH  12  15
HETATM   15  C   UNL     1      -9.807  12.104  68.170  1.00  0.00    -0.207 C  
BRANCH  15  16
HETATM   16  N   UNL     1      -8.807  11.593  69.122  1.00  0.00    -0.349 NA 
HETATM   17  H   UNL     1      -9.207  11.432  70.046  1.00  0.00     0.000 HD 
BRANCH  16  18
HETATM   18  C   UNL     1      -8.170  10.395  68.585  1.00  0.00    -0.121 C  
BRANCH  18  19
HETATM   19  C   UNL     1      -7.831   9.432  69.716  1.00  0.00    -0.115 C  
BRANCH  19  20
HETATM   20  C   UNL     1      -9.016   9.301  70.670  1.00  0.00    -0.296 C  
BRANCH  20  21
HETATM   21  C   UNL     1     -10.117   8.455  70.047  1.00  0.00    -0.192 C  
BRANCH  21  22
HETATM   22  C   UNL     1     -10.579   7.356  70.996  1.00  0.00    -0.234 C  
BRANCH  22  23
HETATM   23  C   UNL     1     -11.788   6.635  70.421  1.00  0.00    -0.346 C  
BRANCH  23  24
HETATM   24  O   UNL     1     -11.352   5.810  69.349  1.00  0.00    -0.247 OA 
BRANCH  24  25
HETATM   25  C   UNL     1     -10.318   4.920  69.764  1.00  0.00    -0.133 C  
BRANCH  25  26
HETATM   26  C   UNL     1      -9.510   4.502  68.542  1.00  0.00    -0.213 C  
BRANCH  26  27
HETATM   27  C   UNL     1      -9.880   5.350  67.324  1.00  0.00    -0.175 C  
BRANCH  27  28
HETATM   28  C   UNL     1      -8.650   5.747  66.510  1.00  0.00    -0.121 C  
BRANCH  28  29
HETATM   29  C   UNL     1      -8.848   7.122  65.918  1.00  0.00    -0.128 A  
HETATM   30  C   UNL     1      -7.944   7.624  64.976  1.00  0.00    -0.131 A  
HETATM   31  C   UNL     1      -8.082   8.925  64.491  1.00  0.00    -0.150 A  
HETATM   32  C   UNL     1      -9.122   9.733  64.946  1.00  0.00    -0.278 A  
HETATM   33  C   UNL     1     -10.029   9.241  65.882  1.00  0.00    -0.289 A  
HETATM   34  C   UNL     1      -9.894   7.940  66.368  1.00  0.00    -0.217 A  
ENDBRANCH  28  29
ENDBRANCH  27  28
ENDBRANCH  26  27
ENDBRANCH  25  26
ENDBRANCH  24  25
ENDBRANCH  23  24
ENDBRANCH  22  23
ENDBRANCH  21  22
ENDBRANCH  20  21
ENDBRANCH  19  20
ENDBRANCH  18  19
ENDBRANCH  16  18
ENDBRANCH  15  16
ENDBRANCH  12  15
ENDBRANCH  10  12
ENDBRANCH   2   4
TORSDOF 16
ENDMDL
MODEL      185
REMARK 921   NORMALIZED FREE ENERGY PREDICTED BY IDOCK:   -4.72 KCAL/MOL
REMARK 922        TOTAL FREE ENERGY PREDICTED BY IDOCK:  -11.49 KCAL/MOL
REMARK 923 INTER-LIGAND FREE ENERGY PREDICTED BY IDOCK:   -9.98 KCAL/MOL
REMARK 924 INTRA-LIGAND FREE ENERGY PREDICTED BY IDOCK:   -1.51 KCAL/MOL
REMARK 927      BINDING AFFINITY PREDICTED BY RF-SCORE:    0.00 PKD
ROOT
HETATM    1  O   UNL     1     -10.556  14.851  70.072  1.00  0.00    -0.415 OA 
HETATM    2  C   UNL     1     -11.668  15.265  69.277  1.00  0.00    -0.338 C  
HETATM    3  H   UNL     1     -10.803  14.814  70.988  1.00  0.00     0.000 HD 
ENDROOT
BRANCH   2   4
HETATM    4  C   UNL     1     -11.276  15.326  67.824  1.00  0.00    -0.327 A  
HETATM    5  C   UNL     1     -10.333  16.234  67.330  1.00  0.00    -0.285 A  
HETATM    6  O   UNL     1      -9.750  17.175  68.133  1.00  0.00    -0.258 OA 
HETATM    7  C   UNL     1      -9.964  16.241  65.990  1.00  0.00    -0.370 A  
HETATM    8  C   UNL     1     -10.557  15.345  65.104  1.00  0.00    -0.458 A  
HETATM    9  H   UNL     1      -9.109  17.791  67.798  1.00  0.00     0.000 HD 
HETATM   10  C   UNL     1     -11.512  14.419  65.557  1.00  0.00    -0.340 A  
HETATM   11  C   UNL     1     -11.843  14.406  66.923  1.00  0.00    -0.433 A  
BRANCH  10  12
HETATM   12  C   UNL     1     -12.204  13.465  64.601  1.00  0.00    -0.407 C  
HETATM   13  O   UNL     1     -12.405  14.099  63.329  1.00  0.00    -1.140 OA 
HETATM   14  H   UNL     1     -12.839  13.502  62.730  1.00  0.00     0.000 HD 
BRANCH  12  15
HETATM   15  C   UNL     1     -11.399  12.165  64.391  1.00  0.00    -0.344 C  
BRANCH  15  16
HETATM   16  N   UNL     1     -10.968  11.591  65.676  1.00  0.00    -0.270 NA 
HETATM   17  H   UNL     1     -11.700  11.028  66.108  1.00  0.00     0.000 HD 
BRANCH  16  18
HETATM   18  C   UNL     1      -9.731  10.836  65.498  1.00  0.00    -0.239 C  
BRANCH  18  19
HETATM   19  C   UNL     1      -9.539   9.868  66.658  1.00  0.00    -0.235 C  
BRANCH  19  20
HETATM   20  C   UNL     1     -10.834   9.739  67.457  1.00  0.00    -0.286 C  
BRANCH  20  21
HETATM   21  C   UNL     1     -10.592   8.978  68.753  1.00  0.00    -0.196 C  
BRANCH  21  22
HETATM   22  C   UNL     1     -10.180   9.915  69.881  1.00  0.00    -0.298 C  
BRANCH  22  23
HETATM   23  C   UNL     1     -11.349  10.153  70.824  1.00  0.00    -0.354 C  
BRANCH  23  24
HETATM   24  O   UNL     1     -12.068   8.934  70.966  1.00  0.00    -0.288 OA 
BRANCH  24  25
HETATM   25  C   UNL     1     -12.256   8.597  72.338  1.00  0.00    -0.349 C  
BRANCH  25  26
HETATM   26  C   UNL     1     -11.097   7.719  72.791  1.00  0.00    -0.457 C  
BRANCH  26  27
HETATM   27  C   UNL     1     -11.084   6.391  72.032  1.00  0.00    -0.306 C  
BRANCH  27  28
HETATM   28  C   UNL     1      -9.901   6.294  71.071  1.00  0.00    -0.206 C  
BRANCH  28  29
HETATM   29  C   UNL     1      -9.668   4.852  70.687  1.00  0.00    -0.271 A  
HETATM   30  C   UNL     1      -9.456   4.500  69.349  1.00  0.00    -0.244 A  
HETATM   31  C   UNL     1      -9.321   3.160  68.986  1.00  0.00    -0.230 A  
HETATM   32  C   UNL     1      -9.401   2.162  69.955  1.00  0.00    -0.172 A  
HETATM   33  C   UNL     1      -9.609   2.503  71.291  1.00  0.00    -0.224 A  
HETATM   34  C   UNL     1      -9.743   3.843  71.657  1.00  0.00    -0.240 A  
ENDBRANCH  28  29
ENDBRANCH  27  28
ENDBRANCH  26  27
ENDBRANCH  25  26
ENDBRANCH  24  25
ENDBRANCH  23  24
ENDBRANCH  22  23
ENDBRANCH  21  22
ENDBRANCH  20  21
ENDBRANCH  19  20
ENDBRANCH  18  19
ENDBRANCH  16  18
ENDBRANCH  15  16
ENDBRANCH  12  15
ENDBRANCH  10  12
ENDBRANCH   2   4
TORSDOF 16
ENDMDL
MODEL      186
REMARK 921   NORMALIZED FREE ENERGY PREDICTED BY IDOCK:   -4.72 KCAL/MOL
REMARK 922        TOTAL FREE ENERGY PREDICTED BY IDOCK:  -11.48 KCAL/MOL
REMARK 923 INTER-LIGAND FREE ENERGY PREDICTED BY IDOCK:   -9.43 KCAL/MOL
REMARK 924 INTRA-LIGAND FREE ENERGY PREDICTED BY IDOCK:   -2.06 KCAL/MOL
REMARK 927      BINDING AFFINITY PREDICTED BY RF-SCORE:    0.00 PKD
ROOT
HETATM    1  O   UNL     1      -7.819  10.969  65.157  1.00  0.00    -0.360 OA 
HETATM    2  C   UNL     1      -8.339  11.090  66.481  1.00  0.00    -0.163 C  
HETATM    3  H   UNL     1      -7.039  10.426  65.159  1.00  0.00     0.000 HD 
ENDROOT
BRANCH   2   4
HETATM    4  C   UNL     1      -9.575  11.951  66.479  1.00  0.00    -0.226 A  
HETATM    5  C   UNL     1     -10.681  11.687  65.663  1.00  0.00    -0.278 A  
HETATM    6  O   UNL     1     -10.684  10.658  64.763  1.00  0.00    -0.225 OA 
HETATM    7  C   UNL     1     -11.823  12.479  65.710  1.00  0.00    -0.494 A  
HETATM    8  C   UNL     1     -11.869  13.577  66.566  1.00  0.00    -0.441 A  
HETATM    9  H   UNL     1     -11.434  10.479  64.209  1.00  0.00     0.000 HD 
HETATM   10  C   UNL     1     -10.780  13.880  67.398  1.00  0.00    -0.275 A  
HETATM   11  C   UNL     1      -9.650  13.045  67.361  1.00  0.00    -0.211 A  
BRANCH  10  12
HETATM   12  C   UNL     1     -10.791  15.097  68.305  1.00  0.00    -0.262 C  
HETATM   13  O   UNL     1     -11.094  16.277  67.545  1.00  0.00    -0.260 OA 
HETATM   14  H   UNL     1     -11.102  17.039  68.113  1.00  0.00     0.000 HD 
BRANCH  12  15
HETATM   15  C   UNL     1     -11.818  14.962  69.450  1.00  0.00    -0.324 C  
BRANCH  15  16
HETATM   16  N   UNL     1     -11.607  13.719  70.211  1.00  0.00    -0.500 NA 
HETATM   17  H   UNL     1     -10.670  13.670  70.610  1.00  0.00     0.000 HD 
BRANCH  16  18
HETATM   18  C   UNL     1     -12.643  13.572  71.228  1.00  0.00    -0.341 C  
BRANCH  18  19
HETATM   19  C   UNL     1     -12.901  12.096  71.502  1.00  0.00    -0.394 C  
BRANCH  19  20
HETATM   20  C   UNL     1     -12.409  11.249  70.330  1.00  0.00    -0.415 C  
BRANCH  20  21
HETATM   21  C   UNL     1     -11.943   9.884  70.813  1.00  0.00    -0.410 C  
BRANCH  21  22
HETATM   22  C   UNL     1     -10.553   9.551  70.283  1.00  0.00    -0.317 C  
BRANCH  22  23
HETATM   23  C   UNL     1      -9.649   9.099  71.419  1.00  0.00    -0.246 C  
BRANCH  23  24
HETATM   24  O   UNL     1     -10.462   8.771  72.538  1.00  0.00    -0.255 OA 
BRANCH  24  25
HETATM   25  C   UNL     1     -10.074   7.529  73.119  1.00  0.00    -0.308 C  
BRANCH  25  26
HETATM   26  C   UNL     1     -11.191   6.515  72.900  1.00  0.00    -0.215 C  
BRANCH  26  27
HETATM   27  C   UNL     1     -11.385   6.226  71.411  1.00  0.00    -0.353 C  
BRANCH  27  28
HETATM   28  C   UNL     1     -10.302   5.297  70.864  1.00  0.00    -0.303 C  
BRANCH  28  29
HETATM   29  C   UNL     1     -10.388   5.239  69.357  1.00  0.00    -0.313 A  
HETATM   30  C   UNL     1      -9.780   4.194  68.652  1.00  0.00    -0.157 A  
HETATM   31  C   UNL     1      -9.792   4.186  67.258  1.00  0.00    -0.171 A  
HETATM   32  C   UNL     1     -10.407   5.221  66.557  1.00  0.00    -0.332 A  
HETATM   33  C   UNL     1     -11.019   6.265  67.251  1.00  0.00    -0.455 A  
HETATM   34  C   UNL     1     -11.009   6.276  68.646  1.00  0.00    -0.423 A  
ENDBRANCH  28  29
ENDBRANCH  27  28
ENDBRANCH  26  27
ENDBRANCH  25  26
ENDBRANCH  24  25
ENDBRANCH  23  24
ENDBRANCH  22  23
ENDBRANCH  21  22
ENDBRANCH  20  21
ENDBRANCH  19  20
ENDBRANCH  18  19
ENDBRANCH  16  18
ENDBRANCH  15  16
ENDBRANCH  12  15
ENDBRANCH  10  12
ENDBRANCH   2   4
TORSDOF 16
ENDMDL
MODEL      187
REMARK 921   NORMALIZED FREE ENERGY PREDICTED BY IDOCK:   -4.72 KCAL/MOL
REMARK 922        TOTAL FREE ENERGY PREDICTED BY IDOCK:  -11.48 KCAL/MOL
REMARK 923 INTER-LIGAND FREE ENERGY PREDICTED BY IDOCK:  -10.60 KCAL/MOL
REMARK 924 INTRA-LIGAND FREE ENERGY PREDICTED BY IDOCK:   -0.88 KCAL/MOL
REMARK 927      BINDING AFFINITY PREDICTED BY RF-SCORE:    0.00 PKD
ROOT
HETATM    1  O   UNL     1     -11.030   3.793  72.563  1.00  0.00     0.036 OA 
HETATM    2  C   UNL     1     -10.670   4.622  73.670  1.00  0.00    -0.277 C  
HETATM    3  H   UNL     1     -11.085   2.885  72.838  1.00  0.00     0.000 HD 
ENDROOT
BRANCH   2   4
HETATM    4  C   UNL     1     -10.583   6.061  73.235  1.00  0.00    -0.276 A  
HETATM    5  C   UNL     1      -9.370   6.755  73.149  1.00  0.00    -0.133 A  
HETATM    6  O   UNL     1      -8.185   6.182  73.520  1.00  0.00    -0.112 OA 
HETATM    7  C   UNL     1      -9.317   8.072  72.709  1.00  0.00    -0.330 A  
HETATM    8  C   UNL     1     -10.492   8.735  72.366  1.00  0.00    -0.220 A  
HETATM    9  H   UNL     1      -7.362   6.653  73.462  1.00  0.00     0.000 HD 
HETATM   10  C   UNL     1     -11.731   8.079  72.441  1.00  0.00    -0.444 A  
HETATM   11  C   UNL     1     -11.758   6.735  72.854  1.00  0.00     0.079 A  
BRANCH  10  12
HETATM   12  C   UNL     1     -13.028   8.795  72.116  1.00  0.00    -0.406 C  
HETATM   13  O   UNL     1     -13.922   8.733  73.238  1.00  0.00    -1.160 OA 
HETATM   14  H   UNL     1     -14.735   9.182  73.034  1.00  0.00     0.000 HD 
BRANCH  12  15
HETATM   15  C   UNL     1     -12.799  10.275  71.740  1.00  0.00    -0.460 C  
BRANCH  15  16
HETATM   16  N   UNL     1     -12.828  10.465  70.280  1.00  0.00    -0.533 NA 
HETATM   17  H   UNL     1     -13.664  10.964  69.977  1.00  0.00     0.000 HD 
BRANCH  16  18
HETATM   18  C   UNL     1     -11.605  11.126  69.836  1.00  0.00    -0.337 C  
BRANCH  18  19
HETATM   19  C   UNL     1     -11.817  11.748  68.462  1.00  0.00    -0.365 C  
BRANCH  19  20
HETATM   20  C   UNL     1     -11.004  10.996  67.412  1.00  0.00    -0.349 C  
BRANCH  20  21
HETATM   21  C   UNL     1     -11.034  11.732  66.080  1.00  0.00    -0.355 C  
BRANCH  21  22
HETATM   22  C   UNL     1     -12.085  12.836  66.078  1.00  0.00    -0.458 C  
BRANCH  22  23
HETATM   23  C   UNL     1     -12.823  12.860  64.749  1.00  0.00    -0.283 C  
BRANCH  23  24
HETATM   24  O   UNL     1     -12.761  14.180  64.224  1.00  0.00    -0.660 OA 
BRANCH  24  25
HETATM   25  C   UNL     1     -11.414  14.590  64.001  1.00  0.00     0.115 C  
BRANCH  25  26
HETATM   26  C   UNL     1     -11.206  15.959  64.634  1.00  0.00    -0.361 C  
BRANCH  26  27
HETATM   27  C   UNL     1     -10.078  15.921  65.667  1.00  0.00    -0.388 C  
BRANCH  27  28
HETATM   28  C   UNL     1     -10.542  16.411  67.037  1.00  0.00    -0.260 C  
BRANCH  28  29
HETATM   29  C   UNL     1     -10.154  17.859  67.224  1.00  0.00    -0.344 A  
HETATM   30  C   UNL     1      -9.677  18.310  68.459  1.00  0.00    -0.379 A  
HETATM   31  C   UNL     1      -9.395  19.663  68.653  1.00  0.00    -0.386 A  
HETATM   32  C   UNL     1      -9.591  20.573  67.617  1.00  0.00    -0.489 A  
HETATM   33  C   UNL     1     -10.063  20.132  66.381  1.00  0.00    -0.569 A  
HETATM   34  C   UNL     1     -10.345  18.780  66.184  1.00  0.00    -0.494 A  
ENDBRANCH  28  29
ENDBRANCH  27  28
ENDBRANCH  26  27
ENDBRANCH  25  26
ENDBRANCH  24  25
ENDBRANCH  23  24
ENDBRANCH  22  23
ENDBRANCH  21  22
ENDBRANCH  20  21
ENDBRANCH  19  20
ENDBRANCH  18  19
ENDBRANCH  16  18
ENDBRANCH  15  16
ENDBRANCH  12  15
ENDBRANCH  10  12
ENDBRANCH   2   4
TORSDOF 16
ENDMDL
MODEL      188
REMARK 921   NORMALIZED FREE ENERGY PREDICTED BY IDOCK:   -4.71 KCAL/MOL
REMARK 922        TOTAL FREE ENERGY PREDICTED BY IDOCK:  -11.46 KCAL/MOL
REMARK 923 INTER-LIGAND FREE ENERGY PREDICTED BY IDOCK:   -9.78 KCAL/MOL
REMARK 924 INTRA-LIGAND FREE ENERGY PREDICTED BY IDOCK:   -1.68 KCAL/MOL
REMARK 927      BINDING AFFINITY PREDICTED BY RF-SCORE:    0.00 PKD
ROOT
HETATM    1  O   UNL     1     -10.350   4.956  65.475  1.00  0.00    -0.401 OA 
HETATM    2  C   UNL     1      -9.462   4.000  66.056  1.00  0.00    -0.183 C  
HETATM    3  H   UNL     1     -10.282   4.933  64.527  1.00  0.00     0.000 HD 
ENDROOT
BRANCH   2   4
HETATM    4  C   UNL     1      -9.569   4.037  67.558  1.00  0.00    -0.216 A  
HETATM    5  C   UNL     1      -9.127   2.990  68.376  1.00  0.00    -0.161 A  
HETATM    6  O   UNL     1      -8.626   1.831  67.853  1.00  0.00    -0.066 OA 
HETATM    7  C   UNL     1      -9.205   3.069  69.761  1.00  0.00    -0.219 A  
HETATM    8  C   UNL     1      -9.754   4.200  70.361  1.00  0.00    -0.271 A  
HETATM    9  H   UNL     1      -8.327   1.119  68.407  1.00  0.00     0.000 HD 
HETATM   10  C   UNL     1     -10.212   5.271  69.579  1.00  0.00    -0.338 A  
HETATM   11  C   UNL     1     -10.091   5.186  68.180  1.00  0.00    -0.192 A  
BRANCH  10  12
HETATM   12  C   UNL     1     -10.855   6.493  70.208  1.00  0.00    -0.279 C  
HETATM   13  O   UNL     1     -12.195   6.655  69.717  1.00  0.00    -0.574 OA 
HETATM   14  H   UNL     1     -12.598   7.420  70.111  1.00  0.00     0.000 HD 
BRANCH  12  15
HETATM   15  C   UNL     1     -10.895   6.403  71.749  1.00  0.00    -0.241 C  
BRANCH  15  16
HETATM   16  N   UNL     1     -12.177   6.897  72.279  1.00  0.00    -0.505 NA 
HETATM   17  H   UNL     1     -12.479   6.370  73.098  1.00  0.00     0.000 HD 
BRANCH  16  18
HETATM   18  C   UNL     1     -12.089   8.328  72.550  1.00  0.00    -0.337 C  
BRANCH  18  19
HETATM   19  C   UNL     1     -13.396   9.013  72.172  1.00  0.00    -0.510 C  
BRANCH  19  20
HETATM   20  C   UNL     1     -13.157  10.021  71.050  1.00  0.00    -0.435 C  
BRANCH  20  21
HETATM   21  C   UNL     1     -12.801  11.386  71.621  1.00  0.00    -0.497 C  
BRANCH  21  22
HETATM   22  C   UNL     1     -12.409  12.365  70.521  1.00  0.00    -0.346 C  
BRANCH  22  23
HETATM   23  C   UNL     1     -12.639  13.796  70.981  1.00  0.00    -0.371 C  
BRANCH  23  24
HETATM   24  O   UNL     1     -12.405  14.665  69.880  1.00  0.00    -0.321 OA 
BRANCH  24  25
HETATM   25  C   UNL     1     -11.294  14.230  69.100  1.00  0.00    -0.276 C  
BRANCH  25  26
HETATM   26  C   UNL     1     -11.439  14.785  67.688  1.00  0.00    -0.363 C  
BRANCH  26  27
HETATM   27  C   UNL     1     -10.548  14.023  66.705  1.00  0.00    -0.277 C  
BRANCH  27  28
HETATM   28  C   UNL     1     -11.355  13.078  65.818  1.00  0.00    -0.331 C  
BRANCH  28  29
HETATM   29  C   UNL     1     -10.939  11.649  66.075  1.00  0.00    -0.338 A  
HETATM   30  C   UNL     1     -11.227  11.037  67.300  1.00  0.00    -0.330 A  
HETATM   31  C   UNL     1     -10.772   9.746  67.567  1.00  0.00    -0.327 A  
HETATM   32  C   UNL     1     -10.024   9.058  66.613  1.00  0.00    -0.349 A  
HETATM   33  C   UNL     1      -9.735   9.658  65.388  1.00  0.00    -0.365 A  
HETATM   34  C   UNL     1     -10.190  10.950  65.119  1.00  0.00    -0.360 A  
ENDBRANCH  28  29
ENDBRANCH  27  28
ENDBRANCH  26  27
ENDBRANCH  25  26
ENDBRANCH  24  25
ENDBRANCH  23  24
ENDBRANCH  22  23
ENDBRANCH  21  22
ENDBRANCH  20  21
ENDBRANCH  19  20
ENDBRANCH  18  19
ENDBRANCH  16  18
ENDBRANCH  15  16
ENDBRANCH  12  15
ENDBRANCH  10  12
ENDBRANCH   2   4
TORSDOF 16
ENDMDL
MODEL      189
REMARK 921   NORMALIZED FREE ENERGY PREDICTED BY IDOCK:   -4.70 KCAL/MOL
REMARK 922        TOTAL FREE ENERGY PREDICTED BY IDOCK:  -11.45 KCAL/MOL
REMARK 923 INTER-LIGAND FREE ENERGY PREDICTED BY IDOCK:   -9.91 KCAL/MOL
REMARK 924 INTRA-LIGAND FREE ENERGY PREDICTED BY IDOCK:   -1.54 KCAL/MOL
REMARK 927      BINDING AFFINITY PREDICTED BY RF-SCORE:    0.00 PKD
ROOT
HETATM    1  O   UNL     1     -12.824   9.271  72.449  1.00  0.00    -0.387 OA 
HETATM    2  C   UNL     1     -13.223   8.315  71.466  1.00  0.00    -0.287 C  
HETATM    3  H   UNL     1     -13.536   9.874  72.629  1.00  0.00     0.000 HD 
ENDROOT
BRANCH   2   4
HETATM    4  C   UNL     1     -12.094   7.359  71.180  1.00  0.00    -0.357 A  
HETATM    5  C   UNL     1     -11.265   6.845  72.183  1.00  0.00    -0.258 A  
HETATM    6  O   UNL     1     -11.388   7.232  73.489  1.00  0.00    -0.564 OA 
HETATM    7  C   UNL     1     -10.254   5.935  71.894  1.00  0.00    -0.246 A  
HETATM    8  C   UNL     1     -10.037   5.537  70.577  1.00  0.00    -0.293 A  
HETATM    9  H   UNL     1     -10.825   6.883  74.170  1.00  0.00     0.000 HD 
HETATM   10  C   UNL     1     -10.843   6.032  69.540  1.00  0.00    -0.439 A  
HETATM   11  C   UNL     1     -11.882   6.924  69.860  1.00  0.00    -0.137 A  
BRANCH  10  12
HETATM   12  C   UNL     1     -10.595   5.648  68.093  1.00  0.00    -0.183 C  
HETATM   13  O   UNL     1     -11.550   6.298  67.239  1.00  0.00    -0.621 OA 
HETATM   14  H   UNL     1     -11.395   6.057  66.332  1.00  0.00     0.000 HD 
BRANCH  12  15
HETATM   15  C   UNL     1      -9.172   6.020  67.626  1.00  0.00    -0.107 C  
BRANCH  15  16
HETATM   16  N   UNL     1      -8.931   7.467  67.751  1.00  0.00    -0.127 NA 
HETATM   17  H   UNL     1      -8.113   7.670  68.325  1.00  0.00     0.000 HD 
BRANCH  16  18
HETATM   18  C   UNL     1      -8.834   8.074  66.427  1.00  0.00    -0.157 C  
BRANCH  18  19
HETATM   19  C   UNL     1      -9.894   9.158  66.271  1.00  0.00    -0.359 C  
BRANCH  19  20
HETATM   20  C   UNL     1     -10.445   9.556  67.638  1.00  0.00    -0.321 C  
BRANCH  20  21
HETATM   21  C   UNL     1     -10.956  10.990  67.615  1.00  0.00    -0.332 C  
BRANCH  21  22
HETATM   22  C   UNL     1     -11.061  11.520  66.190  1.00  0.00    -0.302 C  
BRANCH  22  23
HETATM   23  C   UNL     1     -10.349  12.858  66.070  1.00  0.00    -0.283 C  
BRANCH  23  24
HETATM   24  O   UNL     1     -11.298  13.838  65.667  1.00  0.00    -0.302 OA 
BRANCH  24  25
HETATM   25  C   UNL     1     -11.958  14.417  66.790  1.00  0.00    -0.399 C  
BRANCH  25  26
HETATM   26  C   UNL     1     -10.907  14.907  67.778  1.00  0.00    -0.286 C  
BRANCH  26  27
HETATM   27  C   UNL     1     -11.453  16.047  68.640  1.00  0.00    -0.377 C  
BRANCH  27  28
HETATM   28  C   UNL     1     -10.334  16.886  69.252  1.00  0.00    -0.298 C  
BRANCH  28  29
HETATM   29  C   UNL     1      -9.984  18.029  68.329  1.00  0.00    -0.374 A  
HETATM   30  C   UNL     1      -8.878  18.843  68.596  1.00  0.00    -0.374 A  
HETATM   31  C   UNL     1      -8.603  19.946  67.788  1.00  0.00    -0.370 A  
HETATM   32  C   UNL     1      -9.433  20.246  66.710  1.00  0.00    -0.518 A  
HETATM   33  C   UNL     1     -10.536  19.438  66.433  1.00  0.00    -0.581 A  
HETATM   34  C   UNL     1     -10.812  18.334  67.239  1.00  0.00    -0.269 A  
ENDBRANCH  28  29
ENDBRANCH  27  28
ENDBRANCH  26  27
ENDBRANCH  25  26
ENDBRANCH  24  25
ENDBRANCH  23  24
ENDBRANCH  22  23
ENDBRANCH  21  22
ENDBRANCH  20  21
ENDBRANCH  19  20
ENDBRANCH  18  19
ENDBRANCH  16  18
ENDBRANCH  15  16
ENDBRANCH  12  15
ENDBRANCH  10  12
ENDBRANCH   2   4
TORSDOF 16
ENDMDL
MODEL      190
REMARK 921   NORMALIZED FREE ENERGY PREDICTED BY IDOCK:   -4.69 KCAL/MOL
REMARK 922        TOTAL FREE ENERGY PREDICTED BY IDOCK:  -11.42 KCAL/MOL
REMARK 923 INTER-LIGAND FREE ENERGY PREDICTED BY IDOCK:   -9.06 KCAL/MOL
REMARK 924 INTRA-LIGAND FREE ENERGY PREDICTED BY IDOCK:   -2.36 KCAL/MOL
REMARK 927      BINDING AFFINITY PREDICTED BY RF-SCORE:    0.00 PKD
ROOT
HETATM    1  O   UNL     1     -11.388  16.537  70.625  1.00  0.00    -0.520 OA 
HETATM    2  C   UNL     1     -12.240  15.709  69.832  1.00  0.00    -0.294 C  
HETATM    3  H   UNL     1     -11.142  17.315  70.138  1.00  0.00     0.000 HD 
ENDROOT
BRANCH   2   4
HETATM    4  C   UNL     1     -12.631  14.475  70.603  1.00  0.00    -0.416 A  
HETATM    5  C   UNL     1     -13.487  14.513  71.710  1.00  0.00    -0.375 A  
HETATM    6  O   UNL     1     -13.974  15.691  72.204  1.00  0.00    -0.499 OA 
HETATM    7  C   UNL     1     -13.859  13.352  72.378  1.00  0.00    -0.665 A  
HETATM    8  C   UNL     1     -13.357  12.122  71.962  1.00  0.00    -0.470 A  
HETATM    9  H   UNL     1     -14.555  15.716  72.955  1.00  0.00     0.000 HD 
HETATM   10  C   UNL     1     -12.493  12.039  70.859  1.00  0.00    -0.384 A  
HETATM   11  C   UNL     1     -12.158  13.221  70.175  1.00  0.00    -0.403 A  
BRANCH  10  12
HETATM   12  C   UNL     1     -11.898  10.716  70.416  1.00  0.00    -0.349 C  
HETATM   13  O   UNL     1     -12.926   9.716  70.333  1.00  0.00    -0.520 OA 
HETATM   14  H   UNL     1     -12.554   8.886  70.055  1.00  0.00     0.000 HD 
BRANCH  12  15
HETATM   15  C   UNL     1     -11.192  10.822  69.048  1.00  0.00    -0.262 C  
BRANCH  15  16
HETATM   16  N   UNL     1      -9.804  11.288  69.200  1.00  0.00    -0.416 NA 
HETATM   17  H   UNL     1      -9.413  11.034  70.107  1.00  0.00     0.000 HD 
BRANCH  16  18
HETATM   18  C   UNL     1      -8.986  10.797  68.095  1.00  0.00    -0.140 C  
BRANCH  18  19
HETATM   19  C   UNL     1      -9.742   9.721  67.325  1.00  0.00    -0.213 C  
BRANCH  19  20
HETATM   20  C   UNL     1      -8.839   8.513  67.085  1.00  0.00    -0.139 C  
BRANCH  20  21
HETATM   21  C   UNL     1      -8.051   8.172  68.341  1.00  0.00    -0.128 C  
BRANCH  21  22
HETATM   22  C   UNL     1      -7.031   7.072  68.077  1.00  0.00    -0.083 C  
BRANCH  22  23
HETATM   23  C   UNL     1      -7.177   6.544  66.659  1.00  0.00    -0.073 C  
BRANCH  23  24
HETATM   24  O   UNL     1      -6.566   5.262  66.590  1.00  0.00    -0.052 OA 
BRANCH  24  25
HETATM   25  C   UNL     1      -7.533   4.234  66.387  1.00  0.00    -0.085 C  
BRANCH  25  26
HETATM   26  C   UNL     1      -8.794   4.856  65.801  1.00  0.00    -0.135 C  
BRANCH  26  27
HETATM   27  C   UNL     1     -10.024   4.494  66.636  1.00  0.00    -0.253 C  
BRANCH  27  28
HETATM   28  C   UNL     1     -10.730   5.734  67.179  1.00  0.00    -0.358 C  
BRANCH  28  29
HETATM   29  C   UNL     1     -10.657   5.749  68.688  1.00  0.00    -0.305 A  
HETATM   30  C   UNL     1      -9.738   4.935  69.360  1.00  0.00    -0.261 A  
HETATM   31  C   UNL     1      -9.726   4.890  70.754  1.00  0.00    -0.268 A  
HETATM   32  C   UNL     1     -10.633   5.653  71.486  1.00  0.00    -0.306 A  
HETATM   33  C   UNL     1     -11.550   6.469  70.825  1.00  0.00    -0.437 A  
HETATM   34  C   UNL     1     -11.564   6.517  69.431  1.00  0.00    -0.249 A  
ENDBRANCH  28  29
ENDBRANCH  27  28
ENDBRANCH  26  27
ENDBRANCH  25  26
ENDBRANCH  24  25
ENDBRANCH  23  24
ENDBRANCH  22  23
ENDBRANCH  21  22
ENDBRANCH  20  21
ENDBRANCH  19  20
ENDBRANCH  18  19
ENDBRANCH  16  18
ENDBRANCH  15  16
ENDBRANCH  12  15
ENDBRANCH  10  12
ENDBRANCH   2   4
TORSDOF 16
ENDMDL
MODEL      191
REMARK 921   NORMALIZED FREE ENERGY PREDICTED BY IDOCK:   -4.67 KCAL/MOL
REMARK 922        TOTAL FREE ENERGY PREDICTED BY IDOCK:  -11.39 KCAL/MOL
REMARK 923 INTER-LIGAND FREE ENERGY PREDICTED BY IDOCK:   -9.83 KCAL/MOL
REMARK 924 INTRA-LIGAND FREE ENERGY PREDICTED BY IDOCK:   -1.56 KCAL/MOL
REMARK 927      BINDING AFFINITY PREDICTED BY RF-SCORE:    0.00 PKD
ROOT
HETATM    1  O   UNL     1     -12.767   7.107  72.229  1.00  0.00    -0.510 OA 
HETATM    2  C   UNL     1     -11.979   8.297  72.199  1.00  0.00    -0.369 C  
HETATM    3  H   UNL     1     -13.163   6.997  73.086  1.00  0.00     0.000 HD 
ENDROOT
BRANCH   2   4
HETATM    4  C   UNL     1     -11.350   8.471  70.841  1.00  0.00    -0.304 A  
HETATM    5  C   UNL     1     -10.894   7.393  70.073  1.00  0.00    -0.252 A  
HETATM    6  O   UNL     1     -10.932   6.109  70.541  1.00  0.00    -0.274 OA 
HETATM    7  C   UNL     1     -10.352   7.582  68.807  1.00  0.00    -0.212 A  
HETATM    8  C   UNL     1     -10.234   8.870  68.290  1.00  0.00    -0.239 A  
HETATM    9  H   UNL     1     -10.622   5.377  70.020  1.00  0.00     0.000 HD 
HETATM   10  C   UNL     1     -10.675   9.979  69.028  1.00  0.00    -0.244 A  
HETATM   11  C   UNL     1     -11.252   9.762  70.291  1.00  0.00    -0.347 A  
BRANCH  10  12
HETATM   12  C   UNL     1     -10.514  11.394  68.504  1.00  0.00    -0.203 C  
HETATM   13  O   UNL     1      -9.703  11.392  67.318  1.00  0.00    -0.183 OA 
HETATM   14  H   UNL     1      -9.602  12.278  66.989  1.00  0.00     0.000 HD 
BRANCH  12  15
HETATM   15  C   UNL     1     -11.871  12.054  68.180  1.00  0.00    -0.286 C  
BRANCH  15  16
HETATM   16  N   UNL     1     -11.927  12.498  66.778  1.00  0.00    -0.559 NA 
HETATM   17  H   UNL     1     -12.587  11.947  66.229  1.00  0.00     0.000 HD 
BRANCH  16  18
HETATM   18  C   UNL     1     -12.222  13.926  66.715  1.00  0.00    -0.399 C  
BRANCH  18  19
HETATM   19  C   UNL     1     -12.270  14.386  65.264  1.00  0.00    -0.377 C  
BRANCH  19  20
HETATM   20  C   UNL     1     -10.876  14.796  64.795  1.00  0.00    -0.395 C  
BRANCH  20  21
HETATM   21  C   UNL     1     -10.239  15.764  65.782  1.00  0.00    -0.394 C  
BRANCH  21  22
HETATM   22  C   UNL     1      -9.039  15.137  66.481  1.00  0.00    -0.328 C  
BRANCH  22  23
HETATM   23  C   UNL     1      -8.171  16.216  67.109  1.00  0.00    -0.196 C  
BRANCH  23  24
HETATM   24  O   UNL     1      -7.799  15.790  68.414  1.00  0.00    -0.130 OA 
BRANCH  24  25
HETATM   25  C   UNL     1      -6.824  16.658  68.987  1.00  0.00    -0.207 C  
BRANCH  25  26
HETATM   26  C   UNL     1      -6.183  17.478  67.875  1.00  0.00    -0.163 C  
BRANCH  26  27
HETATM   27  C   UNL     1      -6.014  18.939  68.298  1.00  0.00    -0.218 C  
BRANCH  27  28
HETATM   28  C   UNL     1      -7.227  19.453  69.071  1.00  0.00    -0.397 C  
BRANCH  28  29
HETATM   29  C   UNL     1      -8.419  19.557  68.148  1.00  0.00    -0.361 A  
HETATM   30  C   UNL     1      -9.671  19.079  68.551  1.00  0.00    -0.458 A  
HETATM   31  C   UNL     1     -10.750  19.102  67.668  1.00  0.00    -0.514 A  
HETATM   32  C   UNL     1     -10.587  19.599  66.377  1.00  0.00    -0.592 A  
HETATM   33  C   UNL     1      -9.344  20.080  65.967  1.00  0.00    -0.351 A  
HETATM   34  C   UNL     1      -8.262  20.059  66.848  1.00  0.00    -0.368 A  
ENDBRANCH  28  29
ENDBRANCH  27  28
ENDBRANCH  26  27
ENDBRANCH  25  26
ENDBRANCH  24  25
ENDBRANCH  23  24
ENDBRANCH  22  23
ENDBRANCH  21  22
ENDBRANCH  20  21
ENDBRANCH  19  20
ENDBRANCH  18  19
ENDBRANCH  16  18
ENDBRANCH  15  16
ENDBRANCH  12  15
ENDBRANCH  10  12
ENDBRANCH   2   4
TORSDOF 16
ENDMDL
MODEL      192
REMARK 921   NORMALIZED FREE ENERGY PREDICTED BY IDOCK:   -4.67 KCAL/MOL
REMARK 922        TOTAL FREE ENERGY PREDICTED BY IDOCK:  -11.39 KCAL/MOL
REMARK 923 INTER-LIGAND FREE ENERGY PREDICTED BY IDOCK:   -7.57 KCAL/MOL
REMARK 924 INTRA-LIGAND FREE ENERGY PREDICTED BY IDOCK:   -3.81 KCAL/MOL
REMARK 927      BINDING AFFINITY PREDICTED BY RF-SCORE:    0.00 PKD
ROOT
HETATM    1  O   UNL     1      -5.979   8.998  64.674  1.00  0.00    -0.064 OA 
HETATM    2  C   UNL     1      -6.540   9.291  65.955  1.00  0.00    -0.076 C  
HETATM    3  H   UNL     1      -5.191   8.477  64.772  1.00  0.00     0.000 HD 
ENDROOT
BRANCH   2   4
HETATM    4  C   UNL     1      -7.789  10.118  65.800  1.00  0.00    -0.139 A  
HETATM    5  C   UNL     1      -8.882   9.703  65.031  1.00  0.00    -0.186 A  
HETATM    6  O   UNL     1      -8.858   8.539  64.314  1.00  0.00    -0.408 OA 
HETATM    7  C   UNL     1     -10.037  10.471  64.937  1.00  0.00    -0.403 A  
HETATM    8  C   UNL     1     -10.110  11.694  65.598  1.00  0.00    -0.278 A  
HETATM    9  H   UNL     1      -9.600   8.257  63.791  1.00  0.00     0.000 HD 
HETATM   10  C   UNL     1      -9.035  12.151  66.377  1.00  0.00    -0.138 A  
HETATM   11  C   UNL     1      -7.891  11.341  66.487  1.00  0.00    -0.133 A  
BRANCH  10  12
HETATM   12  C   UNL     1      -9.076  13.500  67.069  1.00  0.00    -0.244 C  
HETATM   13  O   UNL     1      -8.871  14.552  66.113  1.00  0.00    -0.480 OA 
HETATM   14  H   UNL     1      -8.896  15.398  66.546  1.00  0.00     0.000 HD 
BRANCH  12  15
HETATM   15  C   UNL     1     -10.414  13.742  67.799  1.00  0.00    -0.240 C  
BRANCH  15  16
HETATM   16  N   UNL     1     -10.534  12.884  68.990  1.00  0.00    -0.437 NA 
HETATM   17  H   UNL     1     -10.484  13.423  69.855  1.00  0.00     0.000 HD 
BRANCH  16  18
HETATM   18  C   UNL     1     -11.753  12.086  68.912  1.00  0.00    -0.326 C  
BRANCH  18  19
HETATM   19  C   UNL     1     -11.553  10.756  69.628  1.00  0.00    -0.388 C  
BRANCH  19  20
HETATM   20  C   UNL     1     -10.352  10.018  69.043  1.00  0.00    -0.223 C  
BRANCH  20  21
HETATM   21  C   UNL     1      -9.452   9.492  70.151  1.00  0.00    -0.287 C  
BRANCH  21  22
HETATM   22  C   UNL     1      -8.091   9.069  69.610  1.00  0.00    -0.103 C  
BRANCH  22  23
HETATM   23  C   UNL     1      -7.120   8.825  70.755  1.00  0.00    -0.069 C  
BRANCH  23  24
HETATM   24  O   UNL     1      -7.837   8.918  71.980  1.00  0.00    -0.338 OA 
BRANCH  24  25
HETATM   25  C   UNL     1      -7.208   8.160  73.011  1.00  0.00    -0.114 C  
BRANCH  25  26
HETATM   26  C   UNL     1      -8.211   7.935  74.136  1.00  0.00    -0.303 C  
BRANCH  26  27
HETATM   27  C   UNL     1      -9.634   7.821  73.587  1.00  0.00    -0.280 C  
BRANCH  27  28
HETATM   28  C   UNL     1      -9.988   6.383  73.212  1.00  0.00    -0.195 C  
BRANCH  28  29
HETATM   29  C   UNL     1     -10.205   6.280  71.721  1.00  0.00    -0.224 A  
HETATM   30  C   UNL     1     -11.432   6.645  71.157  1.00  0.00    -0.370 A  
HETATM   31  C   UNL     1     -11.658   6.473  69.791  1.00  0.00    -0.392 A  
HETATM   32  C   UNL     1     -10.662   5.932  68.981  1.00  0.00    -0.379 A  
HETATM   33  C   UNL     1      -9.435   5.568  69.534  1.00  0.00    -0.185 A  
HETATM   34  C   UNL     1      -9.206   5.740  70.899  1.00  0.00    -0.174 A  
ENDBRANCH  28  29
ENDBRANCH  27  28
ENDBRANCH  26  27
ENDBRANCH  25  26
ENDBRANCH  24  25
ENDBRANCH  23  24
ENDBRANCH  22  23
ENDBRANCH  21  22
ENDBRANCH  20  21
ENDBRANCH  19  20
ENDBRANCH  18  19
ENDBRANCH  16  18
ENDBRANCH  15  16
ENDBRANCH  12  15
ENDBRANCH  10  12
ENDBRANCH   2   4
TORSDOF 16
ENDMDL
MODEL      193
REMARK 921   NORMALIZED FREE ENERGY PREDICTED BY IDOCK:   -4.67 KCAL/MOL
REMARK 922        TOTAL FREE ENERGY PREDICTED BY IDOCK:  -11.38 KCAL/MOL
REMARK 923 INTER-LIGAND FREE ENERGY PREDICTED BY IDOCK:   -8.32 KCAL/MOL
REMARK 924 INTRA-LIGAND FREE ENERGY PREDICTED BY IDOCK:   -3.06 KCAL/MOL
REMARK 927      BINDING AFFINITY PREDICTED BY RF-SCORE:    0.00 PKD
ROOT
HETATM    1  O   UNL     1     -11.680   6.498  67.696  1.00  0.00    -0.571 OA 
HETATM    2  C   UNL     1     -10.614   6.302  66.766  1.00  0.00    -0.265 C  
HETATM    3  H   UNL     1     -12.505   6.223  67.312  1.00  0.00     0.000 HD 
ENDROOT
BRANCH   2   4
HETATM    4  C   UNL     1      -9.307   6.738  67.373  1.00  0.00    -0.140 A  
HETATM    5  C   UNL     1      -8.971   6.488  68.709  1.00  0.00    -0.124 A  
HETATM    6  O   UNL     1      -9.843   5.883  69.570  1.00  0.00    -0.155 OA 
HETATM    7  C   UNL     1      -7.740   6.870  69.231  1.00  0.00    -0.105 A  
HETATM    8  C   UNL     1      -6.823   7.539  68.425  1.00  0.00    -0.063 A  
HETATM    9  H   UNL     1      -9.615   5.713  70.477  1.00  0.00     0.000 HD 
HETATM   10  C   UNL     1      -7.121   7.814  67.080  1.00  0.00    -0.085 A  
HETATM   11  C   UNL     1      -8.357   7.386  66.563  1.00  0.00    -0.124 A  
BRANCH  10  12
HETATM   12  C   UNL     1      -6.156   8.581  66.196  1.00  0.00    -0.052 C  
HETATM   13  O   UNL     1      -6.606   8.551  64.832  1.00  0.00    -0.066 OA 
HETATM   14  H   UNL     1      -6.001   9.032  64.278  1.00  0.00     0.000 HD 
BRANCH  12  15
HETATM   15  C   UNL     1      -6.000  10.051  66.640  1.00  0.00    -0.056 C  
BRANCH  15  16
HETATM   16  N   UNL     1      -6.822  10.948  65.811  1.00  0.00    -0.336 NA 
HETATM   17  H   UNL     1      -7.017  10.547  64.893  1.00  0.00     0.000 HD 
BRANCH  16  18
HETATM   18  C   UNL     1      -8.044  11.308  66.521  1.00  0.00    -0.160 C  
BRANCH  18  19
HETATM   19  C   UNL     1      -9.126  11.713  65.528  1.00  0.00    -0.048 C  
BRANCH  19  20
HETATM   20  C   UNL     1      -9.680  10.479  64.819  1.00  0.00    -0.365 C  
BRANCH  20  21
HETATM   21  C   UNL     1     -10.281  10.857  63.474  1.00  0.00    -0.379 C  
BRANCH  21  22
HETATM   22  C   UNL     1     -10.813  12.285  63.482  1.00  0.00    -0.508 C  
BRANCH  22  23
HETATM   23  C   UNL     1     -12.319  12.287  63.691  1.00  0.00    -0.562 C  
BRANCH  23  24
HETATM   24  O   UNL     1     -12.696  13.543  64.240  1.00  0.00    -0.645 OA 
BRANCH  24  25
HETATM   25  C   UNL     1     -12.730  13.499  65.665  1.00  0.00    -0.421 C  
BRANCH  25  26
HETATM   26  C   UNL     1     -11.694  14.473  66.211  1.00  0.00    -0.364 C  
BRANCH  26  27
HETATM   27  C   UNL     1     -11.045  13.927  67.484  1.00  0.00    -0.302 C  
BRANCH  27  28
HETATM   28  C   UNL     1     -12.085  13.487  68.512  1.00  0.00    -0.303 C  
BRANCH  28  29
HETATM   29  C   UNL     1     -11.783  12.084  68.981  1.00  0.00    -0.382 A  
HETATM   30  C   UNL     1     -11.946  11.736  70.326  1.00  0.00    -0.429 A  
HETATM   31  C   UNL     1     -11.590  10.464  70.773  1.00  0.00    -0.450 A  
HETATM   32  C   UNL     1     -11.066   9.531  69.880  1.00  0.00    -0.244 A  
HETATM   33  C   UNL     1     -10.904   9.867  68.536  1.00  0.00    -0.257 A  
HETATM   34  C   UNL     1     -11.260  11.139  68.087  1.00  0.00    -0.356 A  
ENDBRANCH  28  29
ENDBRANCH  27  28
ENDBRANCH  26  27
ENDBRANCH  25  26
ENDBRANCH  24  25
ENDBRANCH  23  24
ENDBRANCH  22  23
ENDBRANCH  21  22
ENDBRANCH  20  21
ENDBRANCH  19  20
ENDBRANCH  18  19
ENDBRANCH  16  18
ENDBRANCH  15  16
ENDBRANCH  12  15
ENDBRANCH  10  12
ENDBRANCH   2   4
TORSDOF 16
ENDMDL
MODEL      194
REMARK 921   NORMALIZED FREE ENERGY PREDICTED BY IDOCK:   -4.66 KCAL/MOL
REMARK 922        TOTAL FREE ENERGY PREDICTED BY IDOCK:  -11.37 KCAL/MOL
REMARK 923 INTER-LIGAND FREE ENERGY PREDICTED BY IDOCK:   -8.72 KCAL/MOL
REMARK 924 INTRA-LIGAND FREE ENERGY PREDICTED BY IDOCK:   -2.65 KCAL/MOL
REMARK 927      BINDING AFFINITY PREDICTED BY RF-SCORE:    0.00 PKD
ROOT
HETATM    1  O   UNL     1      -9.780   2.846  67.518  1.00  0.00    -0.355 OA 
HETATM    2  C   UNL     1      -9.653   4.261  67.666  1.00  0.00    -0.165 C  
HETATM    3  H   UNL     1      -9.532   2.584  66.638  1.00  0.00     0.000 HD 
ENDROOT
BRANCH   2   4
HETATM    4  C   UNL     1     -10.046   4.676  69.059  1.00  0.00    -0.117 A  
HETATM    5  C   UNL     1      -9.682   3.948  70.198  1.00  0.00    -0.172 A  
HETATM    6  O   UNL     1      -8.994   2.769  70.110  1.00  0.00    -0.081 OA 
HETATM    7  C   UNL     1     -10.027   4.376  71.475  1.00  0.00    -0.250 A  
HETATM    8  C   UNL     1     -10.773   5.541  71.635  1.00  0.00    -0.296 A  
HETATM    9  H   UNL     1      -8.747   2.275  70.883  1.00  0.00     0.000 HD 
HETATM   10  C   UNL     1     -11.164   6.299  70.520  1.00  0.00    -0.420 A  
HETATM   11  C   UNL     1     -10.772   5.867  69.241  1.00  0.00    -0.401 A  
BRANCH  10  12
HETATM   12  C   UNL     1     -12.015   7.546  70.669  1.00  0.00    -0.133 C  
HETATM   13  O   UNL     1     -13.388   7.185  70.882  1.00  0.00    -0.563 OA 
HETATM   14  H   UNL     1     -13.922   7.966  70.976  1.00  0.00     0.000 HD 
BRANCH  12  15
HETATM   15  C   UNL     1     -11.545   8.438  71.838  1.00  0.00    -0.329 C  
BRANCH  15  16
HETATM   16  N   UNL     1     -11.765   9.863  71.544  1.00  0.00    -0.372 NA 
HETATM   17  H   UNL     1     -11.319  10.469  72.233  1.00  0.00     0.000 HD 
BRANCH  16  18
HETATM   18  C   UNL     1     -11.326  10.167  70.185  1.00  0.00    -0.303 C  
BRANCH  18  19
HETATM   19  C   UNL     1     -11.698  11.600  69.825  1.00  0.00    -0.425 C  
BRANCH  19  20
HETATM   20  C   UNL     1     -11.109  11.971  68.466  1.00  0.00    -0.289 C  
BRANCH  20  21
HETATM   21  C   UNL     1      -9.838  11.179  68.196  1.00  0.00    -0.188 C  
BRANCH  21  22
HETATM   22  C   UNL     1      -9.806  10.646  66.769  1.00  0.00    -0.240 C  
BRANCH  22  23
HETATM   23  C   UNL     1     -10.899  11.299  65.937  1.00  0.00    -0.202 C  
BRANCH  23  24
HETATM   24  O   UNL     1     -10.501  11.273  64.572  1.00  0.00    -0.294 OA 
BRANCH  24  25
HETATM   25  C   UNL     1     -11.160  12.287  63.818  1.00  0.00    -0.442 C  
BRANCH  25  26
HETATM   26  C   UNL     1     -12.156  13.002  64.721  1.00  0.00    -0.465 C  
BRANCH  26  27
HETATM   27  C   UNL     1     -11.961  14.518  64.663  1.00  0.00    -0.478 C  
BRANCH  27  28
HETATM   28  C   UNL     1     -10.491  14.910  64.802  1.00  0.00    -0.296 C  
BRANCH  28  29
HETATM   29  C   UNL     1     -10.094  14.911  66.259  1.00  0.00    -0.298 A  
HETATM   30  C   UNL     1     -10.961  15.427  67.229  1.00  0.00    -0.317 A  
HETATM   31  C   UNL     1     -10.560  15.501  68.563  1.00  0.00    -0.246 A  
HETATM   32  C   UNL     1      -9.292  15.064  68.937  1.00  0.00    -0.208 A  
HETATM   33  C   UNL     1      -8.422  14.545  67.978  1.00  0.00    -0.161 A  
HETATM   34  C   UNL     1      -8.820  14.469  66.643  1.00  0.00    -0.214 A  
ENDBRANCH  28  29
ENDBRANCH  27  28
ENDBRANCH  26  27
ENDBRANCH  25  26
ENDBRANCH  24  25
ENDBRANCH  23  24
ENDBRANCH  22  23
ENDBRANCH  21  22
ENDBRANCH  20  21
ENDBRANCH  19  20
ENDBRANCH  18  19
ENDBRANCH  16  18
ENDBRANCH  15  16
ENDBRANCH  12  15
ENDBRANCH  10  12
ENDBRANCH   2   4
TORSDOF 16
ENDMDL
MODEL      195
REMARK 921   NORMALIZED FREE ENERGY PREDICTED BY IDOCK:   -4.66 KCAL/MOL
REMARK 922        TOTAL FREE ENERGY PREDICTED BY IDOCK:  -11.37 KCAL/MOL
REMARK 923 INTER-LIGAND FREE ENERGY PREDICTED BY IDOCK:   -8.83 KCAL/MOL
REMARK 924 INTRA-LIGAND FREE ENERGY PREDICTED BY IDOCK:   -2.53 KCAL/MOL
REMARK 927      BINDING AFFINITY PREDICTED BY RF-SCORE:    0.00 PKD
ROOT
HETATM    1  O   UNL     1     -11.222  14.120  67.911  1.00  0.00    -0.260 OA 
HETATM    2  C   UNL     1     -11.863  12.907  67.515  1.00  0.00    -0.351 C  
HETATM    3  H   UNL     1     -11.263  14.220  68.856  1.00  0.00     0.000 HD 
ENDROOT
BRANCH   2   4
HETATM    4  C   UNL     1     -11.798  12.749  66.018  1.00  0.00    -0.495 A  
HETATM    5  C   UNL     1     -12.656  13.430  65.147  1.00  0.00    -0.440 A  
HETATM    6  O   UNL     1     -13.657  14.239  65.607  1.00  0.00    -0.633 OA 
HETATM    7  C   UNL     1     -12.548  13.293  63.767  1.00  0.00    -0.216 A  
HETATM    8  C   UNL     1     -11.584  12.443  63.230  1.00  0.00    -0.450 A  
HETATM    9  H   UNL     1     -14.240  14.701  65.016  1.00  0.00     0.000 HD 
HETATM   10  C   UNL     1     -10.706  11.738  64.068  1.00  0.00    -0.434 A  
HETATM   11  C   UNL     1     -10.810  11.919  65.458  1.00  0.00    -0.343 A  
BRANCH  10  12
HETATM   12  C   UNL     1      -9.679  10.772  63.506  1.00  0.00    -0.341 C  
HETATM   13  O   UNL     1      -8.624  11.497  62.856  1.00  0.00    -0.500 OA 
HETATM   14  H   UNL     1      -7.980  10.892  62.504  1.00  0.00     0.000 HD 
BRANCH  12  15
HETATM   15  C   UNL     1      -9.068   9.870  64.599  1.00  0.00    -0.242 C  
BRANCH  15  16
HETATM   16  N   UNL     1      -8.783   8.522  64.079  1.00  0.00    -0.413 NA 
HETATM   17  H   UNL     1      -8.315   8.553  63.174  1.00  0.00     0.000 HD 
BRANCH  16  18
HETATM   18  C   UNL     1      -8.022   7.757  65.062  1.00  0.00    -0.134 C  
BRANCH  18  19
HETATM   19  C   UNL     1      -8.892   7.454  66.275  1.00  0.00    -0.182 C  
BRANCH  19  20
HETATM   20  C   UNL     1      -8.017   7.128  67.483  1.00  0.00    -0.113 C  
BRANCH  20  21
HETATM   21  C   UNL     1      -6.566   7.501  67.212  1.00  0.00    -0.062 C  
BRANCH  21  22
HETATM   22  C   UNL     1      -6.000   8.379  68.321  1.00  0.00    -0.046 C  
BRANCH  22  23
HETATM   23  C   UNL     1      -5.698   9.772  67.789  1.00  0.00    -0.040 C  
BRANCH  23  24
HETATM   24  O   UNL     1      -6.913  10.352  67.332  1.00  0.00    -0.082 OA 
BRANCH  24  25
HETATM   25  C   UNL     1      -7.211  11.557  68.032  1.00  0.00    -0.085 C  
BRANCH  25  26
HETATM   26  C   UNL     1      -8.684  11.548  68.420  1.00  0.00    -0.160 C  
BRANCH  26  27
HETATM   27  C   UNL     1      -9.037  10.281  69.200  1.00  0.00    -0.199 C  
BRANCH  27  28
HETATM   28  C   UNL     1     -10.368   9.683  68.747  1.00  0.00    -0.233 C  
BRANCH  28  29
HETATM   29  C   UNL     1     -11.368   9.738  69.877  1.00  0.00    -0.238 A  
HETATM   30  C   UNL     1     -11.996  10.943  70.210  1.00  0.00    -0.448 A  
HETATM   31  C   UNL     1     -12.858  11.009  71.305  1.00  0.00    -0.528 A  
HETATM   32  C   UNL     1     -13.096   9.874  72.076  1.00  0.00    -0.545 A  
HETATM   33  C   UNL     1     -12.477   8.667  71.751  1.00  0.00    -0.397 A  
HETATM   34  C   UNL     1     -11.615   8.598  70.656  1.00  0.00    -0.225 A  
ENDBRANCH  28  29
ENDBRANCH  27  28
ENDBRANCH  26  27
ENDBRANCH  25  26
ENDBRANCH  24  25
ENDBRANCH  23  24
ENDBRANCH  22  23
ENDBRANCH  21  22
ENDBRANCH  20  21
ENDBRANCH  19  20
ENDBRANCH  18  19
ENDBRANCH  16  18
ENDBRANCH  15  16
ENDBRANCH  12  15
ENDBRANCH  10  12
ENDBRANCH   2   4
TORSDOF 16
ENDMDL
MODEL      196
REMARK 921   NORMALIZED FREE ENERGY PREDICTED BY IDOCK:   -4.65 KCAL/MOL
REMARK 922        TOTAL FREE ENERGY PREDICTED BY IDOCK:  -11.35 KCAL/MOL
REMARK 923 INTER-LIGAND FREE ENERGY PREDICTED BY IDOCK:   -8.70 KCAL/MOL
REMARK 924 INTRA-LIGAND FREE ENERGY PREDICTED BY IDOCK:   -2.64 KCAL/MOL
REMARK 927      BINDING AFFINITY PREDICTED BY RF-SCORE:    0.00 PKD
ROOT
HETATM    1  O   UNL     1     -11.787   8.217  72.505  1.00  0.00    -0.379 OA 
HETATM    2  C   UNL     1     -11.769   9.262  71.531  1.00  0.00    -0.380 C  
HETATM    3  H   UNL     1     -12.435   8.403  73.174  1.00  0.00     0.000 HD 
ENDROOT
BRANCH   2   4
HETATM    4  C   UNL     1     -10.741   8.967  70.470  1.00  0.00    -0.285 A  
HETATM    5  C   UNL     1     -10.849   7.884  69.591  1.00  0.00    -0.176 A  
HETATM    6  O   UNL     1     -11.870   6.979  69.684  1.00  0.00    -0.573 OA 
HETATM    7  C   UNL     1      -9.903   7.659  68.597  1.00  0.00    -0.175 A  
HETATM    8  C   UNL     1      -8.807   8.510  68.479  1.00  0.00    -0.139 A  
HETATM    9  H   UNL     1     -11.943   6.243  69.088  1.00  0.00     0.000 HD 
HETATM   10  C   UNL     1      -8.659   9.607  69.343  1.00  0.00    -0.160 A  
HETATM   11  C   UNL     1      -9.646   9.836  70.317  1.00  0.00    -0.264 A  
BRANCH  10  12
HETATM   12  C   UNL     1      -7.450  10.521  69.261  1.00  0.00    -0.122 C  
HETATM   13  O   UNL     1      -6.330   9.811  68.710  1.00  0.00    -0.046 OA 
HETATM   14  H   UNL     1      -5.573  10.383  68.658  1.00  0.00     0.000 HD 
BRANCH  12  15
HETATM   15  C   UNL     1      -7.722  11.773  68.400  1.00  0.00    -0.131 C  
BRANCH  15  16
HETATM   16  N   UNL     1      -7.406  13.006  69.139  1.00  0.00    -0.305 NA 
HETATM   17  H   UNL     1      -6.407  13.096  69.323  1.00  0.00     0.000 HD 
BRANCH  16  18
HETATM   18  C   UNL     1      -7.937  14.165  68.429  1.00  0.00    -0.142 C  
BRANCH  18  19
HETATM   19  C   UNL     1      -7.515  15.448  69.133  1.00  0.00    -0.189 C  
BRANCH  19  20
HETATM   20  C   UNL     1      -7.531  16.618  68.152  1.00  0.00    -0.170 C  
BRANCH  20  21
HETATM   21  C   UNL     1      -8.381  17.760  68.692  1.00  0.00    -0.274 C  
BRANCH  21  22
HETATM   22  C   UNL     1      -9.863  17.403  68.683  1.00  0.00    -0.322 C  
BRANCH  22  23
HETATM   23  C   UNL     1     -10.286  16.937  67.299  1.00  0.00    -0.297 C  
BRANCH  23  24
HETATM   24  O   UNL     1     -11.019  15.726  67.437  1.00  0.00    -0.320 OA 
BRANCH  24  25
HETATM   25  C   UNL     1     -11.641  15.637  68.717  1.00  0.00    -0.384 C  
BRANCH  25  26
HETATM   26  C   UNL     1     -12.114  14.205  68.933  1.00  0.00    -0.339 C  
BRANCH  26  27
HETATM   27  C   UNL     1     -11.094  13.202  68.389  1.00  0.00    -0.298 C  
BRANCH  27  28
HETATM   28  C   UNL     1     -11.764  11.932  67.869  1.00  0.00    -0.368 C  
BRANCH  28  29
HETATM   29  C   UNL     1     -11.449  11.748  66.403  1.00  0.00    -0.309 A  
HETATM   30  C   UNL     1     -10.435  10.873  66.001  1.00  0.00    -0.287 A  
HETATM   31  C   UNL     1     -10.091  10.765  64.654  1.00  0.00    -0.410 A  
HETATM   32  C   UNL     1     -10.756  11.532  63.699  1.00  0.00    -0.491 A  
HETATM   33  C   UNL     1     -11.771  12.404  64.090  1.00  0.00    -0.476 A  
HETATM   34  C   UNL     1     -12.117  12.514  65.437  1.00  0.00    -0.494 A  
ENDBRANCH  28  29
ENDBRANCH  27  28
ENDBRANCH  26  27
ENDBRANCH  25  26
ENDBRANCH  24  25
ENDBRANCH  23  24
ENDBRANCH  22  23
ENDBRANCH  21  22
ENDBRANCH  20  21
ENDBRANCH  19  20
ENDBRANCH  18  19
ENDBRANCH  16  18
ENDBRANCH  15  16
ENDBRANCH  12  15
ENDBRANCH  10  12
ENDBRANCH   2   4
TORSDOF 16
ENDMDL
MODEL      197
REMARK 921   NORMALIZED FREE ENERGY PREDICTED BY IDOCK:   -4.64 KCAL/MOL
REMARK 922        TOTAL FREE ENERGY PREDICTED BY IDOCK:  -11.33 KCAL/MOL
REMARK 923 INTER-LIGAND FREE ENERGY PREDICTED BY IDOCK:   -8.72 KCAL/MOL
REMARK 924 INTRA-LIGAND FREE ENERGY PREDICTED BY IDOCK:   -2.61 KCAL/MOL
REMARK 927      BINDING AFFINITY PREDICTED BY RF-SCORE:    0.00 PKD
ROOT
HETATM    1  O   UNL     1     -12.519   6.725  70.683  1.00  0.00    -0.521 OA 
HETATM    2  C   UNL     1     -11.272   6.216  70.206  1.00  0.00    -0.369 C  
HETATM    3  H   UNL     1     -12.944   6.082  71.239  1.00  0.00     0.000 HD 
ENDROOT
BRANCH   2   4
HETATM    4  C   UNL     1     -10.598   7.234  69.324  1.00  0.00    -0.230 A  
HETATM    5  C   UNL     1     -10.793   7.286  67.939  1.00  0.00    -0.114 A  
HETATM    6  O   UNL     1     -11.566   6.366  67.286  1.00  0.00    -0.695 OA 
HETATM    7  C   UNL     1     -10.186   8.261  67.156  1.00  0.00    -0.365 A  
HETATM    8  C   UNL     1      -9.343   9.198  67.748  1.00  0.00    -0.152 A  
HETATM    9  H   UNL     1     -11.698   6.400  66.346  1.00  0.00     0.000 HD 
HETATM   10  C   UNL     1      -9.116   9.180  69.133  1.00  0.00    -0.144 A  
HETATM   11  C   UNL     1      -9.768   8.207  69.911  1.00  0.00    -0.176 A  
BRANCH  10  12
HETATM   12  C   UNL     1      -8.166  10.163  69.792  1.00  0.00    -0.145 C  
HETATM   13  O   UNL     1      -7.756   9.668  71.077  1.00  0.00    -0.323 OA 
HETATM   14  H   UNL     1      -7.161  10.283  71.490  1.00  0.00     0.000 HD 
BRANCH  12  15
HETATM   15  C   UNL     1      -6.911  10.427  68.934  1.00  0.00    -0.061 C  
BRANCH  15  16
HETATM   16  N   UNL     1      -6.637  11.869  68.820  1.00  0.00    -0.074 NA 
HETATM   17  H   UNL     1      -5.649  12.082  68.958  1.00  0.00     0.000 HD 
BRANCH  16  18
HETATM   18  C   UNL     1      -7.132  12.374  67.544  1.00  0.00    -0.145 C  
BRANCH  18  19
HETATM   19  C   UNL     1      -8.214  13.420  67.780  1.00  0.00    -0.172 C  
BRANCH  19  20
HETATM   20  C   UNL     1      -7.763  14.776  67.240  1.00  0.00    -0.214 C  
BRANCH  20  21
HETATM   21  C   UNL     1      -8.829  15.373  66.333  1.00  0.00    -0.340 C  
BRANCH  21  22
HETATM   22  C   UNL     1      -8.781  16.896  66.345  1.00  0.00    -0.321 C  
BRANCH  22  23
HETATM   23  C   UNL     1      -9.972  17.457  67.107  1.00  0.00    -0.291 C  
BRANCH  23  24
HETATM   24  O   UNL     1      -9.845  17.087  68.475  1.00  0.00    -0.263 OA 
BRANCH  24  25
HETATM   25  C   UNL     1     -11.094  16.672  69.020  1.00  0.00    -0.234 C  
BRANCH  25  26
HETATM   26  C   UNL     1     -11.061  15.163  69.228  1.00  0.00    -0.279 C  
BRANCH  26  27
HETATM   27  C   UNL     1     -12.020  14.456  68.269  1.00  0.00    -0.323 C  
BRANCH  27  28
HETATM   28  C   UNL     1     -11.530  13.057  67.900  1.00  0.00    -0.352 C  
BRANCH  28  29
HETATM   29  C   UNL     1     -11.599  12.865  66.404  1.00  0.00    -0.425 A  
HETATM   30  C   UNL     1     -12.644  13.431  65.665  1.00  0.00    -0.496 A  
HETATM   31  C   UNL     1     -12.751  13.186  64.296  1.00  0.00    -0.191 A  
HETATM   32  C   UNL     1     -11.818  12.373  63.656  1.00  0.00    -0.610 A  
HETATM   33  C   UNL     1     -10.771  11.808  64.383  1.00  0.00    -0.381 A  
HETATM   34  C   UNL     1     -10.661  12.052  65.753  1.00  0.00    -0.319 A  
ENDBRANCH  28  29
ENDBRANCH  27  28
ENDBRANCH  26  27
ENDBRANCH  25  26
ENDBRANCH  24  25
ENDBRANCH  23  24
ENDBRANCH  22  23
ENDBRANCH  21  22
ENDBRANCH  20  21
ENDBRANCH  19  20
ENDBRANCH  18  19
ENDBRANCH  16  18
ENDBRANCH  15  16
ENDBRANCH  12  15
ENDBRANCH  10  12
ENDBRANCH   2   4
TORSDOF 16
ENDMDL
MODEL      198
REMARK 921   NORMALIZED FREE ENERGY PREDICTED BY IDOCK:   -4.64 KCAL/MOL
REMARK 922        TOTAL FREE ENERGY PREDICTED BY IDOCK:  -11.32 KCAL/MOL
REMARK 923 INTER-LIGAND FREE ENERGY PREDICTED BY IDOCK:   -8.48 KCAL/MOL
REMARK 924 INTRA-LIGAND FREE ENERGY PREDICTED BY IDOCK:   -2.84 KCAL/MOL
REMARK 927      BINDING AFFINITY PREDICTED BY RF-SCORE:    0.00 PKD
ROOT
HETATM    1  O   UNL     1      -9.288  14.726  69.824  1.00  0.00    -0.423 OA 
HETATM    2  C   UNL     1      -9.502  14.994  68.437  1.00  0.00    -0.201 C  
HETATM    3  H   UNL     1      -8.930  15.494  70.255  1.00  0.00     0.000 HD 
ENDROOT
BRANCH   2   4
HETATM    4  C   UNL     1     -10.070  13.778  67.754  1.00  0.00    -0.245 A  
HETATM    5  C   UNL     1     -11.425  13.657  67.424  1.00  0.00    -0.336 A  
HETATM    6  O   UNL     1     -12.337  14.617  67.764  1.00  0.00    -0.602 OA 
HETATM    7  C   UNL     1     -11.913  12.537  66.760  1.00  0.00    -0.327 A  
HETATM    8  C   UNL     1     -11.049  11.496  66.430  1.00  0.00    -0.328 A  
HETATM    9  H   UNL     1     -13.257  14.534  67.541  1.00  0.00     0.000 HD 
HETATM   10  C   UNL     1      -9.683  11.575  66.746  1.00  0.00    -0.220 A  
HETATM   11  C   UNL     1      -9.204  12.732  67.386  1.00  0.00    -0.193 A  
BRANCH  10  12
HETATM   12  C   UNL     1      -8.732  10.433  66.437  1.00  0.00    -0.141 C  
HETATM   13  O   UNL     1      -7.912  10.150  67.582  1.00  0.00    -0.102 OA 
HETATM   14  H   UNL     1      -7.317   9.435  67.389  1.00  0.00     0.000 HD 
BRANCH  12  15
HETATM   15  C   UNL     1      -9.479   9.147  66.026  1.00  0.00    -0.255 C  
BRANCH  15  16
HETATM   16  N   UNL     1      -9.536   8.185  67.139  1.00  0.00    -0.152 NA 
HETATM   17  H   UNL     1      -9.147   8.572  67.998  1.00  0.00     0.000 HD 
BRANCH  16  18
HETATM   18  C   UNL     1     -10.904   7.711  67.322  1.00  0.00    -0.193 C  
BRANCH  18  19
HETATM   19  C   UNL     1     -10.896   6.276  67.834  1.00  0.00    -0.417 C  
BRANCH  19  20
HETATM   20  C   UNL     1      -9.757   6.079  68.832  1.00  0.00    -0.159 C  
BRANCH  20  21
HETATM   21  C   UNL     1     -10.118   5.013  69.856  1.00  0.00    -0.344 C  
BRANCH  21  22
HETATM   22  C   UNL     1      -8.876   4.311  70.391  1.00  0.00    -0.133 C  
BRANCH  22  23
HETATM   23  C   UNL     1      -8.059   5.264  71.249  1.00  0.00    -0.114 C  
BRANCH  23  24
HETATM   24  O   UNL     1      -8.133   4.828  72.601  1.00  0.00    -0.098 OA 
BRANCH  24  25
HETATM   25  C   UNL     1      -9.268   5.380  73.265  1.00  0.00    -0.132 C  
BRANCH  25  26
HETATM   26  C   UNL     1      -9.264   6.891  73.069  1.00  0.00    -0.153 C  
BRANCH  26  27
HETATM   27  C   UNL     1     -10.620   7.495  73.437  1.00  0.00    -0.409 C  
BRANCH  27  28
HETATM   28  C   UNL     1     -11.622   7.390  72.289  1.00  0.00    -0.333 C  
BRANCH  28  29
HETATM   29  C   UNL     1     -11.750   8.724  71.594  1.00  0.00    -0.402 A  
HETATM   30  C   UNL     1     -12.813   9.582  71.895  1.00  0.00    -0.508 A  
HETATM   31  C   UNL     1     -12.974  10.777  71.194  1.00  0.00    -0.467 A  
HETATM   32  C   UNL     1     -12.076  11.123  70.186  1.00  0.00    -0.443 A  
HETATM   33  C   UNL     1     -11.011  10.276  69.881  1.00  0.00    -0.358 A  
HETATM   34  C   UNL     1     -10.848   9.080  70.581  1.00  0.00    -0.295 A  
ENDBRANCH  28  29
ENDBRANCH  27  28
ENDBRANCH  26  27
ENDBRANCH  25  26
ENDBRANCH  24  25
ENDBRANCH  23  24
ENDBRANCH  22  23
ENDBRANCH  21  22
ENDBRANCH  20  21
ENDBRANCH  19  20
ENDBRANCH  18  19
ENDBRANCH  16  18
ENDBRANCH  15  16
ENDBRANCH  12  15
ENDBRANCH  10  12
ENDBRANCH   2   4
TORSDOF 16
ENDMDL
MODEL      199
REMARK 921   NORMALIZED FREE ENERGY PREDICTED BY IDOCK:   -4.64 KCAL/MOL
REMARK 922        TOTAL FREE ENERGY PREDICTED BY IDOCK:  -11.32 KCAL/MOL
REMARK 923 INTER-LIGAND FREE ENERGY PREDICTED BY IDOCK:   -8.62 KCAL/MOL
REMARK 924 INTRA-LIGAND FREE ENERGY PREDICTED BY IDOCK:   -2.70 KCAL/MOL
REMARK 927      BINDING AFFINITY PREDICTED BY RF-SCORE:    0.00 PKD
ROOT
HETATM    1  O   UNL     1     -10.477   6.225  66.064  1.00  0.00    -0.394 OA 
HETATM    2  C   UNL     1      -9.191   6.163  66.682  1.00  0.00    -0.144 C  
HETATM    3  H   UNL     1     -10.889   5.369  66.076  1.00  0.00     0.000 HD 
ENDROOT
BRANCH   2   4
HETATM    4  C   UNL     1      -8.538   7.520  66.663  1.00  0.00    -0.131 A  
HETATM    5  C   UNL     1      -8.325   8.242  65.483  1.00  0.00    -0.155 A  
HETATM    6  O   UNL     1      -8.640   7.727  64.257  1.00  0.00    -0.374 OA 
HETATM    7  C   UNL     1      -7.753   9.509  65.501  1.00  0.00    -0.105 A  
HETATM    8  C   UNL     1      -7.358  10.074  66.712  1.00  0.00    -0.095 A  
HETATM    9  H   UNL     1      -8.495   8.217  63.456  1.00  0.00     0.000 HD 
HETATM   10  C   UNL     1      -7.550   9.382  67.918  1.00  0.00    -0.087 A  
HETATM   11  C   UNL     1      -8.163   8.117  67.881  1.00  0.00    -0.129 A  
BRANCH  10  12
HETATM   12  C   UNL     1      -7.086   9.958  69.243  1.00  0.00    -0.069 C  
HETATM   13  O   UNL     1      -7.936  11.049  69.632  1.00  0.00    -0.373 OA 
HETATM   14  H   UNL     1      -7.645  11.410  70.462  1.00  0.00     0.000 HD 
BRANCH  12  15
HETATM   15  C   UNL     1      -7.081   8.902  70.369  1.00  0.00    -0.054 C  
BRANCH  15  16
HETATM   16  N   UNL     1      -8.118   9.189  71.374  1.00  0.00    -0.338 NA 
HETATM   17  H   UNL     1      -9.039   9.302  70.951  1.00  0.00     0.000 HD 
BRANCH  16  18
HETATM   18  C   UNL     1      -8.114   8.158  72.407  1.00  0.00    -0.146 C  
BRANCH  18  19
HETATM   19  C   UNL     1      -9.539   7.870  72.863  1.00  0.00    -0.329 C  
BRANCH  19  20
HETATM   20  C   UNL     1     -10.202   6.868  71.920  1.00  0.00    -0.206 C  
BRANCH  20  21
HETATM   21  C   UNL     1     -11.657   6.647  72.307  1.00  0.00    -0.313 C  
BRANCH  21  22
HETATM   22  C   UNL     1     -12.603   7.333  71.330  1.00  0.00    -0.402 C  
BRANCH  22  23
HETATM   23  C   UNL     1     -13.220   8.567  71.970  1.00  0.00    -0.369 C  
BRANCH  23  24
HETATM   24  O   UNL     1     -12.332   9.662  71.784  1.00  0.00    -0.368 OA 
BRANCH  24  25
HETATM   25  C   UNL     1     -12.651  10.397  70.605  1.00  0.00    -0.348 C  
BRANCH  25  26
HETATM   26  C   UNL     1     -11.417  10.451  69.712  1.00  0.00    -0.348 C  
BRANCH  26  27
HETATM   27  C   UNL     1     -11.686  11.280  68.455  1.00  0.00    -0.365 C  
BRANCH  27  28
HETATM   28  C   UNL     1     -10.798  10.852  67.288  1.00  0.00    -0.342 C  
BRANCH  28  29
HETATM   29  C   UNL     1     -11.185  11.613  66.042  1.00  0.00    -0.299 A  
HETATM   30  C   UNL     1     -10.670  11.239  64.796  1.00  0.00    -0.352 A  
HETATM   31  C   UNL     1     -10.964  11.991  63.658  1.00  0.00    -0.517 A  
HETATM   32  C   UNL     1     -11.771  13.123  63.758  1.00  0.00    -0.519 A  
HETATM   33  C   UNL     1     -12.291  13.501  64.995  1.00  0.00    -0.468 A  
HETATM   34  C   UNL     1     -11.999  12.750  66.134  1.00  0.00    -0.476 A  
ENDBRANCH  28  29
ENDBRANCH  27  28
ENDBRANCH  26  27
ENDBRANCH  25  26
ENDBRANCH  24  25
ENDBRANCH  23  24
ENDBRANCH  22  23
ENDBRANCH  21  22
ENDBRANCH  20  21
ENDBRANCH  19  20
ENDBRANCH  18  19
ENDBRANCH  16  18
ENDBRANCH  15  16
ENDBRANCH  12  15
ENDBRANCH  10  12
ENDBRANCH   2   4
TORSDOF 16
ENDMDL
MODEL      200
REMARK 921   NORMALIZED FREE ENERGY PREDICTED BY IDOCK:   -4.63 KCAL/MOL
REMARK 922        TOTAL FREE ENERGY PREDICTED BY IDOCK:  -11.30 KCAL/MOL
REMARK 923 INTER-LIGAND FREE ENERGY PREDICTED BY IDOCK:   -8.71 KCAL/MOL
REMARK 924 INTRA-LIGAND FREE ENERGY PREDICTED BY IDOCK:   -2.59 KCAL/MOL
REMARK 927      BINDING AFFINITY PREDICTED BY RF-SCORE:    0.00 PKD
ROOT
HETATM    1  O   UNL     1      -9.805  13.345  64.359  1.00  0.00    -0.649 OA 
HETATM    2  C   UNL     1     -11.177  13.300  64.751  1.00  0.00    -0.331 C  
HETATM    3  H   UNL     1      -9.707  13.025  63.469  1.00  0.00     0.000 HD 
ENDROOT
BRANCH   2   4
HETATM    4  C   UNL     1     -11.333  13.807  66.161  1.00  0.00    -0.320 A  
HETATM    5  C   UNL     1     -11.638  12.968  67.239  1.00  0.00    -0.356 A  
HETATM    6  O   UNL     1     -11.880  11.633  67.067  1.00  0.00    -0.591 OA 
HETATM    7  C   UNL     1     -11.739  13.460  68.535  1.00  0.00    -0.392 A  
HETATM    8  C   UNL     1     -11.557  14.819  68.776  1.00  0.00    -0.347 A  
HETATM    9  H   UNL     1     -12.088  11.064  67.798  1.00  0.00     0.000 HD 
HETATM   10  C   UNL     1     -11.254  15.697  67.723  1.00  0.00    -0.297 A  
HETATM   11  C   UNL     1     -11.121  15.172  66.425  1.00  0.00    -0.312 A  
BRANCH  10  12
HETATM   12  C   UNL     1     -11.097  17.188  67.955  1.00  0.00    -0.113 C  
HETATM   13  O   UNL     1     -10.551  17.430  69.261  1.00  0.00    -0.380 OA 
HETATM   14  H   UNL     1     -10.452  18.364  69.407  1.00  0.00     0.000 HD 
BRANCH  12  15
HETATM   15  C   UNL     1     -10.184  17.850  66.901  1.00  0.00    -0.358 C  
BRANCH  15  16
HETATM   16  N   UNL     1      -9.177  18.715  67.536  1.00  0.00    -0.278 NA 
HETATM   17  H   UNL     1      -9.147  18.588  68.548  1.00  0.00     0.000 HD 
BRANCH  16  18
HETATM   18  C   UNL     1      -7.871  18.500  66.920  1.00  0.00    -0.233 C  
BRANCH  18  19
HETATM   19  C   UNL     1      -7.823  17.127  66.263  1.00  0.00    -0.351 C  
BRANCH  19  20
HETATM   20  C   UNL     1      -6.842  16.222  67.005  1.00  0.00    -0.235 C  
BRANCH  20  21
HETATM   21  C   UNL     1      -7.545  15.476  68.130  1.00  0.00    -0.124 C  
BRANCH  21  22
HETATM   22  C   UNL     1      -7.862  14.039  67.733  1.00  0.00    -0.176 C  
BRANCH  22  23
HETATM   23  C   UNL     1      -7.053  13.067  68.577  1.00  0.00    -0.105 C  
BRANCH  23  24
HETATM   24  O   UNL     1      -7.734  11.819  68.601  1.00  0.00    -0.131 OA 
BRANCH  24  25
HETATM   25  C   UNL     1      -8.329  11.525  67.340  1.00  0.00    -0.148 C  
BRANCH  25  26
HETATM   26  C   UNL     1      -8.905  10.115  67.385  1.00  0.00    -0.135 C  
BRANCH  26  27
HETATM   27  C   UNL     1      -9.395   9.768  68.792  1.00  0.00    -0.150 C  
BRANCH  27  28
HETATM   28  C   UNL     1     -10.622   8.859  68.760  1.00  0.00    -0.185 C  
BRANCH  28  29
HETATM   29  C   UNL     1     -10.840   8.242  70.121  1.00  0.00    -0.237 A  
HETATM   30  C   UNL     1     -10.381   8.888  71.274  1.00  0.00    -0.355 A  
HETATM   31  C   UNL     1     -10.511   8.279  72.522  1.00  0.00    -0.406 A  
HETATM   32  C   UNL     1     -11.098   7.020  72.627  1.00  0.00    -0.317 A  
HETATM   33  C   UNL     1     -11.562   6.370  71.485  1.00  0.00    -0.364 A  
HETATM   34  C   UNL     1     -11.434   6.977  70.235  1.00  0.00    -0.333 A  
ENDBRANCH  28  29
ENDBRANCH  27  28
ENDBRANCH  26  27
ENDBRANCH  25  26
ENDBRANCH  24  25
ENDBRANCH  23  24
ENDBRANCH  22  23
ENDBRANCH  21  22
ENDBRANCH  20  21
ENDBRANCH  19  20
ENDBRANCH  18  19
ENDBRANCH  16  18
ENDBRANCH  15  16
ENDBRANCH  12  15
ENDBRANCH  10  12
ENDBRANCH   2   4
TORSDOF 16
ENDMDL
MODEL      201
REMARK 921   NORMALIZED FREE ENERGY PREDICTED BY IDOCK:   -4.62 KCAL/MOL
REMARK 922        TOTAL FREE ENERGY PREDICTED BY IDOCK:  -11.29 KCAL/MOL
REMARK 923 INTER-LIGAND FREE ENERGY PREDICTED BY IDOCK:   -8.98 KCAL/MOL
REMARK 924 INTRA-LIGAND FREE ENERGY PREDICTED BY IDOCK:   -2.31 KCAL/MOL
REMARK 927      BINDING AFFINITY PREDICTED BY RF-SCORE:    0.00 PKD
ROOT
HETATM    1  O   UNL     1     -14.405  13.770  72.550  1.00  0.00    -0.696 OA 
HETATM    2  C   UNL     1     -13.210  13.158  72.064  1.00  0.00    -0.446 C  
HETATM    3  H   UNL     1     -14.803  13.226  73.221  1.00  0.00     0.000 HD 
ENDROOT
BRANCH   2   4
HETATM    4  C   UNL     1     -12.580  14.019  71.001  1.00  0.00    -0.437 A  
HETATM    5  C   UNL     1     -12.149  15.328  71.242  1.00  0.00    -0.349 A  
HETATM    6  O   UNL     1     -12.334  15.935  72.453  1.00  0.00    -0.402 OA 
HETATM    7  C   UNL     1     -11.537  16.086  70.250  1.00  0.00    -0.335 A  
HETATM    8  C   UNL     1     -11.364  15.549  68.977  1.00  0.00    -0.331 A  
HETATM    9  H   UNL     1     -12.042  16.824  72.618  1.00  0.00     0.000 HD 
HETATM   10  C   UNL     1     -11.786  14.241  68.690  1.00  0.00    -0.380 A  
HETATM   11  C   UNL     1     -12.370  13.480  69.718  1.00  0.00    -0.249 A  
BRANCH  10  12
HETATM   12  C   UNL     1     -11.649  13.652  67.298  1.00  0.00    -0.356 C  
HETATM   13  O   UNL     1     -12.590  14.271  66.406  1.00  0.00    -0.526 OA 
HETATM   14  H   UNL     1     -12.504  13.902  65.534  1.00  0.00     0.000 HD 
BRANCH  12  15
HETATM   15  C   UNL     1     -10.226  13.830  66.727  1.00  0.00    -0.268 C  
BRANCH  15  16
HETATM   16  N   UNL     1     -10.191  13.539  65.284  1.00  0.00    -0.407 NA 
HETATM   17  H   UNL     1      -9.446  14.048  64.810  1.00  0.00     0.000 HD 
BRANCH  16  18
HETATM   18  C   UNL     1     -10.094  12.099  65.066  1.00  0.00    -0.263 C  
BRANCH  18  19
HETATM   19  C   UNL     1      -9.248  11.461  66.160  1.00  0.00    -0.223 C  
BRANCH  19  20
HETATM   20  C   UNL     1      -8.241  10.490  65.548  1.00  0.00    -0.162 C  
BRANCH  20  21
HETATM   21  C   UNL     1      -8.909   9.613  64.499  1.00  0.00    -0.257 C  
BRANCH  21  22
HETATM   22  C   UNL     1      -7.887   9.020  63.536  1.00  0.00    -0.140 C  
BRANCH  22  23
HETATM   23  C   UNL     1      -7.783   7.516  63.736  1.00  0.00    -0.126 C  
BRANCH  23  24
HETATM   24  O   UNL     1      -7.907   7.238  65.125  1.00  0.00    -0.108 OA 
BRANCH  24  25
HETATM   25  C   UNL     1      -8.542   5.982  65.350  1.00  0.00    -0.124 C  
BRANCH  25  26
HETATM   26  C   UNL     1      -9.242   6.021  66.703  1.00  0.00    -0.151 C  
BRANCH  26  27
HETATM   27  C   UNL     1      -9.010   7.362  67.402  1.00  0.00    -0.124 C  
BRANCH  27  28
HETATM   28  C   UNL     1     -10.288   8.195  67.479  1.00  0.00    -0.330 C  
BRANCH  28  29
HETATM   29  C   UNL     1     -10.609   8.512  68.920  1.00  0.00    -0.166 A  
HETATM   30  C   UNL     1     -10.871   7.482  69.831  1.00  0.00    -0.250 A  
HETATM   31  C   UNL     1     -11.246   7.779  71.141  1.00  0.00    -0.285 A  
HETATM   32  C   UNL     1     -11.365   9.106  71.550  1.00  0.00    -0.439 A  
HETATM   33  C   UNL     1     -11.103  10.139  70.651  1.00  0.00    -0.397 A  
HETATM   34  C   UNL     1     -10.727   9.844  69.340  1.00  0.00    -0.255 A  
ENDBRANCH  28  29
ENDBRANCH  27  28
ENDBRANCH  26  27
ENDBRANCH  25  26
ENDBRANCH  24  25
ENDBRANCH  23  24
ENDBRANCH  22  23
ENDBRANCH  21  22
ENDBRANCH  20  21
ENDBRANCH  19  20
ENDBRANCH  18  19
ENDBRANCH  16  18
ENDBRANCH  15  16
ENDBRANCH  12  15
ENDBRANCH  10  12
ENDBRANCH   2   4
TORSDOF 16
ENDMDL
MODEL      202
REMARK 921   NORMALIZED FREE ENERGY PREDICTED BY IDOCK:   -4.60 KCAL/MOL
REMARK 922        TOTAL FREE ENERGY PREDICTED BY IDOCK:  -11.26 KCAL/MOL
REMARK 923 INTER-LIGAND FREE ENERGY PREDICTED BY IDOCK:   -8.60 KCAL/MOL
REMARK 924 INTRA-LIGAND FREE ENERGY PREDICTED BY IDOCK:   -2.65 KCAL/MOL
REMARK 927      BINDING AFFINITY PREDICTED BY RF-SCORE:    0.00 PKD
ROOT
HETATM    1  O   UNL     1      -9.332   2.701  70.646  1.00  0.00    -0.124 OA 
HETATM    2  C   UNL     1      -9.067   4.102  70.718  1.00  0.00    -0.111 C  
HETATM    3  H   UNL     1      -8.907   2.249  71.367  1.00  0.00     0.000 HD 
ENDROOT
BRANCH   2   4
HETATM    4  C   UNL     1      -9.739   4.819  69.577  1.00  0.00    -0.271 A  
HETATM    5  C   UNL     1     -10.404   6.040  69.734  1.00  0.00    -0.228 A  
HETATM    6  O   UNL     1     -10.542   6.632  70.959  1.00  0.00    -0.218 OA 
HETATM    7  C   UNL     1     -10.984   6.696  68.654  1.00  0.00    -0.317 A  
HETATM    8  C   UNL     1     -10.928   6.123  67.386  1.00  0.00    -0.409 A  
HETATM    9  H   UNL     1     -10.994   7.461  71.067  1.00  0.00     0.000 HD 
HETATM   10  C   UNL     1     -10.274   4.898  67.184  1.00  0.00    -0.211 A  
HETATM   11  C   UNL     1      -9.664   4.269  68.284  1.00  0.00    -0.162 A  
BRANCH  10  12
HETATM   12  C   UNL     1     -10.240   4.234  65.820  1.00  0.00    -0.186 C  
HETATM   13  O   UNL     1     -11.454   4.513  65.104  1.00  0.00    -1.105 OA 
HETATM   14  H   UNL     1     -11.433   4.098  64.250  1.00  0.00     0.000 HD 
BRANCH  12  15
HETATM   15  C   UNL     1      -9.040   4.705  64.971  1.00  0.00    -0.156 C  
BRANCH  15  16
HETATM   16  N   UNL     1      -8.935   6.173  64.965  1.00  0.00    -0.361 NA 
HETATM   17  H   UNL     1      -9.510   6.600  65.692  1.00  0.00     0.000 HD 
BRANCH  16  18
HETATM   18  C   UNL     1      -7.536   6.576  65.070  1.00  0.00    -0.085 C  
BRANCH  18  19
HETATM   19  C   UNL     1      -7.349   7.511  66.257  1.00  0.00    -0.082 C  
BRANCH  19  20
HETATM   20  C   UNL     1      -6.969   6.713  67.502  1.00  0.00    -0.082 C  
BRANCH  20  21
HETATM   21  C   UNL     1      -7.168   7.549  68.758  1.00  0.00    -0.082 C  
BRANCH  21  22
HETATM   22  C   UNL     1      -7.928   8.836  68.456  1.00  0.00    -0.112 C  
BRANCH  22  23
HETATM   23  C   UNL     1      -8.605   9.357  69.713  1.00  0.00    -0.175 C  
BRANCH  23  24
HETATM   24  O   UNL     1      -9.777  10.066  69.331  1.00  0.00    -0.200 OA 
BRANCH  24  25
HETATM   25  C   UNL     1     -10.749  10.066  70.374  1.00  0.00    -0.307 C  
BRANCH  25  26
HETATM   26  C   UNL     1     -11.696  11.241  70.161  1.00  0.00    -0.429 C  
BRANCH  26  27
HETATM   27  C   UNL     1     -12.178  11.302  68.711  1.00  0.00    -0.101 C  
BRANCH  27  28
HETATM   28  C   UNL     1     -11.776  12.609  68.030  1.00  0.00    -0.402 C  
BRANCH  28  29
HETATM   29  C   UNL     1     -11.548  12.372  66.556  1.00  0.00    -0.447 A  
HETATM   30  C   UNL     1     -12.274  13.094  65.602  1.00  0.00    -0.521 A  
HETATM   31  C   UNL     1     -12.121  12.817  64.244  1.00  0.00    -0.497 A  
HETATM   32  C   UNL     1     -11.245  11.816  63.829  1.00  0.00    -0.518 A  
HETATM   33  C   UNL     1     -10.514  11.094  64.772  1.00  0.00    -0.388 A  
HETATM   34  C   UNL     1     -10.665  11.369  66.131  1.00  0.00    -0.320 A  
ENDBRANCH  28  29
ENDBRANCH  27  28
ENDBRANCH  26  27
ENDBRANCH  25  26
ENDBRANCH  24  25
ENDBRANCH  23  24
ENDBRANCH  22  23
ENDBRANCH  21  22
ENDBRANCH  20  21
ENDBRANCH  19  20
ENDBRANCH  18  19
ENDBRANCH  16  18
ENDBRANCH  15  16
ENDBRANCH  12  15
ENDBRANCH  10  12
ENDBRANCH   2   4
TORSDOF 16
ENDMDL
MODEL      203
REMARK 921   NORMALIZED FREE ENERGY PREDICTED BY IDOCK:   -4.60 KCAL/MOL
REMARK 922        TOTAL FREE ENERGY PREDICTED BY IDOCK:  -11.24 KCAL/MOL
REMARK 923 INTER-LIGAND FREE ENERGY PREDICTED BY IDOCK:   -7.23 KCAL/MOL
REMARK 924 INTRA-LIGAND FREE ENERGY PREDICTED BY IDOCK:   -4.01 KCAL/MOL
REMARK 927      BINDING AFFINITY PREDICTED BY RF-SCORE:    0.00 PKD
ROOT
HETATM    1  O   UNL     1     -12.202   7.959  72.852  1.00  0.00    -0.610 OA 
HETATM    2  C   UNL     1     -10.909   8.342  72.379  1.00  0.00    -0.351 C  
HETATM    3  H   UNL     1     -12.277   8.137  73.782  1.00  0.00     0.000 HD 
ENDROOT
BRANCH   2   4
HETATM    4  C   UNL     1     -10.790   8.060  70.904  1.00  0.00    -0.248 A  
HETATM    5  C   UNL     1     -10.960   6.781  70.361  1.00  0.00    -0.283 A  
HETATM    6  O   UNL     1     -11.184   5.687  71.149  1.00  0.00    -0.195 OA 
HETATM    7  C   UNL     1     -10.881   6.559  68.991  1.00  0.00    -0.357 A  
HETATM    8  C   UNL     1     -10.602   7.619  68.132  1.00  0.00    -0.187 A  
HETATM    9  H   UNL     1     -11.300   4.819  70.781  1.00  0.00     0.000 HD 
HETATM   10  C   UNL     1     -10.420   8.917  68.636  1.00  0.00    -0.223 A  
HETATM   11  C   UNL     1     -10.540   9.126  70.021  1.00  0.00    -0.250 A  
BRANCH  10  12
HETATM   12  C   UNL     1     -10.070  10.078  67.724  1.00  0.00    -0.183 C  
HETATM   13  O   UNL     1     -10.507   9.803  66.384  1.00  0.00    -0.204 OA 
HETATM   14  H   UNL     1     -10.289  10.530  65.812  1.00  0.00     0.000 HD 
BRANCH  12  15
HETATM   15  C   UNL     1     -10.708  11.403  68.195  1.00  0.00    -0.202 C  
BRANCH  15  16
HETATM   16  N   UNL     1     -11.938  11.700  67.442  1.00  0.00    -0.612 NA 
HETATM   17  H   UNL     1     -12.742  11.821  68.057  1.00  0.00     0.000 HD 
BRANCH  16  18
HETATM   18  C   UNL     1     -11.729  12.858  66.579  1.00  0.00    -0.393 C  
BRANCH  18  19
HETATM   19  C   UNL     1     -12.453  12.659  65.253  1.00  0.00    -0.483 C  
BRANCH  19  20
HETATM   20  C   UNL     1     -11.543  13.051  64.092  1.00  0.00    -0.462 C  
BRANCH  20  21
HETATM   21  C   UNL     1     -10.203  12.337  64.194  1.00  0.00    -0.376 C  
BRANCH  21  22
HETATM   22  C   UNL     1     -10.086  11.222  63.162  1.00  0.00    -0.385 C  
BRANCH  22  23
HETATM   23  C   UNL     1      -8.756  10.500  63.314  1.00  0.00    -0.195 C  
BRANCH  23  24
HETATM   24  O   UNL     1      -8.979   9.293  64.033  1.00  0.00    -0.187 OA 
BRANCH  24  25
HETATM   25  C   UNL     1      -7.788   8.837  64.669  1.00  0.00    -0.127 C  
BRANCH  25  26
HETATM   26  C   UNL     1      -7.029  10.042  65.212  1.00  0.00    -0.132 C  
BRANCH  26  27
HETATM   27  C   UNL     1      -6.528   9.780  66.633  1.00  0.00    -0.070 C  
BRANCH  27  28
HETATM   28  C   UNL     1      -6.800   8.345  67.079  1.00  0.00    -0.070 C  
BRANCH  28  29
HETATM   29  C   UNL     1      -6.851   8.276  68.587  1.00  0.00    -0.063 A  
HETATM   30  C   UNL     1      -7.038   7.050  69.234  1.00  0.00    -0.083 A  
HETATM   31  C   UNL     1      -7.165   6.999  70.622  1.00  0.00    -0.068 A  
HETATM   32  C   UNL     1      -7.111   8.171  71.373  1.00  0.00    -0.068 A  
HETATM   33  C   UNL     1      -6.921   9.398  70.737  1.00  0.00    -0.117 A  
HETATM   34  C   UNL     1      -6.793   9.452  69.349  1.00  0.00    -0.049 A  
ENDBRANCH  28  29
ENDBRANCH  27  28
ENDBRANCH  26  27
ENDBRANCH  25  26
ENDBRANCH  24  25
ENDBRANCH  23  24
ENDBRANCH  22  23
ENDBRANCH  21  22
ENDBRANCH  20  21
ENDBRANCH  19  20
ENDBRANCH  18  19
ENDBRANCH  16  18
ENDBRANCH  15  16
ENDBRANCH  12  15
ENDBRANCH  10  12
ENDBRANCH   2   4
TORSDOF 16
ENDMDL
MODEL      204
REMARK 921   NORMALIZED FREE ENERGY PREDICTED BY IDOCK:   -4.59 KCAL/MOL
REMARK 922        TOTAL FREE ENERGY PREDICTED BY IDOCK:  -11.23 KCAL/MOL
REMARK 923 INTER-LIGAND FREE ENERGY PREDICTED BY IDOCK:   -9.10 KCAL/MOL
REMARK 924 INTRA-LIGAND FREE ENERGY PREDICTED BY IDOCK:   -2.13 KCAL/MOL
REMARK 927      BINDING AFFINITY PREDICTED BY RF-SCORE:    0.00 PKD
ROOT
HETATM    1  O   UNL     1      -6.766  12.599  66.630  1.00  0.00    -0.386 OA 
HETATM    2  C   UNL     1      -7.709  12.475  67.696  1.00  0.00    -0.151 C  
HETATM    3  H   UNL     1      -6.034  12.008  66.769  1.00  0.00     0.000 HD 
ENDROOT
BRANCH   2   4
HETATM    4  C   UNL     1      -8.868  13.412  67.477  1.00  0.00    -0.210 A  
HETATM    5  C   UNL     1      -9.621  13.423  66.297  1.00  0.00    -0.235 A  
HETATM    6  O   UNL     1      -9.308  12.620  65.235  1.00  0.00    -0.439 OA 
HETATM    7  C   UNL     1     -10.709  14.273  66.138  1.00  0.00    -0.295 A  
HETATM    8  C   UNL     1     -11.052  15.156  67.159  1.00  0.00    -0.335 A  
HETATM    9  H   UNL     1      -9.819  12.627  64.434  1.00  0.00     0.000 HD 
HETATM   10  C   UNL     1     -10.321  15.181  68.358  1.00  0.00    -0.229 A  
HETATM   11  C   UNL     1      -9.247  14.287  68.511  1.00  0.00    -0.197 A  
BRANCH  10  12
HETATM   12  C   UNL     1     -10.649  16.166  69.465  1.00  0.00    -0.306 C  
HETATM   13  O   UNL     1     -10.766  17.493  68.927  1.00  0.00    -0.320 OA 
HETATM   14  H   UNL     1     -10.971  18.109  69.621  1.00  0.00     0.000 HD 
BRANCH  12  15
HETATM   15  C   UNL     1     -11.959  15.805  70.197  1.00  0.00    -0.347 C  
BRANCH  15  16
HETATM   16  N   UNL     1     -11.904  16.201  71.614  1.00  0.00    -0.572 NA 
HETATM   17  H   UNL     1     -12.191  17.170  71.751  1.00  0.00     0.000 HD 
BRANCH  16  18
HETATM   18  C   UNL     1     -12.692  15.277  72.423  1.00  0.00    -0.363 C  
BRANCH  18  19
HETATM   19  C   UNL     1     -13.459  14.318  71.522  1.00  0.00    -0.426 C  
BRANCH  19  20
HETATM   20  C   UNL     1     -13.658  12.978  72.227  1.00  0.00    -0.643 C  
BRANCH  20  21
HETATM   21  C   UNL     1     -12.901  11.873  71.504  1.00  0.00    -0.421 C  
BRANCH  21  22
HETATM   22  C   UNL     1     -13.453  10.497  71.856  1.00  0.00    -0.358 C  
BRANCH  22  23
HETATM   23  C   UNL     1     -12.385   9.433  71.657  1.00  0.00    -0.385 C  
BRANCH  23  24
HETATM   24  O   UNL     1     -11.208  10.063  71.167  1.00  0.00    -0.350 OA 
BRANCH  24  25
HETATM   25  C   UNL     1     -10.069   9.217  71.303  1.00  0.00    -0.291 C  
BRANCH  25  26
HETATM   26  C   UNL     1      -9.383   9.095  69.948  1.00  0.00    -0.198 C  
BRANCH  26  27
HETATM   27  C   UNL     1     -10.029  10.027  68.921  1.00  0.00    -0.198 C  
BRANCH  27  28
HETATM   28  C   UNL     1     -10.783   9.253  67.842  1.00  0.00    -0.248 C  
BRANCH  28  29
HETATM   29  C   UNL     1      -9.802   8.553  66.932  1.00  0.00    -0.310 A  
HETATM   30  C   UNL     1      -9.014   9.288  66.039  1.00  0.00    -0.215 A  
HETATM   31  C   UNL     1      -8.168   8.635  65.144  1.00  0.00    -0.152 A  
HETATM   32  C   UNL     1      -8.105   7.243  65.131  1.00  0.00    -0.128 A  
HETATM   33  C   UNL     1      -8.884   6.501  66.019  1.00  0.00    -0.154 A  
HETATM   34  C   UNL     1      -9.730   7.152  66.916  1.00  0.00    -0.242 A  
ENDBRANCH  28  29
ENDBRANCH  27  28
ENDBRANCH  26  27
ENDBRANCH  25  26
ENDBRANCH  24  25
ENDBRANCH  23  24
ENDBRANCH  22  23
ENDBRANCH  21  22
ENDBRANCH  20  21
ENDBRANCH  19  20
ENDBRANCH  18  19
ENDBRANCH  16  18
ENDBRANCH  15  16
ENDBRANCH  12  15
ENDBRANCH  10  12
ENDBRANCH   2   4
TORSDOF 16
ENDMDL
MODEL      205
REMARK 921   NORMALIZED FREE ENERGY PREDICTED BY IDOCK:   -4.59 KCAL/MOL
REMARK 922        TOTAL FREE ENERGY PREDICTED BY IDOCK:  -11.23 KCAL/MOL
REMARK 923 INTER-LIGAND FREE ENERGY PREDICTED BY IDOCK:   -9.99 KCAL/MOL
REMARK 924 INTRA-LIGAND FREE ENERGY PREDICTED BY IDOCK:   -1.24 KCAL/MOL
REMARK 927      BINDING AFFINITY PREDICTED BY RF-SCORE:    0.00 PKD
ROOT
HETATM    1  O   UNL     1     -11.199  11.145  62.835  1.00  0.00    -0.802 OA 
HETATM    2  C   UNL     1     -10.244  11.703  63.738  1.00  0.00    -0.389 C  
HETATM    3  H   UNL     1     -10.762  10.605  62.187  1.00  0.00     0.000 HD 
ENDROOT
BRANCH   2   4
HETATM    4  C   UNL     1     -10.937  12.559  64.765  1.00  0.00    -0.339 A  
HETATM    5  C   UNL     1     -11.932  13.486  64.433  1.00  0.00    -0.422 A  
HETATM    6  O   UNL     1     -12.294  13.720  63.135  1.00  0.00    -1.099 OA 
HETATM    7  C   UNL     1     -12.580  14.236  65.408  1.00  0.00    -0.422 A  
HETATM    8  C   UNL     1     -12.223  14.087  66.746  1.00  0.00    -0.439 A  
HETATM    9  H   UNL     1     -12.969  14.349  62.910  1.00  0.00     0.000 HD 
HETATM   10  C   UNL     1     -11.228  13.172  67.123  1.00  0.00    -0.326 A  
HETATM   11  C   UNL     1     -10.611  12.398  66.124  1.00  0.00    -0.283 A  
BRANCH  10  12
HETATM   12  C   UNL     1     -10.792  13.027  68.569  1.00  0.00    -0.258 C  
HETATM   13  O   UNL     1     -10.672  14.320  69.181  1.00  0.00    -0.247 OA 
HETATM   14  H   UNL     1     -10.399  14.230  70.087  1.00  0.00     0.000 HD 
BRANCH  12  15
HETATM   15  C   UNL     1     -11.780  12.173  69.393  1.00  0.00    -0.329 C  
BRANCH  15  16
HETATM   16  N   UNL     1     -12.148  12.848  70.648  1.00  0.00    -0.508 NA 
HETATM   17  H   UNL     1     -12.639  13.726  70.480  1.00  0.00     0.000 HD 
BRANCH  16  18
HETATM   18  C   UNL     1     -12.921  11.944  71.495  1.00  0.00    -0.323 C  
BRANCH  18  19
HETATM   19  C   UNL     1     -12.790  10.514  70.987  1.00  0.00    -0.502 C  
BRANCH  19  20
HETATM   20  C   UNL     1     -13.358   9.537  72.014  1.00  0.00    -0.535 C  
BRANCH  20  21
HETATM   21  C   UNL     1     -12.332   8.468  72.363  1.00  0.00    -0.424 C  
BRANCH  21  22
HETATM   22  C   UNL     1     -10.925   8.895  71.964  1.00  0.00    -0.412 C  
BRANCH  22  23
HETATM   23  C   UNL     1      -9.890   8.111  72.755  1.00  0.00    -0.283 C  
BRANCH  23  24
HETATM   24  O   UNL     1     -10.562   7.097  73.493  1.00  0.00    -0.353 OA 
BRANCH  24  25
HETATM   25  C   UNL     1      -9.952   5.823  73.302  1.00  0.00    -0.179 C  
BRANCH  25  26
HETATM   26  C   UNL     1     -10.633   5.123  72.133  1.00  0.00    -0.273 C  
BRANCH  26  27
HETATM   27  C   UNL     1      -9.673   4.154  71.440  1.00  0.00    -0.251 C  
BRANCH  27  28
HETATM   28  C   UNL     1      -9.878   4.132  69.927  1.00  0.00    -0.233 C  
BRANCH  28  29
HETATM   29  C   UNL     1      -8.563   3.864  69.234  1.00  0.00    -0.114 A  
HETATM   30  C   UNL     1      -7.861   2.680  69.480  1.00  0.00    -0.049 A  
HETATM   31  C   UNL     1      -6.608   2.470  68.902  1.00  0.00    -0.029 A  
HETATM   32  C   UNL     1      -6.048   3.444  68.077  1.00  0.00    -0.031 A  
HETATM   33  C   UNL     1      -6.742   4.626  67.824  1.00  0.00    -0.051 A  
HETATM   34  C   UNL     1      -7.995   4.838  68.400  1.00  0.00    -0.084 A  
ENDBRANCH  28  29
ENDBRANCH  27  28
ENDBRANCH  26  27
ENDBRANCH  25  26
ENDBRANCH  24  25
ENDBRANCH  23  24
ENDBRANCH  22  23
ENDBRANCH  21  22
ENDBRANCH  20  21
ENDBRANCH  19  20
ENDBRANCH  18  19
ENDBRANCH  16  18
ENDBRANCH  15  16
ENDBRANCH  12  15
ENDBRANCH  10  12
ENDBRANCH   2   4
TORSDOF 16
ENDMDL
MODEL      206
REMARK 921   NORMALIZED FREE ENERGY PREDICTED BY IDOCK:   -4.59 KCAL/MOL
REMARK 922        TOTAL FREE ENERGY PREDICTED BY IDOCK:  -11.22 KCAL/MOL
REMARK 923 INTER-LIGAND FREE ENERGY PREDICTED BY IDOCK:   -6.73 KCAL/MOL
REMARK 924 INTRA-LIGAND FREE ENERGY PREDICTED BY IDOCK:   -4.49 KCAL/MOL
REMARK 927      BINDING AFFINITY PREDICTED BY RF-SCORE:    0.00 PKD
ROOT
HETATM    1  O   UNL     1      -8.325   3.148  69.229  1.00  0.00    -0.058 OA 
HETATM    2  C   UNL     1      -8.611   3.827  70.453  1.00  0.00    -0.069 C  
HETATM    3  H   UNL     1      -7.810   2.368  69.399  1.00  0.00     0.000 HD 
ENDROOT
BRANCH   2   4
HETATM    4  C   UNL     1      -9.427   5.064  70.183  1.00  0.00    -0.234 A  
HETATM    5  C   UNL     1      -9.118   5.968  69.160  1.00  0.00    -0.123 A  
HETATM    6  O   UNL     1      -8.009   5.816  68.375  1.00  0.00    -0.102 OA 
HETATM    7  C   UNL     1      -9.912   7.082  68.911  1.00  0.00    -0.160 A  
HETATM    8  C   UNL     1     -11.029   7.328  69.706  1.00  0.00    -0.235 A  
HETATM    9  H   UNL     1      -7.799   6.430  67.681  1.00  0.00     0.000 HD 
HETATM   10  C   UNL     1     -11.372   6.449  70.746  1.00  0.00    -0.411 A  
HETATM   11  C   UNL     1     -10.576   5.310  70.957  1.00  0.00    -0.240 A  
BRANCH  10  12
HETATM   12  C   UNL     1     -12.558   6.722  71.653  1.00  0.00    -0.333 C  
HETATM   13  O   UNL     1     -12.603   5.752  72.711  1.00  0.00    -0.511 OA 
HETATM   14  H   UNL     1     -13.345   5.922  73.280  1.00  0.00     0.000 HD 
BRANCH  12  15
HETATM   15  C   UNL     1     -12.506   8.135  72.272  1.00  0.00    -0.301 C  
BRANCH  15  16
HETATM   16  N   UNL     1     -13.775   8.853  72.067  1.00  0.00    -0.430 NA 
HETATM   17  H   UNL     1     -14.107   9.295  72.924  1.00  0.00     0.000 HD 
BRANCH  16  18
HETATM   18  C   UNL     1     -13.636   9.813  70.976  1.00  0.00    -0.109 C  
BRANCH  18  19
HETATM   19  C   UNL     1     -12.589  10.860  71.332  1.00  0.00    -0.508 C  
BRANCH  19  20
HETATM   20  C   UNL     1     -11.493  10.892  70.269  1.00  0.00    -0.391 C  
BRANCH  20  21
HETATM   21  C   UNL     1     -11.940  11.700  69.060  1.00  0.00    -0.368 C  
BRANCH  21  22
HETATM   22  C   UNL     1     -10.869  11.719  67.976  1.00  0.00    -0.256 C  
BRANCH  22  23
HETATM   23  C   UNL     1     -10.701  10.332  67.375  1.00  0.00    -0.281 C  
BRANCH  23  24
HETATM   24  O   UNL     1      -9.315  10.103  67.153  1.00  0.00    -0.150 OA 
BRANCH  24  25
HETATM   25  C   UNL     1      -8.511  10.863  68.052  1.00  0.00    -0.130 C  
BRANCH  25  26
HETATM   26  C   UNL     1      -7.439   9.954  68.639  1.00  0.00    -0.075 C  
BRANCH  26  27
HETATM   27  C   UNL     1      -7.725   9.646  70.110  1.00  0.00    -0.179 C  
BRANCH  27  28
HETATM   28  C   UNL     1      -6.845   8.515  70.639  1.00  0.00    -0.041 C  
BRANCH  28  29
HETATM   29  C   UNL     1      -7.500   7.873  71.839  1.00  0.00    -0.087 A  
HETATM   30  C   UNL     1      -7.026   6.654  72.336  1.00  0.00    -0.068 A  
HETATM   31  C   UNL     1      -7.682   6.022  73.393  1.00  0.00    -0.100 A  
HETATM   32  C   UNL     1      -8.816   6.602  73.958  1.00  0.00    -0.171 A  
HETATM   33  C   UNL     1      -9.293   7.818  73.472  1.00  0.00    -0.351 A  
HETATM   34  C   UNL     1      -8.639   8.452  72.415  1.00  0.00    -0.261 A  
ENDBRANCH  28  29
ENDBRANCH  27  28
ENDBRANCH  26  27
ENDBRANCH  25  26
ENDBRANCH  24  25
ENDBRANCH  23  24
ENDBRANCH  22  23
ENDBRANCH  21  22
ENDBRANCH  20  21
ENDBRANCH  19  20
ENDBRANCH  18  19
ENDBRANCH  16  18
ENDBRANCH  15  16
ENDBRANCH  12  15
ENDBRANCH  10  12
ENDBRANCH   2   4
TORSDOF 16
ENDMDL
MODEL      207
REMARK 921   NORMALIZED FREE ENERGY PREDICTED BY IDOCK:   -4.58 KCAL/MOL
REMARK 922        TOTAL FREE ENERGY PREDICTED BY IDOCK:  -11.20 KCAL/MOL
REMARK 923 INTER-LIGAND FREE ENERGY PREDICTED BY IDOCK:   -8.55 KCAL/MOL
REMARK 924 INTRA-LIGAND FREE ENERGY PREDICTED BY IDOCK:   -2.65 KCAL/MOL
REMARK 927      BINDING AFFINITY PREDICTED BY RF-SCORE:    0.00 PKD
ROOT
HETATM    1  O   UNL     1     -11.491  16.679  71.018  1.00  0.00    -0.557 OA 
HETATM    2  C   UNL     1     -11.933  15.711  70.066  1.00  0.00    -0.368 C  
HETATM    3  H   UNL     1     -11.149  17.445  70.572  1.00  0.00     0.000 HD 
ENDROOT
BRANCH   2   4
HETATM    4  C   UNL     1     -12.475  14.496  70.772  1.00  0.00    -0.420 A  
HETATM    5  C   UNL     1     -13.246  14.578  71.937  1.00  0.00    -0.359 A  
HETATM    6  O   UNL     1     -13.503  15.774  72.549  1.00  0.00    -0.482 OA 
HETATM    7  C   UNL     1     -13.765  13.441  72.546  1.00  0.00    -0.636 A  
HETATM    8  C   UNL     1     -13.498  12.185  72.007  1.00  0.00    -0.388 A  
HETATM    9  H   UNL     1     -14.026  15.830  73.340  1.00  0.00     0.000 HD 
HETATM   10  C   UNL     1     -12.725  12.057  70.842  1.00  0.00    -0.291 A  
HETATM   11  C   UNL     1     -12.241  13.222  70.223  1.00  0.00    -0.391 A  
BRANCH  10  12
HETATM   12  C   UNL     1     -12.384  10.696  70.264  1.00  0.00    -0.325 C  
HETATM   13  O   UNL     1     -12.612  10.691  68.846  1.00  0.00    -0.742 OA 
HETATM   14  H   UNL     1     -12.398   9.838  68.483  1.00  0.00     0.000 HD 
BRANCH  12  15
HETATM   15  C   UNL     1     -10.918  10.297  70.537  1.00  0.00    -0.270 C  
BRANCH  15  16
HETATM   16  N   UNL     1     -10.825   9.342  71.653  1.00  0.00    -0.372 NA 
HETATM   17  H   UNL     1     -11.465   8.556  71.538  1.00  0.00     0.000 HD 
BRANCH  16  18
HETATM   18  C   UNL     1      -9.444   8.901  71.822  1.00  0.00    -0.264 C  
BRANCH  18  19
HETATM   19  C   UNL     1      -9.005   8.085  70.613  1.00  0.00    -0.148 C  
BRANCH  19  20
HETATM   20  C   UNL     1      -7.497   8.211  70.411  1.00  0.00    -0.067 C  
BRANCH  20  21
HETATM   21  C   UNL     1      -7.187   8.908  69.094  1.00  0.00    -0.067 C  
BRANCH  21  22
HETATM   22  C   UNL     1      -6.969  10.403  69.292  1.00  0.00    -0.080 C  
BRANCH  22  23
HETATM   23  C   UNL     1      -8.094  11.192  68.640  1.00  0.00    -0.150 C  
BRANCH  23  24
HETATM   24  O   UNL     1      -7.617  11.722  67.410  1.00  0.00    -0.125 OA 
BRANCH  24  25
HETATM   25  C   UNL     1      -8.449  11.337  66.319  1.00  0.00    -0.156 C  
BRANCH  25  26
HETATM   26  C   UNL     1      -9.711  10.685  66.870  1.00  0.00    -0.213 C  
BRANCH  26  27
HETATM   27  C   UNL     1      -9.887   9.272  66.311  1.00  0.00    -0.361 C  
BRANCH  27  28
HETATM   28  C   UNL     1     -10.442   8.309  67.358  1.00  0.00    -0.353 C  
BRANCH  28  29
HETATM   29  C   UNL     1      -9.783   6.957  67.213  1.00  0.00    -0.184 A  
HETATM   30  C   UNL     1     -10.208   5.875  67.991  1.00  0.00    -0.224 A  
HETATM   31  C   UNL     1      -9.546   4.650  67.914  1.00  0.00    -0.205 A  
HETATM   32  C   UNL     1      -8.454   4.498  67.063  1.00  0.00    -0.104 A  
HETATM   33  C   UNL     1      -8.025   5.570  66.281  1.00  0.00    -0.105 A  
HETATM   34  C   UNL     1      -8.686   6.796  66.355  1.00  0.00    -0.142 A  
ENDBRANCH  28  29
ENDBRANCH  27  28
ENDBRANCH  26  27
ENDBRANCH  25  26
ENDBRANCH  24  25
ENDBRANCH  23  24
ENDBRANCH  22  23
ENDBRANCH  21  22
ENDBRANCH  20  21
ENDBRANCH  19  20
ENDBRANCH  18  19
ENDBRANCH  16  18
ENDBRANCH  15  16
ENDBRANCH  12  15
ENDBRANCH  10  12
ENDBRANCH   2   4
TORSDOF 16
ENDMDL
MODEL      208
REMARK 921   NORMALIZED FREE ENERGY PREDICTED BY IDOCK:   -4.57 KCAL/MOL
REMARK 922        TOTAL FREE ENERGY PREDICTED BY IDOCK:  -11.20 KCAL/MOL
REMARK 923 INTER-LIGAND FREE ENERGY PREDICTED BY IDOCK:   -8.08 KCAL/MOL
REMARK 924 INTRA-LIGAND FREE ENERGY PREDICTED BY IDOCK:   -3.12 KCAL/MOL
REMARK 927      BINDING AFFINITY PREDICTED BY RF-SCORE:    0.00 PKD
ROOT
HETATM    1  O   UNL     1      -7.789   4.656  64.444  1.00  0.00    -0.082 OA 
HETATM    2  C   UNL     1      -8.563   4.649  65.644  1.00  0.00    -0.124 C  
HETATM    3  H   UNL     1      -7.465   3.782  64.257  1.00  0.00     0.000 HD 
ENDROOT
BRANCH   2   4
HETATM    4  C   UNL     1      -9.076   6.034  65.940  1.00  0.00    -0.117 A  
HETATM    5  C   UNL     1     -10.207   6.270  66.729  1.00  0.00    -0.202 A  
HETATM    6  O   UNL     1     -10.962   5.246  67.231  1.00  0.00    -0.238 OA 
HETATM    7  C   UNL     1     -10.635   7.561  67.017  1.00  0.00    -0.409 A  
HETATM    8  C   UNL     1      -9.945   8.652  66.494  1.00  0.00    -0.353 A  
HETATM    9  H   UNL     1     -11.731   5.406  67.766  1.00  0.00     0.000 HD 
HETATM   10  C   UNL     1      -8.807   8.460  65.694  1.00  0.00    -0.196 A  
HETATM   11  C   UNL     1      -8.371   7.146  65.446  1.00  0.00    -0.122 A  
BRANCH  10  12
HETATM   12  C   UNL     1      -8.066   9.631  65.077  1.00  0.00    -0.127 C  
HETATM   13  O   UNL     1      -6.669   9.558  65.401  1.00  0.00    -0.076 OA 
HETATM   14  H   UNL     1      -6.204  10.292  65.015  1.00  0.00     0.000 HD 
BRANCH  12  15
HETATM   15  C   UNL     1      -8.222   9.678  63.542  1.00  0.00    -0.158 C  
BRANCH  15  16
HETATM   16  N   UNL     1      -9.617   9.945  63.157  1.00  0.00    -0.535 NA 
HETATM   17  H   UNL     1     -10.281   9.524  63.807  1.00  0.00     0.000 HD 
BRANCH  16  18
HETATM   18  C   UNL     1      -9.831  11.382  63.013  1.00  0.00    -0.347 C  
BRANCH  18  19
HETATM   19  C   UNL     1     -11.151  11.781  63.659  1.00  0.00    -0.518 C  
BRANCH  19  20
HETATM   20  C   UNL     1     -10.902  12.371  65.045  1.00  0.00    -0.331 C  
BRANCH  20  21
HETATM   21  C   UNL     1     -12.119  13.151  65.524  1.00  0.00    -0.490 C  
BRANCH  21  22
HETATM   22  C   UNL     1     -12.146  13.262  67.043  1.00  0.00    -0.375 C  
BRANCH  22  23
HETATM   23  C   UNL     1     -11.475  14.551  67.491  1.00  0.00    -0.356 C  
BRANCH  23  24
HETATM   24  O   UNL     1     -10.429  14.222  68.397  1.00  0.00    -0.235 OA 
BRANCH  24  25
HETATM   25  C   UNL     1      -9.150  14.330  67.778  1.00  0.00    -0.195 C  
BRANCH  25  26
HETATM   26  C   UNL     1      -8.245  13.233  68.327  1.00  0.00    -0.156 C  
BRANCH  26  27
HETATM   27  C   UNL     1      -8.735  11.850  67.895  1.00  0.00    -0.167 C  
BRANCH  27  28
HETATM   28  C   UNL     1      -8.325  10.763  68.886  1.00  0.00    -0.147 C  
BRANCH  28  29
HETATM   29  C   UNL     1      -9.535  10.283  69.652  1.00  0.00    -0.180 A  
HETATM   30  C   UNL     1     -10.786  10.872  69.442  1.00  0.00    -0.286 A  
HETATM   31  C   UNL     1     -11.885  10.483  70.208  1.00  0.00    -0.418 A  
HETATM   32  C   UNL     1     -11.742   9.505  71.189  1.00  0.00    -0.438 A  
HETATM   33  C   UNL     1     -10.499   8.909  71.403  1.00  0.00    -0.375 A  
HETATM   34  C   UNL     1      -9.399   9.296  70.639  1.00  0.00    -0.329 A  
ENDBRANCH  28  29
ENDBRANCH  27  28
ENDBRANCH  26  27
ENDBRANCH  25  26
ENDBRANCH  24  25
ENDBRANCH  23  24
ENDBRANCH  22  23
ENDBRANCH  21  22
ENDBRANCH  20  21
ENDBRANCH  19  20
ENDBRANCH  18  19
ENDBRANCH  16  18
ENDBRANCH  15  16
ENDBRANCH  12  15
ENDBRANCH  10  12
ENDBRANCH   2   4
TORSDOF 16
ENDMDL
MODEL      209
REMARK 921   NORMALIZED FREE ENERGY PREDICTED BY IDOCK:   -4.57 KCAL/MOL
REMARK 922        TOTAL FREE ENERGY PREDICTED BY IDOCK:  -11.18 KCAL/MOL
REMARK 923 INTER-LIGAND FREE ENERGY PREDICTED BY IDOCK:   -8.10 KCAL/MOL
REMARK 924 INTRA-LIGAND FREE ENERGY PREDICTED BY IDOCK:   -3.08 KCAL/MOL
REMARK 927      BINDING AFFINITY PREDICTED BY RF-SCORE:    0.00 PKD
ROOT
HETATM    1  O   UNL     1     -11.908   7.134  70.163  1.00  0.00    -0.535 OA 
HETATM    2  C   UNL     1     -11.045   6.184  69.537  1.00  0.00    -0.420 C  
HETATM    3  H   UNL     1     -12.474   6.700  70.792  1.00  0.00     0.000 HD 
ENDROOT
BRANCH   2   4
HETATM    4  C   UNL     1     -10.149   6.872  68.541  1.00  0.00    -0.165 A  
HETATM    5  C   UNL     1     -10.464   6.972  67.181  1.00  0.00    -0.312 A  
HETATM    6  O   UNL     1     -11.584   6.389  66.656  1.00  0.00    -0.671 OA 
HETATM    7  C   UNL     1      -9.635   7.646  66.291  1.00  0.00    -0.155 A  
HETATM    8  C   UNL     1      -8.450   8.218  66.748  1.00  0.00    -0.122 A  
HETATM    9  H   UNL     1     -11.798   6.456  65.732  1.00  0.00     0.000 HD 
HETATM   10  C   UNL     1      -8.094   8.137  68.103  1.00  0.00    -0.128 A  
HETATM   11  C   UNL     1      -8.965   7.482  68.992  1.00  0.00    -0.131 A  
BRANCH  10  12
HETATM   12  C   UNL     1      -6.786   8.714  68.614  1.00  0.00    -0.063 C  
HETATM   13  O   UNL     1      -5.693   7.857  68.250  1.00  0.00    -0.031 OA 
HETATM   14  H   UNL     1      -4.874   8.218  68.570  1.00  0.00     0.000 HD 
BRANCH  12  15
HETATM   15  C   UNL     1      -6.518  10.130  68.061  1.00  0.00    -0.058 C  
BRANCH  15  16
HETATM   16  N   UNL     1      -7.435  11.117  68.655  1.00  0.00    -0.110 NA 
HETATM   17  H   UNL     1      -6.957  11.736  69.309  1.00  0.00     0.000 HD 
BRANCH  16  18
HETATM   18  C   UNL     1      -8.122  11.858  67.602  1.00  0.00    -0.148 C  
BRANCH  18  19
HETATM   19  C   UNL     1      -9.520  12.249  68.066  1.00  0.00    -0.206 C  
BRANCH  19  20
HETATM   20  C   UNL     1     -10.441  11.031  68.046  1.00  0.00    -0.219 C  
BRANCH  20  21
HETATM   21  C   UNL     1     -11.229  10.931  69.344  1.00  0.00    -0.335 C  
BRANCH  21  22
HETATM   22  C   UNL     1     -12.396  11.911  69.363  1.00  0.00    -0.056 C  
BRANCH  22  23
HETATM   23  C   UNL     1     -12.480  12.606  70.714  1.00  0.00    -0.270 C  
BRANCH  23  24
HETATM   24  O   UNL     1     -12.769  13.981  70.495  1.00  0.00    -0.327 OA 
BRANCH  24  25
HETATM   25  C   UNL     1     -11.924  14.822  71.277  1.00  0.00    -0.349 C  
BRANCH  25  26
HETATM   26  C   UNL     1     -11.349  15.911  70.380  1.00  0.00    -0.399 C  
BRANCH  26  27
HETATM   27  C   UNL     1     -10.729  15.310  69.117  1.00  0.00    -0.251 C  
BRANCH  27  28
HETATM   28  C   UNL     1     -11.294  15.942  67.847  1.00  0.00    -0.252 C  
BRANCH  28  29
HETATM   29  C   UNL     1     -11.276  14.936  66.720  1.00  0.00    -0.338 A  
HETATM   30  C   UNL     1     -10.199  14.893  65.827  1.00  0.00    -0.358 A  
HETATM   31  C   UNL     1     -10.221  14.019  64.740  1.00  0.00    -0.332 A  
HETATM   32  C   UNL     1     -11.318  13.185  64.536  1.00  0.00    -0.383 A  
HETATM   33  C   UNL     1     -12.394  13.218  65.422  1.00  0.00    -0.528 A  
HETATM   34  C   UNL     1     -12.375  14.091  66.511  1.00  0.00    -0.442 A  
ENDBRANCH  28  29
ENDBRANCH  27  28
ENDBRANCH  26  27
ENDBRANCH  25  26
ENDBRANCH  24  25
ENDBRANCH  23  24
ENDBRANCH  22  23
ENDBRANCH  21  22
ENDBRANCH  20  21
ENDBRANCH  19  20
ENDBRANCH  18  19
ENDBRANCH  16  18
ENDBRANCH  15  16
ENDBRANCH  12  15
ENDBRANCH  10  12
ENDBRANCH   2   4
TORSDOF 16
ENDMDL
MODEL      210
REMARK 921   NORMALIZED FREE ENERGY PREDICTED BY IDOCK:   -4.56 KCAL/MOL
REMARK 922        TOTAL FREE ENERGY PREDICTED BY IDOCK:  -11.18 KCAL/MOL
REMARK 923 INTER-LIGAND FREE ENERGY PREDICTED BY IDOCK:   -9.06 KCAL/MOL
REMARK 924 INTRA-LIGAND FREE ENERGY PREDICTED BY IDOCK:   -2.12 KCAL/MOL
REMARK 927      BINDING AFFINITY PREDICTED BY RF-SCORE:    0.00 PKD
ROOT
HETATM    1  O   UNL     1      -6.988  13.148  68.129  1.00  0.00    -0.083 OA 
HETATM    2  C   UNL     1      -8.250  13.680  67.725  1.00  0.00    -0.179 C  
HETATM    3  H   UNL     1      -6.356  13.849  68.239  1.00  0.00     0.000 HD 
ENDROOT
BRANCH   2   4
HETATM    4  C   UNL     1      -9.253  12.570  67.550  1.00  0.00    -0.188 A  
HETATM    5  C   UNL     1     -10.519  12.773  66.990  1.00  0.00    -0.237 A  
HETATM    6  O   UNL     1     -10.954  14.016  66.623  1.00  0.00    -0.295 OA 
HETATM    7  C   UNL     1     -11.409  11.720  66.807  1.00  0.00    -0.385 A  
HETATM    8  C   UNL     1     -11.053  10.435  67.207  1.00  0.00    -0.251 A  
HETATM    9  H   UNL     1     -11.813  14.154  66.243  1.00  0.00     0.000 HD 
HETATM   10  C   UNL     1      -9.794  10.188  67.778  1.00  0.00    -0.190 A  
HETATM   11  C   UNL     1      -8.896  11.260  67.920  1.00  0.00    -0.142 A  
BRANCH  10  12
HETATM   12  C   UNL     1      -9.403   8.804  68.263  1.00  0.00    -0.137 C  
HETATM   13  O   UNL     1      -9.356   8.779  69.698  1.00  0.00    -0.154 OA 
HETATM   14  H   UNL     1      -9.111   7.913  70.002  1.00  0.00     0.000 HD 
BRANCH  12  15
HETATM   15  C   UNL     1     -10.382   7.716  67.775  1.00  0.00    -0.219 C  
BRANCH  15  16
HETATM   16  N   UNL     1     -10.798   6.839  68.881  1.00  0.00    -0.332 NA 
HETATM   17  H   UNL     1     -11.809   6.846  69.016  1.00  0.00     0.000 HD 
BRANCH  16  18
HETATM   18  C   UNL     1     -10.286   5.488  68.670  1.00  0.00    -0.193 C  
BRANCH  18  19
HETATM   19  C   UNL     1      -9.976   4.832  70.009  1.00  0.00    -0.314 C  
BRANCH  19  20
HETATM   20  C   UNL     1      -9.902   5.888  71.109  1.00  0.00    -0.222 C  
BRANCH  20  21
HETATM   21  C   UNL     1     -10.620   5.409  72.363  1.00  0.00    -0.276 C  
BRANCH  21  22
HETATM   22  C   UNL     1     -10.684   6.505  73.420  1.00  0.00    -0.295 C  
BRANCH  22  23
HETATM   23  C   UNL     1     -10.809   7.869  72.760  1.00  0.00    -0.386 C  
BRANCH  23  24
HETATM   24  O   UNL     1     -12.177   8.260  72.791  1.00  0.00    -0.327 OA 
BRANCH  24  25
HETATM   25  C   UNL     1     -12.716   8.375  71.476  1.00  0.00    -0.308 C  
BRANCH  25  26
HETATM   26  C   UNL     1     -12.046   9.548  70.772  1.00  0.00    -0.305 C  
BRANCH  26  27
HETATM   27  C   UNL     1     -12.739  10.866  71.122  1.00  0.00    -0.530 C  
BRANCH  27  28
HETATM   28  C   UNL     1     -12.188  12.035  70.308  1.00  0.00    -0.348 C  
BRANCH  28  29
HETATM   29  C   UNL     1     -12.373  13.325  71.070  1.00  0.00    -0.379 A  
HETATM   30  C   UNL     1     -13.384  13.442  72.030  1.00  0.00    -0.569 A  
HETATM   31  C   UNL     1     -13.605  14.659  72.676  1.00  0.00    -0.571 A  
HETATM   32  C   UNL     1     -12.820  15.767  72.365  1.00  0.00    -0.539 A  
HETATM   33  C   UNL     1     -11.808  15.659  71.412  1.00  0.00    -0.482 A  
HETATM   34  C   UNL     1     -11.584  14.443  70.765  1.00  0.00    -0.224 A  
ENDBRANCH  28  29
ENDBRANCH  27  28
ENDBRANCH  26  27
ENDBRANCH  25  26
ENDBRANCH  24  25
ENDBRANCH  23  24
ENDBRANCH  22  23
ENDBRANCH  21  22
ENDBRANCH  20  21
ENDBRANCH  19  20
ENDBRANCH  18  19
ENDBRANCH  16  18
ENDBRANCH  15  16
ENDBRANCH  12  15
ENDBRANCH  10  12
ENDBRANCH   2   4
TORSDOF 16
ENDMDL
MODEL      211
REMARK 921   NORMALIZED FREE ENERGY PREDICTED BY IDOCK:   -4.56 KCAL/MOL
REMARK 922        TOTAL FREE ENERGY PREDICTED BY IDOCK:  -11.17 KCAL/MOL
REMARK 923 INTER-LIGAND FREE ENERGY PREDICTED BY IDOCK:   -9.32 KCAL/MOL
REMARK 924 INTRA-LIGAND FREE ENERGY PREDICTED BY IDOCK:   -1.85 KCAL/MOL
REMARK 927      BINDING AFFINITY PREDICTED BY RF-SCORE:    0.00 PKD
ROOT
HETATM    1  O   UNL     1      -6.179  13.082  66.972  1.00  0.00    -0.480 OA 
HETATM    2  C   UNL     1      -7.036  12.915  68.103  1.00  0.00    -0.102 C  
HETATM    3  H   UNL     1      -5.335  12.677  67.137  1.00  0.00     0.000 HD 
ENDROOT
BRANCH   2   4
HETATM    4  C   UNL     1      -8.373  13.558  67.842  1.00  0.00    -0.175 A  
HETATM    5  C   UNL     1      -9.199  13.183  66.776  1.00  0.00    -0.230 A  
HETATM    6  O   UNL     1      -8.811  12.246  65.859  1.00  0.00    -0.413 OA 
HETATM    7  C   UNL     1     -10.445  13.768  66.583  1.00  0.00    -0.272 A  
HETATM    8  C   UNL     1     -10.882  14.768  67.448  1.00  0.00    -0.300 A  
HETATM    9  H   UNL     1      -9.371  11.992  65.135  1.00  0.00     0.000 HD 
HETATM   10  C   UNL     1     -10.083  15.177  68.528  1.00  0.00    -0.228 A  
HETATM   11  C   UNL     1      -8.842  14.546  68.726  1.00  0.00    -0.153 A  
BRANCH  10  12
HETATM   12  C   UNL     1     -10.519  16.296  69.456  1.00  0.00    -0.299 C  
HETATM   13  O   UNL     1     -10.658  17.522  68.722  1.00  0.00    -0.330 OA 
HETATM   14  H   UNL     1     -10.931  18.222  69.303  1.00  0.00     0.000 HD 
BRANCH  12  15
HETATM   15  C   UNL     1     -11.855  15.981  70.162  1.00  0.00    -0.240 C  
BRANCH  15  16
HETATM   16  N   UNL     1     -11.748  16.175  71.617  1.00  0.00    -0.537 NA 
HETATM   17  H   UNL     1     -12.186  17.046  71.919  1.00  0.00     0.000 HD 
BRANCH  16  18
HETATM   18  C   UNL     1     -12.293  15.017  72.319  1.00  0.00    -0.353 C  
BRANCH  18  19
HETATM   19  C   UNL     1     -12.724  13.955  71.316  1.00  0.00    -0.444 C  
BRANCH  19  20
HETATM   20  C   UNL     1     -13.162  12.687  72.047  1.00  0.00    -0.531 C  
BRANCH  20  21
HETATM   21  C   UNL     1     -12.760  11.448  71.262  1.00  0.00    -0.498 C  
BRANCH  21  22
HETATM   22  C   UNL     1     -12.020  11.816  69.981  1.00  0.00    -0.421 C  
BRANCH  22  23
HETATM   23  C   UNL     1     -11.412  10.574  69.347  1.00  0.00    -0.262 C  
BRANCH  23  24
HETATM   24  O   UNL     1     -11.566  10.670  67.936  1.00  0.00    -0.491 OA 
BRANCH  24  25
HETATM   25  C   UNL     1     -10.664   9.802  67.254  1.00  0.00    -0.227 C  
BRANCH  25  26
HETATM   26  C   UNL     1     -10.605   8.473  67.996  1.00  0.00    -0.197 C  
BRANCH  26  27
HETATM   27  C   UNL     1     -10.341   7.316  67.031  1.00  0.00    -0.376 C  
BRANCH  27  28
HETATM   28  C   UNL     1     -10.991   6.018  67.504  1.00  0.00    -0.335 C  
BRANCH  28  29
HETATM   29  C   UNL     1     -10.462   5.644  68.868  1.00  0.00    -0.310 A  
HETATM   30  C   UNL     1     -11.222   5.895  70.016  1.00  0.00    -0.341 A  
HETATM   31  C   UNL     1     -10.699   5.623  71.280  1.00  0.00    -0.312 A  
HETATM   32  C   UNL     1      -9.413   5.104  71.407  1.00  0.00    -0.200 A  
HETATM   33  C   UNL     1      -8.649   4.848  70.269  1.00  0.00    -0.111 A  
HETATM   34  C   UNL     1      -9.170   5.117  69.003  1.00  0.00    -0.156 A  
ENDBRANCH  28  29
ENDBRANCH  27  28
ENDBRANCH  26  27
ENDBRANCH  25  26
ENDBRANCH  24  25
ENDBRANCH  23  24
ENDBRANCH  22  23
ENDBRANCH  21  22
ENDBRANCH  20  21
ENDBRANCH  19  20
ENDBRANCH  18  19
ENDBRANCH  16  18
ENDBRANCH  15  16
ENDBRANCH  12  15
ENDBRANCH  10  12
ENDBRANCH   2   4
TORSDOF 16
ENDMDL
MODEL      212
REMARK 921   NORMALIZED FREE ENERGY PREDICTED BY IDOCK:   -4.56 KCAL/MOL
REMARK 922        TOTAL FREE ENERGY PREDICTED BY IDOCK:  -11.17 KCAL/MOL
REMARK 923 INTER-LIGAND FREE ENERGY PREDICTED BY IDOCK:  -10.09 KCAL/MOL
REMARK 924 INTRA-LIGAND FREE ENERGY PREDICTED BY IDOCK:   -1.08 KCAL/MOL
REMARK 927      BINDING AFFINITY PREDICTED BY RF-SCORE:    0.00 PKD
ROOT
HETATM    1  O   UNL     1      -6.126  16.708  66.425  1.00  0.00    -0.278 OA 
HETATM    2  C   UNL     1      -6.754  17.872  65.886  1.00  0.00    -0.277 C  
HETATM    3  H   UNL     1      -5.270  16.585  66.031  1.00  0.00     0.000 HD 
ENDROOT
BRANCH   2   4
HETATM    4  C   UNL     1      -8.111  18.067  66.511  1.00  0.00    -0.298 A  
HETATM    5  C   UNL     1      -8.866  19.232  66.334  1.00  0.00    -0.348 A  
HETATM    6  O   UNL     1      -8.387  20.302  65.629  1.00  0.00    -0.500 OA 
HETATM    7  C   UNL     1     -10.132  19.369  66.892  1.00  0.00    -0.491 A  
HETATM    8  C   UNL     1     -10.661  18.340  67.667  1.00  0.00    -0.427 A  
HETATM    9  H   UNL     1      -8.899  21.093  65.509  1.00  0.00     0.000 HD 
HETATM   10  C   UNL     1      -9.935  17.156  67.874  1.00  0.00    -0.292 A  
HETATM   11  C   UNL     1      -8.673  17.025  67.270  1.00  0.00    -0.212 A  
BRANCH  10  12
HETATM   12  C   UNL     1     -10.473  16.041  68.752  1.00  0.00    -0.248 C  
HETATM   13  O   UNL     1     -10.923  16.574  70.007  1.00  0.00    -0.350 OA 
HETATM   14  H   UNL     1     -11.260  15.876  70.557  1.00  0.00     0.000 HD 
BRANCH  12  15
HETATM   15  C   UNL     1     -11.639  15.283  68.083  1.00  0.00    -0.330 C  
BRANCH  15  16
HETATM   16  N   UNL     1     -11.297  14.886  66.707  1.00  0.00    -0.345 NA 
HETATM   17  H   UNL     1     -10.388  14.426  66.657  1.00  0.00     0.000 HD 
BRANCH  16  18
HETATM   18  C   UNL     1     -12.360  14.058  66.145  1.00  0.00    -0.458 C  
BRANCH  18  19
HETATM   19  C   UNL     1     -12.095  13.801  64.667  1.00  0.00    -0.452 C  
BRANCH  19  20
HETATM   20  C   UNL     1     -11.831  12.316  64.430  1.00  0.00    -0.464 C  
BRANCH  20  21
HETATM   21  C   UNL     1     -10.337  12.044  64.336  1.00  0.00    -0.342 C  
BRANCH  21  22
HETATM   22  C   UNL     1      -9.755  11.656  65.690  1.00  0.00    -0.262 C  
BRANCH  22  23
HETATM   23  C   UNL     1     -10.641  10.623  66.369  1.00  0.00    -0.175 C  
BRANCH  23  24
HETATM   24  O   UNL     1     -10.138   9.329  66.063  1.00  0.00    -0.297 OA 
BRANCH  24  25
HETATM   25  C   UNL     1      -9.240   8.867  67.070  1.00  0.00    -0.137 C  
BRANCH  25  26
HETATM   26  C   UNL     1      -9.703   9.398  68.421  1.00  0.00    -0.163 C  
BRANCH  26  27
HETATM   27  C   UNL     1      -9.182   8.523  69.562  1.00  0.00    -0.150 C  
BRANCH  27  28
HETATM   28  C   UNL     1      -9.368   9.189  70.924  1.00  0.00    -0.335 C  
BRANCH  28  29
HETATM   29  C   UNL     1     -10.837   9.256  71.268  1.00  0.00    -0.417 A  
HETATM   30  C   UNL     1     -11.484   8.148  71.825  1.00  0.00    -0.337 A  
HETATM   31  C   UNL     1     -12.857   8.183  72.068  1.00  0.00    -0.346 A  
HETATM   32  C   UNL     1     -13.593   9.324  71.753  1.00  0.00    -0.465 A  
HETATM   33  C   UNL     1     -12.956  10.434  71.201  1.00  0.00    -0.506 A  
HETATM   34  C   UNL     1     -11.583  10.401  70.957  1.00  0.00    -0.384 A  
ENDBRANCH  28  29
ENDBRANCH  27  28
ENDBRANCH  26  27
ENDBRANCH  25  26
ENDBRANCH  24  25
ENDBRANCH  23  24
ENDBRANCH  22  23
ENDBRANCH  21  22
ENDBRANCH  20  21
ENDBRANCH  19  20
ENDBRANCH  18  19
ENDBRANCH  16  18
ENDBRANCH  15  16
ENDBRANCH  12  15
ENDBRANCH  10  12
ENDBRANCH   2   4
TORSDOF 16
ENDMDL
MODEL      213
REMARK 921   NORMALIZED FREE ENERGY PREDICTED BY IDOCK:   -4.55 KCAL/MOL
REMARK 922        TOTAL FREE ENERGY PREDICTED BY IDOCK:  -11.16 KCAL/MOL
REMARK 923 INTER-LIGAND FREE ENERGY PREDICTED BY IDOCK:   -9.13 KCAL/MOL
REMARK 924 INTRA-LIGAND FREE ENERGY PREDICTED BY IDOCK:   -2.03 KCAL/MOL
REMARK 927      BINDING AFFINITY PREDICTED BY RF-SCORE:    0.00 PKD
ROOT
HETATM    1  O   UNL     1     -13.205  14.865  72.998  1.00  0.00    -0.460 OA 
HETATM    2  C   UNL     1     -14.079  14.000  72.271  1.00  0.00    -0.535 C  
HETATM    3  H   UNL     1     -13.699  15.578  73.386  1.00  0.00     0.000 HD 
ENDROOT
BRANCH   2   4
HETATM    4  C   UNL     1     -13.298  12.869  71.655  1.00  0.00    -0.358 A  
HETATM    5  C   UNL     1     -12.300  13.071  70.695  1.00  0.00    -0.310 A  
HETATM    6  O   UNL     1     -12.015  14.315  70.204  1.00  0.00    -0.286 OA 
HETATM    7  C   UNL     1     -11.570  12.010  70.172  1.00  0.00    -0.228 A  
HETATM    8  C   UNL     1     -11.844  10.710  70.588  1.00  0.00    -0.463 A  
HETATM    9  H   UNL     1     -11.338  14.453  69.551  1.00  0.00     0.000 HD 
HETATM   10  C   UNL     1     -12.840  10.461  71.546  1.00  0.00    -0.569 A  
HETATM   11  C   UNL     1     -13.541  11.552  72.088  1.00  0.00    -0.105 A  
BRANCH  10  12
HETATM   12  C   UNL     1     -13.186   9.049  71.980  1.00  0.00    -0.429 C  
HETATM   13  O   UNL     1     -13.583   8.266  70.843  1.00  0.00    -0.515 OA 
HETATM   14  H   UNL     1     -13.800   7.382  71.114  1.00  0.00     0.000 HD 
BRANCH  12  15
HETATM   15  C   UNL     1     -12.004   8.348  72.682  1.00  0.00    -0.277 C  
BRANCH  15  16
HETATM   16  N   UNL     1     -11.265   7.484  71.746  1.00  0.00    -0.241 NA 
HETATM   17  H   UNL     1     -10.931   8.000  70.932  1.00  0.00     0.000 HD 
BRANCH  16  18
HETATM   18  C   UNL     1     -10.179   6.802  72.444  1.00  0.00    -0.180 C  
BRANCH  18  19
HETATM   19  C   UNL     1      -8.844   7.435  72.075  1.00  0.00    -0.141 C  
BRANCH  19  20
HETATM   20  C   UNL     1      -8.247   6.734  70.856  1.00  0.00    -0.123 C  
BRANCH  20  21
HETATM   21  C   UNL     1      -8.301   7.641  69.635  1.00  0.00    -0.130 C  
BRANCH  21  22
HETATM   22  C   UNL     1      -9.347   7.165  68.634  1.00  0.00    -0.134 C  
BRANCH  22  23
HETATM   23  C   UNL     1     -10.127   8.348  68.082  1.00  0.00    -0.200 C  
BRANCH  23  24
HETATM   24  O   UNL     1     -10.204   8.216  66.669  1.00  0.00    -0.292 OA 
BRANCH  24  25
HETATM   25  C   UNL     1     -10.019   9.470  66.017  1.00  0.00    -0.278 C  
BRANCH  25  26
HETATM   26  C   UNL     1     -10.140  10.583  67.051  1.00  0.00    -0.259 C  
BRANCH  26  27
HETATM   27  C   UNL     1     -11.347  11.475  66.758  1.00  0.00    -0.309 C  
BRANCH  27  28
HETATM   28  C   UNL     1     -11.184  12.245  65.449  1.00  0.00    -0.372 C  
BRANCH  28  29
HETATM   29  C   UNL     1     -10.892  13.698  65.740  1.00  0.00    -0.274 A  
HETATM   30  C   UNL     1     -10.581  14.112  67.040  1.00  0.00    -0.276 A  
HETATM   31  C   UNL     1     -10.392  15.464  67.323  1.00  0.00    -0.271 A  
HETATM   32  C   UNL     1     -10.515  16.413  66.310  1.00  0.00    -0.298 A  
HETATM   33  C   UNL     1     -10.821  16.011  65.011  1.00  0.00    -0.421 A  
HETATM   34  C   UNL     1     -11.010  14.658  64.725  1.00  0.00    -0.399 A  
ENDBRANCH  28  29
ENDBRANCH  27  28
ENDBRANCH  26  27
ENDBRANCH  25  26
ENDBRANCH  24  25
ENDBRANCH  23  24
ENDBRANCH  22  23
ENDBRANCH  21  22
ENDBRANCH  20  21
ENDBRANCH  19  20
ENDBRANCH  18  19
ENDBRANCH  16  18
ENDBRANCH  15  16
ENDBRANCH  12  15
ENDBRANCH  10  12
ENDBRANCH   2   4
TORSDOF 16
ENDMDL
MODEL      214
REMARK 921   NORMALIZED FREE ENERGY PREDICTED BY IDOCK:   -4.55 KCAL/MOL
REMARK 922        TOTAL FREE ENERGY PREDICTED BY IDOCK:  -11.15 KCAL/MOL
REMARK 923 INTER-LIGAND FREE ENERGY PREDICTED BY IDOCK:   -9.37 KCAL/MOL
REMARK 924 INTRA-LIGAND FREE ENERGY PREDICTED BY IDOCK:   -1.78 KCAL/MOL
REMARK 927      BINDING AFFINITY PREDICTED BY RF-SCORE:    0.00 PKD
ROOT
HETATM    1  O   UNL     1     -11.078  17.846  64.932  1.00  0.00    -0.782 OA 
HETATM    2  C   UNL     1     -10.237  16.928  65.631  1.00  0.00    -0.206 C  
HETATM    3  H   UNL     1     -10.679  18.709  64.914  1.00  0.00     0.000 HD 
ENDROOT
BRANCH   2   4
HETATM    4  C   UNL     1     -10.869  15.561  65.660  1.00  0.00    -0.354 A  
HETATM    5  C   UNL     1     -11.758  15.116  64.674  1.00  0.00    -0.348 A  
HETATM    6  O   UNL     1     -12.160  15.925  63.648  1.00  0.00    -1.223 OA 
HETATM    7  C   UNL     1     -12.297  13.835  64.708  1.00  0.00    -0.420 A  
HETATM    8  C   UNL     1     -11.973  12.975  65.754  1.00  0.00    -0.482 A  
HETATM    9  H   UNL     1     -12.763  15.624  62.979  1.00  0.00     0.000 HD 
HETATM   10  C   UNL     1     -11.089  13.382  66.766  1.00  0.00    -0.308 A  
HETATM   11  C   UNL     1     -10.527  14.669  66.692  1.00  0.00    -0.278 A  
BRANCH  10  12
HETATM   12  C   UNL     1     -10.757  12.478  67.938  1.00  0.00    -0.217 C  
HETATM   13  O   UNL     1      -9.672  13.033  68.698  1.00  0.00    -0.370 OA 
HETATM   14  H   UNL     1      -9.464  12.467  69.433  1.00  0.00     0.000 HD 
BRANCH  12  15
HETATM   15  C   UNL     1     -11.967  12.269  68.874  1.00  0.00    -0.248 C  
BRANCH  15  16
HETATM   16  N   UNL     1     -12.235  10.837  69.085  1.00  0.00    -0.716 NA 
HETATM   17  H   UNL     1     -12.143  10.300  68.223  1.00  0.00     0.000 HD 
BRANCH  16  18
HETATM   18  C   UNL     1     -11.377  10.318  70.146  1.00  0.00    -0.316 C  
BRANCH  18  19
HETATM   19  C   UNL     1     -12.106   9.225  70.919  1.00  0.00    -0.297 C  
BRANCH  19  20
HETATM   20  C   UNL     1     -11.129   8.121  71.318  1.00  0.00    -0.287 C  
BRANCH  20  21
HETATM   21  C   UNL     1     -11.497   7.544  72.677  1.00  0.00    -0.369 C  
BRANCH  21  22
HETATM   22  C   UNL     1     -10.260   7.313  73.537  1.00  0.00    -0.404 C  
BRANCH  22  23
HETATM   23  C   UNL     1      -9.031   7.137  72.659  1.00  0.00    -0.126 C  
BRANCH  23  24
HETATM   24  O   UNL     1      -8.087   8.144  72.999  1.00  0.00    -0.154 OA 
BRANCH  24  25
HETATM   25  C   UNL     1      -7.454   8.679  71.839  1.00  0.00    -0.062 C  
BRANCH  25  26
HETATM   26  C   UNL     1      -7.058   7.528  70.922  1.00  0.00    -0.059 C  
BRANCH  26  27
HETATM   27  C   UNL     1      -7.015   7.980  69.462  1.00  0.00    -0.050 C  
BRANCH  27  28
HETATM   28  C   UNL     1      -7.962   7.165  68.583  1.00  0.00    -0.123 C  
BRANCH  28  29
HETATM   29  C   UNL     1      -8.457   8.014  67.435  1.00  0.00    -0.126 A  
HETATM   30  C   UNL     1      -9.668   8.705  67.537  1.00  0.00    -0.212 A  
HETATM   31  C   UNL     1     -10.163   9.423  66.447  1.00  0.00    -0.300 A  
HETATM   32  C   UNL     1      -9.452   9.452  65.249  1.00  0.00    -0.296 A  
HETATM   33  C   UNL     1      -8.242   8.768  65.140  1.00  0.00    -0.149 A  
HETATM   34  C   UNL     1      -7.745   8.051  66.228  1.00  0.00    -0.091 A  
ENDBRANCH  28  29
ENDBRANCH  27  28
ENDBRANCH  26  27
ENDBRANCH  25  26
ENDBRANCH  24  25
ENDBRANCH  23  24
ENDBRANCH  22  23
ENDBRANCH  21  22
ENDBRANCH  20  21
ENDBRANCH  19  20
ENDBRANCH  18  19
ENDBRANCH  16  18
ENDBRANCH  15  16
ENDBRANCH  12  15
ENDBRANCH  10  12
ENDBRANCH   2   4
TORSDOF 16
ENDMDL
MODEL      215
REMARK 921   NORMALIZED FREE ENERGY PREDICTED BY IDOCK:   -4.55 KCAL/MOL
REMARK 922        TOTAL FREE ENERGY PREDICTED BY IDOCK:  -11.15 KCAL/MOL
REMARK 923 INTER-LIGAND FREE ENERGY PREDICTED BY IDOCK:   -7.43 KCAL/MOL
REMARK 924 INTRA-LIGAND FREE ENERGY PREDICTED BY IDOCK:   -3.72 KCAL/MOL
REMARK 927      BINDING AFFINITY PREDICTED BY RF-SCORE:    0.00 PKD
ROOT
HETATM    1  O   UNL     1      -9.059   2.492  69.498  1.00  0.00    -0.096 OA 
HETATM    2  C   UNL     1      -9.109   3.543  70.464  1.00  0.00    -0.122 C  
HETATM    3  H   UNL     1      -8.519   1.778  69.816  1.00  0.00     0.000 HD 
ENDROOT
BRANCH   2   4
HETATM    4  C   UNL     1      -9.964   4.675  69.959  1.00  0.00    -0.302 A  
HETATM    5  C   UNL     1     -10.139   4.943  68.596  1.00  0.00    -0.088 A  
HETATM    6  O   UNL     1      -9.486   4.227  67.631  1.00  0.00    -0.154 OA 
HETATM    7  C   UNL     1     -10.965   5.973  68.159  1.00  0.00    -0.340 A  
HETATM    8  C   UNL     1     -11.620   6.777  69.089  1.00  0.00    -0.016 A  
HETATM    9  H   UNL     1      -9.605   4.409  66.706  1.00  0.00     0.000 HD 
HETATM   10  C   UNL     1     -11.469   6.545  70.465  1.00  0.00    -0.448 A  
HETATM   11  C   UNL     1     -10.657   5.476  70.884  1.00  0.00    -0.309 A  
BRANCH  10  12
HETATM   12  C   UNL     1     -12.136   7.437  71.496  1.00  0.00    -0.327 C  
HETATM   13  O   UNL     1     -12.147   6.788  72.777  1.00  0.00    -0.482 OA 
HETATM   14  H   UNL     1     -12.565   7.347  73.423  1.00  0.00     0.000 HD 
BRANCH  12  15
HETATM   15  C   UNL     1     -11.428   8.802  71.632  1.00  0.00    -0.316 C  
BRANCH  15  16
HETATM   16  N   UNL     1     -12.401   9.889  71.830  1.00  0.00    -0.390 NA 
HETATM   17  H   UNL     1     -12.059  10.594  72.483  1.00  0.00     0.000 HD 
BRANCH  16  18
HETATM   18  C   UNL     1     -12.770  10.471  70.543  1.00  0.00    -0.305 C  
BRANCH  18  19
HETATM   19  C   UNL     1     -11.548  11.097  69.883  1.00  0.00    -0.416 C  
BRANCH  19  20
HETATM   20  C   UNL     1     -11.778  11.244  68.380  1.00  0.00    -0.365 C  
BRANCH  20  21
HETATM   21  C   UNL     1     -12.013  12.702  68.013  1.00  0.00    -0.300 C  
BRANCH  21  22
HETATM   22  C   UNL     1     -11.346  13.057  66.689  1.00  0.00    -0.366 C  
BRANCH  22  23
HETATM   23  C   UNL     1     -12.229  12.639  65.524  1.00  0.00    -0.440 C  
BRANCH  23  24
HETATM   24  O   UNL     1     -11.501  11.725  64.713  1.00  0.00    -0.293 OA 
BRANCH  24  25
HETATM   25  C   UNL     1     -10.131  11.660  65.103  1.00  0.00    -0.262 C  
BRANCH  25  26
HETATM   26  C   UNL     1      -9.663  10.213  65.010  1.00  0.00    -0.384 C  
BRANCH  26  27
HETATM   27  C   UNL     1      -9.231   9.687  66.379  1.00  0.00    -0.205 C  
BRANCH  27  28
HETATM   28  C   UNL     1      -8.584   8.307  66.283  1.00  0.00    -0.152 C  
BRANCH  28  29
HETATM   29  C   UNL     1      -8.022   7.908  67.627  1.00  0.00    -0.124 A  
HETATM   30  C   UNL     1      -7.120   6.843  67.729  1.00  0.00    -0.085 A  
HETATM   31  C   UNL     1      -6.664   6.425  68.979  1.00  0.00    -0.053 A  
HETATM   32  C   UNL     1      -7.107   7.064  70.135  1.00  0.00    -0.067 A  
HETATM   33  C   UNL     1      -8.003   8.129  70.042  1.00  0.00    -0.105 A  
HETATM   34  C   UNL     1      -8.460   8.550  68.793  1.00  0.00    -0.123 A  
ENDBRANCH  28  29
ENDBRANCH  27  28
ENDBRANCH  26  27
ENDBRANCH  25  26
ENDBRANCH  24  25
ENDBRANCH  23  24
ENDBRANCH  22  23
ENDBRANCH  21  22
ENDBRANCH  20  21
ENDBRANCH  19  20
ENDBRANCH  18  19
ENDBRANCH  16  18
ENDBRANCH  15  16
ENDBRANCH  12  15
ENDBRANCH  10  12
ENDBRANCH   2   4
TORSDOF 16
ENDMDL
MODEL      216
REMARK 921   NORMALIZED FREE ENERGY PREDICTED BY IDOCK:   -4.53 KCAL/MOL
REMARK 922        TOTAL FREE ENERGY PREDICTED BY IDOCK:  -11.12 KCAL/MOL
REMARK 923 INTER-LIGAND FREE ENERGY PREDICTED BY IDOCK:   -8.41 KCAL/MOL
REMARK 924 INTRA-LIGAND FREE ENERGY PREDICTED BY IDOCK:   -2.71 KCAL/MOL
REMARK 927      BINDING AFFINITY PREDICTED BY RF-SCORE:    0.00 PKD
ROOT
HETATM    1  O   UNL     1     -12.329   5.053  73.263  1.00  0.00    -0.343 OA 
HETATM    2  C   UNL     1     -11.096   5.349  72.605  1.00  0.00    -0.278 C  
HETATM    3  H   UNL     1     -12.302   4.178  73.631  1.00  0.00     0.000 HD 
ENDROOT
BRANCH   2   4
HETATM    4  C   UNL     1     -11.137   6.737  72.021  1.00  0.00    -0.283 A  
HETATM    5  C   UNL     1     -12.333   7.429  71.796  1.00  0.00    -0.333 A  
HETATM    6  O   UNL     1     -13.552   6.858  72.034  1.00  0.00    -0.536 OA 
HETATM    7  C   UNL     1     -12.338   8.724  71.290  1.00  0.00    -0.313 A  
HETATM    8  C   UNL     1     -11.134   9.348  70.974  1.00  0.00    -0.414 A  
HETATM    9  H   UNL     1     -14.364   7.327  71.880  1.00  0.00     0.000 HD 
HETATM   10  C   UNL     1      -9.912   8.689  71.180  1.00  0.00    -0.289 A  
HETATM   11  C   UNL     1      -9.928   7.393  71.727  1.00  0.00    -0.192 A  
BRANCH  10  12
HETATM   12  C   UNL     1      -8.591   9.332  70.801  1.00  0.00    -0.203 C  
HETATM   13  O   UNL     1      -7.508   8.423  71.053  1.00  0.00    -0.061 OA 
HETATM   14  H   UNL     1      -6.681   8.826  70.816  1.00  0.00     0.000 HD 
BRANCH  12  15
HETATM   15  C   UNL     1      -8.553   9.756  69.317  1.00  0.00    -0.158 C  
BRANCH  15  16
HETATM   16  N   UNL     1      -8.257  11.191  69.180  1.00  0.00    -0.359 NA 
HETATM   17  H   UNL     1      -8.464  11.707  70.036  1.00  0.00     0.000 HD 
BRANCH  16  18
HETATM   18  C   UNL     1      -6.875  11.379  68.750  1.00  0.00    -0.082 C  
BRANCH  18  19
HETATM   19  C   UNL     1      -6.746  12.674  67.958  1.00  0.00    -0.095 C  
BRANCH  19  20
HETATM   20  C   UNL     1      -7.932  13.591  68.251  1.00  0.00    -0.147 C  
BRANCH  20  21
HETATM   21  C   UNL     1      -8.488  14.179  66.963  1.00  0.00    -0.178 C  
BRANCH  21  22
HETATM   22  C   UNL     1      -8.920  15.628  67.152  1.00  0.00    -0.232 C  
BRANCH  22  23
HETATM   23  C   UNL     1      -8.244  16.225  68.377  1.00  0.00    -0.185 C  
BRANCH  23  24
HETATM   24  O   UNL     1      -9.219  16.943  69.123  1.00  0.00    -0.219 OA 
BRANCH  24  25
HETATM   25  C   UNL     1     -10.509  16.846  68.524  1.00  0.00    -0.361 C  
BRANCH  25  26
HETATM   26  C   UNL     1     -11.493  16.320  69.561  1.00  0.00    -0.231 C  
BRANCH  26  27
HETATM   27  C   UNL     1     -11.159  14.880  69.953  1.00  0.00    -0.288 C  
BRANCH  27  28
HETATM   28  C   UNL     1     -12.262  13.906  69.541  1.00  0.00    -0.356 C  
BRANCH  28  29
HETATM   29  C   UNL     1     -11.921  13.277  68.211  1.00  0.00    -0.338 A  
HETATM   30  C   UNL     1     -12.204  13.949  67.017  1.00  0.00    -0.392 A  
HETATM   31  C   UNL     1     -11.963  13.333  65.788  1.00  0.00    -0.463 A  
HETATM   32  C   UNL     1     -11.442  12.042  65.745  1.00  0.00    -0.377 A  
HETATM   33  C   UNL     1     -11.154  11.365  66.930  1.00  0.00    -0.356 A  
HETATM   34  C   UNL     1     -11.393  11.979  68.159  1.00  0.00    -0.349 A  
ENDBRANCH  28  29
ENDBRANCH  27  28
ENDBRANCH  26  27
ENDBRANCH  25  26
ENDBRANCH  24  25
ENDBRANCH  23  24
ENDBRANCH  22  23
ENDBRANCH  21  22
ENDBRANCH  20  21
ENDBRANCH  19  20
ENDBRANCH  18  19
ENDBRANCH  16  18
ENDBRANCH  15  16
ENDBRANCH  12  15
ENDBRANCH  10  12
ENDBRANCH   2   4
TORSDOF 16
ENDMDL
MODEL      217
REMARK 921   NORMALIZED FREE ENERGY PREDICTED BY IDOCK:   -4.53 KCAL/MOL
REMARK 922        TOTAL FREE ENERGY PREDICTED BY IDOCK:  -11.11 KCAL/MOL
REMARK 923 INTER-LIGAND FREE ENERGY PREDICTED BY IDOCK:   -8.59 KCAL/MOL
REMARK 924 INTRA-LIGAND FREE ENERGY PREDICTED BY IDOCK:   -2.52 KCAL/MOL
REMARK 927      BINDING AFFINITY PREDICTED BY RF-SCORE:    0.00 PKD
ROOT
HETATM    1  O   UNL     1     -12.420  13.955  63.324  1.00  0.00    -1.113 OA 
HETATM    2  C   UNL     1     -11.165  13.779  63.982  1.00  0.00    -0.091 C  
HETATM    3  H   UNL     1     -12.385  13.587  62.448  1.00  0.00     0.000 HD 
ENDROOT
BRANCH   2   4
HETATM    4  C   UNL     1     -11.218  14.363  65.370  1.00  0.00    -0.335 A  
HETATM    5  C   UNL     1     -11.910  13.753  66.423  1.00  0.00    -0.404 A  
HETATM    6  O   UNL     1     -12.640  12.611  66.239  1.00  0.00    -0.358 OA 
HETATM    7  C   UNL     1     -11.910  14.296  67.702  1.00  0.00    -0.420 A  
HETATM    8  C   UNL     1     -11.231  15.486  67.949  1.00  0.00    -0.325 A  
HETATM    9  H   UNL     1     -13.110  12.197  66.953  1.00  0.00     0.000 HD 
HETATM   10  C   UNL     1     -10.528  16.134  66.921  1.00  0.00    -0.300 A  
HETATM   11  C   UNL     1     -10.511  15.548  65.643  1.00  0.00    -0.393 A  
BRANCH  10  12
HETATM   12  C   UNL     1      -9.819  17.455  67.156  1.00  0.00    -0.278 C  
HETATM   13  O   UNL     1     -10.780  18.497  67.385  1.00  0.00    -0.425 OA 
HETATM   14  H   UNL     1     -10.337  19.325  67.532  1.00  0.00     0.000 HD 
BRANCH  12  15
HETATM   15  C   UNL     1      -8.853  17.392  68.359  1.00  0.00    -0.271 C  
BRANCH  15  16
HETATM   16  N   UNL     1      -7.515  16.939  67.944  1.00  0.00    -0.166 NA 
HETATM   17  H   UNL     1      -6.799  17.639  68.136  1.00  0.00     0.000 HD 
BRANCH  16  18
HETATM   18  C   UNL     1      -7.206  15.656  68.565  1.00  0.00    -0.120 C  
BRANCH  18  19
HETATM   19  C   UNL     1      -6.945  14.606  67.493  1.00  0.00    -0.193 C  
BRANCH  19  20
HETATM   20  C   UNL     1      -7.226  13.209  68.043  1.00  0.00    -0.125 C  
BRANCH  20  21
HETATM   21  C   UNL     1      -8.330  12.529  67.246  1.00  0.00    -0.185 C  
BRANCH  21  22
HETATM   22  C   UNL     1      -9.221  11.678  68.142  1.00  0.00    -0.184 C  
BRANCH  22  23
HETATM   23  C   UNL     1      -9.910  10.595  67.326  1.00  0.00    -0.176 C  
BRANCH  23  24
HETATM   24  O   UNL     1     -10.924  10.005  68.129  1.00  0.00    -0.255 OA 
BRANCH  24  25
HETATM   25  C   UNL     1     -10.849  10.457  69.479  1.00  0.00    -0.255 C  
BRANCH  25  26
HETATM   26  C   UNL     1     -11.563   9.452  70.374  1.00  0.00    -0.241 C  
BRANCH  26  27
HETATM   27  C   UNL     1     -10.825   9.278  71.702  1.00  0.00    -0.418 C  
BRANCH  27  28
HETATM   28  C   UNL     1      -9.451   8.639  71.512  1.00  0.00    -0.320 C  
BRANCH  28  29
HETATM   29  C   UNL     1      -9.589   7.335  70.762  1.00  0.00    -0.171 A  
HETATM   30  C   UNL     1     -10.203   6.232  71.366  1.00  0.00    -0.237 A  
HETATM   31  C   UNL     1     -10.258   5.007  70.702  1.00  0.00    -0.306 A  
HETATM   32  C   UNL     1      -9.699   4.874  69.433  1.00  0.00    -0.261 A  
HETATM   33  C   UNL     1      -9.088   5.968  68.822  1.00  0.00    -0.124 A  
HETATM   34  C   UNL     1      -9.032   7.195  69.483  1.00  0.00    -0.140 A  
ENDBRANCH  28  29
ENDBRANCH  27  28
ENDBRANCH  26  27
ENDBRANCH  25  26
ENDBRANCH  24  25
ENDBRANCH  23  24
ENDBRANCH  22  23
ENDBRANCH  21  22
ENDBRANCH  20  21
ENDBRANCH  19  20
ENDBRANCH  18  19
ENDBRANCH  16  18
ENDBRANCH  15  16
ENDBRANCH  12  15
ENDBRANCH  10  12
ENDBRANCH   2   4
TORSDOF 16
ENDMDL
MODEL      218
REMARK 921   NORMALIZED FREE ENERGY PREDICTED BY IDOCK:   -4.53 KCAL/MOL
REMARK 922        TOTAL FREE ENERGY PREDICTED BY IDOCK:  -11.11 KCAL/MOL
REMARK 923 INTER-LIGAND FREE ENERGY PREDICTED BY IDOCK:   -8.65 KCAL/MOL
REMARK 924 INTRA-LIGAND FREE ENERGY PREDICTED BY IDOCK:   -2.46 KCAL/MOL
REMARK 927      BINDING AFFINITY PREDICTED BY RF-SCORE:    0.00 PKD
ROOT
HETATM    1  O   UNL     1      -9.178  16.410  69.401  1.00  0.00    -0.201 OA 
HETATM    2  C   UNL     1     -10.478  15.860  69.179  1.00  0.00    -0.235 C  
HETATM    3  H   UNL     1      -9.053  16.592  70.325  1.00  0.00     0.000 HD 
ENDROOT
BRANCH   2   4
HETATM    4  C   UNL     1     -10.678  15.571  67.715  1.00  0.00    -0.297 A  
HETATM    5  C   UNL     1     -10.404  16.509  66.712  1.00  0.00    -0.296 A  
HETATM    6  O   UNL     1      -9.996  17.780  67.007  1.00  0.00    -0.297 OA 
HETATM    7  C   UNL     1     -10.563  16.200  65.366  1.00  0.00    -0.399 A  
HETATM    8  C   UNL     1     -11.027  14.940  64.995  1.00  0.00    -0.432 A  
HETATM    9  H   UNL     1      -9.810  18.417  66.327  1.00  0.00     0.000 HD 
HETATM   10  C   UNL     1     -11.317  13.971  65.968  1.00  0.00    -0.328 A  
HETATM   11  C   UNL     1     -11.115  14.293  67.322  1.00  0.00    -0.315 A  
BRANCH  10  12
HETATM   12  C   UNL     1     -11.867  12.608  65.589  1.00  0.00    -0.437 C  
HETATM   13  O   UNL     1     -12.176  12.573  64.187  1.00  0.00    -0.408 OA 
HETATM   14  H   UNL     1     -12.520  11.719  63.949  1.00  0.00     0.000 HD 
BRANCH  12  15
HETATM   15  C   UNL     1     -10.876  11.469  65.912  1.00  0.00    -0.260 C  
BRANCH  15  16
HETATM   16  N   UNL     1     -11.365  10.637  67.023  1.00  0.00    -0.281 NA 
HETATM   17  H   UNL     1     -11.540   9.675  66.732  1.00  0.00     0.000 HD 
BRANCH  16  18
HETATM   18  C   UNL     1     -10.437  10.707  68.147  1.00  0.00    -0.185 C  
BRANCH  18  19
HETATM   19  C   UNL     1     -11.171  10.417  69.450  1.00  0.00    -0.314 C  
BRANCH  19  20
HETATM   20  C   UNL     1     -11.960  11.646  69.895  1.00  0.00    -0.414 C  
BRANCH  20  21
HETATM   21  C   UNL     1     -12.841  11.315  71.091  1.00  0.00    -0.452 C  
BRANCH  21  22
HETATM   22  C   UNL     1     -12.336  10.081  71.830  1.00  0.00    -0.434 C  
BRANCH  22  23
HETATM   23  C   UNL     1     -13.493   9.145  72.146  1.00  0.00    -0.469 C  
BRANCH  23  24
HETATM   24  O   UNL     1     -13.553   8.148  71.134  1.00  0.00    -0.159 OA 
BRANCH  24  25
HETATM   25  C   UNL     1     -13.500   6.836  71.690  1.00  0.00    -0.097 C  
BRANCH  25  26
HETATM   26  C   UNL     1     -12.045   6.387  71.749  1.00  0.00    -0.351 C  
BRANCH  26  27
HETATM   27  C   UNL     1     -11.412   6.393  70.357  1.00  0.00    -0.458 C  
BRANCH  27  28
HETATM   28  C   UNL     1     -10.021   7.024  70.365  1.00  0.00    -0.187 C  
BRANCH  28  29
HETATM   29  C   UNL     1      -9.539   7.224  68.948  1.00  0.00    -0.143 A  
HETATM   30  C   UNL     1     -10.358   6.882  67.866  1.00  0.00    -0.239 A  
HETATM   31  C   UNL     1      -9.881   6.991  66.560  1.00  0.00    -0.175 A  
HETATM   32  C   UNL     1      -8.583   7.439  66.325  1.00  0.00    -0.148 A  
HETATM   33  C   UNL     1      -7.761   7.786  67.396  1.00  0.00    -0.113 A  
HETATM   34  C   UNL     1      -8.235   7.678  68.704  1.00  0.00    -0.128 A  
ENDBRANCH  28  29
ENDBRANCH  27  28
ENDBRANCH  26  27
ENDBRANCH  25  26
ENDBRANCH  24  25
ENDBRANCH  23  24
ENDBRANCH  22  23
ENDBRANCH  21  22
ENDBRANCH  20  21
ENDBRANCH  19  20
ENDBRANCH  18  19
ENDBRANCH  16  18
ENDBRANCH  15  16
ENDBRANCH  12  15
ENDBRANCH  10  12
ENDBRANCH   2   4
TORSDOF 16
ENDMDL
MODEL      219
REMARK 921   NORMALIZED FREE ENERGY PREDICTED BY IDOCK:   -4.53 KCAL/MOL
REMARK 922        TOTAL FREE ENERGY PREDICTED BY IDOCK:  -11.11 KCAL/MOL
REMARK 923 INTER-LIGAND FREE ENERGY PREDICTED BY IDOCK:   -8.26 KCAL/MOL
REMARK 924 INTRA-LIGAND FREE ENERGY PREDICTED BY IDOCK:   -2.85 KCAL/MOL
REMARK 927      BINDING AFFINITY PREDICTED BY RF-SCORE:    0.00 PKD
ROOT
HETATM    1  O   UNL     1     -10.320   4.223  66.882  1.00  0.00    -0.235 OA 
HETATM    2  C   UNL     1      -9.390   4.607  67.896  1.00  0.00    -0.134 C  
HETATM    3  H   UNL     1      -9.860   3.838  66.145  1.00  0.00     0.000 HD 
ENDROOT
BRANCH   2   4
HETATM    4  C   UNL     1     -10.118   5.219  69.065  1.00  0.00    -0.272 A  
HETATM    5  C   UNL     1     -11.153   6.148  68.911  1.00  0.00    -0.345 A  
HETATM    6  O   UNL     1     -11.529   6.611  67.681  1.00  0.00    -0.687 OA 
HETATM    7  C   UNL     1     -11.832   6.667  70.008  1.00  0.00    -0.301 A  
HETATM    8  C   UNL     1     -11.466   6.279  71.295  1.00  0.00    -0.352 A  
HETATM    9  H   UNL     1     -12.231   7.242  67.576  1.00  0.00     0.000 HD 
HETATM   10  C   UNL     1     -10.430   5.353  71.494  1.00  0.00    -0.289 A  
HETATM   11  C   UNL     1      -9.782   4.813  70.369  1.00  0.00    -0.289 A  
BRANCH  10  12
HETATM   12  C   UNL     1      -9.985   4.951  72.888  1.00  0.00    -0.157 C  
HETATM   13  O   UNL     1      -8.590   4.611  72.883  1.00  0.00    -0.109 OA 
HETATM   14  H   UNL     1      -8.311   4.359  73.756  1.00  0.00     0.000 HD 
BRANCH  12  15
HETATM   15  C   UNL     1     -10.222   6.072  73.922  1.00  0.00    -0.266 C  
BRANCH  15  16
HETATM   16  N   UNL     1      -8.972   6.787  74.230  1.00  0.00    -0.174 NA 
HETATM   17  H   UNL     1      -8.150   6.265  73.925  1.00  0.00     0.000 HD 
BRANCH  16  18
HETATM   18  C   UNL     1      -9.009   8.130  73.660  1.00  0.00    -0.205 C  
BRANCH  18  19
HETATM   19  C   UNL     1      -7.983   8.251  72.541  1.00  0.00    -0.192 C  
BRANCH  19  20
HETATM   20  C   UNL     1      -8.682   8.529  71.212  1.00  0.00    -0.228 C  
BRANCH  20  21
HETATM   21  C   UNL     1      -7.663   8.797  70.115  1.00  0.00    -0.084 C  
BRANCH  21  22
HETATM   22  C   UNL     1      -8.246   8.520  68.734  1.00  0.00    -0.122 C  
BRANCH  22  23
HETATM   23  C   UNL     1      -7.210   8.801  67.657  1.00  0.00    -0.080 C  
BRANCH  23  24
HETATM   24  O   UNL     1      -7.847   9.494  66.591  1.00  0.00    -0.100 OA 
BRANCH  24  25
HETATM   25  C   UNL     1      -9.041   8.833  66.180  1.00  0.00    -0.202 C  
BRANCH  25  26
HETATM   26  C   UNL     1     -10.106   9.882  65.884  1.00  0.00    -0.316 C  
BRANCH  26  27
HETATM   27  C   UNL     1     -10.040  11.029  66.894  1.00  0.00    -0.248 C  
BRANCH  27  28
HETATM   28  C   UNL     1     -11.324  11.857  66.902  1.00  0.00    -0.392 C  
BRANCH  28  29
HETATM   29  C   UNL     1     -11.662  12.269  68.315  1.00  0.00    -0.392 A  
HETATM   30  C   UNL     1     -11.841  11.303  69.311  1.00  0.00    -0.423 A  
HETATM   31  C   UNL     1     -12.231  11.680  70.596  1.00  0.00    -0.461 A  
HETATM   32  C   UNL     1     -12.449  13.024  70.893  1.00  0.00    -0.396 A  
HETATM   33  C   UNL     1     -12.270  13.994  69.908  1.00  0.00    -0.399 A  
HETATM   34  C   UNL     1     -11.879  13.619  68.623  1.00  0.00    -0.409 A  
ENDBRANCH  28  29
ENDBRANCH  27  28
ENDBRANCH  26  27
ENDBRANCH  25  26
ENDBRANCH  24  25
ENDBRANCH  23  24
ENDBRANCH  22  23
ENDBRANCH  21  22
ENDBRANCH  20  21
ENDBRANCH  19  20
ENDBRANCH  18  19
ENDBRANCH  16  18
ENDBRANCH  15  16
ENDBRANCH  12  15
ENDBRANCH  10  12
ENDBRANCH   2   4
TORSDOF 16
ENDMDL
MODEL      220
REMARK 921   NORMALIZED FREE ENERGY PREDICTED BY IDOCK:   -4.51 KCAL/MOL
REMARK 922        TOTAL FREE ENERGY PREDICTED BY IDOCK:  -11.08 KCAL/MOL
REMARK 923 INTER-LIGAND FREE ENERGY PREDICTED BY IDOCK:   -8.81 KCAL/MOL
REMARK 924 INTRA-LIGAND FREE ENERGY PREDICTED BY IDOCK:   -2.27 KCAL/MOL
REMARK 927      BINDING AFFINITY PREDICTED BY RF-SCORE:    0.00 PKD
ROOT
HETATM    1  O   UNL     1     -10.121   4.099  63.502  1.00  0.00    -0.294 OA 
HETATM    2  C   UNL     1     -11.057   4.451  64.521  1.00  0.00     0.207 C  
HETATM    3  H   UNL     1     -10.543   4.111  62.651  1.00  0.00     0.000 HD 
ENDROOT
BRANCH   2   4
HETATM    4  C   UNL     1     -10.389   4.433  65.871  1.00  0.00    -0.234 A  
HETATM    5  C   UNL     1      -9.534   3.403  66.280  1.00  0.00    -0.113 A  
HETATM    6  O   UNL     1      -9.300   2.307  65.496  1.00  0.00    -0.293 OA 
HETATM    7  C   UNL     1      -8.902   3.433  67.517  1.00  0.00    -0.152 A  
HETATM    8  C   UNL     1      -9.136   4.493  68.389  1.00  0.00    -0.161 A  
HETATM    9  H   UNL     1      -8.720   1.608  65.773  1.00  0.00     0.000 HD 
HETATM   10  C   UNL     1      -9.990   5.545  68.021  1.00  0.00    -0.189 A  
HETATM   11  C   UNL     1     -10.591   5.513  66.750  1.00  0.00    -0.360 A  
BRANCH  10  12
HETATM   12  C   UNL     1     -10.295   6.687  68.972  1.00  0.00    -0.192 C  
HETATM   13  O   UNL     1     -11.214   7.606  68.362  1.00  0.00    -0.389 OA 
HETATM   14  H   UNL     1     -11.406   8.322  68.958  1.00  0.00     0.000 HD 
BRANCH  12  15
HETATM   15  C   UNL     1     -10.895   6.191  70.306  1.00  0.00    -0.319 C  
BRANCH  15  16
HETATM   16  N   UNL     1     -12.155   6.888  70.615  1.00  0.00    -0.539 NA 
HETATM   17  H   UNL     1     -12.956   6.257  70.590  1.00  0.00     0.000 HD 
BRANCH  16  18
HETATM   18  C   UNL     1     -12.044   7.579  71.896  1.00  0.00    -0.305 C  
BRANCH  18  19
HETATM   19  C   UNL     1     -12.877   8.854  71.875  1.00  0.00    -0.437 C  
BRANCH  19  20
HETATM   20  C   UNL     1     -11.997  10.053  71.526  1.00  0.00    -0.438 C  
BRANCH  20  21
HETATM   21  C   UNL     1     -12.734  11.010  70.601  1.00  0.00    -0.375 C  
BRANCH  21  22
HETATM   22  C   UNL     1     -11.824  11.525  69.493  1.00  0.00    -0.419 C  
BRANCH  22  23
HETATM   23  C   UNL     1     -10.538  10.715  69.446  1.00  0.00    -0.239 C  
BRANCH  23  24
HETATM   24  O   UNL     1     -10.274  10.368  68.092  1.00  0.00    -0.151 OA 
BRANCH  24  25
HETATM   25  C   UNL     1      -8.879  10.186  67.863  1.00  0.00    -0.125 C  
BRANCH  25  26
HETATM   26  C   UNL     1      -8.695   9.272  66.659  1.00  0.00    -0.139 C  
BRANCH  26  27
HETATM   27  C   UNL     1      -9.809   9.485  65.633  1.00  0.00    -0.343 C  
BRANCH  27  28
HETATM   28  C   UNL     1      -9.421  10.515  64.574  1.00  0.00    -0.329 C  
BRANCH  28  29
HETATM   29  C   UNL     1     -10.428  11.641  64.558  1.00  0.00    -0.359 A  
HETATM   30  C   UNL     1     -11.326  11.773  63.493  1.00  0.00    -0.496 A  
HETATM   31  C   UNL     1     -12.200  12.859  63.440  1.00  0.00    -0.574 A  
HETATM   32  C   UNL     1     -12.182  13.820  64.449  1.00  0.00    -0.440 A  
HETATM   33  C   UNL     1     -11.293  13.695  65.516  1.00  0.00    -0.308 A  
HETATM   34  C   UNL     1     -10.418  12.610  65.571  1.00  0.00    -0.304 A  
ENDBRANCH  28  29
ENDBRANCH  27  28
ENDBRANCH  26  27
ENDBRANCH  25  26
ENDBRANCH  24  25
ENDBRANCH  23  24
ENDBRANCH  22  23
ENDBRANCH  21  22
ENDBRANCH  20  21
ENDBRANCH  19  20
ENDBRANCH  18  19
ENDBRANCH  16  18
ENDBRANCH  15  16
ENDBRANCH  12  15
ENDBRANCH  10  12
ENDBRANCH   2   4
TORSDOF 16
ENDMDL
MODEL      221
REMARK 921   NORMALIZED FREE ENERGY PREDICTED BY IDOCK:   -4.51 KCAL/MOL
REMARK 922        TOTAL FREE ENERGY PREDICTED BY IDOCK:  -11.08 KCAL/MOL
REMARK 923 INTER-LIGAND FREE ENERGY PREDICTED BY IDOCK:   -8.87 KCAL/MOL
REMARK 924 INTRA-LIGAND FREE ENERGY PREDICTED BY IDOCK:   -2.20 KCAL/MOL
REMARK 927      BINDING AFFINITY PREDICTED BY RF-SCORE:    0.00 PKD
ROOT
HETATM    1  O   UNL     1     -12.319  13.710  63.282  1.00  0.00    -1.001 OA 
HETATM    2  C   UNL     1     -11.035  13.677  63.906  1.00  0.00     0.120 C  
HETATM    3  H   UNL     1     -12.257  13.392  62.388  1.00  0.00     0.000 HD 
ENDROOT
BRANCH   2   4
HETATM    4  C   UNL     1     -11.132  14.180  65.323  1.00  0.00    -0.331 A  
HETATM    5  C   UNL     1     -11.824  13.492  66.326  1.00  0.00    -0.392 A  
HETATM    6  O   UNL     1     -12.516  12.342  66.064  1.00  0.00    -0.551 OA 
HETATM    7  C   UNL     1     -11.865  13.963  67.633  1.00  0.00    -0.422 A  
HETATM    8  C   UNL     1     -11.226  15.156  67.960  1.00  0.00    -0.329 A  
HETATM    9  H   UNL     1     -12.987  11.875  66.745  1.00  0.00     0.000 HD 
HETATM   10  C   UNL     1     -10.524  15.881  66.983  1.00  0.00    -0.306 A  
HETATM   11  C   UNL     1     -10.466  15.368  65.676  1.00  0.00    -0.391 A  
BRANCH  10  12
HETATM   12  C   UNL     1      -9.860  17.206  67.306  1.00  0.00    -0.265 C  
HETATM   13  O   UNL     1     -10.856  18.212  67.551  1.00  0.00    -0.389 OA 
HETATM   14  H   UNL     1     -10.440  19.042  67.753  1.00  0.00     0.000 HD 
BRANCH  12  15
HETATM   15  C   UNL     1      -8.933  17.110  68.537  1.00  0.00    -0.265 C  
BRANCH  15  16
HETATM   16  N   UNL     1      -7.688  16.396  68.212  1.00  0.00    -0.156 NA 
HETATM   17  H   UNL     1      -6.861  16.944  68.448  1.00  0.00     0.000 HD 
BRANCH  16  18
HETATM   18  C   UNL     1      -7.678  15.087  68.856  1.00  0.00    -0.152 C  
BRANCH  18  19
HETATM   19  C   UNL     1      -7.107  14.041  67.906  1.00  0.00    -0.166 C  
BRANCH  19  20
HETATM   20  C   UNL     1      -7.574  12.646  68.316  1.00  0.00    -0.133 C  
BRANCH  20  21
HETATM   21  C   UNL     1      -8.545  12.082  67.289  1.00  0.00    -0.177 C  
BRANCH  21  22
HETATM   22  C   UNL     1      -9.459  11.031  67.907  1.00  0.00    -0.170 C  
BRANCH  22  23
HETATM   23  C   UNL     1     -10.014  10.114  66.828  1.00  0.00    -0.211 C  
BRANCH  23  24
HETATM   24  O   UNL     1     -10.590   8.976  67.457  1.00  0.00    -0.265 OA 
BRANCH  24  25
HETATM   25  C   UNL     1     -10.159   8.856  68.811  1.00  0.00    -0.200 C  
BRANCH  25  26
HETATM   26  C   UNL     1     -10.067   7.378  69.167  1.00  0.00    -0.189 C  
BRANCH  26  27
HETATM   27  C   UNL     1     -11.389   6.870  69.745  1.00  0.00    -0.288 C  
BRANCH  27  28
HETATM   28  C   UNL     1     -11.740   7.561  71.062  1.00  0.00    -0.317 C  
BRANCH  28  29
HETATM   29  C   UNL     1     -11.224   6.745  72.224  1.00  0.00    -0.295 A  
HETATM   30  C   UNL     1     -11.571   5.396  72.352  1.00  0.00    -0.167 A  
HETATM   31  C   UNL     1     -11.161   4.666  73.467  1.00  0.00    -0.412 A  
HETATM   32  C   UNL     1     -10.404   5.279  74.463  1.00  0.00    -0.286 A  
HETATM   33  C   UNL     1     -10.050   6.622  74.343  1.00  0.00    -0.343 A  
HETATM   34  C   UNL     1     -10.458   7.354  73.228  1.00  0.00    -0.424 A  
ENDBRANCH  28  29
ENDBRANCH  27  28
ENDBRANCH  26  27
ENDBRANCH  25  26
ENDBRANCH  24  25
ENDBRANCH  23  24
ENDBRANCH  22  23
ENDBRANCH  21  22
ENDBRANCH  20  21
ENDBRANCH  19  20
ENDBRANCH  18  19
ENDBRANCH  16  18
ENDBRANCH  15  16
ENDBRANCH  12  15
ENDBRANCH  10  12
ENDBRANCH   2   4
TORSDOF 16
ENDMDL
MODEL      222
REMARK 921   NORMALIZED FREE ENERGY PREDICTED BY IDOCK:   -4.51 KCAL/MOL
REMARK 922        TOTAL FREE ENERGY PREDICTED BY IDOCK:  -11.07 KCAL/MOL
REMARK 923 INTER-LIGAND FREE ENERGY PREDICTED BY IDOCK:   -9.91 KCAL/MOL
REMARK 924 INTRA-LIGAND FREE ENERGY PREDICTED BY IDOCK:   -1.17 KCAL/MOL
REMARK 927      BINDING AFFINITY PREDICTED BY RF-SCORE:    0.00 PKD
ROOT
HETATM    1  O   UNL     1     -14.046   6.897  71.988  1.00  0.00    -0.546 OA 
HETATM    2  C   UNL     1     -13.022   7.647  71.333  1.00  0.00    -0.311 C  
HETATM    3  H   UNL     1     -14.730   7.478  72.299  1.00  0.00     0.000 HD 
ENDROOT
BRANCH   2   4
HETATM    4  C   UNL     1     -11.937   6.725  70.840  1.00  0.00    -0.437 A  
HETATM    5  C   UNL     1     -11.259   5.835  71.680  1.00  0.00    -0.192 A  
HETATM    6  O   UNL     1     -11.496   5.791  73.026  1.00  0.00    -0.452 OA 
HETATM    7  C   UNL     1     -10.288   4.970  71.189  1.00  0.00    -0.254 A  
HETATM    8  C   UNL     1      -9.957   4.997  69.836  1.00  0.00    -0.322 A  
HETATM    9  H   UNL     1     -11.036   5.188  73.597  1.00  0.00     0.000 HD 
HETATM   10  C   UNL     1     -10.610   5.878  68.959  1.00  0.00    -0.360 A  
HETATM   11  C   UNL     1     -11.614   6.718  69.471  1.00  0.00    -0.183 A  
BRANCH  10  12
HETATM   12  C   UNL     1     -10.233   5.957  67.491  1.00  0.00    -0.190 C  
HETATM   13  O   UNL     1     -11.405   6.181  66.692  1.00  0.00    -0.727 OA 
HETATM   14  H   UNL     1     -11.170   6.231  65.773  1.00  0.00     0.000 HD 
BRANCH  12  15
HETATM   15  C   UNL     1      -9.213   7.081  67.210  1.00  0.00    -0.129 C  
BRANCH  15  16
HETATM   16  N   UNL     1      -9.801   8.135  66.367  1.00  0.00    -0.399 NA 
HETATM   17  H   UNL     1     -10.465   8.712  66.884  1.00  0.00     0.000 HD 
BRANCH  16  18
HETATM   18  C   UNL     1      -8.745   8.934  65.754  1.00  0.00    -0.176 C  
BRANCH  18  19
HETATM   19  C   UNL     1      -8.229   8.242  64.498  1.00  0.00    -0.138 C  
BRANCH  19  20
HETATM   20  C   UNL     1      -8.281   9.201  63.310  1.00  0.00    -0.177 C  
BRANCH  20  21
HETATM   21  C   UNL     1      -8.781  10.570  63.746  1.00  0.00    -0.185 C  
BRANCH  21  22
HETATM   22  C   UNL     1      -9.871  11.087  62.814  1.00  0.00    -0.262 C  
BRANCH  22  23
HETATM   23  C   UNL     1     -10.963  11.782  63.613  1.00  0.00    -0.439 C  
BRANCH  23  24
HETATM   24  O   UNL     1     -10.389  12.291  64.810  1.00  0.00    -0.275 OA 
BRANCH  24  25
HETATM   25  C   UNL     1     -11.166  13.358  65.349  1.00  0.00    -0.288 C  
BRANCH  25  26
HETATM   26  C   UNL     1     -10.595  14.680  64.853  1.00  0.00    -0.446 C  
BRANCH  26  27
HETATM   27  C   UNL     1     -10.732  15.770  65.917  1.00  0.00    -0.320 C  
BRANCH  27  28
HETATM   28  C   UNL     1      -9.380  16.166  66.507  1.00  0.00    -0.296 C  
BRANCH  28  29
HETATM   29  C   UNL     1      -9.324  17.662  66.708  1.00  0.00    -0.286 A  
HETATM   30  C   UNL     1      -8.170  18.266  67.217  1.00  0.00    -0.239 A  
HETATM   31  C   UNL     1      -8.148  19.636  67.477  1.00  0.00    -0.333 A  
HETATM   32  C   UNL     1      -9.280  20.411  67.233  1.00  0.00    -0.525 A  
HETATM   33  C   UNL     1     -10.434  19.819  66.721  1.00  0.00    -0.610 A  
HETATM   34  C   UNL     1     -10.458  18.449  66.460  1.00  0.00    -0.411 A  
ENDBRANCH  28  29
ENDBRANCH  27  28
ENDBRANCH  26  27
ENDBRANCH  25  26
ENDBRANCH  24  25
ENDBRANCH  23  24
ENDBRANCH  22  23
ENDBRANCH  21  22
ENDBRANCH  20  21
ENDBRANCH  19  20
ENDBRANCH  18  19
ENDBRANCH  16  18
ENDBRANCH  15  16
ENDBRANCH  12  15
ENDBRANCH  10  12
ENDBRANCH   2   4
TORSDOF 16
ENDMDL
MODEL      223
REMARK 921   NORMALIZED FREE ENERGY PREDICTED BY IDOCK:   -4.50 KCAL/MOL
REMARK 922        TOTAL FREE ENERGY PREDICTED BY IDOCK:  -11.06 KCAL/MOL
REMARK 923 INTER-LIGAND FREE ENERGY PREDICTED BY IDOCK:   -8.73 KCAL/MOL
REMARK 924 INTRA-LIGAND FREE ENERGY PREDICTED BY IDOCK:   -2.33 KCAL/MOL
REMARK 927      BINDING AFFINITY PREDICTED BY RF-SCORE:    0.00 PKD
ROOT
HETATM    1  O   UNL     1     -14.317   9.038  73.039  1.00  0.00    -1.108 OA 
HETATM    2  C   UNL     1     -12.966   8.621  72.842  1.00  0.00     0.116 C  
HETATM    3  H   UNL     1     -14.675   8.633  73.821  1.00  0.00     0.000 HD 
ENDROOT
BRANCH   2   4
HETATM    4  C   UNL     1     -12.398   9.262  71.603  1.00  0.00    -0.450 A  
HETATM    5  C   UNL     1     -12.552  10.623  71.315  1.00  0.00    -0.427 A  
HETATM    6  O   UNL     1     -13.289  11.450  72.117  1.00  0.00    -0.589 OA 
HETATM    7  C   UNL     1     -11.985  11.195  70.182  1.00  0.00    -0.449 A  
HETATM    8  C   UNL     1     -11.266  10.401  69.293  1.00  0.00    -0.304 A  
HETATM    9  H   UNL     1     -13.394  12.374  71.923  1.00  0.00     0.000 HD 
HETATM   10  C   UNL     1     -11.091   9.030  69.540  1.00  0.00    -0.039 A  
HETATM   11  C   UNL     1     -11.642   8.480  70.711  1.00  0.00    -0.257 A  
BRANCH  10  12
HETATM   12  C   UNL     1     -10.350   8.137  68.562  1.00  0.00    -0.198 C  
HETATM   13  O   UNL     1     -11.108   6.944  68.310  1.00  0.00    -0.463 OA 
HETATM   14  H   UNL     1     -10.644   6.384  67.698  1.00  0.00     0.000 HD 
BRANCH  12  15
HETATM   15  C   UNL     1     -10.073   8.846  67.219  1.00  0.00    -0.239 C  
BRANCH  15  16
HETATM   16  N   UNL     1      -8.980   8.188  66.484  1.00  0.00    -0.149 NA 
HETATM   17  H   UNL     1      -9.131   7.184  66.394  1.00  0.00     0.000 HD 
BRANCH  16  18
HETATM   18  C   UNL     1      -8.790   8.831  65.188  1.00  0.00    -0.133 C  
BRANCH  18  19
HETATM   19  C   UNL     1      -9.529  10.162  65.151  1.00  0.00    -0.319 C  
BRANCH  19  20
HETATM   20  C   UNL     1      -8.836  11.124  64.189  1.00  0.00     0.111 C  
BRANCH  20  21
HETATM   21  C   UNL     1      -9.800  11.591  63.108  1.00  0.00    -0.413 C  
BRANCH  21  22
HETATM   22  C   UNL     1     -11.246  11.524  63.585  1.00  0.00    -0.451 C  
BRANCH  22  23
HETATM   23  C   UNL     1     -11.773  12.922  63.869  1.00  0.00    -0.460 C  
BRANCH  23  24
HETATM   24  O   UNL     1     -12.778  12.828  64.872  1.00  0.00    -0.629 OA 
BRANCH  24  25
HETATM   25  C   UNL     1     -13.095  14.108  65.413  1.00  0.00    -0.132 C  
BRANCH  25  26
HETATM   26  C   UNL     1     -12.355  14.278  66.734  1.00  0.00    -0.280 C  
BRANCH  26  27
HETATM   27  C   UNL     1     -11.060  13.464  66.747  1.00  0.00    -0.308 C  
BRANCH  27  28
HETATM   28  C   UNL     1      -9.828  14.353  66.902  1.00  0.00    -0.263 C  
BRANCH  28  29
HETATM   29  C   UNL     1      -8.683  13.550  67.472  1.00  0.00    -0.208 A  
HETATM   30  C   UNL     1      -8.893  12.246  67.933  1.00  0.00    -0.178 A  
HETATM   31  C   UNL     1      -7.853  11.536  68.533  1.00  0.00    -0.140 A  
HETATM   32  C   UNL     1      -6.598  12.123  68.678  1.00  0.00    -0.077 A  
HETATM   33  C   UNL     1      -6.378  13.421  68.218  1.00  0.00    -0.102 A  
HETATM   34  C   UNL     1      -7.417  14.134  67.618  1.00  0.00    -0.192 A  
ENDBRANCH  28  29
ENDBRANCH  27  28
ENDBRANCH  26  27
ENDBRANCH  25  26
ENDBRANCH  24  25
ENDBRANCH  23  24
ENDBRANCH  22  23
ENDBRANCH  21  22
ENDBRANCH  20  21
ENDBRANCH  19  20
ENDBRANCH  18  19
ENDBRANCH  16  18
ENDBRANCH  15  16
ENDBRANCH  12  15
ENDBRANCH  10  12
ENDBRANCH   2   4
TORSDOF 16
ENDMDL
MODEL      224
REMARK 921   NORMALIZED FREE ENERGY PREDICTED BY IDOCK:   -4.49 KCAL/MOL
REMARK 922        TOTAL FREE ENERGY PREDICTED BY IDOCK:  -11.04 KCAL/MOL
REMARK 923 INTER-LIGAND FREE ENERGY PREDICTED BY IDOCK:   -9.33 KCAL/MOL
REMARK 924 INTRA-LIGAND FREE ENERGY PREDICTED BY IDOCK:   -1.70 KCAL/MOL
REMARK 927      BINDING AFFINITY PREDICTED BY RF-SCORE:    0.00 PKD
ROOT
HETATM    1  O   UNL     1      -9.628   5.404  66.521  1.00  0.00    -0.140 OA 
HETATM    2  C   UNL     1     -10.855   5.883  67.072  1.00  0.00    -0.295 C  
HETATM    3  H   UNL     1      -9.788   4.967  65.692  1.00  0.00     0.000 HD 
ENDROOT
BRANCH   2   4
HETATM    4  C   UNL     1     -10.601   6.575  68.385  1.00  0.00    -0.296 A  
HETATM    5  C   UNL     1      -9.560   7.492  68.570  1.00  0.00    -0.150 A  
HETATM    6  O   UNL     1      -8.661   7.771  67.578  1.00  0.00    -0.124 OA 
HETATM    7  C   UNL     1      -9.373   8.143  69.784  1.00  0.00    -0.159 A  
HETATM    8  C   UNL     1     -10.220   7.866  70.855  1.00  0.00    -0.213 A  
HETATM    9  H   UNL     1      -7.955   8.393  67.704  1.00  0.00     0.000 HD 
HETATM   10  C   UNL     1     -11.274   6.950  70.714  1.00  0.00    -0.338 A  
HETATM   11  C   UNL     1     -11.467   6.330  69.467  1.00  0.00    -0.387 A  
BRANCH  10  12
HETATM   12  C   UNL     1     -12.180   6.600  71.880  1.00  0.00    -0.335 C  
HETATM   13  O   UNL     1     -11.596   7.051  73.112  1.00  0.00    -0.526 OA 
HETATM   14  H   UNL     1     -12.163   6.832  73.843  1.00  0.00     0.000 HD 
BRANCH  12  15
HETATM   15  C   UNL     1     -13.585   7.223  71.735  1.00  0.00    -0.299 C  
BRANCH  15  16
HETATM   16  N   UNL     1     -13.524   8.515  71.033  1.00  0.00    -0.524 NA 
HETATM   17  H   UNL     1     -14.304   8.635  70.386  1.00  0.00     0.000 HD 
BRANCH  16  18
HETATM   18  C   UNL     1     -13.443   9.607  71.999  1.00  0.00    -0.428 C  
BRANCH  18  19
HETATM   19  C   UNL     1     -12.789  10.824  71.358  1.00  0.00    -0.557 C  
BRANCH  19  20
HETATM   20  C   UNL     1     -12.510  10.556  69.881  1.00  0.00    -0.190 C  
BRANCH  20  21
HETATM   21  C   UNL     1     -11.184  11.174  69.463  1.00  0.00    -0.341 C  
BRANCH  21  22
HETATM   22  C   UNL     1     -11.333  12.662  69.166  1.00  0.00    -0.339 C  
BRANCH  22  23
HETATM   23  C   UNL     1     -10.159  13.154  68.333  1.00  0.00    -0.231 C  
BRANCH  23  24
HETATM   24  O   UNL     1      -9.938  14.526  68.635  1.00  0.00    -0.227 OA 
BRANCH  24  25
HETATM   25  C   UNL     1     -10.913  15.022  69.550  1.00  0.00    -0.269 C  
BRANCH  25  26
HETATM   26  C   UNL     1     -11.500  16.311  68.990  1.00  0.00    -0.268 C  
BRANCH  26  27
HETATM   27  C   UNL     1     -10.423  17.387  68.845  1.00  0.00    -0.312 C  
BRANCH  27  28
HETATM   28  C   UNL     1     -10.535  18.132  67.516  1.00  0.00    -0.425 C  
BRANCH  28  29
HETATM   29  C   UNL     1      -9.158  18.374  66.945  1.00  0.00    -0.286 A  
HETATM   30  C   UNL     1      -8.773  19.659  66.546  1.00  0.00    -0.402 A  
HETATM   31  C   UNL     1      -7.531  19.866  65.945  1.00  0.00    -0.342 A  
HETATM   32  C   UNL     1      -6.668  18.792  65.736  1.00  0.00    -0.306 A  
HETATM   33  C   UNL     1      -7.042  17.509  66.134  1.00  0.00    -0.341 A  
HETATM   34  C   UNL     1      -8.283  17.299  66.736  1.00  0.00    -0.279 A  
ENDBRANCH  28  29
ENDBRANCH  27  28
ENDBRANCH  26  27
ENDBRANCH  25  26
ENDBRANCH  24  25
ENDBRANCH  23  24
ENDBRANCH  22  23
ENDBRANCH  21  22
ENDBRANCH  20  21
ENDBRANCH  19  20
ENDBRANCH  18  19
ENDBRANCH  16  18
ENDBRANCH  15  16
ENDBRANCH  12  15
ENDBRANCH  10  12
ENDBRANCH   2   4
TORSDOF 16
ENDMDL
MODEL      225
REMARK 921   NORMALIZED FREE ENERGY PREDICTED BY IDOCK:   -4.48 KCAL/MOL
REMARK 922        TOTAL FREE ENERGY PREDICTED BY IDOCK:  -11.02 KCAL/MOL
REMARK 923 INTER-LIGAND FREE ENERGY PREDICTED BY IDOCK:   -9.73 KCAL/MOL
REMARK 924 INTRA-LIGAND FREE ENERGY PREDICTED BY IDOCK:   -1.29 KCAL/MOL
REMARK 927      BINDING AFFINITY PREDICTED BY RF-SCORE:    0.00 PKD
ROOT
HETATM    1  O   UNL     1     -11.069   4.790  65.824  1.00  0.00    -0.803 OA 
HETATM    2  C   UNL     1     -10.722   5.981  66.530  1.00  0.00    -0.161 C  
HETATM    3  H   UNL     1     -11.157   4.972  64.895  1.00  0.00     0.000 HD 
ENDROOT
BRANCH   2   4
HETATM    4  C   UNL     1     -10.583   5.692  68.002  1.00  0.00    -0.260 A  
HETATM    5  C   UNL     1      -9.786   4.655  68.499  1.00  0.00    -0.111 A  
HETATM    6  O   UNL     1      -9.129   3.790  67.668  1.00  0.00    -0.130 OA 
HETATM    7  C   UNL     1      -9.648   4.435  69.865  1.00  0.00    -0.275 A  
HETATM    8  C   UNL     1     -10.332   5.245  70.768  1.00  0.00    -0.309 A  
HETATM    9  H   UNL     1      -8.588   3.086  68.005  1.00  0.00     0.000 HD 
HETATM   10  C   UNL     1     -11.146   6.294  70.313  1.00  0.00    -0.430 A  
HETATM   11  C   UNL     1     -11.243   6.521  68.928  1.00  0.00    -0.341 A  
BRANCH  10  12
HETATM   12  C   UNL     1     -11.936   7.159  71.277  1.00  0.00    -0.337 C  
HETATM   13  O   UNL     1     -11.922   6.576  72.589  1.00  0.00    -0.499 OA 
HETATM   14  H   UNL     1     -12.416   7.118  73.194  1.00  0.00     0.000 HD 
BRANCH  12  15
HETATM   15  C   UNL     1     -11.379   8.596  71.362  1.00  0.00    -0.284 C  
BRANCH  15  16
HETATM   16  N   UNL     1     -12.328   9.497  72.037  1.00  0.00    -0.356 NA 
HETATM   17  H   UNL     1     -12.060   9.679  73.004  1.00  0.00     0.000 HD 
BRANCH  16  18
HETATM   18  C   UNL     1     -12.480  10.730  71.271  1.00  0.00    -0.399 C  
BRANCH  18  19
HETATM   19  C   UNL     1     -13.374  11.706  72.025  1.00  0.00    -0.405 C  
BRANCH  19  20
HETATM   20  C   UNL     1     -13.069  13.139  71.595  1.00  0.00    -0.444 C  
BRANCH  20  21
HETATM   21  C   UNL     1     -13.522  14.127  72.660  1.00  0.00    -0.634 C  
BRANCH  21  22
HETATM   22  C   UNL     1     -13.202  15.563  72.260  1.00  0.00    -0.539 C  
BRANCH  22  23
HETATM   23  C   UNL     1     -12.771  15.621  70.803  1.00  0.00    -0.431 C  
BRANCH  23  24
HETATM   24  O   UNL     1     -11.428  16.085  70.750  1.00  0.00    -0.373 OA 
BRANCH  24  25
HETATM   25  C   UNL     1     -10.705  15.470  69.686  1.00  0.00    -0.271 C  
BRANCH  25  26
HETATM   26  C   UNL     1     -11.597  15.419  68.452  1.00  0.00    -0.368 C  
BRANCH  26  27
HETATM   27  C   UNL     1     -11.945  13.976  68.085  1.00  0.00    -0.382 C  
BRANCH  27  28
HETATM   28  C   UNL     1     -11.186  12.969  68.948  1.00  0.00    -0.326 C  
BRANCH  28  29
HETATM   29  C   UNL     1     -10.020  12.403  68.173  1.00  0.00    -0.215 A  
HETATM   30  C   UNL     1      -8.718  12.509  68.674  1.00  0.00     0.047 A  
HETATM   31  C   UNL     1      -7.634  12.059  67.920  1.00  0.00    -0.124 A  
HETATM   32  C   UNL     1      -7.843  11.503  66.660  1.00  0.00    -0.112 A  
HETATM   33  C   UNL     1      -9.137  11.390  66.153  1.00  0.00    -0.217 A  
HETATM   34  C   UNL     1     -10.223  11.839  66.905  1.00  0.00    -0.236 A  
ENDBRANCH  28  29
ENDBRANCH  27  28
ENDBRANCH  26  27
ENDBRANCH  25  26
ENDBRANCH  24  25
ENDBRANCH  23  24
ENDBRANCH  22  23
ENDBRANCH  21  22
ENDBRANCH  20  21
ENDBRANCH  19  20
ENDBRANCH  18  19
ENDBRANCH  16  18
ENDBRANCH  15  16
ENDBRANCH  12  15
ENDBRANCH  10  12
ENDBRANCH   2   4
TORSDOF 16
ENDMDL
MODEL      226
REMARK 921   NORMALIZED FREE ENERGY PREDICTED BY IDOCK:   -4.47 KCAL/MOL
REMARK 922        TOTAL FREE ENERGY PREDICTED BY IDOCK:  -11.00 KCAL/MOL
REMARK 923 INTER-LIGAND FREE ENERGY PREDICTED BY IDOCK:   -8.91 KCAL/MOL
REMARK 924 INTRA-LIGAND FREE ENERGY PREDICTED BY IDOCK:   -2.09 KCAL/MOL
REMARK 927      BINDING AFFINITY PREDICTED BY RF-SCORE:    0.00 PKD
ROOT
HETATM    1  O   UNL     1      -8.998  11.670  62.688  1.00  0.00    -0.577 OA 
HETATM    2  C   UNL     1     -10.064  11.210  63.520  1.00  0.00    -0.385 C  
HETATM    3  H   UNL     1      -9.318  12.321  62.074  1.00  0.00     0.000 HD 
ENDROOT
BRANCH   2   4
HETATM    4  C   UNL     1      -9.557  10.179  64.494  1.00  0.00    -0.376 A  
HETATM    5  C   UNL     1      -8.812   9.063  64.097  1.00  0.00    -0.029 A  
HETATM    6  O   UNL     1      -8.550   8.803  62.780  1.00  0.00    -0.317 OA 
HETATM    7  C   UNL     1      -8.325   8.148  65.023  1.00  0.00    -0.146 A  
HETATM    8  C   UNL     1      -8.600   8.322  66.377  1.00  0.00    -0.144 A  
HETATM    9  H   UNL     1      -8.044   8.046  62.510  1.00  0.00     0.000 HD 
HETATM   10  C   UNL     1      -9.348   9.425  66.819  1.00  0.00    -0.202 A  
HETATM   11  C   UNL     1      -9.799  10.358  65.868  1.00  0.00    -0.294 A  
BRANCH  10  12
HETATM   12  C   UNL     1      -9.697   9.610  68.284  1.00  0.00    -0.146 C  
HETATM   13  O   UNL     1      -8.512   9.899  69.042  1.00  0.00    -0.119 OA 
HETATM   14  H   UNL     1      -8.730  10.015  69.959  1.00  0.00     0.000 HD 
BRANCH  12  15
HETATM   15  C   UNL     1     -10.719  10.746  68.501  1.00  0.00    -0.210 C  
BRANCH  15  16
HETATM   16  N   UNL     1     -10.058  11.976  68.968  1.00  0.00    -0.416 NA 
HETATM   17  H   UNL     1      -9.048  11.860  69.046  1.00  0.00     0.000 HD 
BRANCH  16  18
HETATM   18  C   UNL     1     -10.415  13.096  68.103  1.00  0.00    -0.248 C  
BRANCH  18  19
HETATM   19  C   UNL     1     -11.919  13.111  67.862  1.00  0.00    -0.347 C  
BRANCH  19  20
HETATM   20  C   UNL     1     -12.273  14.157  66.807  1.00  0.00    -0.429 C  
BRANCH  20  21
HETATM   21  C   UNL     1     -12.483  13.502  65.450  1.00  0.00    -0.540 C  
BRANCH  21  22
HETATM   22  C   UNL     1     -12.335  14.509  64.316  1.00  0.00    -0.396 C  
BRANCH  22  23
HETATM   23  C   UNL     1     -11.079  15.343  64.512  1.00  0.00    -0.256 C  
BRANCH  23  24
HETATM   24  O   UNL     1     -11.422  16.715  64.358  1.00  0.00    -0.959 OA 
BRANCH  24  25
HETATM   25  C   UNL     1     -10.865  17.511  65.401  1.00  0.00     0.059 C  
BRANCH  25  26
HETATM   26  C   UNL     1      -9.869  16.666  66.185  1.00  0.00    -0.340 C  
BRANCH  26  27
HETATM   27  C   UNL     1      -9.584  17.284  67.555  1.00  0.00    -0.259 C  
BRANCH  27  28
HETATM   28  C   UNL     1      -8.099  17.228  67.909  1.00  0.00    -0.210 C  
BRANCH  28  29
HETATM   29  C   UNL     1      -7.356  18.327  67.187  1.00  0.00    -0.215 A  
HETATM   30  C   UNL     1      -7.593  19.669  67.504  1.00  0.00    -0.299 A  
HETATM   31  C   UNL     1      -6.966  20.684  66.781  1.00  0.00    -0.343 A  
HETATM   32  C   UNL     1      -6.101  20.366  65.736  1.00  0.00    -0.243 A  
HETATM   33  C   UNL     1      -5.856  19.032  65.415  1.00  0.00    -0.242 A  
HETATM   34  C   UNL     1      -6.482  18.014  66.137  1.00  0.00    -0.283 A  
ENDBRANCH  28  29
ENDBRANCH  27  28
ENDBRANCH  26  27
ENDBRANCH  25  26
ENDBRANCH  24  25
ENDBRANCH  23  24
ENDBRANCH  22  23
ENDBRANCH  21  22
ENDBRANCH  20  21
ENDBRANCH  19  20
ENDBRANCH  18  19
ENDBRANCH  16  18
ENDBRANCH  15  16
ENDBRANCH  12  15
ENDBRANCH  10  12
ENDBRANCH   2   4
TORSDOF 16
ENDMDL
MODEL      227
REMARK 921   NORMALIZED FREE ENERGY PREDICTED BY IDOCK:   -4.47 KCAL/MOL
REMARK 922        TOTAL FREE ENERGY PREDICTED BY IDOCK:  -10.99 KCAL/MOL
REMARK 923 INTER-LIGAND FREE ENERGY PREDICTED BY IDOCK:   -8.46 KCAL/MOL
REMARK 924 INTRA-LIGAND FREE ENERGY PREDICTED BY IDOCK:   -2.53 KCAL/MOL
REMARK 927      BINDING AFFINITY PREDICTED BY RF-SCORE:    0.00 PKD
ROOT
HETATM    1  O   UNL     1     -10.491  12.512  65.493  1.00  0.00    -0.268 OA 
HETATM    2  C   UNL     1     -10.896  13.644  64.722  1.00  0.00    -0.394 C  
HETATM    3  H   UNL     1     -10.698  11.708  65.030  1.00  0.00     0.000 HD 
ENDROOT
BRANCH   2   4
HETATM    4  C   UNL     1     -10.568  14.917  65.455  1.00  0.00    -0.373 A  
HETATM    5  C   UNL     1     -10.895  16.184  64.958  1.00  0.00    -0.363 A  
HETATM    6  O   UNL     1     -11.482  16.348  63.734  1.00  0.00    -1.590 OA 
HETATM    7  C   UNL     1     -10.613  17.341  65.676  1.00  0.00    -0.173 A  
HETATM    8  C   UNL     1      -9.967  17.252  66.907  1.00  0.00    -0.294 A  
HETATM    9  H   UNL     1     -11.704  17.208  63.396  1.00  0.00     0.000 HD 
HETATM   10  C   UNL     1      -9.617  16.001  67.440  1.00  0.00    -0.225 A  
HETATM   11  C   UNL     1      -9.945  14.843  66.715  1.00  0.00    -0.252 A  
BRANCH  10  12
HETATM   12  C   UNL     1      -8.873  15.883  68.758  1.00  0.00    -0.213 C  
HETATM   13  O   UNL     1      -9.073  14.578  69.323  1.00  0.00    -0.386 OA 
HETATM   14  H   UNL     1      -8.608  14.503  70.148  1.00  0.00     0.000 HD 
BRANCH  12  15
HETATM   15  C   UNL     1      -7.358  16.131  68.597  1.00  0.00    -0.175 C  
BRANCH  15  16
HETATM   16  N   UNL     1      -6.578  14.957  69.020  1.00  0.00    -0.103 NA 
HETATM   17  H   UNL     1      -7.177  14.168  69.265  1.00  0.00     0.000 HD 
BRANCH  16  18
HETATM   18  C   UNL     1      -5.604  14.605  67.992  1.00  0.00    -0.128 C  
BRANCH  18  19
HETATM   19  C   UNL     1      -5.486  13.091  67.880  1.00  0.00    -0.116 C  
BRANCH  19  20
HETATM   20  C   UNL     1      -6.823  12.488  67.457  1.00  0.00    -0.150 C  
BRANCH  20  21
HETATM   21  C   UNL     1      -7.214  11.344  68.381  1.00  0.00    -0.087 C  
BRANCH  21  22
HETATM   22  C   UNL     1      -7.207  10.008  67.647  1.00  0.00    -0.088 C  
BRANCH  22  23
HETATM   23  C   UNL     1      -8.001  10.112  66.354  1.00  0.00    -0.120 C  
BRANCH  23  24
HETATM   24  O   UNL     1      -8.493   8.819  66.023  1.00  0.00    -0.121 OA 
BRANCH  24  25
HETATM   25  C   UNL     1      -9.800   8.608  66.552  1.00  0.00    -0.278 C  
BRANCH  25  26
HETATM   26  C   UNL     1      -9.717   7.576  67.668  1.00  0.00    -0.182 C  
BRANCH  26  27
HETATM   27  C   UNL     1     -10.744   7.868  68.763  1.00  0.00    -0.082 C  
BRANCH  27  28
HETATM   28  C   UNL     1     -10.175   8.775  69.853  1.00  0.00    -0.206 C  
BRANCH  28  29
HETATM   29  C   UNL     1     -10.978  10.052  69.929  1.00  0.00    -0.339 A  
HETATM   30  C   UNL     1     -10.786  11.067  68.986  1.00  0.00    -0.258 A  
HETATM   31  C   UNL     1     -11.470  12.277  69.105  1.00  0.00    -0.352 A  
HETATM   32  C   UNL     1     -12.348  12.482  70.168  1.00  0.00    -0.210 A  
HETATM   33  C   UNL     1     -12.549  11.475  71.110  1.00  0.00    -0.463 A  
HETATM   34  C   UNL     1     -11.867  10.263  70.993  1.00  0.00    -0.472 A  
ENDBRANCH  28  29
ENDBRANCH  27  28
ENDBRANCH  26  27
ENDBRANCH  25  26
ENDBRANCH  24  25
ENDBRANCH  23  24
ENDBRANCH  22  23
ENDBRANCH  21  22
ENDBRANCH  20  21
ENDBRANCH  19  20
ENDBRANCH  18  19
ENDBRANCH  16  18
ENDBRANCH  15  16
ENDBRANCH  12  15
ENDBRANCH  10  12
ENDBRANCH   2   4
TORSDOF 16
ENDMDL
MODEL      228
REMARK 921   NORMALIZED FREE ENERGY PREDICTED BY IDOCK:   -4.46 KCAL/MOL
REMARK 922        TOTAL FREE ENERGY PREDICTED BY IDOCK:  -10.98 KCAL/MOL
REMARK 923 INTER-LIGAND FREE ENERGY PREDICTED BY IDOCK:   -7.71 KCAL/MOL
REMARK 924 INTRA-LIGAND FREE ENERGY PREDICTED BY IDOCK:   -3.26 KCAL/MOL
REMARK 927      BINDING AFFINITY PREDICTED BY RF-SCORE:    0.00 PKD
ROOT
HETATM    1  O   UNL     1      -7.433  10.873  69.821  1.00  0.00    -0.329 OA 
HETATM    2  C   UNL     1      -8.303  10.367  68.808  1.00  0.00    -0.134 C  
HETATM    3  H   UNL     1      -6.530  10.663  69.613  1.00  0.00     0.000 HD 
ENDROOT
BRANCH   2   4
HETATM    4  C   UNL     1      -9.734  10.699  69.137  1.00  0.00    -0.205 A  
HETATM    5  C   UNL     1     -10.390  10.194  70.266  1.00  0.00    -0.174 A  
HETATM    6  O   UNL     1      -9.785   9.307  71.113  1.00  0.00    -0.283 OA 
HETATM    7  C   UNL     1     -11.700  10.548  70.564  1.00  0.00    -0.443 A  
HETATM    8  C   UNL     1     -12.395  11.406  69.715  1.00  0.00    -0.250 A  
HETATM    9  H   UNL     1     -10.230   8.963  71.879  1.00  0.00     0.000 HD 
HETATM   10  C   UNL     1     -11.778  11.933  68.570  1.00  0.00    -0.388 A  
HETATM   11  C   UNL     1     -10.440  11.589  68.307  1.00  0.00    -0.219 A  
BRANCH  10  12
HETATM   12  C   UNL     1     -12.530  12.832  67.607  1.00  0.00     0.689 C  
HETATM   13  O   UNL     1     -12.284  14.211  67.925  1.00  0.00    -0.543 OA 
HETATM   14  H   UNL     1     -12.755  14.775  67.322  1.00  0.00     0.000 HD 
BRANCH  12  15
HETATM   15  C   UNL     1     -12.131  12.578  66.138  1.00  0.00    -0.286 C  
BRANCH  15  16
HETATM   16  N   UNL     1     -12.931  13.404  65.218  1.00  0.00    -0.677 NA 
HETATM   17  H   UNL     1     -13.673  13.908  65.704  1.00  0.00     0.000 HD 
BRANCH  16  18
HETATM   18  C   UNL     1     -12.061  14.304  64.467  1.00  0.00    -0.480 C  
BRANCH  18  19
HETATM   19  C   UNL     1     -10.612  13.846  64.582  1.00  0.00    -0.432 C  
BRANCH  19  20
HETATM   20  C   UNL     1      -9.789  14.888  65.337  1.00  0.00    -0.303 C  
BRANCH  20  21
HETATM   21  C   UNL     1     -10.658  16.073  65.735  1.00  0.00    -0.366 C  
BRANCH  21  22
HETATM   22  C   UNL     1      -9.897  17.388  65.611  1.00  0.00     0.109 C  
BRANCH  22  23
HETATM   23  C   UNL     1     -10.808  18.559  65.946  1.00  0.00    -0.035 C  
BRANCH  23  24
HETATM   24  O   UNL     1     -10.906  18.661  67.361  1.00  0.00    -0.439 OA 
BRANCH  24  25
HETATM   25  C   UNL     1     -10.539  19.961  67.816  1.00  0.00    -0.320 C  
BRANCH  25  26
HETATM   26  C   UNL     1      -9.019  20.070  67.814  1.00  0.00    -0.396 C  
BRANCH  26  27
HETATM   27  C   UNL     1      -8.394  19.045  68.760  1.00  0.00    -0.364 C  
BRANCH  27  28
HETATM   28  C   UNL     1      -7.237  18.293  68.105  1.00  0.00    -0.255 C  
BRANCH  28  29
HETATM   29  C   UNL     1      -7.463  16.804  68.215  1.00  0.00    -0.186 A  
HETATM   30  C   UNL     1      -6.617  15.909  67.551  1.00  0.00    -0.212 A  
HETATM   31  C   UNL     1      -6.875  14.538  67.588  1.00  0.00    -0.203 A  
HETATM   32  C   UNL     1      -7.980  14.053  68.285  1.00  0.00    -0.146 A  
HETATM   33  C   UNL     1      -8.826  14.938  68.952  1.00  0.00    -0.184 A  
HETATM   34  C   UNL     1      -8.571  16.309  68.917  1.00  0.00    -0.260 A  
ENDBRANCH  28  29
ENDBRANCH  27  28
ENDBRANCH  26  27
ENDBRANCH  25  26
ENDBRANCH  24  25
ENDBRANCH  23  24
ENDBRANCH  22  23
ENDBRANCH  21  22
ENDBRANCH  20  21
ENDBRANCH  19  20
ENDBRANCH  18  19
ENDBRANCH  16  18
ENDBRANCH  15  16
ENDBRANCH  12  15
ENDBRANCH  10  12
ENDBRANCH   2   4
TORSDOF 16
ENDMDL
MODEL      229
REMARK 921   NORMALIZED FREE ENERGY PREDICTED BY IDOCK:   -4.46 KCAL/MOL
REMARK 922        TOTAL FREE ENERGY PREDICTED BY IDOCK:  -10.97 KCAL/MOL
REMARK 923 INTER-LIGAND FREE ENERGY PREDICTED BY IDOCK:   -8.67 KCAL/MOL
REMARK 924 INTRA-LIGAND FREE ENERGY PREDICTED BY IDOCK:   -2.30 KCAL/MOL
REMARK 927      BINDING AFFINITY PREDICTED BY RF-SCORE:    0.00 PKD
ROOT
HETATM    1  O   UNL     1      -7.451  11.194  66.910  1.00  0.00    -0.124 OA 
HETATM    2  C   UNL     1      -7.241  10.058  66.071  1.00  0.00    -0.112 C  
HETATM    3  H   UNL     1      -6.963  11.099  67.720  1.00  0.00     0.000 HD 
ENDROOT
BRANCH   2   4
HETATM    4  C   UNL     1      -8.014  10.210  64.787  1.00  0.00    -0.146 A  
HETATM    5  C   UNL     1      -7.736   9.455  63.641  1.00  0.00    -0.123 A  
HETATM    6  O   UNL     1      -6.694   8.570  63.596  1.00  0.00    -0.083 OA 
HETATM    7  C   UNL     1      -8.491   9.590  62.482  1.00  0.00    -0.191 A  
HETATM    8  C   UNL     1      -9.535  10.511  62.440  1.00  0.00    -0.246 A  
HETATM    9  H   UNL     1      -6.505   8.058  62.819  1.00  0.00     0.000 HD 
HETATM   10  C   UNL     1      -9.845  11.292  63.564  1.00  0.00    -0.394 A  
HETATM   11  C   UNL     1      -9.091  11.113  64.738  1.00  0.00    -0.096 A  
BRANCH  10  12
HETATM   12  C   UNL     1     -10.947  12.334  63.526  1.00  0.00    -0.459 C  
HETATM   13  O   UNL     1     -12.203  11.738  63.890  1.00  0.00    -0.373 OA 
HETATM   14  H   UNL     1     -12.893  12.390  63.866  1.00  0.00     0.000 HD 
BRANCH  12  15
HETATM   15  C   UNL     1     -10.663  13.519  64.473  1.00  0.00    -0.418 C  
BRANCH  15  16
HETATM   16  N   UNL     1     -11.852  13.860  65.271  1.00  0.00    -0.341 NA 
HETATM   17  H   UNL     1     -12.456  13.052  65.421  1.00  0.00     0.000 HD 
BRANCH  16  18
HETATM   18  C   UNL     1     -11.450  14.482  66.529  1.00  0.00    -0.362 C  
BRANCH  18  19
HETATM   19  C   UNL     1     -10.637  13.498  67.361  1.00  0.00    -0.254 C  
BRANCH  19  20
HETATM   20  C   UNL     1     -11.540  12.390  67.897  1.00  0.00    -0.415 C  
BRANCH  20  21
HETATM   21  C   UNL     1     -11.451  12.312  69.415  1.00  0.00    -0.341 C  
BRANCH  21  22
HETATM   22  C   UNL     1     -11.981  10.982  69.936  1.00  0.00    -0.427 C  
BRANCH  22  23
HETATM   23  C   UNL     1     -12.732  11.187  71.242  1.00  0.00    -0.426 C  
BRANCH  23  24
HETATM   24  O   UNL     1     -13.160   9.918  71.719  1.00  0.00    -0.387 OA 
BRANCH  24  25
HETATM   25  C   UNL     1     -12.077   9.181  72.284  1.00  0.00    -0.241 C  
BRANCH  25  26
HETATM   26  C   UNL     1     -12.507   7.730  72.454  1.00  0.00    -0.157 C  
BRANCH  26  27
HETATM   27  C   UNL     1     -12.418   6.972  71.129  1.00  0.00    -0.407 C  
BRANCH  27  28
HETATM   28  C   UNL     1     -10.979   6.593  70.784  1.00  0.00    -0.318 C  
BRANCH  28  29
HETATM   29  C   UNL     1     -10.668   6.995  69.361  1.00  0.00    -0.259 A  
HETATM   30  C   UNL     1     -10.085   8.236  69.087  1.00  0.00    -0.205 A  
HETATM   31  C   UNL     1      -9.873   8.639  67.768  1.00  0.00    -0.218 A  
HETATM   32  C   UNL     1     -10.245   7.806  66.715  1.00  0.00    -0.346 A  
HETATM   33  C   UNL     1     -10.824   6.565  66.979  1.00  0.00    -0.465 A  
HETATM   34  C   UNL     1     -11.037   6.160  68.297  1.00  0.00    -0.336 A  
ENDBRANCH  28  29
ENDBRANCH  27  28
ENDBRANCH  26  27
ENDBRANCH  25  26
ENDBRANCH  24  25
ENDBRANCH  23  24
ENDBRANCH  22  23
ENDBRANCH  21  22
ENDBRANCH  20  21
ENDBRANCH  19  20
ENDBRANCH  18  19
ENDBRANCH  16  18
ENDBRANCH  15  16
ENDBRANCH  12  15
ENDBRANCH  10  12
ENDBRANCH   2   4
TORSDOF 16
ENDMDL
MODEL      230
REMARK 921   NORMALIZED FREE ENERGY PREDICTED BY IDOCK:   -4.45 KCAL/MOL
REMARK 922        TOTAL FREE ENERGY PREDICTED BY IDOCK:  -10.96 KCAL/MOL
REMARK 923 INTER-LIGAND FREE ENERGY PREDICTED BY IDOCK:   -9.11 KCAL/MOL
REMARK 924 INTRA-LIGAND FREE ENERGY PREDICTED BY IDOCK:   -1.85 KCAL/MOL
REMARK 927      BINDING AFFINITY PREDICTED BY RF-SCORE:    0.00 PKD
ROOT
HETATM    1  O   UNL     1      -7.974  14.591  66.808  1.00  0.00    -0.358 OA 
HETATM    2  C   UNL     1      -8.786  15.751  66.617  1.00  0.00    -0.288 C  
HETATM    3  H   UNL     1      -7.211  14.808  67.331  1.00  0.00     0.000 HD 
ENDROOT
BRANCH   2   4
HETATM    4  C   UNL     1      -9.995  15.408  65.787  1.00  0.00    -0.393 A  
HETATM    5  C   UNL     1     -10.784  16.380  65.161  1.00  0.00    -0.291 A  
HETATM    6  O   UNL     1     -10.541  17.716  65.317  1.00  0.00    -0.663 OA 
HETATM    7  C   UNL     1     -11.873  16.031  64.370  1.00  0.00    -0.042 A  
HETATM    8  C   UNL     1     -12.211  14.690  64.210  1.00  0.00    -0.432 A  
HETATM    9  H   UNL     1     -11.077  18.376  64.893  1.00  0.00     0.000 HD 
HETATM   10  C   UNL     1     -11.449  13.683  64.824  1.00  0.00    -0.367 A  
HETATM   11  C   UNL     1     -10.331  14.056  65.590  1.00  0.00    -0.342 A  
BRANCH  10  12
HETATM   12  C   UNL     1     -11.826  12.218  64.700  1.00  0.00    -0.367 C  
HETATM   13  O   UNL     1     -13.188  12.093  64.263  1.00  0.00    -0.768 OA 
HETATM   14  H   UNL     1     -13.424  11.176  64.185  1.00  0.00     0.000 HD 
BRANCH  12  15
HETATM   15  C   UNL     1     -10.912  11.462  63.712  1.00  0.00    -0.370 C  
BRANCH  15  16
HETATM   16  N   UNL     1      -9.491  11.647  64.053  1.00  0.00    -0.451 NA 
HETATM   17  H   UNL     1      -9.258  12.630  64.195  1.00  0.00     0.000 HD 
BRANCH  16  18
HETATM   18  C   UNL     1      -9.143  10.830  65.211  1.00  0.00    -0.195 C  
BRANCH  18  19
HETATM   19  C   UNL     1      -9.310   9.353  64.876  1.00  0.00    -0.218 C  
BRANCH  19  20
HETATM   20  C   UNL     1      -8.914   8.493  66.075  1.00  0.00    -0.228 C  
BRANCH  20  21
HETATM   21  C   UNL     1     -10.150   7.988  66.805  1.00  0.00    -0.357 C  
BRANCH  21  22
HETATM   22  C   UNL     1      -9.815   6.820  67.725  1.00  0.00    -0.148 C  
BRANCH  22  23
HETATM   23  C   UNL     1     -11.086   6.239  68.325  1.00  0.00    -0.269 C  
BRANCH  23  24
HETATM   24  O   UNL     1     -10.917   6.149  69.734  1.00  0.00    -0.317 OA 
BRANCH  24  25
HETATM   25  C   UNL     1     -11.914   6.895  70.427  1.00  0.00    -0.258 C  
BRANCH  25  26
HETATM   26  C   UNL     1     -11.326   7.400  71.739  1.00  0.00    -0.287 C  
BRANCH  26  27
HETATM   27  C   UNL     1     -11.250   8.927  71.754  1.00  0.00    -0.432 C  
BRANCH  27  28
HETATM   28  C   UNL     1     -11.096   9.506  70.349  1.00  0.00    -0.330 C  
BRANCH  28  29
HETATM   29  C   UNL     1      -9.636   9.750  70.050  1.00  0.00    -0.282 A  
HETATM   30  C   UNL     1      -9.256  10.726  69.122  1.00  0.00    -0.131 A  
HETATM   31  C   UNL     1      -7.912  10.894  68.788  1.00  0.00    -0.139 A  
HETATM   32  C   UNL     1      -6.939  10.088  69.376  1.00  0.00    -0.069 A  
HETATM   33  C   UNL     1      -7.308   9.115  70.304  1.00  0.00    -0.090 A  
HETATM   34  C   UNL     1      -8.651   8.944  70.640  1.00  0.00    -0.224 A  
ENDBRANCH  28  29
ENDBRANCH  27  28
ENDBRANCH  26  27
ENDBRANCH  25  26
ENDBRANCH  24  25
ENDBRANCH  23  24
ENDBRANCH  22  23
ENDBRANCH  21  22
ENDBRANCH  20  21
ENDBRANCH  19  20
ENDBRANCH  18  19
ENDBRANCH  16  18
ENDBRANCH  15  16
ENDBRANCH  12  15
ENDBRANCH  10  12
ENDBRANCH   2   4
TORSDOF 16
ENDMDL
MODEL      231
REMARK 921   NORMALIZED FREE ENERGY PREDICTED BY IDOCK:   -4.45 KCAL/MOL
REMARK 922        TOTAL FREE ENERGY PREDICTED BY IDOCK:  -10.95 KCAL/MOL
REMARK 923 INTER-LIGAND FREE ENERGY PREDICTED BY IDOCK:   -9.04 KCAL/MOL
REMARK 924 INTRA-LIGAND FREE ENERGY PREDICTED BY IDOCK:   -1.92 KCAL/MOL
REMARK 927      BINDING AFFINITY PREDICTED BY RF-SCORE:    0.00 PKD
ROOT
HETATM    1  O   UNL     1      -5.823   3.511  65.123  1.00  0.00    -0.020 OA 
HETATM    2  C   UNL     1      -6.242   4.859  65.337  1.00  0.00    -0.034 C  
HETATM    3  H   UNL     1      -4.885   3.479  64.970  1.00  0.00     0.000 HD 
ENDROOT
BRANCH   2   4
HETATM    4  C   UNL     1      -7.727   4.911  65.580  1.00  0.00    -0.086 A  
HETATM    5  C   UNL     1      -8.643   4.152  64.841  1.00  0.00    -0.118 A  
HETATM    6  O   UNL     1      -8.246   3.358  63.800  1.00  0.00    -0.088 OA 
HETATM    7  C   UNL     1     -10.005   4.192  65.113  1.00  0.00    -0.218 A  
HETATM    8  C   UNL     1     -10.485   5.019  66.125  1.00  0.00    -0.334 A  
HETATM    9  H   UNL     1      -8.867   2.843  63.298  1.00  0.00     0.000 HD 
HETATM   10  C   UNL     1      -9.603   5.801  66.888  1.00  0.00    -0.153 A  
HETATM   11  C   UNL     1      -8.225   5.717  66.619  1.00  0.00    -0.106 A  
BRANCH  10  12
HETATM   12  C   UNL     1     -10.107   6.743  67.964  1.00  0.00    -0.159 C  
HETATM   13  O   UNL     1     -11.161   7.569  67.443  1.00  0.00    -0.522 OA 
HETATM   14  H   UNL     1     -11.478   8.159  68.118  1.00  0.00     0.000 HD 
BRANCH  12  15
HETATM   15  C   UNL     1     -10.631   5.986  69.204  1.00  0.00    -0.295 C  
BRANCH  15  16
HETATM   16  N   UNL     1     -11.712   6.734  69.867  1.00  0.00    -0.627 NA 
HETATM   17  H   UNL     1     -12.442   6.116  70.221  1.00  0.00     0.000 HD 
BRANCH  16  18
HETATM   18  C   UNL     1     -11.162   7.586  70.916  1.00  0.00    -0.269 C  
BRANCH  18  19
HETATM   19  C   UNL     1     -12.144   8.700  71.253  1.00  0.00    -0.333 C  
BRANCH  19  20
HETATM   20  C   UNL     1     -11.513  10.062  70.974  1.00  0.00    -0.463 C  
BRANCH  20  21
HETATM   21  C   UNL     1     -11.778  10.493  69.539  1.00  0.00    -0.313 C  
BRANCH  21  22
HETATM   22  C   UNL     1     -11.761  12.011  69.402  1.00  0.00    -0.402 C  
BRANCH  22  23
HETATM   23  C   UNL     1     -11.706  12.408  67.935  1.00  0.00    -0.360 C  
BRANCH  23  24
HETATM   24  O   UNL     1     -12.104  13.769  67.823  1.00  0.00    -0.362 OA 
BRANCH  24  25
HETATM   25  C   UNL     1     -11.800  14.296  66.533  1.00  0.00    -0.415 C  
BRANCH  25  26
HETATM   26  C   UNL     1     -12.430  13.399  65.476  1.00  0.00    -0.534 C  
BRANCH  26  27
HETATM   27  C   UNL     1     -11.501  13.235  64.271  1.00  0.00    -0.435 C  
BRANCH  27  28
HETATM   28  C   UNL     1     -11.694  11.886  63.581  1.00  0.00    -0.572 C  
BRANCH  28  29
HETATM   29  C   UNL     1     -10.521  10.983  63.880  1.00  0.00    -0.422 A  
HETATM   30  C   UNL     1      -9.654  10.585  62.856  1.00  0.00    -0.355 A  
HETATM   31  C   UNL     1      -8.619   9.688  63.118  1.00  0.00    -0.208 A  
HETATM   32  C   UNL     1      -8.445   9.179  64.403  1.00  0.00    -0.198 A  
HETATM   33  C   UNL     1      -9.301   9.573  65.431  1.00  0.00    -0.324 A  
HETATM   34  C   UNL     1     -10.336  10.471  65.172  1.00  0.00    -0.310 A  
ENDBRANCH  28  29
ENDBRANCH  27  28
ENDBRANCH  26  27
ENDBRANCH  25  26
ENDBRANCH  24  25
ENDBRANCH  23  24
ENDBRANCH  22  23
ENDBRANCH  21  22
ENDBRANCH  20  21
ENDBRANCH  19  20
ENDBRANCH  18  19
ENDBRANCH  16  18
ENDBRANCH  15  16
ENDBRANCH  12  15
ENDBRANCH  10  12
ENDBRANCH   2   4
TORSDOF 16
ENDMDL
MODEL      232
REMARK 921   NORMALIZED FREE ENERGY PREDICTED BY IDOCK:   -4.44 KCAL/MOL
REMARK 922        TOTAL FREE ENERGY PREDICTED BY IDOCK:  -10.95 KCAL/MOL
REMARK 923 INTER-LIGAND FREE ENERGY PREDICTED BY IDOCK:   -9.43 KCAL/MOL
REMARK 924 INTRA-LIGAND FREE ENERGY PREDICTED BY IDOCK:   -1.52 KCAL/MOL
REMARK 927      BINDING AFFINITY PREDICTED BY RF-SCORE:    0.00 PKD
ROOT
HETATM    1  O   UNL     1      -8.223  11.299  67.470  1.00  0.00    -0.119 OA 
HETATM    2  C   UNL     1      -8.595  10.053  66.878  1.00  0.00    -0.125 C  
HETATM    3  H   UNL     1      -8.041  11.181  68.395  1.00  0.00     0.000 HD 
ENDROOT
BRANCH   2   4
HETATM    4  C   UNL     1      -8.883  10.239  65.412  1.00  0.00    -0.192 A  
HETATM    5  C   UNL     1      -8.162   9.581  64.408  1.00  0.00    -0.148 A  
HETATM    6  O   UNL     1      -7.100   8.771  64.698  1.00  0.00    -0.085 OA 
HETATM    7  C   UNL     1      -8.476   9.744  63.064  1.00  0.00    -0.180 A  
HETATM    8  C   UNL     1      -9.513  10.596  62.693  1.00  0.00    -0.332 A  
HETATM    9  H   UNL     1      -6.610   8.325  64.017  1.00  0.00     0.000 HD 
HETATM   10  C   UNL     1     -10.259  11.279  63.667  1.00  0.00    -0.446 A  
HETATM   11  C   UNL     1      -9.948  11.072  65.022  1.00  0.00    -0.340 A  
BRANCH  10  12
HETATM   12  C   UNL     1     -11.363  12.247  63.284  1.00  0.00    -0.336 C  
HETATM   13  O   UNL     1     -12.617  11.554  63.189  1.00  0.00    -0.909 OA 
HETATM   14  H   UNL     1     -13.309  12.160  62.950  1.00  0.00     0.000 HD 
BRANCH  12  15
HETATM   15  C   UNL     1     -11.505  13.401  64.299  1.00  0.00    -0.393 C  
BRANCH  15  16
HETATM   16  N   UNL     1     -12.689  13.216  65.154  1.00  0.00    -0.659 NA 
HETATM   17  H   UNL     1     -13.305  12.485  64.800  1.00  0.00     0.000 HD 
BRANCH  16  18
HETATM   18  C   UNL     1     -12.278  12.964  66.532  1.00  0.00    -0.188 C  
BRANCH  18  19
HETATM   19  C   UNL     1     -12.116  14.282  67.278  1.00  0.00    -0.390 C  
BRANCH  19  20
HETATM   20  C   UNL     1     -10.949  15.077  66.696  1.00  0.00    -0.325 C  
BRANCH  20  21
HETATM   21  C   UNL     1      -9.646  14.702  67.387  1.00  0.00    -0.215 C  
BRANCH  21  22
HETATM   22  C   UNL     1      -8.501  15.605  66.944  1.00  0.00    -0.286 C  
BRANCH  22  23
HETATM   23  C   UNL     1      -7.226  15.246  67.690  1.00  0.00    -0.180 C  
BRANCH  23  24
HETATM   24  O   UNL     1      -6.509  16.444  67.959  1.00  0.00    -0.124 OA 
BRANCH  24  25
HETATM   25  C   UNL     1      -6.206  16.570  69.346  1.00  0.00    -0.197 C  
BRANCH  25  26
HETATM   26  C   UNL     1      -5.446  17.872  69.566  1.00  0.00    -0.204 C  
BRANCH  26  27
HETATM   27  C   UNL     1      -5.984  18.981  68.660  1.00  0.00    -0.232 C  
BRANCH  27  28
HETATM   28  C   UNL     1      -7.208  19.668  69.263  1.00  0.00    -0.334 C  
BRANCH  28  29
HETATM   29  C   UNL     1      -8.398  19.494  68.349  1.00  0.00    -0.384 A  
HETATM   30  C   UNL     1      -9.527  18.792  68.783  1.00  0.00    -0.380 A  
HETATM   31  C   UNL     1     -10.592  18.563  67.911  1.00  0.00    -0.385 A  
HETATM   32  C   UNL     1     -10.534  19.031  66.600  1.00  0.00    -0.517 A  
HETATM   33  C   UNL     1      -9.414  19.734  66.159  1.00  0.00    -0.464 A  
HETATM   34  C   UNL     1      -8.348  19.966  67.029  1.00  0.00    -0.364 A  
ENDBRANCH  28  29
ENDBRANCH  27  28
ENDBRANCH  26  27
ENDBRANCH  25  26
ENDBRANCH  24  25
ENDBRANCH  23  24
ENDBRANCH  22  23
ENDBRANCH  21  22
ENDBRANCH  20  21
ENDBRANCH  19  20
ENDBRANCH  18  19
ENDBRANCH  16  18
ENDBRANCH  15  16
ENDBRANCH  12  15
ENDBRANCH  10  12
ENDBRANCH   2   4
TORSDOF 16
ENDMDL
MODEL      233
REMARK 921   NORMALIZED FREE ENERGY PREDICTED BY IDOCK:   -4.43 KCAL/MOL
REMARK 922        TOTAL FREE ENERGY PREDICTED BY IDOCK:  -10.92 KCAL/MOL
REMARK 923 INTER-LIGAND FREE ENERGY PREDICTED BY IDOCK:   -8.58 KCAL/MOL
REMARK 924 INTRA-LIGAND FREE ENERGY PREDICTED BY IDOCK:   -2.34 KCAL/MOL
REMARK 927      BINDING AFFINITY PREDICTED BY RF-SCORE:    0.00 PKD
ROOT
HETATM    1  O   UNL     1      -9.947  17.316  67.510  1.00  0.00    -0.278 OA 
HETATM    2  C   UNL     1      -9.038  16.625  66.652  1.00  0.00    -0.250 C  
HETATM    3  H   UNL     1     -10.478  17.922  67.005  1.00  0.00     0.000 HD 
ENDROOT
BRANCH   2   4
HETATM    4  C   UNL     1      -8.196  15.665  67.452  1.00  0.00    -0.198 A  
HETATM    5  C   UNL     1      -7.529  16.038  68.625  1.00  0.00    -0.166 A  
HETATM    6  O   UNL     1      -7.549  17.324  69.088  1.00  0.00    -0.214 OA 
HETATM    7  C   UNL     1      -6.790  15.120  69.362  1.00  0.00    -0.170 A  
HETATM    8  C   UNL     1      -6.682  13.804  68.920  1.00  0.00    -0.108 A  
HETATM    9  H   UNL     1      -7.097  17.577  69.884  1.00  0.00     0.000 HD 
HETATM   10  C   UNL     1      -7.331  13.389  67.746  1.00  0.00    -0.158 A  
HETATM   11  C   UNL     1      -8.103  14.325  67.036  1.00  0.00    -0.068 A  
BRANCH  10  12
HETATM   12  C   UNL     1      -7.190  11.972  67.222  1.00  0.00    -0.150 C  
HETATM   13  O   UNL     1      -6.413  11.182  68.136  1.00  0.00    -0.056 OA 
HETATM   14  H   UNL     1      -6.325  10.294  67.808  1.00  0.00     0.000 HD 
BRANCH  12  15
HETATM   15  C   UNL     1      -8.559  11.290  67.010  1.00  0.00    -0.148 C  
BRANCH  15  16
HETATM   16  N   UNL     1      -8.490  10.277  65.943  1.00  0.00    -0.144 NA 
HETATM   17  H   UNL     1      -8.023   9.425  66.255  1.00  0.00     0.000 HD 
BRANCH  16  18
HETATM   18  C   UNL     1      -9.825  10.008  65.420  1.00  0.00    -0.314 C  
BRANCH  18  19
HETATM   19  C   UNL     1     -10.128  10.943  64.256  1.00  0.00    -0.413 C  
BRANCH  19  20
HETATM   20  C   UNL     1     -11.265  11.894  64.626  1.00  0.00    -0.364 C  
BRANCH  20  21
HETATM   21  C   UNL     1     -10.880  13.335  64.323  1.00  0.00    -0.414 C  
BRANCH  21  22
HETATM   22  C   UNL     1     -12.014  14.296  64.657  1.00  0.00    -0.468 C  
BRANCH  22  23
HETATM   23  C   UNL     1     -12.539  14.026  66.058  1.00  0.00    -0.414 C  
BRANCH  23  24
HETATM   24  O   UNL     1     -11.574  14.486  66.996  1.00  0.00    -0.359 OA 
BRANCH  24  25
HETATM   25  C   UNL     1     -11.882  14.048  68.318  1.00  0.00    -0.371 C  
BRANCH  25  26
HETATM   26  C   UNL     1     -10.896  12.957  68.715  1.00  0.00    -0.277 C  
BRANCH  26  27
HETATM   27  C   UNL     1     -11.571  11.584  68.726  1.00  0.00    -0.379 C  
BRANCH  27  28
HETATM   28  C   UNL     1     -12.273  11.303  70.053  1.00  0.00    -0.389 C  
BRANCH  28  29
HETATM   29  C   UNL     1     -11.578  10.172  70.772  1.00  0.00    -0.445 A  
HETATM   30  C   UNL     1     -12.264   9.412  71.727  1.00  0.00    -0.465 A  
HETATM   31  C   UNL     1     -11.598   8.421  72.448  1.00  0.00    -0.450 A  
HETATM   32  C   UNL     1     -10.244   8.183  72.223  1.00  0.00    -0.348 A  
HETATM   33  C   UNL     1      -9.553   8.933  71.271  1.00  0.00    -0.348 A  
HETATM   34  C   UNL     1     -10.216   9.924  70.548  1.00  0.00    -0.257 A  
ENDBRANCH  28  29
ENDBRANCH  27  28
ENDBRANCH  26  27
ENDBRANCH  25  26
ENDBRANCH  24  25
ENDBRANCH  23  24
ENDBRANCH  22  23
ENDBRANCH  21  22
ENDBRANCH  20  21
ENDBRANCH  19  20
ENDBRANCH  18  19
ENDBRANCH  16  18
ENDBRANCH  15  16
ENDBRANCH  12  15
ENDBRANCH  10  12
ENDBRANCH   2   4
TORSDOF 16
ENDMDL
MODEL      234
REMARK 921   NORMALIZED FREE ENERGY PREDICTED BY IDOCK:   -4.43 KCAL/MOL
REMARK 922        TOTAL FREE ENERGY PREDICTED BY IDOCK:  -10.91 KCAL/MOL
REMARK 923 INTER-LIGAND FREE ENERGY PREDICTED BY IDOCK:   -8.00 KCAL/MOL
REMARK 924 INTRA-LIGAND FREE ENERGY PREDICTED BY IDOCK:   -2.91 KCAL/MOL
REMARK 927      BINDING AFFINITY PREDICTED BY RF-SCORE:    0.00 PKD
ROOT
HETATM    1  O   UNL     1     -12.315   7.391  70.602  1.00  0.00    -0.537 OA 
HETATM    2  C   UNL     1     -11.688   6.346  69.857  1.00  0.00    -0.239 C  
HETATM    3  H   UNL     1     -13.251   7.235  70.662  1.00  0.00     0.000 HD 
ENDROOT
BRANCH   2   4
HETATM    4  C   UNL     1     -10.205   6.592  69.761  1.00  0.00    -0.214 A  
HETATM    5  C   UNL     1      -9.343   5.758  69.040  1.00  0.00    -0.123 A  
HETATM    6  O   UNL     1      -9.788   4.621  68.425  1.00  0.00    -0.149 OA 
HETATM    7  C   UNL     1      -7.984   6.032  68.939  1.00  0.00    -0.100 A  
HETATM    8  C   UNL     1      -7.453   7.145  69.585  1.00  0.00    -0.098 A  
HETATM    9  H   UNL     1      -9.204   4.054  67.936  1.00  0.00     0.000 HD 
HETATM   10  C   UNL     1      -8.281   8.006  70.323  1.00  0.00    -0.123 A  
HETATM   11  C   UNL     1      -9.658   7.730  70.382  1.00  0.00    -0.175 A  
BRANCH  10  12
HETATM   12  C   UNL     1      -7.716   9.199  71.072  1.00  0.00    -0.100 C  
HETATM   13  O   UNL     1      -7.204   8.783  72.348  1.00  0.00    -0.300 OA 
HETATM   14  H   UNL     1      -6.850   9.530  72.817  1.00  0.00     0.000 HD 
BRANCH  12  15
HETATM   15  C   UNL     1      -6.589   9.902  70.285  1.00  0.00    -0.116 C  
BRANCH  15  16
HETATM   16  N   UNL     1      -7.047  11.188  69.735  1.00  0.00    -0.335 NA 
HETATM   17  H   UNL     1      -6.542  11.977  70.139  1.00  0.00     0.000 HD 
BRANCH  16  18
HETATM   18  C   UNL     1      -6.957  11.170  68.278  1.00  0.00    -0.070 C  
BRANCH  18  19
HETATM   19  C   UNL     1      -8.343  10.987  67.672  1.00  0.00    -0.117 C  
BRANCH  19  20
HETATM   20  C   UNL     1      -8.403   9.682  66.881  1.00  0.00    -0.117 C  
BRANCH  20  21
HETATM   21  C   UNL     1      -9.806   9.094  66.921  1.00  0.00    -0.280 C  
BRANCH  21  22
HETATM   22  C   UNL     1     -10.849  10.161  67.234  1.00  0.00    -0.295 C  
BRANCH  22  23
HETATM   23  C   UNL     1     -11.317  10.036  68.675  1.00  0.00    -0.055 C  
BRANCH  23  24
HETATM   24  O   UNL     1     -12.252  11.076  68.936  1.00  0.00    -0.519 OA 
BRANCH  24  25
HETATM   25  C   UNL     1     -11.845  11.877  70.042  1.00  0.00    -0.328 C  
BRANCH  25  26
HETATM   26  C   UNL     1     -11.968  13.345  69.656  1.00  0.00    -0.386 C  
BRANCH  26  27
HETATM   27  C   UNL     1     -11.164  13.649  68.390  1.00  0.00    -0.306 C  
BRANCH  27  28
HETATM   28  C   UNL     1     -12.062  14.088  67.235  1.00  0.00    -0.405 C  
BRANCH  28  29
HETATM   29  C   UNL     1     -11.668  13.359  65.972  1.00  0.00    -0.398 A  
HETATM   30  C   UNL     1     -10.328  13.302  65.576  1.00  0.00    -0.298 A  
HETATM   31  C   UNL     1      -9.976  12.699  64.369  1.00  0.00    -0.196 A  
HETATM   32  C   UNL     1     -10.959  12.151  63.548  1.00  0.00    -0.521 A  
HETATM   33  C   UNL     1     -12.298  12.200  63.936  1.00  0.00    -0.587 A  
HETATM   34  C   UNL     1     -12.653  12.803  65.143  1.00  0.00    -0.513 A  
ENDBRANCH  28  29
ENDBRANCH  27  28
ENDBRANCH  26  27
ENDBRANCH  25  26
ENDBRANCH  24  25
ENDBRANCH  23  24
ENDBRANCH  22  23
ENDBRANCH  21  22
ENDBRANCH  20  21
ENDBRANCH  19  20
ENDBRANCH  18  19
ENDBRANCH  16  18
ENDBRANCH  15  16
ENDBRANCH  12  15
ENDBRANCH  10  12
ENDBRANCH   2   4
TORSDOF 16
ENDMDL
MODEL      235
REMARK 921   NORMALIZED FREE ENERGY PREDICTED BY IDOCK:   -4.42 KCAL/MOL
REMARK 922        TOTAL FREE ENERGY PREDICTED BY IDOCK:  -10.90 KCAL/MOL
REMARK 923 INTER-LIGAND FREE ENERGY PREDICTED BY IDOCK:   -7.58 KCAL/MOL
REMARK 924 INTRA-LIGAND FREE ENERGY PREDICTED BY IDOCK:   -3.32 KCAL/MOL
REMARK 927      BINDING AFFINITY PREDICTED BY RF-SCORE:    0.00 PKD
ROOT
HETATM    1  O   UNL     1      -9.478   2.428  71.514  1.00  0.00    -0.112 OA 
HETATM    2  C   UNL     1      -9.293   3.782  71.931  1.00  0.00    -0.132 C  
HETATM    3  H   UNL     1      -9.011   1.839  72.095  1.00  0.00     0.000 HD 
ENDROOT
BRANCH   2   4
HETATM    4  C   UNL     1     -10.032   4.716  71.010  1.00  0.00    -0.270 A  
HETATM    5  C   UNL     1      -9.806   4.756  69.629  1.00  0.00    -0.221 A  
HETATM    6  O   UNL     1      -8.844   3.987  69.034  1.00  0.00    -0.087 OA 
HETATM    7  C   UNL     1     -10.530   5.603  68.798  1.00  0.00    -0.289 A  
HETATM    8  C   UNL     1     -11.490   6.452  69.343  1.00  0.00    -0.374 A  
HETATM    9  H   UNL     1      -8.689   4.014  68.097  1.00  0.00     0.000 HD 
HETATM   10  C   UNL     1     -11.746   6.448  70.724  1.00  0.00    -0.378 A  
HETATM   11  C   UNL     1     -11.027   5.558  71.540  1.00  0.00    -0.220 A  
BRANCH  10  12
HETATM   12  C   UNL     1     -12.754   7.397  71.345  1.00  0.00    -0.369 C  
HETATM   13  O   UNL     1     -13.723   6.660  72.106  1.00  0.00    -0.513 OA 
HETATM   14  H   UNL     1     -14.354   7.254  72.496  1.00  0.00     0.000 HD 
BRANCH  12  15
HETATM   15  C   UNL     1     -12.084   8.440  72.265  1.00  0.00    -0.392 C  
BRANCH  15  16
HETATM   16  N   UNL     1     -12.108   9.780  71.656  1.00  0.00    -0.398 NA 
HETATM   17  H   UNL     1     -12.153  10.518  72.359  1.00  0.00     0.000 HD 
BRANCH  16  18
HETATM   18  C   UNL     1     -10.965   9.946  70.763  1.00  0.00    -0.337 C  
BRANCH  18  19
HETATM   19  C   UNL     1      -9.719   9.335  71.391  1.00  0.00    -0.269 C  
BRANCH  19  20
HETATM   20  C   UNL     1      -8.737   8.904  70.304  1.00  0.00    -0.183 C  
BRANCH  20  21
HETATM   21  C   UNL     1      -7.884   7.738  70.781  1.00  0.00    -0.099 C  
BRANCH  21  22
HETATM   22  C   UNL     1      -7.055   7.153  69.644  1.00  0.00    -0.074 C  
BRANCH  22  23
HETATM   23  C   UNL     1      -6.295   8.255  68.923  1.00  0.00    -0.044 C  
BRANCH  23  24
HETATM   24  O   UNL     1      -6.538   8.130  67.527  1.00  0.00    -0.056 OA 
BRANCH  24  25
HETATM   25  C   UNL     1      -7.654   7.282  67.267  1.00  0.00    -0.104 C  
BRANCH  25  26
HETATM   26  C   UNL     1      -7.925   7.274  65.768  1.00  0.00    -0.122 C  
BRANCH  26  27
HETATM   27  C   UNL     1      -8.835   8.437  65.369  1.00  0.00    -0.146 C  
BRANCH  27  28
HETATM   28  C   UNL     1      -9.774   8.843  66.504  1.00  0.00    -0.322 C  
BRANCH  28  29
HETATM   29  C   UNL     1     -10.346  10.214  66.232  1.00  0.00    -0.245 A  
HETATM   30  C   UNL     1     -10.156  10.827  64.989  1.00  0.00    -0.377 A  
HETATM   31  C   UNL     1     -10.615  12.125  64.767  1.00  0.00    -0.335 A  
HETATM   32  C   UNL     1     -11.265  12.820  65.785  1.00  0.00    -0.341 A  
HETATM   33  C   UNL     1     -11.462  12.216  67.026  1.00  0.00    -0.415 A  
HETATM   34  C   UNL     1     -11.004  10.918  67.251  1.00  0.00    -0.355 A  
ENDBRANCH  28  29
ENDBRANCH  27  28
ENDBRANCH  26  27
ENDBRANCH  25  26
ENDBRANCH  24  25
ENDBRANCH  23  24
ENDBRANCH  22  23
ENDBRANCH  21  22
ENDBRANCH  20  21
ENDBRANCH  19  20
ENDBRANCH  18  19
ENDBRANCH  16  18
ENDBRANCH  15  16
ENDBRANCH  12  15
ENDBRANCH  10  12
ENDBRANCH   2   4
TORSDOF 16
ENDMDL
MODEL      236
REMARK 921   NORMALIZED FREE ENERGY PREDICTED BY IDOCK:   -4.42 KCAL/MOL
REMARK 922        TOTAL FREE ENERGY PREDICTED BY IDOCK:  -10.90 KCAL/MOL
REMARK 923 INTER-LIGAND FREE ENERGY PREDICTED BY IDOCK:   -9.03 KCAL/MOL
REMARK 924 INTRA-LIGAND FREE ENERGY PREDICTED BY IDOCK:   -1.87 KCAL/MOL
REMARK 927      BINDING AFFINITY PREDICTED BY RF-SCORE:    0.00 PKD
ROOT
HETATM    1  O   UNL     1     -12.111  13.491  64.616  1.00  0.00    -0.378 OA 
HETATM    2  C   UNL     1     -10.965  14.343  64.614  1.00  0.00    -0.354 C  
HETATM    3  H   UNL     1     -12.121  12.952  63.833  1.00  0.00     0.000 HD 
ENDROOT
BRANCH   2   4
HETATM    4  C   UNL     1     -10.948  15.196  65.854  1.00  0.00    -0.339 A  
HETATM    5  C   UNL     1     -11.149  14.673  67.137  1.00  0.00    -0.326 A  
HETATM    6  O   UNL     1     -11.439  13.352  67.339  1.00  0.00    -0.300 OA 
HETATM    7  C   UNL     1     -11.091  15.480  68.268  1.00  0.00    -0.322 A  
HETATM    8  C   UNL     1     -10.852  16.846  68.131  1.00  0.00    -0.351 A  
HETATM    9  H   UNL     1     -11.575  12.997  68.210  1.00  0.00     0.000 HD 
HETATM   10  C   UNL     1     -10.650  17.413  66.863  1.00  0.00    -0.216 A  
HETATM   11  C   UNL     1     -10.677  16.572  65.737  1.00  0.00    -0.232 A  
BRANCH  10  12
HETATM   12  C   UNL     1     -10.434  18.904  66.688  1.00  0.00    -0.428 C  
HETATM   13  O   UNL     1     -10.771  19.598  67.899  1.00  0.00    -0.408 OA 
HETATM   14  H   UNL     1     -10.635  20.532  67.790  1.00  0.00     0.000 HD 
BRANCH  12  15
HETATM   15  C   UNL     1      -8.977  19.242  66.307  1.00  0.00    -0.328 C  
BRANCH  15  16
HETATM   16  N   UNL     1      -8.218  18.025  65.971  1.00  0.00    -0.516 NA 
HETATM   17  H   UNL     1      -8.294  17.789  64.982  1.00  0.00     0.000 HD 
BRANCH  16  18
HETATM   18  C   UNL     1      -6.829  18.169  66.394  1.00  0.00    -0.229 C  
BRANCH  18  19
HETATM   19  C   UNL     1      -6.273  16.819  66.828  1.00  0.00    -0.187 C  
BRANCH  19  20
HETATM   20  C   UNL     1      -7.237  16.140  67.799  1.00  0.00    -0.157 C  
BRANCH  20  21
HETATM   21  C   UNL     1      -7.432  14.677  67.428  1.00  0.00    -0.212 C  
BRANCH  21  22
HETATM   22  C   UNL     1      -7.732  13.826  68.656  1.00  0.00    -0.120 C  
BRANCH  22  23
HETATM   23  C   UNL     1      -7.863  12.362  68.265  1.00  0.00    -0.150 C  
BRANCH  23  24
HETATM   24  O   UNL     1      -7.132  11.580  69.201  1.00  0.00    -0.112 OA 
BRANCH  24  25
HETATM   25  C   UNL     1      -7.376  10.187  69.019  1.00  0.00    -0.087 C  
BRANCH  25  26
HETATM   26  C   UNL     1      -7.140   9.471  70.342  1.00  0.00    -0.120 C  
BRANCH  26  27
HETATM   27  C   UNL     1      -8.463   9.174  71.050  1.00  0.00    -0.221 C  
BRANCH  27  28
HETATM   28  C   UNL     1      -9.650   9.236  70.091  1.00  0.00    -0.254 C  
BRANCH  28  29
HETATM   29  C   UNL     1     -10.934   9.389  70.871  1.00  0.00    -0.391 A  
HETATM   30  C   UNL     1     -11.428   8.327  71.637  1.00  0.00    -0.333 A  
HETATM   31  C   UNL     1     -12.655   8.442  72.291  1.00  0.00    -0.401 A  
HETATM   32  C   UNL     1     -13.397   9.616  72.183  1.00  0.00    -0.545 A  
HETATM   33  C   UNL     1     -12.911  10.681  71.426  1.00  0.00    -0.556 A  
HETATM   34  C   UNL     1     -11.684  10.569  70.770  1.00  0.00    -0.454 A  
ENDBRANCH  28  29
ENDBRANCH  27  28
ENDBRANCH  26  27
ENDBRANCH  25  26
ENDBRANCH  24  25
ENDBRANCH  23  24
ENDBRANCH  22  23
ENDBRANCH  21  22
ENDBRANCH  20  21
ENDBRANCH  19  20
ENDBRANCH  18  19
ENDBRANCH  16  18
ENDBRANCH  15  16
ENDBRANCH  12  15
ENDBRANCH  10  12
ENDBRANCH   2   4
TORSDOF 16
ENDMDL
MODEL      237
REMARK 921   NORMALIZED FREE ENERGY PREDICTED BY IDOCK:   -4.40 KCAL/MOL
REMARK 922        TOTAL FREE ENERGY PREDICTED BY IDOCK:  -10.85 KCAL/MOL
REMARK 923 INTER-LIGAND FREE ENERGY PREDICTED BY IDOCK:   -7.18 KCAL/MOL
REMARK 924 INTRA-LIGAND FREE ENERGY PREDICTED BY IDOCK:   -3.68 KCAL/MOL
REMARK 927      BINDING AFFINITY PREDICTED BY RF-SCORE:    0.00 PKD
ROOT
HETATM    1  O   UNL     1     -12.259  13.043  70.798  1.00  0.00    -0.399 OA 
HETATM    2  C   UNL     1     -11.850  12.882  69.439  1.00  0.00    -0.312 C  
HETATM    3  H   UNL     1     -12.703  12.260  71.102  1.00  0.00     0.000 HD 
ENDROOT
BRANCH   2   4
HETATM    4  C   UNL     1     -11.147  14.124  68.956  1.00  0.00    -0.292 A  
HETATM    5  C   UNL     1     -11.678  15.408  69.122  1.00  0.00    -0.345 A  
HETATM    6  O   UNL     1     -12.909  15.612  69.681  1.00  0.00    -0.559 OA 
HETATM    7  C   UNL     1     -10.989  16.539  68.699  1.00  0.00    -0.344 A  
HETATM    8  C   UNL     1      -9.752  16.402  68.073  1.00  0.00    -0.235 A  
HETATM    9  H   UNL     1     -13.270  16.484  69.793  1.00  0.00     0.000 HD 
HETATM   10  C   UNL     1      -9.185  15.131  67.883  1.00  0.00    -0.184 A  
HETATM   11  C   UNL     1      -9.883  14.004  68.351  1.00  0.00    -0.232 A  
BRANCH  10  12
HETATM   12  C   UNL     1      -7.861  14.955  67.163  1.00  0.00    -0.170 C  
HETATM   13  O   UNL     1      -7.554  16.131  66.397  1.00  0.00    -0.205 OA 
HETATM   14  H   UNL     1      -6.725  16.021  65.947  1.00  0.00     0.000 HD 
BRANCH  12  15
HETATM   15  C   UNL     1      -6.698  14.677  68.140  1.00  0.00    -0.131 C  
BRANCH  15  16
HETATM   16  N   UNL     1      -5.734  13.726  67.563  1.00  0.00    -0.355 NA 
HETATM   17  H   UNL     1      -4.964  13.528  68.202  1.00  0.00     0.000 HD 
BRANCH  16  18
HETATM   18  C   UNL     1      -6.421  12.510  67.141  1.00  0.00    -0.047 C  
BRANCH  18  19
HETATM   19  C   UNL     1      -6.252  11.423  68.195  1.00  0.00    -0.045 C  
BRANCH  19  20
HETATM   20  C   UNL     1      -5.780  10.125  67.543  1.00  0.00    -0.045 C  
BRANCH  20  21
HETATM   21  C   UNL     1      -6.469   9.915  66.203  1.00  0.00    -0.079 C  
BRANCH  21  22
HETATM   22  C   UNL     1      -6.714   8.436  65.928  1.00  0.00    -0.053 C  
BRANCH  22  23
HETATM   23  C   UNL     1      -6.582   8.146  64.441  1.00  0.00    -0.065 C  
BRANCH  23  24
HETATM   24  O   UNL     1      -7.131   9.242  63.720  1.00  0.00    -0.093 OA 
BRANCH  24  25
HETATM   25  C   UNL     1      -8.422   8.930  63.201  1.00  0.00    -0.159 C  
BRANCH  25  26
HETATM   26  C   UNL     1      -9.236  10.214  63.108  1.00  0.00    -0.316 C  
BRANCH  26  27
HETATM   27  C   UNL     1     -10.024  10.459  64.396  1.00  0.00    -0.388 C  
BRANCH  27  28
HETATM   28  C   UNL     1      -9.541  11.707  65.132  1.00  0.00    -0.206 C  
BRANCH  28  29
HETATM   29  C   UNL     1     -10.622  12.762  65.121  1.00  0.00    -0.324 A  
HETATM   30  C   UNL     1     -10.327  14.073  64.734  1.00  0.00    -0.407 A  
HETATM   31  C   UNL     1     -11.307  15.064  64.801  1.00  0.00    -0.409 A  
HETATM   32  C   UNL     1     -12.586  14.752  65.258  1.00  0.00    -0.016 A  
HETATM   33  C   UNL     1     -12.890  13.447  65.642  1.00  0.00    -0.310 A  
HETATM   34  C   UNL     1     -11.912  12.454  65.576  1.00  0.00    -0.453 A  
ENDBRANCH  28  29
ENDBRANCH  27  28
ENDBRANCH  26  27
ENDBRANCH  25  26
ENDBRANCH  24  25
ENDBRANCH  23  24
ENDBRANCH  22  23
ENDBRANCH  21  22
ENDBRANCH  20  21
ENDBRANCH  19  20
ENDBRANCH  18  19
ENDBRANCH  16  18
ENDBRANCH  15  16
ENDBRANCH  12  15
ENDBRANCH  10  12
ENDBRANCH   2   4
TORSDOF 16
ENDMDL
MODEL      238
REMARK 921   NORMALIZED FREE ENERGY PREDICTED BY IDOCK:   -4.39 KCAL/MOL
REMARK 922        TOTAL FREE ENERGY PREDICTED BY IDOCK:  -10.85 KCAL/MOL
REMARK 923 INTER-LIGAND FREE ENERGY PREDICTED BY IDOCK:   -8.08 KCAL/MOL
REMARK 924 INTRA-LIGAND FREE ENERGY PREDICTED BY IDOCK:   -2.77 KCAL/MOL
REMARK 927      BINDING AFFINITY PREDICTED BY RF-SCORE:    0.00 PKD
ROOT
HETATM    1  O   UNL     1     -12.516   8.024  72.673  1.00  0.00    -0.575 OA 
HETATM    2  C   UNL     1     -11.198   8.462  72.341  1.00  0.00    -0.368 C  
HETATM    3  H   UNL     1     -12.672   8.131  73.605  1.00  0.00     0.000 HD 
ENDROOT
BRANCH   2   4
HETATM    4  C   UNL     1     -10.949   8.292  70.866  1.00  0.00    -0.275 A  
HETATM    5  C   UNL     1     -11.053   7.056  70.217  1.00  0.00    -0.285 A  
HETATM    6  O   UNL     1     -11.326   5.904  70.901  1.00  0.00    -0.270 OA 
HETATM    7  C   UNL     1     -10.854   6.937  68.846  1.00  0.00    -0.247 A  
HETATM    8  C   UNL     1     -10.520   8.061  68.095  1.00  0.00    -0.222 A  
HETATM    9  H   UNL     1     -11.396   5.065  70.461  1.00  0.00     0.000 HD 
HETATM   10  C   UNL     1     -10.401   9.319  68.706  1.00  0.00    -0.231 A  
HETATM   11  C   UNL     1     -10.642   9.423  70.087  1.00  0.00    -0.279 A  
BRANCH  10  12
HETATM   12  C   UNL     1      -9.994  10.548  67.915  1.00  0.00    -0.169 C  
HETATM   13  O   UNL     1     -10.119  10.294  66.508  1.00  0.00    -0.213 OA 
HETATM   14  H   UNL     1      -9.864  11.064  66.012  1.00  0.00     0.000 HD 
BRANCH  12  15
HETATM   15  C   UNL     1     -10.845  11.784  68.279  1.00  0.00    -0.220 C  
BRANCH  15  16
HETATM   16  N   UNL     1     -11.933  11.985  67.308  1.00  0.00    -0.590 NA 
HETATM   17  H   UNL     1     -12.851  11.837  67.728  1.00  0.00     0.000 HD 
BRANCH  16  18
HETATM   18  C   UNL     1     -11.820  13.304  66.694  1.00  0.00    -0.395 C  
BRANCH  18  19
HETATM   19  C   UNL     1     -12.678  13.371  65.437  1.00  0.00    -0.484 C  
BRANCH  19  20
HETATM   20  C   UNL     1     -11.844  13.856  64.254  1.00  0.00    -0.441 C  
BRANCH  20  21
HETATM   21  C   UNL     1     -10.553  13.058  64.143  1.00  0.00    -0.421 C  
BRANCH  21  22
HETATM   22  C   UNL     1     -10.760  11.773  63.350  1.00  0.00    -0.468 C  
BRANCH  22  23
HETATM   23  C   UNL     1      -9.422  11.107  63.065  1.00  0.00    -0.369 C  
BRANCH  23  24
HETATM   24  O   UNL     1      -9.328   9.930  63.858  1.00  0.00    -0.267 OA 
BRANCH  24  25
HETATM   25  C   UNL     1      -8.223   9.122  63.461  1.00  0.00    -0.178 C  
BRANCH  25  26
HETATM   26  C   UNL     1      -7.166   9.164  64.558  1.00  0.00    -0.098 C  
BRANCH  26  27
HETATM   27  C   UNL     1      -7.023   7.801  65.236  1.00  0.00    -0.059 C  
BRANCH  27  28
HETATM   28  C   UNL     1      -8.108   6.824  64.786  1.00  0.00    -0.098 C  
BRANCH  28  29
HETATM   29  C   UNL     1      -8.361   5.803  65.870  1.00  0.00    -0.130 A  
HETATM   30  C   UNL     1      -9.464   4.945  65.791  1.00  0.00    -0.172 A  
HETATM   31  C   UNL     1      -9.742   4.058  66.832  1.00  0.00    -0.215 A  
HETATM   32  C   UNL     1      -8.923   4.025  67.959  1.00  0.00    -0.153 A  
HETATM   33  C   UNL     1      -7.820   4.874  68.045  1.00  0.00    -0.083 A  
HETATM   34  C   UNL     1      -7.539   5.761  67.005  1.00  0.00    -0.099 A  
ENDBRANCH  28  29
ENDBRANCH  27  28
ENDBRANCH  26  27
ENDBRANCH  25  26
ENDBRANCH  24  25
ENDBRANCH  23  24
ENDBRANCH  22  23
ENDBRANCH  21  22
ENDBRANCH  20  21
ENDBRANCH  19  20
ENDBRANCH  18  19
ENDBRANCH  16  18
ENDBRANCH  15  16
ENDBRANCH  12  15
ENDBRANCH  10  12
ENDBRANCH   2   4
TORSDOF 16
ENDMDL
MODEL      239
REMARK 921   NORMALIZED FREE ENERGY PREDICTED BY IDOCK:   -4.39 KCAL/MOL
REMARK 922        TOTAL FREE ENERGY PREDICTED BY IDOCK:  -10.84 KCAL/MOL
REMARK 923 INTER-LIGAND FREE ENERGY PREDICTED BY IDOCK:   -9.76 KCAL/MOL
REMARK 924 INTRA-LIGAND FREE ENERGY PREDICTED BY IDOCK:   -1.08 KCAL/MOL
REMARK 927      BINDING AFFINITY PREDICTED BY RF-SCORE:    0.00 PKD
ROOT
HETATM    1  O   UNL     1      -8.837  10.508  70.135  1.00  0.00    -0.255 OA 
HETATM    2  C   UNL     1      -8.293   9.236  69.780  1.00  0.00    -0.142 C  
HETATM    3  H   UNL     1      -8.145  11.157  70.191  1.00  0.00     0.000 HD 
ENDROOT
BRANCH   2   4
HETATM    4  C   UNL     1      -9.389   8.207  69.693  1.00  0.00    -0.159 A  
HETATM    5  C   UNL     1      -9.575   7.391  68.571  1.00  0.00    -0.146 A  
HETATM    6  O   UNL     1      -8.805   7.523  67.448  1.00  0.00    -0.126 OA 
HETATM    7  C   UNL     1     -10.573   6.424  68.534  1.00  0.00    -0.302 A  
HETATM    8  C   UNL     1     -11.428   6.270  69.621  1.00  0.00    -0.425 A  
HETATM    9  H   UNL     1      -8.931   6.970  66.687  1.00  0.00     0.000 HD 
HETATM   10  C   UNL     1     -11.280   7.071  70.765  1.00  0.00    -0.323 A  
HETATM   11  C   UNL     1     -10.242   8.018  70.796  1.00  0.00    -0.209 A  
BRANCH  10  12
HETATM   12  C   UNL     1     -12.229   6.952  71.943  1.00  0.00    -0.332 C  
HETATM   13  O   UNL     1     -11.633   7.522  73.118  1.00  0.00    -0.612 OA 
HETATM   14  H   UNL     1     -12.227   7.448  73.856  1.00  0.00     0.000 HD 
BRANCH  12  15
HETATM   15  C   UNL     1     -13.580   7.651  71.678  1.00  0.00    -0.364 C  
BRANCH  15  16
HETATM   16  N   UNL     1     -13.582   9.024  72.209  1.00  0.00    -0.456 NA 
HETATM   17  H   UNL     1     -12.852   9.164  72.908  1.00  0.00     0.000 HD 
BRANCH  16  18
HETATM   18  C   UNL     1     -13.483   9.985  71.115  1.00  0.00    -0.230 C  
BRANCH  18  19
HETATM   19  C   UNL     1     -12.700  11.211  71.567  1.00  0.00    -0.499 C  
BRANCH  19  20
HETATM   20  C   UNL     1     -13.634  12.215  72.239  1.00  0.00    -0.226 C  
BRANCH  20  21
HETATM   21  C   UNL     1     -13.295  13.635  71.810  1.00  0.00    -0.469 C  
BRANCH  21  22
HETATM   22  C   UNL     1     -12.436  13.646  70.551  1.00  0.00    -0.394 C  
BRANCH  22  23
HETATM   23  C   UNL     1     -12.274  15.068  70.035  1.00  0.00    -0.328 C  
BRANCH  23  24
HETATM   24  O   UNL     1     -11.872  15.007  68.672  1.00  0.00    -0.327 OA 
BRANCH  24  25
HETATM   25  C   UNL     1     -11.141  16.171  68.293  1.00  0.00    -0.348 C  
BRANCH  25  26
HETATM   26  C   UNL     1     -10.629  15.986  66.869  1.00  0.00    -0.300 C  
BRANCH  26  27
HETATM   27  C   UNL     1     -10.284  17.333  66.232  1.00  0.00    -0.347 C  
BRANCH  27  28
HETATM   28  C   UNL     1     -10.425  18.487  67.223  1.00  0.00    -0.455 C  
BRANCH  28  29
HETATM   29  C   UNL     1      -9.060  19.019  67.589  1.00  0.00    -0.327 A  
HETATM   30  C   UNL     1      -8.697  20.329  67.255  1.00  0.00    -0.441 A  
HETATM   31  C   UNL     1      -7.408  20.792  67.522  1.00  0.00    -0.362 A  
HETATM   32  C   UNL     1      -6.474  19.951  68.122  1.00  0.00    -0.290 A  
HETATM   33  C   UNL     1      -6.827  18.646  68.462  1.00  0.00    -0.281 A  
HETATM   34  C   UNL     1      -8.115  18.180  68.196  1.00  0.00    -0.289 A  
ENDBRANCH  28  29
ENDBRANCH  27  28
ENDBRANCH  26  27
ENDBRANCH  25  26
ENDBRANCH  24  25
ENDBRANCH  23  24
ENDBRANCH  22  23
ENDBRANCH  21  22
ENDBRANCH  20  21
ENDBRANCH  19  20
ENDBRANCH  18  19
ENDBRANCH  16  18
ENDBRANCH  15  16
ENDBRANCH  12  15
ENDBRANCH  10  12
ENDBRANCH   2   4
TORSDOF 16
ENDMDL
MODEL      240
REMARK 921   NORMALIZED FREE ENERGY PREDICTED BY IDOCK:   -4.39 KCAL/MOL
REMARK 922        TOTAL FREE ENERGY PREDICTED BY IDOCK:  -10.84 KCAL/MOL
REMARK 923 INTER-LIGAND FREE ENERGY PREDICTED BY IDOCK:   -9.39 KCAL/MOL
REMARK 924 INTRA-LIGAND FREE ENERGY PREDICTED BY IDOCK:   -1.45 KCAL/MOL
REMARK 927      BINDING AFFINITY PREDICTED BY RF-SCORE:    0.00 PKD
ROOT
HETATM    1  O   UNL     1      -7.816   3.566  70.249  1.00  0.00    -0.047 OA 
HETATM    2  C   UNL     1      -8.748   4.527  70.747  1.00  0.00    -0.093 C  
HETATM    3  H   UNL     1      -7.290   3.219  70.961  1.00  0.00     0.000 HD 
ENDROOT
BRANCH   2   4
HETATM    4  C   UNL     1      -9.581   5.076  69.619  1.00  0.00    -0.240 A  
HETATM    5  C   UNL     1     -10.431   6.178  69.771  1.00  0.00    -0.239 A  
HETATM    6  O   UNL     1     -10.609   6.788  70.981  1.00  0.00    -0.217 OA 
HETATM    7  C   UNL     1     -11.159   6.686  68.701  1.00  0.00    -0.288 A  
HETATM    8  C   UNL     1     -11.067   6.080  67.451  1.00  0.00    -0.236 A  
HETATM    9  H   UNL     1     -11.187   7.535  71.085  1.00  0.00     0.000 HD 
HETATM   10  C   UNL     1     -10.230   4.970  67.255  1.00  0.00    -0.219 A  
HETATM   11  C   UNL     1      -9.475   4.495  68.342  1.00  0.00    -0.209 A  
BRANCH  10  12
HETATM   12  C   UNL     1     -10.149   4.266  65.913  1.00  0.00    -0.205 C  
HETATM   13  O   UNL     1     -11.297   4.591  65.115  1.00  0.00    -1.034 OA 
HETATM   14  H   UNL     1     -11.247   4.150  64.274  1.00  0.00     0.000 HD 
BRANCH  12  15
HETATM   15  C   UNL     1      -8.873   4.646  65.132  1.00  0.00    -0.147 C  
BRANCH  15  16
HETATM   16  N   UNL     1      -8.907   6.055  64.708  1.00  0.00    -0.363 NA 
HETATM   17  H   UNL     1      -9.660   6.572  65.162  1.00  0.00     0.000 HD 
BRANCH  16  18
HETATM   18  C   UNL     1      -7.605   6.677  64.933  1.00  0.00    -0.101 C  
BRANCH  18  19
HETATM   19  C   UNL     1      -7.750   8.193  64.966  1.00  0.00    -0.113 C  
BRANCH  19  20
HETATM   20  C   UNL     1      -8.768   8.602  66.028  1.00  0.00    -0.196 C  
BRANCH  20  21
HETATM   21  C   UNL     1      -9.810   9.543  65.440  1.00  0.00    -0.248 C  
BRANCH  21  22
HETATM   22  C   UNL     1      -9.218  10.918  65.151  1.00  0.00    -0.240 C  
BRANCH  22  23
HETATM   23  C   UNL     1     -10.244  11.798  64.455  1.00  0.00    -0.284 C  
BRANCH  23  24
HETATM   24  O   UNL     1     -11.315  12.041  65.359  1.00  0.00    -0.332 OA 
BRANCH  24  25
HETATM   25  C   UNL     1     -10.870  12.740  66.518  1.00  0.00    -0.256 C  
BRANCH  25  26
HETATM   26  C   UNL     1     -11.558  12.149  67.742  1.00  0.00    -0.410 C  
BRANCH  26  27
HETATM   27  C   UNL     1     -11.336  13.027  68.975  1.00  0.00    -0.340 C  
BRANCH  27  28
HETATM   28  C   UNL     1     -12.278  12.655  70.118  1.00  0.00    -0.310 C  
BRANCH  28  29
HETATM   29  C   UNL     1     -12.356  13.791  71.110  1.00  0.00    -0.428 A  
HETATM   30  C   UNL     1     -13.145  13.675  72.260  1.00  0.00    -0.491 A  
HETATM   31  C   UNL     1     -13.279  14.754  73.134  1.00  0.00    -0.543 A  
HETATM   32  C   UNL     1     -12.629  15.957  72.864  1.00  0.00    -0.581 A  
HETATM   33  C   UNL     1     -11.838  16.081  71.723  1.00  0.00    -0.599 A  
HETATM   34  C   UNL     1     -11.701  15.003  70.848  1.00  0.00    -0.376 A  
ENDBRANCH  28  29
ENDBRANCH  27  28
ENDBRANCH  26  27
ENDBRANCH  25  26
ENDBRANCH  24  25
ENDBRANCH  23  24
ENDBRANCH  22  23
ENDBRANCH  21  22
ENDBRANCH  20  21
ENDBRANCH  19  20
ENDBRANCH  18  19
ENDBRANCH  16  18
ENDBRANCH  15  16
ENDBRANCH  12  15
ENDBRANCH  10  12
ENDBRANCH   2   4
TORSDOF 16
ENDMDL
MODEL      241
REMARK 921   NORMALIZED FREE ENERGY PREDICTED BY IDOCK:   -4.38 KCAL/MOL
REMARK 922        TOTAL FREE ENERGY PREDICTED BY IDOCK:  -10.82 KCAL/MOL
REMARK 923 INTER-LIGAND FREE ENERGY PREDICTED BY IDOCK:   -9.16 KCAL/MOL
REMARK 924 INTRA-LIGAND FREE ENERGY PREDICTED BY IDOCK:   -1.67 KCAL/MOL
REMARK 927      BINDING AFFINITY PREDICTED BY RF-SCORE:    0.00 PKD
ROOT
HETATM    1  O   UNL     1      -9.591  18.529  68.876  1.00  0.00    -0.330 OA 
HETATM    2  C   UNL     1     -10.678  18.081  68.065  1.00  0.00    -0.285 C  
HETATM    3  H   UNL     1      -9.482  19.470  68.789  1.00  0.00     0.000 HD 
ENDROOT
BRANCH   2   4
HETATM    4  C   UNL     1     -10.850  16.591  68.202  1.00  0.00    -0.345 A  
HETATM    5  C   UNL     1     -11.240  15.980  69.399  1.00  0.00    -0.349 A  
HETATM    6  O   UNL     1     -11.429  16.699  70.547  1.00  0.00    -0.501 OA 
HETATM    7  C   UNL     1     -11.427  14.605  69.485  1.00  0.00    -0.334 A  
HETATM    8  C   UNL     1     -11.201  13.805  68.368  1.00  0.00    -0.300 A  
HETATM    9  H   UNL     1     -11.693  16.285  71.360  1.00  0.00     0.000 HD 
HETATM   10  C   UNL     1     -10.804  14.376  67.149  1.00  0.00    -0.292 A  
HETATM   11  C   UNL     1     -10.656  15.772  67.075  1.00  0.00    -0.316 A  
BRANCH  10  12
HETATM   12  C   UNL     1     -10.508  13.519  65.932  1.00  0.00    -0.292 C  
HETATM   13  O   UNL     1      -9.152  13.049  65.977  1.00  0.00    -0.451 OA 
HETATM   14  H   UNL     1      -8.966  12.512  65.215  1.00  0.00     0.000 HD 
BRANCH  12  15
HETATM   15  C   UNL     1     -11.455  12.305  65.829  1.00  0.00    -0.367 C  
BRANCH  15  16
HETATM   16  N   UNL     1     -10.894  11.132  66.520  1.00  0.00    -0.269 NA 
HETATM   17  H   UNL     1     -11.581  10.677  67.121  1.00  0.00     0.000 HD 
BRANCH  16  18
HETATM   18  C   UNL     1     -10.321  10.205  65.548  1.00  0.00    -0.126 C  
BRANCH  18  19
HETATM   19  C   UNL     1      -9.641   9.048  66.268  1.00  0.00    -0.327 C  
BRANCH  19  20
HETATM   20  C   UNL     1     -10.409   8.694  67.539  1.00  0.00    -0.336 C  
BRANCH  20  21
HETATM   21  C   UNL     1     -10.769   7.215  67.555  1.00  0.00    -0.344 C  
BRANCH  21  22
HETATM   22  C   UNL     1      -9.523   6.338  67.578  1.00  0.00    -0.115 C  
BRANCH  22  23
HETATM   23  C   UNL     1      -9.597   5.346  68.729  1.00  0.00    -0.137 C  
BRANCH  23  24
HETATM   24  O   UNL     1      -8.413   5.473  69.507  1.00  0.00    -0.103 OA 
BRANCH  24  25
HETATM   25  C   UNL     1      -8.703   5.449  70.903  1.00  0.00    -0.134 C  
BRANCH  25  26
HETATM   26  C   UNL     1      -7.934   6.574  71.583  1.00  0.00    -0.104 C  
BRANCH  26  27
HETATM   27  C   UNL     1      -8.869   7.721  71.971  1.00  0.00    -0.169 C  
BRANCH  27  28
HETATM   28  C   UNL     1     -10.329   7.276  72.022  1.00  0.00    -0.217 C  
BRANCH  28  29
HETATM   29  C   UNL     1     -11.235   8.447  71.725  1.00  0.00    -0.360 A  
HETATM   30  C   UNL     1     -12.512   8.516  72.291  1.00  0.00    -0.448 A  
HETATM   31  C   UNL     1     -13.377   9.557  71.953  1.00  0.00    -0.518 A  
HETATM   32  C   UNL     1     -12.973  10.534  71.045  1.00  0.00    -0.475 A  
HETATM   33  C   UNL     1     -11.700  10.476  70.479  1.00  0.00    -0.443 A  
HETATM   34  C   UNL     1     -10.833   9.436  70.816  1.00  0.00    -0.372 A  
ENDBRANCH  28  29
ENDBRANCH  27  28
ENDBRANCH  26  27
ENDBRANCH  25  26
ENDBRANCH  24  25
ENDBRANCH  23  24
ENDBRANCH  22  23
ENDBRANCH  21  22
ENDBRANCH  20  21
ENDBRANCH  19  20
ENDBRANCH  18  19
ENDBRANCH  16  18
ENDBRANCH  15  16
ENDBRANCH  12  15
ENDBRANCH  10  12
ENDBRANCH   2   4
TORSDOF 16
ENDMDL
MODEL      242
REMARK 921   NORMALIZED FREE ENERGY PREDICTED BY IDOCK:   -4.38 KCAL/MOL
REMARK 922        TOTAL FREE ENERGY PREDICTED BY IDOCK:  -10.82 KCAL/MOL
REMARK 923 INTER-LIGAND FREE ENERGY PREDICTED BY IDOCK:   -8.76 KCAL/MOL
REMARK 924 INTRA-LIGAND FREE ENERGY PREDICTED BY IDOCK:   -2.06 KCAL/MOL
REMARK 927      BINDING AFFINITY PREDICTED BY RF-SCORE:    0.00 PKD
ROOT
HETATM    1  O   UNL     1      -5.627  20.103  68.685  1.00  0.00    -0.221 OA 
HETATM    2  C   UNL     1      -5.956  19.035  67.795  1.00  0.00    -0.200 C  
HETATM    3  H   UNL     1      -4.685  20.216  68.729  1.00  0.00     0.000 HD 
ENDROOT
BRANCH   2   4
HETATM    4  C   UNL     1      -7.450  18.857  67.725  1.00  0.00    -0.260 A  
HETATM    5  C   UNL     1      -8.320  19.889  67.357  1.00  0.00    -0.322 A  
HETATM    6  O   UNL     1      -7.869  21.154  67.099  1.00  0.00    -0.637 OA 
HETATM    7  C   UNL     1      -9.692  19.684  67.266  1.00  0.00    -0.474 A  
HETATM    8  C   UNL     1     -10.226  18.434  67.567  1.00  0.00    -0.393 A  
HETATM    9  H   UNL     1      -8.460  21.855  66.850  1.00  0.00     0.000 HD 
HETATM   10  C   UNL     1      -9.390  17.371  67.944  1.00  0.00    -0.267 A  
HETATM   11  C   UNL     1      -8.002  17.591  67.996  1.00  0.00    -0.234 A  
BRANCH  10  12
HETATM   12  C   UNL     1      -9.954  16.014  68.320  1.00  0.00    -0.220 C  
HETATM   13  O   UNL     1      -9.182  15.435  69.384  1.00  0.00    -0.255 OA 
HETATM   14  H   UNL     1      -9.535  14.585  69.620  1.00  0.00     0.000 HD 
BRANCH  12  15
HETATM   15  C   UNL     1     -11.431  16.099  68.763  1.00  0.00    -0.340 C  
BRANCH  15  16
HETATM   16  N   UNL     1     -12.121  14.813  68.565  1.00  0.00    -0.578 NA 
HETATM   17  H   UNL     1     -11.645  14.226  67.880  1.00  0.00     0.000 HD 
BRANCH  16  18
HETATM   18  C   UNL     1     -12.289  14.133  69.845  1.00  0.00    -0.327 C  
BRANCH  18  19
HETATM   19  C   UNL     1     -11.715  12.724  69.766  1.00  0.00    -0.352 C  
BRANCH  19  20
HETATM   20  C   UNL     1     -12.276  11.862  70.896  1.00  0.00    -0.351 C  
BRANCH  20  21
HETATM   21  C   UNL     1     -12.553  10.448  70.406  1.00  0.00    -0.329 C  
BRANCH  21  22
HETATM   22  C   UNL     1     -13.411   9.673  71.400  1.00  0.00    -0.444 C  
BRANCH  22  23
HETATM   23  C   UNL     1     -12.540   8.761  72.250  1.00  0.00    -0.394 C  
BRANCH  23  24
HETATM   24  O   UNL     1     -12.187   7.624  71.472  1.00  0.00    -0.301 OA 
BRANCH  24  25
HETATM   25  C   UNL     1     -10.850   7.205  71.739  1.00  0.00    -0.225 C  
BRANCH  25  26
HETATM   26  C   UNL     1     -10.039   8.412  72.194  1.00  0.00    -0.376 C  
BRANCH  26  27
HETATM   27  C   UNL     1      -8.860   8.666  71.254  1.00  0.00    -0.263 C  
BRANCH  27  28
HETATM   28  C   UNL     1      -9.106   8.092  69.860  1.00  0.00    -0.151 C  
BRANCH  28  29
HETATM   29  C   UNL     1      -8.859   9.155  68.816  1.00  0.00    -0.132 A  
HETATM   30  C   UNL     1      -8.625   8.797  67.483  1.00  0.00    -0.127 A  
HETATM   31  C   UNL     1      -8.317   9.774  66.536  1.00  0.00    -0.124 A  
HETATM   32  C   UNL     1      -8.237  11.112  66.913  1.00  0.00    -0.149 A  
HETATM   33  C   UNL     1      -8.471  11.479  68.238  1.00  0.00    -0.159 A  
HETATM   34  C   UNL     1      -8.780  10.504  69.187  1.00  0.00    -0.155 A  
ENDBRANCH  28  29
ENDBRANCH  27  28
ENDBRANCH  26  27
ENDBRANCH  25  26
ENDBRANCH  24  25
ENDBRANCH  23  24
ENDBRANCH  22  23
ENDBRANCH  21  22
ENDBRANCH  20  21
ENDBRANCH  19  20
ENDBRANCH  18  19
ENDBRANCH  16  18
ENDBRANCH  15  16
ENDBRANCH  12  15
ENDBRANCH  10  12
ENDBRANCH   2   4
TORSDOF 16
ENDMDL
MODEL      243
REMARK 921   NORMALIZED FREE ENERGY PREDICTED BY IDOCK:   -4.38 KCAL/MOL
REMARK 922        TOTAL FREE ENERGY PREDICTED BY IDOCK:  -10.82 KCAL/MOL
REMARK 923 INTER-LIGAND FREE ENERGY PREDICTED BY IDOCK:   -8.69 KCAL/MOL
REMARK 924 INTRA-LIGAND FREE ENERGY PREDICTED BY IDOCK:   -2.13 KCAL/MOL
REMARK 927      BINDING AFFINITY PREDICTED BY RF-SCORE:    0.00 PKD
ROOT
HETATM    1  O   UNL     1      -9.683   5.620  65.638  1.00  0.00    -0.364 OA 
HETATM    2  C   UNL     1     -10.710   5.378  66.601  1.00  0.00    -0.236 C  
HETATM    3  H   UNL     1      -9.707   4.957  64.958  1.00  0.00     0.000 HD 
ENDROOT
BRANCH   2   4
HETATM    4  C   UNL     1     -10.671   6.429  67.679  1.00  0.00    -0.387 A  
HETATM    5  C   UNL     1     -10.521   7.793  67.402  1.00  0.00    -0.292 A  
HETATM    6  O   UNL     1     -10.332   8.253  66.129  1.00  0.00    -0.393 OA 
HETATM    7  C   UNL     1     -10.526   8.744  68.416  1.00  0.00    -0.220 A  
HETATM    8  C   UNL     1     -10.660   8.341  69.742  1.00  0.00    -0.228 A  
HETATM    9  H   UNL     1     -10.230   9.179  65.941  1.00  0.00     0.000 HD 
HETATM   10  C   UNL     1     -10.809   6.983  70.065  1.00  0.00    -0.290 A  
HETATM   11  C   UNL     1     -10.837   6.041  69.021  1.00  0.00    -0.412 A  
BRANCH  10  12
HETATM   12  C   UNL     1     -10.911   6.517  71.505  1.00  0.00    -0.246 C  
HETATM   13  O   UNL     1      -9.599   6.303  72.049  1.00  0.00    -0.153 OA 
HETATM   14  H   UNL     1      -9.663   6.012  72.951  1.00  0.00     0.000 HD 
BRANCH  12  15
HETATM   15  C   UNL     1     -11.661   7.532  72.395  1.00  0.00    -0.290 C  
BRANCH  15  16
HETATM   16  N   UNL     1     -13.087   7.604  72.034  1.00  0.00    -0.490 NA 
HETATM   17  H   UNL     1     -13.628   6.854  72.464  1.00  0.00     0.000 HD 
BRANCH  16  18
HETATM   18  C   UNL     1     -13.621   8.922  72.364  1.00  0.00    -0.447 C  
BRANCH  18  19
HETATM   19  C   UNL     1     -12.632  10.004  71.951  1.00  0.00    -0.454 C  
BRANCH  19  20
HETATM   20  C   UNL     1     -13.115  10.703  70.682  1.00  0.00    -0.242 C  
BRANCH  20  21
HETATM   21  C   UNL     1     -12.152  11.811  70.279  1.00  0.00    -0.426 C  
BRANCH  21  22
HETATM   22  C   UNL     1     -12.660  13.178  70.720  1.00  0.00    -0.338 C  
BRANCH  22  23
HETATM   23  C   UNL     1     -11.539  14.204  70.655  1.00  0.00    -0.105 C  
BRANCH  23  24
HETATM   24  O   UNL     1     -11.184  14.395  69.291  1.00  0.00    -0.255 OA 
BRANCH  24  25
HETATM   25  C   UNL     1      -9.778  14.574  69.140  1.00  0.00    -0.055 C  
BRANCH  25  26
HETATM   26  C   UNL     1      -9.456  14.697  67.656  1.00  0.00    -0.205 C  
BRANCH  26  27
HETATM   27  C   UNL     1      -8.724  13.453  67.148  1.00  0.00    -0.220 C  
BRANCH  27  28
HETATM   28  C   UNL     1      -9.650  12.242  67.058  1.00  0.00    -0.208 C  
BRANCH  28  29
HETATM   29  C   UNL     1      -9.700  11.737  65.636  1.00  0.00    -0.256 A  
HETATM   30  C   UNL     1     -10.792  12.036  64.815  1.00  0.00    -0.354 A  
HETATM   31  C   UNL     1     -10.874  11.502  63.529  1.00  0.00    -0.473 A  
HETATM   32  C   UNL     1      -9.867  10.663  63.056  1.00  0.00    -0.318 A  
HETATM   33  C   UNL     1      -8.773  10.362  63.865  1.00  0.00    -0.202 A  
HETATM   34  C   UNL     1      -8.688  10.895  65.151  1.00  0.00    -0.130 A  
ENDBRANCH  28  29
ENDBRANCH  27  28
ENDBRANCH  26  27
ENDBRANCH  25  26
ENDBRANCH  24  25
ENDBRANCH  23  24
ENDBRANCH  22  23
ENDBRANCH  21  22
ENDBRANCH  20  21
ENDBRANCH  19  20
ENDBRANCH  18  19
ENDBRANCH  16  18
ENDBRANCH  15  16
ENDBRANCH  12  15
ENDBRANCH  10  12
ENDBRANCH   2   4
TORSDOF 16
ENDMDL
MODEL      244
REMARK 921   NORMALIZED FREE ENERGY PREDICTED BY IDOCK:   -4.37 KCAL/MOL
REMARK 922        TOTAL FREE ENERGY PREDICTED BY IDOCK:  -10.79 KCAL/MOL
REMARK 923 INTER-LIGAND FREE ENERGY PREDICTED BY IDOCK:   -9.40 KCAL/MOL
REMARK 924 INTRA-LIGAND FREE ENERGY PREDICTED BY IDOCK:   -1.40 KCAL/MOL
REMARK 927      BINDING AFFINITY PREDICTED BY RF-SCORE:    0.00 PKD
ROOT
HETATM    1  O   UNL     1      -9.534  16.550  67.200  1.00  0.00    -0.233 OA 
HETATM    2  C   UNL     1      -9.717  16.517  65.784  1.00  0.00    -0.202 C  
HETATM    3  H   UNL     1      -9.036  17.320  67.449  1.00  0.00     0.000 HD 
ENDROOT
BRANCH   2   4
HETATM    4  C   UNL     1     -10.506  15.296  65.390  1.00  0.00    -0.422 A  
HETATM    5  C   UNL     1     -11.457  15.307  64.362  1.00  0.00    -0.239 A  
HETATM    6  O   UNL     1     -11.777  16.454  63.690  1.00  0.00    -1.520 OA 
HETATM    7  C   UNL     1     -12.142  14.155  63.996  1.00  0.00    -0.382 A  
HETATM    8  C   UNL     1     -11.904  12.962  64.674  1.00  0.00    -0.422 A  
HETATM    9  H   UNL     1     -12.423  16.462  62.993  1.00  0.00     0.000 HD 
HETATM   10  C   UNL     1     -10.963  12.908  65.714  1.00  0.00    -0.303 A  
HETATM   11  C   UNL     1     -10.254  14.077  66.044  1.00  0.00    -0.313 A  
BRANCH  10  12
HETATM   12  C   UNL     1     -10.720  11.631  66.497  1.00  0.00    -0.272 C  
HETATM   13  O   UNL     1      -9.578  10.937  65.970  1.00  0.00    -0.193 OA 
HETATM   14  H   UNL     1      -9.426  10.137  66.460  1.00  0.00     0.000 HD 
BRANCH  12  15
HETATM   15  C   UNL     1     -10.492  11.902  67.999  1.00  0.00    -0.208 C  
BRANCH  15  16
HETATM   16  N   UNL     1     -11.768  12.114  68.702  1.00  0.00    -0.315 NA 
HETATM   17  H   UNL     1     -12.567  11.830  68.136  1.00  0.00     0.000 HD 
BRANCH  16  18
HETATM   18  C   UNL     1     -11.746  11.437  69.995  1.00  0.00    -0.334 C  
BRANCH  18  19
HETATM   19  C   UNL     1     -12.706  12.122  70.959  1.00  0.00    -0.322 C  
BRANCH  19  20
HETATM   20  C   UNL     1     -13.279  11.105  71.944  1.00  0.00    -0.488 C  
BRANCH  20  21
HETATM   21  C   UNL     1     -13.012   9.685  71.466  1.00  0.00    -0.486 C  
BRANCH  21  22
HETATM   22  C   UNL     1     -12.808   8.732  72.637  1.00  0.00    -0.294 C  
BRANCH  22  23
HETATM   23  C   UNL     1     -11.521   7.941  72.457  1.00  0.00    -0.398 C  
BRANCH  23  24
HETATM   24  O   UNL     1     -11.860   6.603  72.116  1.00  0.00    -0.299 OA 
BRANCH  24  25
HETATM   25  C   UNL     1     -10.718   5.751  72.154  1.00  0.00    -0.231 C  
BRANCH  25  26
HETATM   26  C   UNL     1      -9.808   6.098  70.983  1.00  0.00    -0.213 C  
BRANCH  26  27
HETATM   27  C   UNL     1     -10.413   5.627  69.659  1.00  0.00    -0.374 C  
BRANCH  27  28
HETATM   28  C   UNL     1     -10.633   6.785  68.688  1.00  0.00    -0.263 C  
BRANCH  28  29
HETATM   29  C   UNL     1      -9.359   7.583  68.543  1.00  0.00    -0.142 A  
HETATM   30  C   UNL     1      -9.126   8.701  69.351  1.00  0.00    -0.149 A  
HETATM   31  C   UNL     1      -7.987   9.483  69.161  1.00  0.00    -0.094 A  
HETATM   32  C   UNL     1      -7.075   9.156  68.160  1.00  0.00    -0.078 A  
HETATM   33  C   UNL     1      -7.296   8.042  67.351  1.00  0.00    -0.089 A  
HETATM   34  C   UNL     1      -8.434   7.258  67.540  1.00  0.00    -0.119 A  
ENDBRANCH  28  29
ENDBRANCH  27  28
ENDBRANCH  26  27
ENDBRANCH  25  26
ENDBRANCH  24  25
ENDBRANCH  23  24
ENDBRANCH  22  23
ENDBRANCH  21  22
ENDBRANCH  20  21
ENDBRANCH  19  20
ENDBRANCH  18  19
ENDBRANCH  16  18
ENDBRANCH  15  16
ENDBRANCH  12  15
ENDBRANCH  10  12
ENDBRANCH   2   4
TORSDOF 16
ENDMDL
MODEL      245
REMARK 921   NORMALIZED FREE ENERGY PREDICTED BY IDOCK:   -4.36 KCAL/MOL
REMARK 922        TOTAL FREE ENERGY PREDICTED BY IDOCK:  -10.79 KCAL/MOL
REMARK 923 INTER-LIGAND FREE ENERGY PREDICTED BY IDOCK:   -8.35 KCAL/MOL
REMARK 924 INTRA-LIGAND FREE ENERGY PREDICTED BY IDOCK:   -2.45 KCAL/MOL
REMARK 927      BINDING AFFINITY PREDICTED BY RF-SCORE:    0.00 PKD
ROOT
HETATM    1  O   UNL     1     -12.721   6.676  72.283  1.00  0.00    -0.547 OA 
HETATM    2  C   UNL     1     -11.860   6.563  71.149  1.00  0.00    -0.325 C  
HETATM    3  H   UNL     1     -12.985   5.814  72.582  1.00  0.00     0.000 HD 
ENDROOT
BRANCH   2   4
HETATM    4  C   UNL     1     -11.442   7.930  70.675  1.00  0.00    -0.247 A  
HETATM    5  C   UNL     1     -12.284   9.046  70.743  1.00  0.00    -0.076 A  
HETATM    6  O   UNL     1     -13.573   8.950  71.190  1.00  0.00    -0.543 OA 
HETATM    7  C   UNL     1     -11.858  10.304  70.331  1.00  0.00    -0.396 A  
HETATM    8  C   UNL     1     -10.574  10.464  69.815  1.00  0.00    -0.302 A  
HETATM    9  H   UNL     1     -14.145   9.707  71.236  1.00  0.00     0.000 HD 
HETATM   10  C   UNL     1      -9.698   9.371  69.725  1.00  0.00    -0.215 A  
HETATM   11  C   UNL     1     -10.138   8.116  70.180  1.00  0.00    -0.194 A  
BRANCH  10  12
HETATM   12  C   UNL     1      -8.312   9.514  69.124  1.00  0.00    -0.125 C  
HETATM   13  O   UNL     1      -8.224   8.764  67.902  1.00  0.00    -0.110 OA 
HETATM   14  H   UNL     1      -7.356   8.854  67.526  1.00  0.00     0.000 HD 
BRANCH  12  15
HETATM   15  C   UNL     1      -7.951  10.987  68.835  1.00  0.00    -0.138 C  
BRANCH  15  16
HETATM   16  N   UNL     1      -7.140  11.560  69.922  1.00  0.00    -0.372 NA 
HETATM   17  H   UNL     1      -7.063  10.924  70.716  1.00  0.00     0.000 HD 
BRANCH  16  18
HETATM   18  C   UNL     1      -5.832  11.960  69.413  1.00  0.00    -0.076 C  
BRANCH  18  19
HETATM   19  C   UNL     1      -5.458  13.333  69.958  1.00  0.00    -0.107 C  
BRANCH  19  20
HETATM   20  C   UNL     1      -5.740  14.409  68.912  1.00  0.00    -0.082 C  
BRANCH  20  21
HETATM   21  C   UNL     1      -6.300  15.662  69.568  1.00  0.00    -0.166 C  
BRANCH  21  22
HETATM   22  C   UNL     1      -7.688  15.997  69.036  1.00  0.00    -0.216 C  
BRANCH  22  23
HETATM   23  C   UNL     1      -8.151  14.928  68.059  1.00  0.00    -0.136 C  
BRANCH  23  24
HETATM   24  O   UNL     1      -9.380  14.389  68.531  1.00  0.00    -0.198 OA 
BRANCH  24  25
HETATM   25  C   UNL     1     -10.390  15.392  68.615  1.00  0.00    -0.234 C  
BRANCH  25  26
HETATM   26  C   UNL     1     -11.731  14.716  68.869  1.00  0.00    -0.343 C  
BRANCH  26  27
HETATM   27  C   UNL     1     -11.833  13.394  68.107  1.00  0.00    -0.396 C  
BRANCH  27  28
HETATM   28  C   UNL     1     -12.211  13.608  66.642  1.00  0.00    -0.437 C  
BRANCH  28  29
HETATM   29  C   UNL     1     -11.428  12.659  65.766  1.00  0.00    -0.399 A  
HETATM   30  C   UNL     1     -11.516  12.747  64.372  1.00  0.00    -0.404 A  
HETATM   31  C   UNL     1     -10.856  11.820  63.565  1.00  0.00    -0.496 A  
HETATM   32  C   UNL     1     -10.107  10.798  64.145  1.00  0.00    -0.418 A  
HETATM   33  C   UNL     1     -10.011  10.704  65.533  1.00  0.00    -0.333 A  
HETATM   34  C   UNL     1     -10.669  11.631  66.342  1.00  0.00    -0.316 A  
ENDBRANCH  28  29
ENDBRANCH  27  28
ENDBRANCH  26  27
ENDBRANCH  25  26
ENDBRANCH  24  25
ENDBRANCH  23  24
ENDBRANCH  22  23
ENDBRANCH  21  22
ENDBRANCH  20  21
ENDBRANCH  19  20
ENDBRANCH  18  19
ENDBRANCH  16  18
ENDBRANCH  15  16
ENDBRANCH  12  15
ENDBRANCH  10  12
ENDBRANCH   2   4
TORSDOF 16
ENDMDL
MODEL      246
REMARK 921   NORMALIZED FREE ENERGY PREDICTED BY IDOCK:   -4.35 KCAL/MOL
REMARK 922        TOTAL FREE ENERGY PREDICTED BY IDOCK:  -10.77 KCAL/MOL
REMARK 923 INTER-LIGAND FREE ENERGY PREDICTED BY IDOCK:   -9.56 KCAL/MOL
REMARK 924 INTRA-LIGAND FREE ENERGY PREDICTED BY IDOCK:   -1.21 KCAL/MOL
REMARK 927      BINDING AFFINITY PREDICTED BY RF-SCORE:    0.00 PKD
ROOT
HETATM    1  O   UNL     1      -9.795  20.617  67.614  1.00  0.00    -0.413 OA 
HETATM    2  C   UNL     1     -10.088  20.010  66.355  1.00  0.00    -0.487 C  
HETATM    3  H   UNL     1     -10.149  21.499  67.643  1.00  0.00     0.000 HD 
ENDROOT
BRANCH   2   4
HETATM    4  C   UNL     1      -9.527  18.613  66.308  1.00  0.00    -0.267 A  
HETATM    5  C   UNL     1      -8.178  18.329  66.552  1.00  0.00    -0.268 A  
HETATM    6  O   UNL     1      -7.264  19.319  66.787  1.00  0.00    -0.205 OA 
HETATM    7  C   UNL     1      -7.696  17.025  66.538  1.00  0.00    -0.327 A  
HETATM    8  C   UNL     1      -8.561  15.971  66.253  1.00  0.00    -0.363 A  
HETATM    9  H   UNL     1      -6.349  19.127  66.952  1.00  0.00     0.000 HD 
HETATM   10  C   UNL     1      -9.920  16.211  65.997  1.00  0.00    -0.373 A  
HETATM   11  C   UNL     1     -10.393  17.535  66.052  1.00  0.00    -0.309 A  
BRANCH  10  12
HETATM   12  C   UNL     1     -10.870  15.084  65.640  1.00  0.00    -0.349 C  
HETATM   13  O   UNL     1     -10.375  14.363  64.500  1.00  0.00    -0.538 OA 
HETATM   14  H   UNL     1     -10.970  13.657  64.276  1.00  0.00     0.000 HD 
BRANCH  12  15
HETATM   15  C   UNL     1     -11.069  14.095  66.809  1.00  0.00    -0.310 C  
BRANCH  15  16
HETATM   16  N   UNL     1     -10.723  14.718  68.097  1.00  0.00    -0.243 NA 
HETATM   17  H   UNL     1     -10.159  15.559  67.976  1.00  0.00     0.000 HD 
BRANCH  16  18
HETATM   18  C   UNL     1     -11.934  14.978  68.869  1.00  0.00    -0.254 C  
BRANCH  18  19
HETATM   19  C   UNL     1     -11.580  15.679  70.175  1.00  0.00    -0.366 C  
BRANCH  19  20
HETATM   20  C   UNL     1     -12.770  15.643  71.131  1.00  0.00    -0.525 C  
BRANCH  20  21
HETATM   21  C   UNL     1     -12.534  14.633  72.245  1.00  0.00    -0.387 C  
BRANCH  21  22
HETATM   22  C   UNL     1     -13.592  13.537  72.236  1.00  0.00    -0.690 C  
BRANCH  22  23
HETATM   23  C   UNL     1     -13.021  12.256  71.646  1.00  0.00    -0.311 C  
BRANCH  23  24
HETATM   24  O   UNL     1     -13.600  11.150  72.327  1.00  0.00    -0.244 OA 
BRANCH  24  25
HETATM   25  C   UNL     1     -13.159   9.911  71.778  1.00  0.00    -0.452 C  
BRANCH  25  26
HETATM   26  C   UNL     1     -11.941  10.170  70.900  1.00  0.00    -0.461 C  
BRANCH  26  27
HETATM   27  C   UNL     1     -11.165   8.877  70.644  1.00  0.00    -0.308 C  
BRANCH  27  28
HETATM   28  C   UNL     1      -9.682   9.025  70.979  1.00  0.00    -0.348 C  
BRANCH  28  29
HETATM   29  C   UNL     1      -8.872   9.099  69.706  1.00  0.00    -0.165 A  
HETATM   30  C   UNL     1      -8.667   7.954  68.929  1.00  0.00    -0.135 A  
HETATM   31  C   UNL     1      -7.853   8.007  67.798  1.00  0.00    -0.126 A  
HETATM   32  C   UNL     1      -7.236   9.203  67.437  1.00  0.00    -0.080 A  
HETATM   33  C   UNL     1      -7.436  10.350  68.203  1.00  0.00    -0.090 A  
HETATM   34  C   UNL     1      -8.251  10.300  69.335  1.00  0.00    -0.171 A  
ENDBRANCH  28  29
ENDBRANCH  27  28
ENDBRANCH  26  27
ENDBRANCH  25  26
ENDBRANCH  24  25
ENDBRANCH  23  24
ENDBRANCH  22  23
ENDBRANCH  21  22
ENDBRANCH  20  21
ENDBRANCH  19  20
ENDBRANCH  18  19
ENDBRANCH  16  18
ENDBRANCH  15  16
ENDBRANCH  12  15
ENDBRANCH  10  12
ENDBRANCH   2   4
TORSDOF 16
ENDMDL
MODEL      247
REMARK 921   NORMALIZED FREE ENERGY PREDICTED BY IDOCK:   -4.35 KCAL/MOL
REMARK 922        TOTAL FREE ENERGY PREDICTED BY IDOCK:  -10.77 KCAL/MOL
REMARK 923 INTER-LIGAND FREE ENERGY PREDICTED BY IDOCK:   -8.17 KCAL/MOL
REMARK 924 INTRA-LIGAND FREE ENERGY PREDICTED BY IDOCK:   -2.60 KCAL/MOL
REMARK 927      BINDING AFFINITY PREDICTED BY RF-SCORE:    0.00 PKD
ROOT
HETATM    1  O   UNL     1     -12.416  13.498  63.939  1.00  0.00    -0.670 OA 
HETATM    2  C   UNL     1     -11.103  13.898  64.335  1.00  0.00    -0.319 C  
HETATM    3  H   UNL     1     -12.385  13.055  63.100  1.00  0.00     0.000 HD 
ENDROOT
BRANCH   2   4
HETATM    4  C   UNL     1     -11.152  14.601  65.666  1.00  0.00    -0.338 A  
HETATM    5  C   UNL     1     -11.730  14.029  66.805  1.00  0.00    -0.407 A  
HETATM    6  O   UNL     1     -12.349  12.811  66.764  1.00  0.00    -0.431 OA 
HETATM    7  C   UNL     1     -11.727  14.687  68.030  1.00  0.00    -0.371 A  
HETATM    8  C   UNL     1     -11.160  15.955  68.132  1.00  0.00    -0.338 A  
HETATM    9  H   UNL     1     -12.742  12.422  67.537  1.00  0.00     0.000 HD 
HETATM   10  C   UNL     1     -10.573  16.568  67.013  1.00  0.00    -0.255 A  
HETATM   11  C   UNL     1     -10.555  15.869  65.794  1.00  0.00    -0.368 A  
BRANCH  10  12
HETATM   12  C   UNL     1      -9.991  17.967  67.091  1.00  0.00    -0.327 C  
HETATM   13  O   UNL     1     -11.036  18.925  67.318  1.00  0.00    -0.436 OA 
HETATM   14  H   UNL     1     -10.671  19.802  67.367  1.00  0.00     0.000 HD 
BRANCH  12  15
HETATM   15  C   UNL     1      -8.938  18.099  68.213  1.00  0.00    -0.296 C  
BRANCH  15  16
HETATM   16  N   UNL     1      -7.704  17.371  67.874  1.00  0.00    -0.195 NA 
HETATM   17  H   UNL     1      -7.016  17.975  67.424  1.00  0.00     0.000 HD 
BRANCH  16  18
HETATM   18  C   UNL     1      -7.165  16.719  69.063  1.00  0.00    -0.225 C  
BRANCH  18  19
HETATM   19  C   UNL     1      -6.648  15.330  68.708  1.00  0.00    -0.102 C  
BRANCH  19  20
HETATM   20  C   UNL     1      -7.799  14.326  68.700  1.00  0.00    -0.140 C  
BRANCH  20  21
HETATM   21  C   UNL     1      -7.844  13.571  67.379  1.00  0.00    -0.157 C  
BRANCH  21  22
HETATM   22  C   UNL     1      -8.446  12.182  67.553  1.00  0.00    -0.169 C  
BRANCH  22  23
HETATM   23  C   UNL     1      -8.804  11.589  66.199  1.00  0.00    -0.167 C  
BRANCH  23  24
HETATM   24  O   UNL     1      -7.941  10.486  65.950  1.00  0.00    -0.146 OA 
BRANCH  24  25
HETATM   25  C   UNL     1      -8.673   9.269  65.823  1.00  0.00    -0.156 C  
BRANCH  25  26
HETATM   26  C   UNL     1      -8.614   8.521  67.148  1.00  0.00    -0.123 C  
BRANCH  26  27
HETATM   27  C   UNL     1     -10.006   8.388  67.766  1.00  0.00    -0.236 C  
BRANCH  27  28
HETATM   28  C   UNL     1     -10.859   7.352  67.035  1.00  0.00    -0.307 C  
BRANCH  28  29
HETATM   29  C   UNL     1     -10.404   5.960  67.403  1.00  0.00    -0.274 A  
HETATM   30  C   UNL     1     -10.229   5.603  68.744  1.00  0.00    -0.269 A  
HETATM   31  C   UNL     1      -9.732   4.343  69.078  1.00  0.00    -0.223 A  
HETATM   32  C   UNL     1      -9.403   3.433  68.076  1.00  0.00    -0.241 A  
HETATM   33  C   UNL     1      -9.576   3.779  66.736  1.00  0.00    -0.205 A  
HETATM   34  C   UNL     1     -10.074   5.038  66.399  1.00  0.00    -0.278 A  
ENDBRANCH  28  29
ENDBRANCH  27  28
ENDBRANCH  26  27
ENDBRANCH  25  26
ENDBRANCH  24  25
ENDBRANCH  23  24
ENDBRANCH  22  23
ENDBRANCH  21  22
ENDBRANCH  20  21
ENDBRANCH  19  20
ENDBRANCH  18  19
ENDBRANCH  16  18
ENDBRANCH  15  16
ENDBRANCH  12  15
ENDBRANCH  10  12
ENDBRANCH   2   4
TORSDOF 16
ENDMDL
MODEL      248
REMARK 921   NORMALIZED FREE ENERGY PREDICTED BY IDOCK:   -4.35 KCAL/MOL
REMARK 922        TOTAL FREE ENERGY PREDICTED BY IDOCK:  -10.77 KCAL/MOL
REMARK 923 INTER-LIGAND FREE ENERGY PREDICTED BY IDOCK:   -9.27 KCAL/MOL
REMARK 924 INTRA-LIGAND FREE ENERGY PREDICTED BY IDOCK:   -1.50 KCAL/MOL
REMARK 927      BINDING AFFINITY PREDICTED BY RF-SCORE:    0.00 PKD
ROOT
HETATM    1  O   UNL     1     -13.162   8.433  72.625  1.00  0.00    -0.599 OA 
HETATM    2  C   UNL     1     -12.278   9.287  71.898  1.00  0.00    -0.378 C  
HETATM    3  H   UNL     1     -13.902   8.931  72.954  1.00  0.00     0.000 HD 
ENDROOT
BRANCH   2   4
HETATM    4  C   UNL     1     -11.105   8.498  71.376  1.00  0.00    -0.328 A  
HETATM    5  C   UNL     1     -11.251   7.399  70.522  1.00  0.00    -0.274 A  
HETATM    6  O   UNL     1     -12.481   6.929  70.156  1.00  0.00    -0.602 OA 
HETATM    7  C   UNL     1     -10.147   6.713  70.027  1.00  0.00    -0.199 A  
HETATM    8  C   UNL     1      -8.864   7.104  70.401  1.00  0.00    -0.151 A  
HETATM    9  H   UNL     1     -12.581   6.182  69.576  1.00  0.00     0.000 HD 
HETATM   10  C   UNL     1      -8.673   8.199  71.260  1.00  0.00    -0.173 A  
HETATM   11  C   UNL     1      -9.802   8.900  71.720  1.00  0.00    -0.386 A  
BRANCH  10  12
HETATM   12  C   UNL     1      -7.287   8.614  71.717  1.00  0.00    -0.080 C  
HETATM   13  O   UNL     1      -6.487   7.452  71.987  1.00  0.00    -0.043 OA 
HETATM   14  H   UNL     1      -5.619   7.712  72.272  1.00  0.00     0.000 HD 
BRANCH  12  15
HETATM   15  C   UNL     1      -6.564   9.487  70.668  1.00  0.00    -0.103 C  
BRANCH  15  16
HETATM   16  N   UNL     1      -7.444  10.555  70.167  1.00  0.00    -0.431 NA 
HETATM   17  H   UNL     1      -7.183  11.469  70.535  1.00  0.00     0.000 HD 
BRANCH  16  18
HETATM   18  C   UNL     1      -7.468  10.541  68.708  1.00  0.00    -0.097 C  
BRANCH  18  19
HETATM   19  C   UNL     1      -8.679  11.312  68.198  1.00  0.00    -0.155 C  
BRANCH  19  20
HETATM   20  C   UNL     1      -8.543  11.576  66.700  1.00  0.00    -0.176 C  
BRANCH  20  21
HETATM   21  C   UNL     1      -9.542  12.631  66.247  1.00  0.00    -0.244 C  
BRANCH  21  22
HETATM   22  C   UNL     1     -10.279  12.195  64.986  1.00  0.00    -0.312 C  
BRANCH  22  23
HETATM   23  C   UNL     1     -11.782  12.294  65.192  1.00  0.00    -0.361 C  
BRANCH  23  24
HETATM   24  O   UNL     1     -12.093  13.617  65.610  1.00  0.00    -0.374 OA 
BRANCH  24  25
HETATM   25  C   UNL     1     -12.256  14.491  64.496  1.00  0.00    -0.465 C  
BRANCH  25  26
HETATM   26  C   UNL     1     -11.259  15.637  64.621  1.00  0.00    -0.380 C  
BRANCH  26  27
HETATM   27  C   UNL     1     -10.895  15.890  66.084  1.00  0.00    -0.208 C  
BRANCH  27  28
HETATM   28  C   UNL     1      -9.431  16.296  66.246  1.00  0.00    -0.347 C  
BRANCH  28  29
HETATM   29  C   UNL     1      -9.340  17.758  66.614  1.00  0.00    -0.296 A  
HETATM   30  C   UNL     1      -8.123  18.440  66.508  1.00  0.00    -0.291 A  
HETATM   31  C   UNL     1      -8.023  19.768  66.924  1.00  0.00    -0.322 A  
HETATM   32  C   UNL     1      -9.135  20.422  67.450  1.00  0.00    -0.484 A  
HETATM   33  C   UNL     1     -10.353  19.751  67.555  1.00  0.00    -0.578 A  
HETATM   34  C   UNL     1     -10.456  18.423  67.140  1.00  0.00    -0.434 A  
ENDBRANCH  28  29
ENDBRANCH  27  28
ENDBRANCH  26  27
ENDBRANCH  25  26
ENDBRANCH  24  25
ENDBRANCH  23  24
ENDBRANCH  22  23
ENDBRANCH  21  22
ENDBRANCH  20  21
ENDBRANCH  19  20
ENDBRANCH  18  19
ENDBRANCH  16  18
ENDBRANCH  15  16
ENDBRANCH  12  15
ENDBRANCH  10  12
ENDBRANCH   2   4
TORSDOF 16
ENDMDL
MODEL      249
REMARK 921   NORMALIZED FREE ENERGY PREDICTED BY IDOCK:   -4.35 KCAL/MOL
REMARK 922        TOTAL FREE ENERGY PREDICTED BY IDOCK:  -10.77 KCAL/MOL
REMARK 923 INTER-LIGAND FREE ENERGY PREDICTED BY IDOCK:   -8.27 KCAL/MOL
REMARK 924 INTRA-LIGAND FREE ENERGY PREDICTED BY IDOCK:   -2.50 KCAL/MOL
REMARK 927      BINDING AFFINITY PREDICTED BY RF-SCORE:    0.00 PKD
ROOT
HETATM    1  O   UNL     1     -11.364  16.639  70.756  1.00  0.00    -0.521 OA 
HETATM    2  C   UNL     1     -11.955  15.714  69.843  1.00  0.00    -0.360 C  
HETATM    3  H   UNL     1     -11.040  17.400  70.289  1.00  0.00     0.000 HD 
ENDROOT
BRANCH   2   4
HETATM    4  C   UNL     1     -12.469  14.507  70.583  1.00  0.00    -0.409 A  
HETATM    5  C   UNL     1     -13.199  14.603  71.774  1.00  0.00    -0.350 A  
HETATM    6  O   UNL     1     -13.437  15.806  72.378  1.00  0.00    -0.477 OA 
HETATM    7  C   UNL     1     -13.693  13.473  72.415  1.00  0.00    -0.704 A  
HETATM    8  C   UNL     1     -13.442  12.210  71.884  1.00  0.00    -0.318 A  
HETATM    9  H   UNL     1     -13.932  15.871  73.186  1.00  0.00     0.000 HD 
HETATM   10  C   UNL     1     -12.711  12.068  70.694  1.00  0.00    -0.163 A  
HETATM   11  C   UNL     1     -12.252  13.227  70.043  1.00  0.00    -0.345 A  
BRANCH  10  12
HETATM   12  C   UNL     1     -12.387  10.701  70.122  1.00  0.00    -0.295 C  
HETATM   13  O   UNL     1     -12.327  10.767  68.688  1.00  0.00    -0.825 OA 
HETATM   14  H   UNL     1     -12.124   9.910  68.330  1.00  0.00     0.000 HD 
BRANCH  12  15
HETATM   15  C   UNL     1     -11.047  10.148  70.654  1.00  0.00    -0.322 C  
BRANCH  15  16
HETATM   16  N   UNL     1     -11.260   9.246  71.798  1.00  0.00    -0.374 NA 
HETATM   17  H   UNL     1     -12.058   8.627  71.653  1.00  0.00     0.000 HD 
BRANCH  16  18
HETATM   18  C   UNL     1     -10.037   8.503  72.084  1.00  0.00    -0.323 C  
BRANCH  18  19
HETATM   19  C   UNL     1      -9.791   7.463  70.999  1.00  0.00    -0.179 C  
BRANCH  19  20
HETATM   20  C   UNL     1     -10.860   6.375  71.060  1.00  0.00    -0.314 C  
BRANCH  20  21
HETATM   21  C   UNL     1     -10.220   4.999  71.182  1.00  0.00    -0.281 C  
BRANCH  21  22
HETATM   22  C   UNL     1      -9.699   4.751  72.592  1.00  0.00    -0.179 C  
BRANCH  22  23
HETATM   23  C   UNL     1      -8.180   4.683  72.590  1.00  0.00    -0.107 C  
BRANCH  23  24
HETATM   24  O   UNL     1      -7.791   3.317  72.513  1.00  0.00    -0.060 OA 
BRANCH  24  25
HETATM   25  C   UNL     1      -6.961   3.074  71.380  1.00  0.00    -0.032 C  
BRANCH  25  26
HETATM   26  C   UNL     1      -6.549   4.411  70.778  1.00  0.00    -0.034 C  
BRANCH  26  27
HETATM   27  C   UNL     1      -6.676   4.389  69.254  1.00  0.00    -0.045 C  
BRANCH  27  28
HETATM   28  C   UNL     1      -6.900   5.786  68.679  1.00  0.00    -0.062 C  
BRANCH  28  29
HETATM   29  C   UNL     1      -8.273   5.871  68.056  1.00  0.00    -0.105 A  
HETATM   30  C   UNL     1      -9.037   4.715  67.864  1.00  0.00    -0.140 A  
HETATM   31  C   UNL     1     -10.270   4.786  67.216  1.00  0.00    -0.157 A  
HETATM   32  C   UNL     1     -10.746   6.010  66.751  1.00  0.00    -0.374 A  
HETATM   33  C   UNL     1      -9.993   7.168  66.940  1.00  0.00    -0.293 A  
HETATM   34  C   UNL     1      -8.760   7.101  67.589  1.00  0.00    -0.121 A  
ENDBRANCH  28  29
ENDBRANCH  27  28
ENDBRANCH  26  27
ENDBRANCH  25  26
ENDBRANCH  24  25
ENDBRANCH  23  24
ENDBRANCH  22  23
ENDBRANCH  21  22
ENDBRANCH  20  21
ENDBRANCH  19  20
ENDBRANCH  18  19
ENDBRANCH  16  18
ENDBRANCH  15  16
ENDBRANCH  12  15
ENDBRANCH  10  12
ENDBRANCH   2   4
TORSDOF 16
ENDMDL
MODEL      250
REMARK 921   NORMALIZED FREE ENERGY PREDICTED BY IDOCK:   -4.35 KCAL/MOL
REMARK 922        TOTAL FREE ENERGY PREDICTED BY IDOCK:  -10.76 KCAL/MOL
REMARK 923 INTER-LIGAND FREE ENERGY PREDICTED BY IDOCK:   -8.12 KCAL/MOL
REMARK 924 INTRA-LIGAND FREE ENERGY PREDICTED BY IDOCK:   -2.64 KCAL/MOL
REMARK 927      BINDING AFFINITY PREDICTED BY RF-SCORE:    0.00 PKD
ROOT
HETATM    1  O   UNL     1     -11.839  11.786  63.080  1.00  0.00    -0.799 OA 
HETATM    2  C   UNL     1     -10.644  12.199  63.743  1.00  0.00    -0.439 C  
HETATM    3  H   UNL     1     -11.731  11.850  62.138  1.00  0.00     0.000 HD 
ENDROOT
BRANCH   2   4
HETATM    4  C   UNL     1     -10.815  12.097  65.236  1.00  0.00    -0.336 A  
HETATM    5  C   UNL     1     -12.018  12.402  65.883  1.00  0.00    -0.367 A  
HETATM    6  O   UNL     1     -13.103  12.877  65.201  1.00  0.00    -0.753 OA 
HETATM    7  C   UNL     1     -12.157  12.263  67.260  1.00  0.00    -0.017 A  
HETATM    8  C   UNL     1     -11.076  11.834  68.025  1.00  0.00    -0.297 A  
HETATM    9  H   UNL     1     -13.920  13.085  65.640  1.00  0.00     0.000 HD 
HETATM   10  C   UNL     1      -9.849  11.522  67.417  1.00  0.00    -0.202 A  
HETATM   11  C   UNL     1      -9.742  11.635  66.019  1.00  0.00    -0.257 A  
BRANCH  10  12
HETATM   12  C   UNL     1      -8.645  11.097  68.236  1.00  0.00    -0.146 C  
HETATM   13  O   UNL     1      -9.043  10.799  69.583  1.00  0.00    -0.399 OA 
HETATM   14  H   UNL     1      -8.289  10.533  70.096  1.00  0.00     0.000 HD 
BRANCH  12  15
HETATM   15  C   UNL     1      -7.939   9.860  67.638  1.00  0.00    -0.109 C  
BRANCH  15  16
HETATM   16  N   UNL     1      -6.507   9.848  67.977  1.00  0.00    -0.056 NA 
HETATM   17  H   UNL     1      -6.258  10.608  68.611  1.00  0.00     0.000 HD 
BRANCH  16  18
HETATM   18  C   UNL     1      -6.130   8.544  68.513  1.00  0.00    -0.046 C  
BRANCH  18  19
HETATM   19  C   UNL     1      -7.360   7.653  68.632  1.00  0.00    -0.091 C  
BRANCH  19  20
HETATM   20  C   UNL     1      -7.550   7.207  70.080  1.00  0.00    -0.091 C  
BRANCH  20  21
HETATM   21  C   UNL     1      -6.386   7.672  70.942  1.00  0.00    -0.038 C  
BRANCH  21  22
HETATM   22  C   UNL     1      -6.854   8.603  72.054  1.00  0.00    -0.082 C  
BRANCH  22  23
HETATM   23  C   UNL     1      -7.921   7.923  72.899  1.00  0.00    -0.136 C  
BRANCH  23  24
HETATM   24  O   UNL     1      -9.140   8.638  72.746  1.00  0.00    -0.327 OA 
BRANCH  24  25
HETATM   25  C   UNL     1     -10.269   7.781  72.894  1.00  0.00    -0.315 C  
BRANCH  25  26
HETATM   26  C   UNL     1     -11.454   8.399  72.162  1.00  0.00    -0.442 C  
BRANCH  26  27
HETATM   27  C   UNL     1     -11.990   7.451  71.088  1.00  0.00    -0.351 C  
BRANCH  27  28
HETATM   28  C   UNL     1     -11.240   6.120  71.075  1.00  0.00    -0.361 C  
BRANCH  28  29
HETATM   29  C   UNL     1     -10.831   5.774  69.663  1.00  0.00    -0.418 A  
HETATM   30  C   UNL     1     -10.128   4.594  69.398  1.00  0.00    -0.194 A  
HETATM   31  C   UNL     1      -9.682   4.315  68.106  1.00  0.00    -0.165 A  
HETATM   32  C   UNL     1      -9.931   5.215  67.071  1.00  0.00    -0.222 A  
HETATM   33  C   UNL     1     -10.634   6.392  67.325  1.00  0.00    -0.382 A  
HETATM   34  C   UNL     1     -11.082   6.673  68.616  1.00  0.00    -0.288 A  
ENDBRANCH  28  29
ENDBRANCH  27  28
ENDBRANCH  26  27
ENDBRANCH  25  26
ENDBRANCH  24  25
ENDBRANCH  23  24
ENDBRANCH  22  23
ENDBRANCH  21  22
ENDBRANCH  20  21
ENDBRANCH  19  20
ENDBRANCH  18  19
ENDBRANCH  16  18
ENDBRANCH  15  16
ENDBRANCH  12  15
ENDBRANCH  10  12
ENDBRANCH   2   4
TORSDOF 16
ENDMDL
MODEL      251
REMARK 921   NORMALIZED FREE ENERGY PREDICTED BY IDOCK:   -4.35 KCAL/MOL
REMARK 922        TOTAL FREE ENERGY PREDICTED BY IDOCK:  -10.76 KCAL/MOL
REMARK 923 INTER-LIGAND FREE ENERGY PREDICTED BY IDOCK:   -9.65 KCAL/MOL
REMARK 924 INTRA-LIGAND FREE ENERGY PREDICTED BY IDOCK:   -1.11 KCAL/MOL
REMARK 927      BINDING AFFINITY PREDICTED BY RF-SCORE:    0.00 PKD
ROOT
HETATM    1  O   UNL     1     -10.354   3.354  72.299  1.00  0.00    -0.142 OA 
HETATM    2  C   UNL     1      -9.367   4.230  72.845  1.00  0.00    -0.115 C  
HETATM    3  H   UNL     1     -10.054   2.453  72.344  1.00  0.00     0.000 HD 
ENDROOT
BRANCH   2   4
HETATM    4  C   UNL     1      -9.841   5.658  72.774  1.00  0.00    -0.183 A  
HETATM    5  C   UNL     1      -9.052   6.740  73.181  1.00  0.00    -0.127 A  
HETATM    6  O   UNL     1      -7.814   6.561  73.734  1.00  0.00    -0.094 OA 
HETATM    7  C   UNL     1      -9.503   8.050  73.069  1.00  0.00    -0.345 A  
HETATM    8  C   UNL     1     -10.776   8.303  72.564  1.00  0.00    -0.411 A  
HETATM    9  H   UNL     1      -7.278   7.295  74.010  1.00  0.00     0.000 HD 
HETATM   10  C   UNL     1     -11.602   7.247  72.148  1.00  0.00    -0.324 A  
HETATM   11  C   UNL     1     -11.112   5.932  72.237  1.00  0.00    -0.330 A  
BRANCH  10  12
HETATM   12  C   UNL     1     -13.009   7.496  71.638  1.00  0.00    -0.358 C  
HETATM   13  O   UNL     1     -13.936   6.617  72.295  1.00  0.00    -0.547 OA 
HETATM   14  H   UNL     1     -14.818   6.774  71.976  1.00  0.00     0.000 HD 
BRANCH  12  15
HETATM   15  C   UNL     1     -13.460   8.955  71.859  1.00  0.00    -0.414 C  
BRANCH  15  16
HETATM   16  N   UNL     1     -13.462   9.710  70.595  1.00  0.00    -0.580 NA 
HETATM   17  H   UNL     1     -14.373  10.124  70.398  1.00  0.00     0.000 HD 
BRANCH  16  18
HETATM   18  C   UNL     1     -12.398  10.710  70.607  1.00  0.00    -0.369 C  
BRANCH  18  19
HETATM   19  C   UNL     1     -11.802  10.855  69.213  1.00  0.00    -0.395 C  
BRANCH  19  20
HETATM   20  C   UNL     1     -10.280  10.751  69.278  1.00  0.00    -0.217 C  
BRANCH  20  21
HETATM   21  C   UNL     1      -9.655  11.187  67.961  1.00  0.00    -0.181 C  
BRANCH  21  22
HETATM   22  C   UNL     1     -10.457  10.680  66.768  1.00  0.00    -0.303 C  
BRANCH  22  23
HETATM   23  C   UNL     1      -9.745  11.022  65.469  1.00  0.00    -0.229 C  
BRANCH  23  24
HETATM   24  O   UNL     1     -10.710  11.063  64.425  1.00  0.00    -0.351 OA 
BRANCH  24  25
HETATM   25  C   UNL     1     -10.557  12.230  63.621  1.00  0.00    -0.462 C  
BRANCH  25  26
HETATM   26  C   UNL     1     -11.829  13.063  63.719  1.00  0.00    -0.566 C  
BRANCH  26  27
HETATM   27  C   UNL     1     -11.677  14.178  64.755  1.00  0.00    -0.416 C  
BRANCH  27  28
HETATM   28  C   UNL     1     -10.254  14.254  65.307  1.00  0.00    -0.408 C  
BRANCH  28  29
HETATM   29  C   UNL     1      -9.925  15.679  65.683  1.00  0.00    -0.388 A  
HETATM   30  C   UNL     1      -8.673  15.998  66.221  1.00  0.00    -0.372 A  
HETATM   31  C   UNL     1      -8.399  17.299  66.643  1.00  0.00    -0.291 A  
HETATM   32  C   UNL     1      -9.373  18.289  66.534  1.00  0.00    -0.306 A  
HETATM   33  C   UNL     1     -10.622  17.981  65.996  1.00  0.00    -0.258 A  
HETATM   34  C   UNL     1     -10.899  16.681  65.572  1.00  0.00    -0.170 A  
ENDBRANCH  28  29
ENDBRANCH  27  28
ENDBRANCH  26  27
ENDBRANCH  25  26
ENDBRANCH  24  25
ENDBRANCH  23  24
ENDBRANCH  22  23
ENDBRANCH  21  22
ENDBRANCH  20  21
ENDBRANCH  19  20
ENDBRANCH  18  19
ENDBRANCH  16  18
ENDBRANCH  15  16
ENDBRANCH  12  15
ENDBRANCH  10  12
ENDBRANCH   2   4
TORSDOF 16
ENDMDL
MODEL      252
REMARK 921   NORMALIZED FREE ENERGY PREDICTED BY IDOCK:   -4.35 KCAL/MOL
REMARK 922        TOTAL FREE ENERGY PREDICTED BY IDOCK:  -10.76 KCAL/MOL
REMARK 923 INTER-LIGAND FREE ENERGY PREDICTED BY IDOCK:   -9.14 KCAL/MOL
REMARK 924 INTRA-LIGAND FREE ENERGY PREDICTED BY IDOCK:   -1.62 KCAL/MOL
REMARK 927      BINDING AFFINITY PREDICTED BY RF-SCORE:    0.00 PKD
ROOT
HETATM    1  O   UNL     1     -10.397  16.225  65.781  1.00  0.00    -0.346 OA 
HETATM    2  C   UNL     1     -11.254  15.641  64.798  1.00  0.00    -0.382 C  
HETATM    3  H   UNL     1     -10.483  17.171  65.771  1.00  0.00     0.000 HD 
ENDROOT
BRANCH   2   4
HETATM    4  C   UNL     1     -11.118  14.141  64.814  1.00  0.00    -0.393 A  
HETATM    5  C   UNL     1     -11.829  13.307  63.944  1.00  0.00    -0.465 A  
HETATM    6  O   UNL     1     -12.748  13.802  63.061  1.00  0.00    -0.879 OA 
HETATM    7  C   UNL     1     -11.655  11.927  63.957  1.00  0.00    -0.476 A  
HETATM    8  C   UNL     1     -10.774  11.350  64.867  1.00  0.00    -0.350 A  
HETATM    9  H   UNL     1     -13.232  13.236  62.471  1.00  0.00     0.000 HD 
HETATM   10  C   UNL     1     -10.043  12.149  65.761  1.00  0.00    -0.272 A  
HETATM   11  C   UNL     1     -10.208  13.545  65.706  1.00  0.00    -0.305 A  
BRANCH  10  12
HETATM   12  C   UNL     1      -9.112  11.538  66.791  1.00  0.00    -0.181 C  
HETATM   13  O   UNL     1      -7.789  12.075  66.641  1.00  0.00    -0.349 OA 
HETATM   14  H   UNL     1      -7.206  11.693  67.287  1.00  0.00     0.000 HD 
BRANCH  12  15
HETATM   15  C   UNL     1      -9.594  11.791  68.236  1.00  0.00    -0.199 C  
BRANCH  15  16
HETATM   16  N   UNL     1     -10.972  11.309  68.430  1.00  0.00    -0.201 NA 
HETATM   17  H   UNL     1     -11.281  10.717  67.659  1.00  0.00     0.000 HD 
BRANCH  16  18
HETATM   18  C   UNL     1     -11.089  10.634  69.718  1.00  0.00    -0.295 C  
BRANCH  18  19
HETATM   19  C   UNL     1     -12.296  11.167  70.479  1.00  0.00    -0.454 C  
BRANCH  19  20
HETATM   20  C   UNL     1     -12.680  10.205  71.601  1.00  0.00    -0.549 C  
BRANCH  20  21
HETATM   21  C   UNL     1     -12.665   8.767  71.103  1.00  0.00    -0.171 C  
BRANCH  21  22
HETATM   22  C   UNL     1     -12.378   7.789  72.236  1.00  0.00    -0.260 C  
BRANCH  22  23
HETATM   23  C   UNL     1     -10.989   8.033  72.805  1.00  0.00    -0.382 C  
BRANCH  23  24
HETATM   24  O   UNL     1     -10.524   6.824  73.393  1.00  0.00    -0.253 OA 
BRANCH  24  25
HETATM   25  C   UNL     1      -9.218   6.979  73.941  1.00  0.00    -0.216 C  
BRANCH  25  26
HETATM   26  C   UNL     1      -8.249   7.314  72.814  1.00  0.00    -0.125 C  
BRANCH  26  27
HETATM   27  C   UNL     1      -8.425   6.354  71.636  1.00  0.00    -0.128 C  
BRANCH  27  28
HETATM   28  C   UNL     1      -7.778   6.890  70.360  1.00  0.00    -0.100 C  
BRANCH  28  29
HETATM   29  C   UNL     1      -8.800   6.943  69.249  1.00  0.00    -0.138 A  
HETATM   30  C   UNL     1      -9.690   5.882  69.054  1.00  0.00    -0.170 A  
HETATM   31  C   UNL     1     -10.578   5.897  67.978  1.00  0.00    -0.321 A  
HETATM   32  C   UNL     1     -10.582   6.970  67.090  1.00  0.00    -0.412 A  
HETATM   33  C   UNL     1      -9.701   8.034  67.279  1.00  0.00    -0.232 A  
HETATM   34  C   UNL     1      -8.812   8.022  68.354  1.00  0.00    -0.134 A  
ENDBRANCH  28  29
ENDBRANCH  27  28
ENDBRANCH  26  27
ENDBRANCH  25  26
ENDBRANCH  24  25
ENDBRANCH  23  24
ENDBRANCH  22  23
ENDBRANCH  21  22
ENDBRANCH  20  21
ENDBRANCH  19  20
ENDBRANCH  18  19
ENDBRANCH  16  18
ENDBRANCH  15  16
ENDBRANCH  12  15
ENDBRANCH  10  12
ENDBRANCH   2   4
TORSDOF 16
ENDMDL
MODEL      253
REMARK 921   NORMALIZED FREE ENERGY PREDICTED BY IDOCK:   -4.35 KCAL/MOL
REMARK 922        TOTAL FREE ENERGY PREDICTED BY IDOCK:  -10.76 KCAL/MOL
REMARK 923 INTER-LIGAND FREE ENERGY PREDICTED BY IDOCK:   -6.77 KCAL/MOL
REMARK 924 INTRA-LIGAND FREE ENERGY PREDICTED BY IDOCK:   -3.98 KCAL/MOL
REMARK 927      BINDING AFFINITY PREDICTED BY RF-SCORE:    0.00 PKD
ROOT
HETATM    1  O   UNL     1      -6.618   7.906  65.502  1.00  0.00    -0.042 OA 
HETATM    2  C   UNL     1      -6.959   8.681  66.653  1.00  0.00    -0.079 C  
HETATM    3  H   UNL     1      -5.907   7.309  65.707  1.00  0.00     0.000 HD 
ENDROOT
BRANCH   2   4
HETATM    4  C   UNL     1      -8.085   9.627  66.328  1.00  0.00    -0.112 A  
HETATM    5  C   UNL     1      -9.113   9.304  65.435  1.00  0.00    -0.222 A  
HETATM    6  O   UNL     1      -9.124   8.123  64.745  1.00  0.00    -0.332 OA 
HETATM    7  C   UNL     1     -10.159  10.184  65.183  1.00  0.00    -0.329 A  
HETATM    8  C   UNL     1     -10.184  11.427  65.810  1.00  0.00    -0.295 A  
HETATM    9  H   UNL     1      -9.821   7.904  64.138  1.00  0.00     0.000 HD 
HETATM   10  C   UNL     1      -9.171  11.794  66.711  1.00  0.00    -0.196 A  
HETATM   11  C   UNL     1      -8.141  10.874  66.977  1.00  0.00    -0.131 A  
BRANCH  10  12
HETATM   12  C   UNL     1      -9.153  13.160  67.370  1.00  0.00    -0.208 C  
HETATM   13  O   UNL     1      -8.780  14.165  66.415  1.00  0.00    -0.459 OA 
HETATM   14  H   UNL     1      -8.769  15.021  66.827  1.00  0.00     0.000 HD 
BRANCH  12  15
HETATM   15  C   UNL     1     -10.522  13.532  67.978  1.00  0.00    -0.242 C  
BRANCH  15  16
HETATM   16  N   UNL     1     -10.740  12.842  69.261  1.00  0.00    -0.445 NA 
HETATM   17  H   UNL     1     -10.840  13.499  70.035  1.00  0.00     0.000 HD 
BRANCH  16  18
HETATM   18  C   UNL     1     -11.884  11.942  69.158  1.00  0.00    -0.311 C  
BRANCH  18  19
HETATM   19  C   UNL     1     -11.418  10.494  69.247  1.00  0.00    -0.323 C  
BRANCH  19  20
HETATM   20  C   UNL     1     -10.981  10.168  70.674  1.00  0.00    -0.357 C  
BRANCH  20  21
HETATM   21  C   UNL     1     -11.977   9.229  71.340  1.00  0.00    -0.424 C  
BRANCH  21  22
HETATM   22  C   UNL     1     -11.271   8.187  72.198  1.00  0.00    -0.393 C  
BRANCH  22  23
HETATM   23  C   UNL     1     -11.818   6.799  71.902  1.00  0.00    -0.326 C  
BRANCH  23  24
HETATM   24  O   UNL     1     -12.265   6.772  70.552  1.00  0.00    -0.363 OA 
BRANCH  24  25
HETATM   25  C   UNL     1     -11.506   5.854  69.769  1.00  0.00     0.075 C  
BRANCH  25  26
HETATM   26  C   UNL     1     -11.279   6.456  68.389  1.00  0.00    -0.297 C  
BRANCH  26  27
HETATM   27  C   UNL     1      -9.976   7.256  68.346  1.00  0.00    -0.172 C  
BRANCH  27  28
HETATM   28  C   UNL     1      -8.785   6.433  68.834  1.00  0.00    -0.126 C  
BRANCH  28  29
HETATM   29  C   UNL     1      -8.196   7.065  70.073  1.00  0.00    -0.133 A  
HETATM   30  C   UNL     1      -8.123   6.344  71.270  1.00  0.00    -0.117 A  
HETATM   31  C   UNL     1      -7.654   6.955  72.433  1.00  0.00    -0.091 A  
HETATM   32  C   UNL     1      -7.257   8.291  72.409  1.00  0.00    -0.127 A  
HETATM   33  C   UNL     1      -7.323   9.016  71.220  1.00  0.00    -0.093 A  
HETATM   34  C   UNL     1      -7.792   8.407  70.055  1.00  0.00    -0.103 A  
ENDBRANCH  28  29
ENDBRANCH  27  28
ENDBRANCH  26  27
ENDBRANCH  25  26
ENDBRANCH  24  25
ENDBRANCH  23  24
ENDBRANCH  22  23
ENDBRANCH  21  22
ENDBRANCH  20  21
ENDBRANCH  19  20
ENDBRANCH  18  19
ENDBRANCH  16  18
ENDBRANCH  15  16
ENDBRANCH  12  15
ENDBRANCH  10  12
ENDBRANCH   2   4
TORSDOF 16
ENDMDL
MODEL      254
REMARK 921   NORMALIZED FREE ENERGY PREDICTED BY IDOCK:   -4.33 KCAL/MOL
REMARK 922        TOTAL FREE ENERGY PREDICTED BY IDOCK:  -10.73 KCAL/MOL
REMARK 923 INTER-LIGAND FREE ENERGY PREDICTED BY IDOCK:   -9.00 KCAL/MOL
REMARK 924 INTRA-LIGAND FREE ENERGY PREDICTED BY IDOCK:   -1.73 KCAL/MOL
REMARK 927      BINDING AFFINITY PREDICTED BY RF-SCORE:    0.00 PKD
ROOT
HETATM    1  O   UNL     1     -12.665  14.426  67.176  1.00  0.00    -0.446 OA 
HETATM    2  C   UNL     1     -11.288  14.060  67.076  1.00  0.00    -0.330 C  
HETATM    3  H   UNL     1     -12.793  15.025  67.902  1.00  0.00     0.000 HD 
ENDROOT
BRANCH   2   4
HETATM    4  C   UNL     1     -11.084  13.110  65.926  1.00  0.00    -0.298 A  
HETATM    5  C   UNL     1     -11.679  13.298  64.672  1.00  0.00    -0.364 A  
HETATM    6  O   UNL     1     -12.541  14.331  64.432  1.00  0.00    -0.665 OA 
HETATM    7  C   UNL     1     -11.442  12.423  63.618  1.00  0.00    -0.568 A  
HETATM    8  C   UNL     1     -10.616  11.318  63.807  1.00  0.00    -0.455 A  
HETATM    9  H   UNL     1     -12.946  14.458  63.582  1.00  0.00     0.000 HD 
HETATM   10  C   UNL     1     -10.002  11.090  65.049  1.00  0.00    -0.340 A  
HETATM   11  C   UNL     1     -10.227  12.007  66.091  1.00  0.00    -0.255 A  
BRANCH  10  12
HETATM   12  C   UNL     1      -9.135   9.868  65.291  1.00  0.00    -0.211 C  
HETATM   13  O   UNL     1      -7.792  10.270  65.603  1.00  0.00    -0.139 OA 
HETATM   14  H   UNL     1      -7.248   9.505  65.755  1.00  0.00     0.000 HD 
BRANCH  12  15
HETATM   15  C   UNL     1      -9.673   8.988  66.439  1.00  0.00    -0.268 C  
BRANCH  15  16
HETATM   16  N   UNL     1      -9.894   7.603  65.990  1.00  0.00    -0.422 NA 
HETATM   17  H   UNL     1      -9.024   7.149  65.711  1.00  0.00     0.000 HD 
BRANCH  16  18
HETATM   18  C   UNL     1     -10.598   6.849  67.022  1.00  0.00    -0.333 C  
BRANCH  18  19
HETATM   19  C   UNL     1     -10.640   5.371  66.652  1.00  0.00    -0.359 C  
BRANCH  19  20
HETATM   20  C   UNL     1      -9.487   4.627  67.322  1.00  0.00    -0.173 C  
BRANCH  20  21
HETATM   21  C   UNL     1      -8.415   4.267  66.303  1.00  0.00    -0.112 C  
BRANCH  21  22
HETATM   22  C   UNL     1      -7.024   4.630  66.807  1.00  0.00    -0.060 C  
BRANCH  22  23
HETATM   23  C   UNL     1      -6.870   6.141  66.892  1.00  0.00    -0.062 C  
BRANCH  23  24
HETATM   24  O   UNL     1      -6.554   6.486  68.236  1.00  0.00    -0.053 OA 
BRANCH  24  25
HETATM   25  C   UNL     1      -7.618   7.206  68.853  1.00  0.00    -0.100 C  
BRANCH  25  26
HETATM   26  C   UNL     1      -7.653   6.856  70.335  1.00  0.00    -0.088 C  
BRANCH  26  27
HETATM   27  C   UNL     1      -9.091   6.811  70.854  1.00  0.00    -0.153 C  
BRANCH  27  28
HETATM   28  C   UNL     1      -9.316   7.798  71.998  1.00  0.00    -0.199 C  
BRANCH  28  29
HETATM   29  C   UNL     1     -10.627   8.521  71.803  1.00  0.00    -0.371 A  
HETATM   30  C   UNL     1     -11.812   7.997  72.332  1.00  0.00    -0.429 A  
HETATM   31  C   UNL     1     -13.033   8.623  72.082  1.00  0.00    -0.432 A  
HETATM   32  C   UNL     1     -13.079   9.776  71.300  1.00  0.00    -0.465 A  
HETATM   33  C   UNL     1     -11.904  10.308  70.772  1.00  0.00    -0.459 A  
HETATM   34  C   UNL     1     -10.682   9.683  71.021  1.00  0.00    -0.393 A  
ENDBRANCH  28  29
ENDBRANCH  27  28
ENDBRANCH  26  27
ENDBRANCH  25  26
ENDBRANCH  24  25
ENDBRANCH  23  24
ENDBRANCH  22  23
ENDBRANCH  21  22
ENDBRANCH  20  21
ENDBRANCH  19  20
ENDBRANCH  18  19
ENDBRANCH  16  18
ENDBRANCH  15  16
ENDBRANCH  12  15
ENDBRANCH  10  12
ENDBRANCH   2   4
TORSDOF 16
ENDMDL
MODEL      255
REMARK 921   NORMALIZED FREE ENERGY PREDICTED BY IDOCK:   -4.32 KCAL/MOL
REMARK 922        TOTAL FREE ENERGY PREDICTED BY IDOCK:  -10.72 KCAL/MOL
REMARK 923 INTER-LIGAND FREE ENERGY PREDICTED BY IDOCK:   -7.96 KCAL/MOL
REMARK 924 INTRA-LIGAND FREE ENERGY PREDICTED BY IDOCK:   -2.75 KCAL/MOL
REMARK 927      BINDING AFFINITY PREDICTED BY RF-SCORE:    0.00 PKD
ROOT
HETATM    1  O   UNL     1      -6.597   8.716  66.354  1.00  0.00    -0.061 OA 
HETATM    2  C   UNL     1      -6.948  10.069  66.059  1.00  0.00    -0.110 C  
HETATM    3  H   UNL     1      -5.685   8.558  66.137  1.00  0.00     0.000 HD 
ENDROOT
BRANCH   2   4
HETATM    4  C   UNL     1      -8.393  10.318  66.402  1.00  0.00    -0.132 A  
HETATM    5  C   UNL     1      -8.984   9.848  67.581  1.00  0.00    -0.128 A  
HETATM    6  O   UNL     1      -8.297   9.071  68.471  1.00  0.00    -0.121 OA 
HETATM    7  C   UNL     1     -10.311  10.127  67.889  1.00  0.00    -0.234 A  
HETATM    8  C   UNL     1     -11.086  10.868  67.001  1.00  0.00    -0.271 A  
HETATM    9  H   UNL     1      -8.698   8.751  69.271  1.00  0.00     0.000 HD 
HETATM   10  C   UNL     1     -10.535  11.356  65.805  1.00  0.00    -0.314 A  
HETATM   11  C   UNL     1      -9.181  11.093  65.531  1.00  0.00    -0.236 A  
BRANCH  10  12
HETATM   12  C   UNL     1     -11.373  12.127  64.803  1.00  0.00    -0.325 C  
HETATM   13  O   UNL     1     -12.619  12.520  65.399  1.00  0.00    -0.656 OA 
HETATM   14  H   UNL     1     -13.144  13.003  64.772  1.00  0.00     0.000 HD 
BRANCH  12  15
HETATM   15  C   UNL     1     -10.648  13.387  64.283  1.00  0.00    -0.341 C  
BRANCH  15  16
HETATM   16  N   UNL     1     -10.352  14.322  65.381  1.00  0.00    -0.348 NA 
HETATM   17  H   UNL     1      -9.357  14.346  65.605  1.00  0.00     0.000 HD 
BRANCH  16  18
HETATM   18  C   UNL     1     -10.872  15.648  65.062  1.00  0.00    -0.450 C  
BRANCH  18  19
HETATM   19  C   UNL     1     -10.424  16.652  66.117  1.00  0.00    -0.291 C  
BRANCH  19  20
HETATM   20  C   UNL     1     -10.574  18.076  65.587  1.00  0.00    -0.104 C  
BRANCH  20  21
HETATM   21  C   UNL     1     -10.558  19.080  66.731  1.00  0.00    -0.508 C  
BRANCH  21  22
HETATM   22  C   UNL     1      -9.394  18.823  67.681  1.00  0.00    -0.320 C  
BRANCH  22  23
HETATM   23  C   UNL     1      -8.119  19.446  67.135  1.00  0.00    -0.266 C  
BRANCH  23  24
HETATM   24  O   UNL     1      -7.007  18.784  67.724  1.00  0.00    -0.212 OA 
BRANCH  24  25
HETATM   25  C   UNL     1      -7.416  17.915  68.778  1.00  0.00    -0.268 C  
BRANCH  25  26
HETATM   26  C   UNL     1      -6.768  16.552  68.569  1.00  0.00    -0.145 C  
BRANCH  26  27
HETATM   27  C   UNL     1      -7.511  15.467  69.351  1.00  0.00    -0.219 C  
BRANCH  27  28
HETATM   28  C   UNL     1      -8.481  14.688  68.465  1.00  0.00    -0.161 C  
BRANCH  28  29
HETATM   29  C   UNL     1      -9.854  14.676  69.093  1.00  0.00    -0.130 A  
HETATM   30  C   UNL     1     -10.686  13.559  68.958  1.00  0.00    -0.180 A  
HETATM   31  C   UNL     1     -11.983  13.581  69.469  1.00  0.00    -0.390 A  
HETATM   32  C   UNL     1     -12.460  14.720  70.116  1.00  0.00    -0.359 A  
HETATM   33  C   UNL     1     -11.638  15.836  70.259  1.00  0.00    -0.377 A  
HETATM   34  C   UNL     1     -10.339  15.817  69.749  1.00  0.00    -0.307 A  
ENDBRANCH  28  29
ENDBRANCH  27  28
ENDBRANCH  26  27
ENDBRANCH  25  26
ENDBRANCH  24  25
ENDBRANCH  23  24
ENDBRANCH  22  23
ENDBRANCH  21  22
ENDBRANCH  20  21
ENDBRANCH  19  20
ENDBRANCH  18  19
ENDBRANCH  16  18
ENDBRANCH  15  16
ENDBRANCH  12  15
ENDBRANCH  10  12
ENDBRANCH   2   4
TORSDOF 16
ENDMDL
MODEL      256
REMARK 921   NORMALIZED FREE ENERGY PREDICTED BY IDOCK:   -4.32 KCAL/MOL
REMARK 922        TOTAL FREE ENERGY PREDICTED BY IDOCK:  -10.71 KCAL/MOL
REMARK 923 INTER-LIGAND FREE ENERGY PREDICTED BY IDOCK:   -7.35 KCAL/MOL
REMARK 924 INTRA-LIGAND FREE ENERGY PREDICTED BY IDOCK:   -3.37 KCAL/MOL
REMARK 927      BINDING AFFINITY PREDICTED BY RF-SCORE:    0.00 PKD
ROOT
HETATM    1  O   UNL     1     -12.052  12.315  66.305  1.00  0.00    -0.626 OA 
HETATM    2  C   UNL     1     -11.371  11.648  67.368  1.00  0.00    -0.300 C  
HETATM    3  H   UNL     1     -12.553  13.048  66.644  1.00  0.00     0.000 HD 
ENDROOT
BRANCH   2   4
HETATM    4  C   UNL     1     -10.578  10.486  66.831  1.00  0.00    -0.303 A  
HETATM    5  C   UNL     1      -9.577  10.634  65.864  1.00  0.00    -0.205 A  
HETATM    6  O   UNL     1      -9.299  11.846  65.294  1.00  0.00    -0.410 OA 
HETATM    7  C   UNL     1      -8.836   9.547  65.414  1.00  0.00    -0.213 A  
HETATM    8  C   UNL     1      -9.102   8.274  65.912  1.00  0.00    -0.203 A  
HETATM    9  H   UNL     1      -8.620  11.946  64.637  1.00  0.00     0.000 HD 
HETATM   10  C   UNL     1     -10.100   8.080  66.880  1.00  0.00    -0.362 A  
HETATM   11  C   UNL     1     -10.813   9.199  67.347  1.00  0.00    -0.140 A  
BRANCH  10  12
HETATM   12  C   UNL     1     -10.438   6.697  67.403  1.00  0.00    -0.260 C  
HETATM   13  O   UNL     1     -11.305   6.018  66.481  1.00  0.00    -0.737 OA 
HETATM   14  H   UNL     1     -11.516   5.151  66.809  1.00  0.00     0.000 HD 
BRANCH  12  15
HETATM   15  C   UNL     1      -9.177   5.835  67.631  1.00  0.00    -0.105 C  
BRANCH  15  16
HETATM   16  N   UNL     1      -8.579   6.104  68.949  1.00  0.00    -0.120 NA 
HETATM   17  H   UNL     1      -9.031   5.567  69.690  1.00  0.00     0.000 HD 
BRANCH  16  18
HETATM   18  C   UNL     1      -7.140   5.867  68.904  1.00  0.00    -0.073 C  
BRANCH  18  19
HETATM   19  C   UNL     1      -6.670   5.252  70.216  1.00  0.00    -0.047 C  
BRANCH  19  20
HETATM   20  C   UNL     1      -7.634   4.153  70.658  1.00  0.00    -0.048 C  
BRANCH  20  21
HETATM   21  C   UNL     1      -8.148   4.422  72.064  1.00  0.00    -0.099 C  
BRANCH  21  22
HETATM   22  C   UNL     1      -9.664   4.287  72.139  1.00  0.00    -0.221 C  
BRANCH  22  23
HETATM   23  C   UNL     1     -10.188   4.918  73.419  1.00  0.00    -0.173 C  
BRANCH  23  24
HETATM   24  O   UNL     1     -11.296   5.747  73.090  1.00  0.00    -0.246 OA 
BRANCH  24  25
HETATM   25  C   UNL     1     -11.495   5.816  71.680  1.00  0.00    -0.095 C  
BRANCH  25  26
HETATM   26  C   UNL     1     -12.534   6.890  71.383  1.00  0.00    -0.413 C  
BRANCH  26  27
HETATM   27  C   UNL     1     -11.891   8.108  70.719  1.00  0.00    -0.167 C  
BRANCH  27  28
HETATM   28  C   UNL     1     -11.208   9.020  71.736  1.00  0.00    -0.448 C  
BRANCH  28  29
HETATM   29  C   UNL     1      -9.717   9.037  71.492  1.00  0.00    -0.365 A  
HETATM   30  C   UNL     1      -9.194   9.652  70.349  1.00  0.00    -0.258 A  
HETATM   31  C   UNL     1      -7.825   9.597  70.085  1.00  0.00    -0.185 A  
HETATM   32  C   UNL     1      -6.972   8.926  70.957  1.00  0.00    -0.085 A  
HETATM   33  C   UNL     1      -7.483   8.313  72.100  1.00  0.00    -0.146 A  
HETATM   34  C   UNL     1      -8.852   8.367  72.367  1.00  0.00    -0.294 A  
ENDBRANCH  28  29
ENDBRANCH  27  28
ENDBRANCH  26  27
ENDBRANCH  25  26
ENDBRANCH  24  25
ENDBRANCH  23  24
ENDBRANCH  22  23
ENDBRANCH  21  22
ENDBRANCH  20  21
ENDBRANCH  19  20
ENDBRANCH  18  19
ENDBRANCH  16  18
ENDBRANCH  15  16
ENDBRANCH  12  15
ENDBRANCH  10  12
ENDBRANCH   2   4
TORSDOF 16
ENDMDL
MODEL      257
REMARK 921   NORMALIZED FREE ENERGY PREDICTED BY IDOCK:   -4.32 KCAL/MOL
REMARK 922        TOTAL FREE ENERGY PREDICTED BY IDOCK:  -10.71 KCAL/MOL
REMARK 923 INTER-LIGAND FREE ENERGY PREDICTED BY IDOCK:   -9.65 KCAL/MOL
REMARK 924 INTRA-LIGAND FREE ENERGY PREDICTED BY IDOCK:   -1.07 KCAL/MOL
REMARK 927      BINDING AFFINITY PREDICTED BY RF-SCORE:    0.00 PKD
ROOT
HETATM    1  O   UNL     1      -8.923  16.432  67.662  1.00  0.00    -0.195 OA 
HETATM    2  C   UNL     1      -8.841  16.520  66.239  1.00  0.00    -0.329 C  
HETATM    3  H   UNL     1      -8.271  16.996  68.064  1.00  0.00     0.000 HD 
ENDROOT
BRANCH   2   4
HETATM    4  C   UNL     1      -9.873  15.626  65.602  1.00  0.00    -0.369 A  
HETATM    5  C   UNL     1     -10.911  16.118  64.802  1.00  0.00    -0.262 A  
HETATM    6  O   UNL     1     -11.092  17.458  64.600  1.00  0.00    -1.029 OA 
HETATM    7  C   UNL     1     -11.827  15.265  64.197  1.00  0.00    -0.138 A  
HETATM    8  C   UNL     1     -11.734  13.891  64.404  1.00  0.00    -0.427 A  
HETATM    9  H   UNL     1     -11.797  17.791  64.057  1.00  0.00     0.000 HD 
HETATM   10  C   UNL     1     -10.711  13.356  65.203  1.00  0.00    -0.339 A  
HETATM   11  C   UNL     1      -9.774  14.234  65.775  1.00  0.00    -0.264 A  
BRANCH  10  12
HETATM   12  C   UNL     1     -10.618  11.866  65.478  1.00  0.00    -0.269 C  
HETATM   13  O   UNL     1      -9.552  11.287  64.709  1.00  0.00    -0.235 OA 
HETATM   14  H   UNL     1      -9.494  10.354  64.882  1.00  0.00     0.000 HD 
BRANCH  12  15
HETATM   15  C   UNL     1     -10.379  11.563  66.973  1.00  0.00    -0.220 C  
BRANCH  15  16
HETATM   16  N   UNL     1     -11.568  11.885  67.779  1.00  0.00    -0.433 NA 
HETATM   17  H   UNL     1     -12.418  11.480  67.384  1.00  0.00     0.000 HD 
BRANCH  16  18
HETATM   18  C   UNL     1     -11.360  11.476  69.164  1.00  0.00    -0.286 C  
BRANCH  18  19
HETATM   19  C   UNL     1     -11.971  12.503  70.109  1.00  0.00    -0.377 C  
BRANCH  19  20
HETATM   20  C   UNL     1     -12.692  11.801  71.257  1.00  0.00    -0.420 C  
BRANCH  20  21
HETATM   21  C   UNL     1     -12.947  10.339  70.917  1.00  0.00    -0.456 C  
BRANCH  21  22
HETATM   22  C   UNL     1     -13.306   9.533  72.160  1.00  0.00    -0.545 C  
BRANCH  22  23
HETATM   23  C   UNL     1     -12.279   8.437  72.394  1.00  0.00    -0.367 C  
BRANCH  23  24
HETATM   24  O   UNL     1     -12.820   7.207  71.928  1.00  0.00    -0.318 OA 
BRANCH  24  25
HETATM   25  C   UNL     1     -11.793   6.256  71.656  1.00  0.00    -0.256 C  
BRANCH  25  26
HETATM   26  C   UNL     1     -10.918   6.788  70.528  1.00  0.00    -0.327 C  
BRANCH  26  27
HETATM   27  C   UNL     1     -10.711   5.727  69.447  1.00  0.00    -0.397 C  
BRANCH  27  28
HETATM   28  C   UNL     1     -10.692   6.335  68.045  1.00  0.00    -0.369 C  
BRANCH  28  29
HETATM   29  C   UNL     1      -9.962   5.415  67.096  1.00  0.00    -0.199 A  
HETATM   30  C   UNL     1      -8.573   5.269  67.178  1.00  0.00    -0.105 A  
HETATM   31  C   UNL     1      -7.892   4.482  66.249  1.00  0.00    -0.099 A  
HETATM   32  C   UNL     1      -8.592   3.839  65.231  1.00  0.00    -0.114 A  
HETATM   33  C   UNL     1      -9.977   3.975  65.143  1.00  0.00    -0.203 A  
HETATM   34  C   UNL     1     -10.661   4.761  66.071  1.00  0.00    -0.300 A  
ENDBRANCH  28  29
ENDBRANCH  27  28
ENDBRANCH  26  27
ENDBRANCH  25  26
ENDBRANCH  24  25
ENDBRANCH  23  24
ENDBRANCH  22  23
ENDBRANCH  21  22
ENDBRANCH  20  21
ENDBRANCH  19  20
ENDBRANCH  18  19
ENDBRANCH  16  18
ENDBRANCH  15  16
ENDBRANCH  12  15
ENDBRANCH  10  12
ENDBRANCH   2   4
TORSDOF 16
ENDMDL
MODEL      258
REMARK 921   NORMALIZED FREE ENERGY PREDICTED BY IDOCK:   -4.32 KCAL/MOL
REMARK 922        TOTAL FREE ENERGY PREDICTED BY IDOCK:  -10.70 KCAL/MOL
REMARK 923 INTER-LIGAND FREE ENERGY PREDICTED BY IDOCK:   -8.71 KCAL/MOL
REMARK 924 INTRA-LIGAND FREE ENERGY PREDICTED BY IDOCK:   -1.99 KCAL/MOL
REMARK 927      BINDING AFFINITY PREDICTED BY RF-SCORE:    0.00 PKD
ROOT
HETATM    1  O   UNL     1      -8.490   6.160  69.680  1.00  0.00    -0.124 OA 
HETATM    2  C   UNL     1      -9.337   6.204  68.531  1.00  0.00    -0.117 C  
HETATM    3  H   UNL     1      -8.616   5.344  70.150  1.00  0.00     0.000 HD 
ENDROOT
BRANCH   2   4
HETATM    4  C   UNL     1      -9.138   7.498  67.786  1.00  0.00    -0.130 A  
HETATM    5  C   UNL     1      -9.237   7.594  66.393  1.00  0.00    -0.175 A  
HETATM    6  O   UNL     1      -9.459   6.495  65.609  1.00  0.00    -0.381 OA 
HETATM    7  C   UNL     1      -9.085   8.809  65.737  1.00  0.00    -0.267 A  
HETATM    8  C   UNL     1      -8.804   9.961  66.468  1.00  0.00    -0.154 A  
HETATM    9  H   UNL     1      -9.525   6.560  64.664  1.00  0.00     0.000 HD 
HETATM   10  C   UNL     1      -8.692   9.909  67.867  1.00  0.00    -0.129 A  
HETATM   11  C   UNL     1      -8.886   8.675  68.513  1.00  0.00    -0.142 A  
BRANCH  10  12
HETATM   12  C   UNL     1      -8.342  11.141  68.679  1.00  0.00    -0.154 C  
HETATM   13  O   UNL     1      -7.719  10.758  69.915  1.00  0.00    -0.361 OA 
HETATM   14  H   UNL     1      -7.499  11.530  70.424  1.00  0.00     0.000 HD 
BRANCH  12  15
HETATM   15  C   UNL     1      -7.397  12.094  67.917  1.00  0.00    -0.108 C  
BRANCH  15  16
HETATM   16  N   UNL     1      -7.314  13.406  68.579  1.00  0.00    -0.107 NA 
HETATM   17  H   UNL     1      -6.618  13.414  69.325  1.00  0.00     0.000 HD 
BRANCH  16  18
HETATM   18  C   UNL     1      -7.070  14.452  67.591  1.00  0.00    -0.183 C  
BRANCH  18  19
HETATM   19  C   UNL     1      -7.997  15.634  67.841  1.00  0.00    -0.151 C  
BRANCH  19  20
HETATM   20  C   UNL     1      -9.173  15.597  66.867  1.00  0.00    -0.257 C  
BRANCH  20  21
HETATM   21  C   UNL     1     -10.483  15.853  67.596  1.00  0.00    -0.289 C  
BRANCH  21  22
HETATM   22  C   UNL     1     -10.486  15.211  68.979  1.00  0.00    -0.248 C  
BRANCH  22  23
HETATM   23  C   UNL     1     -10.987  16.200  70.019  1.00  0.00    -0.364 C  
BRANCH  23  24
HETATM   24  O   UNL     1     -11.153  15.511  71.252  1.00  0.00    -0.355 OA 
BRANCH  24  25
HETATM   25  C   UNL     1     -11.928  16.272  72.175  1.00  0.00    -0.494 C  
BRANCH  25  26
HETATM   26  C   UNL     1     -12.855  15.330  72.932  1.00  0.00    -0.541 C  
BRANCH  26  27
HETATM   27  C   UNL     1     -13.585  14.389  71.972  1.00  0.00    -0.514 C  
BRANCH  27  28
HETATM   28  C   UNL     1     -13.758  12.991  72.562  1.00  0.00    -0.501 C  
BRANCH  28  29
HETATM   29  C   UNL     1     -13.083  11.971  71.676  1.00  0.00    -0.422 A  
HETATM   30  C   UNL     1     -13.111  10.613  72.010  1.00  0.00    -0.501 A  
HETATM   31  C   UNL     1     -12.420   9.683  71.234  1.00  0.00    -0.445 A  
HETATM   32  C   UNL     1     -11.695  10.103  70.121  1.00  0.00    -0.330 A  
HETATM   33  C   UNL     1     -11.664  11.454  69.777  1.00  0.00    -0.418 A  
HETATM   34  C   UNL     1     -12.355  12.386  70.552  1.00  0.00    -0.346 A  
ENDBRANCH  28  29
ENDBRANCH  27  28
ENDBRANCH  26  27
ENDBRANCH  25  26
ENDBRANCH  24  25
ENDBRANCH  23  24
ENDBRANCH  22  23
ENDBRANCH  21  22
ENDBRANCH  20  21
ENDBRANCH  19  20
ENDBRANCH  18  19
ENDBRANCH  16  18
ENDBRANCH  15  16
ENDBRANCH  12  15
ENDBRANCH  10  12
ENDBRANCH   2   4
TORSDOF 16
ENDMDL
MODEL      259
REMARK 921   NORMALIZED FREE ENERGY PREDICTED BY IDOCK:   -4.31 KCAL/MOL
REMARK 922        TOTAL FREE ENERGY PREDICTED BY IDOCK:  -10.70 KCAL/MOL
REMARK 923 INTER-LIGAND FREE ENERGY PREDICTED BY IDOCK:   -7.47 KCAL/MOL
REMARK 924 INTRA-LIGAND FREE ENERGY PREDICTED BY IDOCK:   -3.23 KCAL/MOL
REMARK 927      BINDING AFFINITY PREDICTED BY RF-SCORE:    0.00 PKD
ROOT
HETATM    1  O   UNL     1      -7.524   8.948  72.739  1.00  0.00    -0.354 OA 
HETATM    2  C   UNL     1      -6.773   9.085  71.532  1.00  0.00    -0.052 C  
HETATM    3  H   UNL     1      -7.329   9.667  73.330  1.00  0.00     0.000 HD 
ENDROOT
BRANCH   2   4
HETATM    4  C   UNL     1      -7.081   7.946  70.596  1.00  0.00    -0.049 A  
HETATM    5  C   UNL     1      -7.188   6.618  71.026  1.00  0.00    -0.078 A  
HETATM    6  O   UNL     1      -6.952   6.261  72.325  1.00  0.00    -0.072 OA 
HETATM    7  C   UNL     1      -7.511   5.593  70.145  1.00  0.00    -0.077 A  
HETATM    8  C   UNL     1      -7.711   5.877  68.796  1.00  0.00    -0.091 A  
HETATM    9  H   UNL     1      -7.024   5.360  72.617  1.00  0.00     0.000 HD 
HETATM   10  C   UNL     1      -7.610   7.194  68.321  1.00  0.00    -0.115 A  
HETATM   11  C   UNL     1      -7.318   8.221  69.236  1.00  0.00    -0.076 A  
BRANCH  10  12
HETATM   12  C   UNL     1      -7.780   7.520  66.849  1.00  0.00    -0.110 C  
HETATM   13  O   UNL     1      -6.805   6.809  66.070  1.00  0.00    -0.060 OA 
HETATM   14  H   UNL     1      -6.911   7.013  65.148  1.00  0.00     0.000 HD 
BRANCH  12  15
HETATM   15  C   UNL     1      -9.190   7.164  66.331  1.00  0.00    -0.157 C  
BRANCH  15  16
HETATM   16  N   UNL     1     -10.000   8.374  66.117  1.00  0.00    -0.472 NA 
HETATM   17  H   UNL     1     -10.712   8.235  65.400  1.00  0.00     0.000 HD 
BRANCH  16  18
HETATM   18  C   UNL     1     -10.577   8.821  67.380  1.00  0.00    -0.233 C  
BRANCH  18  19
HETATM   19  C   UNL     1     -10.694  10.340  67.393  1.00  0.00    -0.339 C  
BRANCH  19  20
HETATM   20  C   UNL     1      -9.546  10.951  68.192  1.00  0.00    -0.169 C  
BRANCH  20  21
HETATM   21  C   UNL     1      -9.662  12.468  68.226  1.00  0.00    -0.220 C  
BRANCH  21  22
HETATM   22  C   UNL     1     -10.498  12.989  67.063  1.00  0.00    -0.249 C  
BRANCH  22  23
HETATM   23  C   UNL     1     -11.522  13.997  67.559  1.00  0.00    -0.343 C  
BRANCH  23  24
HETATM   24  O   UNL     1     -12.277  13.395  68.603  1.00  0.00    -0.298 OA 
BRANCH  24  25
HETATM   25  C   UNL     1     -12.285  14.206  69.775  1.00  0.00    -0.344 C  
BRANCH  25  26
HETATM   26  C   UNL     1     -12.528  13.315  70.987  1.00  0.00    -0.422 C  
BRANCH  26  27
HETATM   27  C   UNL     1     -12.592  11.842  70.581  1.00  0.00    -0.269 C  
BRANCH  27  28
HETATM   28  C   UNL     1     -12.973  10.942  71.755  1.00  0.00    -0.557 C  
BRANCH  28  29
HETATM   29  C   UNL     1     -12.473   9.538  71.509  1.00  0.00    -0.463 A  
HETATM   30  C   UNL     1     -13.311   8.439  71.726  1.00  0.00    -0.378 A  
HETATM   31  C   UNL     1     -12.823   7.141  71.577  1.00  0.00    -0.434 A  
HETATM   32  C   UNL     1     -11.495   6.931  71.213  1.00  0.00    -0.337 A  
HETATM   33  C   UNL     1     -10.653   8.020  70.991  1.00  0.00    -0.239 A  
HETATM   34  C   UNL     1     -11.138   9.320  71.139  1.00  0.00    -0.411 A  
ENDBRANCH  28  29
ENDBRANCH  27  28
ENDBRANCH  26  27
ENDBRANCH  25  26
ENDBRANCH  24  25
ENDBRANCH  23  24
ENDBRANCH  22  23
ENDBRANCH  21  22
ENDBRANCH  20  21
ENDBRANCH  19  20
ENDBRANCH  18  19
ENDBRANCH  16  18
ENDBRANCH  15  16
ENDBRANCH  12  15
ENDBRANCH  10  12
ENDBRANCH   2   4
TORSDOF 16
ENDMDL
MODEL      260
REMARK 921   NORMALIZED FREE ENERGY PREDICTED BY IDOCK:   -4.31 KCAL/MOL
REMARK 922        TOTAL FREE ENERGY PREDICTED BY IDOCK:  -10.69 KCAL/MOL
REMARK 923 INTER-LIGAND FREE ENERGY PREDICTED BY IDOCK:   -7.84 KCAL/MOL
REMARK 924 INTRA-LIGAND FREE ENERGY PREDICTED BY IDOCK:   -2.85 KCAL/MOL
REMARK 927      BINDING AFFINITY PREDICTED BY RF-SCORE:    0.00 PKD
ROOT
HETATM    1  O   UNL     1     -11.657   6.495  67.085  1.00  0.00    -0.743 OA 
HETATM    2  C   UNL     1     -10.467   6.567  67.872  1.00  0.00    -0.222 C  
HETATM    3  H   UNL     1     -12.164   5.728  67.326  1.00  0.00     0.000 HD 
ENDROOT
BRANCH   2   4
HETATM    4  C   UNL     1      -9.663   7.781  67.489  1.00  0.00    -0.201 A  
HETATM    5  C   UNL     1      -9.198   8.003  66.187  1.00  0.00    -0.163 A  
HETATM    6  O   UNL     1      -9.392   7.091  65.188  1.00  0.00    -0.043 OA 
HETATM    7  C   UNL     1      -8.490   9.152  65.856  1.00  0.00    -0.150 A  
HETATM    8  C   UNL     1      -8.209  10.100  66.837  1.00  0.00    -0.122 A  
HETATM    9  H   UNL     1      -9.076   7.241  64.304  1.00  0.00     0.000 HD 
HETATM   10  C   UNL     1      -8.653   9.915  68.156  1.00  0.00    -0.118 A  
HETATM   11  C   UNL     1      -9.399   8.763  68.461  1.00  0.00    -0.142 A  
BRANCH  10  12
HETATM   12  C   UNL     1      -8.320  10.912  69.250  1.00  0.00    -0.012 C  
HETATM   13  O   UNL     1      -7.704  10.240  70.360  1.00  0.00    -0.427 OA 
HETATM   14  H   UNL     1      -7.495  10.865  71.045  1.00  0.00     0.000 HD 
BRANCH  12  15
HETATM   15  C   UNL     1      -7.377  12.029  68.755  1.00  0.00    -0.098 C  
BRANCH  15  16
HETATM   16  N   UNL     1      -8.043  13.342  68.787  1.00  0.00    -0.335 NA 
HETATM   17  H   UNL     1      -7.975  13.782  69.705  1.00  0.00     0.000 HD 
BRANCH  16  18
HETATM   18  C   UNL     1      -7.513  14.198  67.730  1.00  0.00    -0.165 C  
BRANCH  18  19
HETATM   19  C   UNL     1      -7.393  15.632  68.231  1.00  0.00    -0.117 C  
BRANCH  19  20
HETATM   20  C   UNL     1      -6.499  16.443  67.296  1.00  0.00    -0.222 C  
BRANCH  20  21
HETATM   21  C   UNL     1      -6.912  17.908  67.295  1.00  0.00    -0.204 C  
BRANCH  21  22
HETATM   22  C   UNL     1      -7.670  18.272  66.024  1.00  0.00    -0.200 C  
BRANCH  22  23
HETATM   23  C   UNL     1      -8.493  19.532  66.242  1.00  0.00    -0.352 C  
BRANCH  23  24
HETATM   24  O   UNL     1      -9.781  19.153  66.710  1.00  0.00    -0.307 OA 
BRANCH  24  25
HETATM   25  C   UNL     1      -9.937  19.443  68.097  1.00  0.00    -0.413 C  
BRANCH  25  26
HETATM   26  C   UNL     1     -10.407  18.182  68.812  1.00  0.00    -0.270 C  
BRANCH  26  27
HETATM   27  C   UNL     1     -10.734  17.073  67.810  1.00  0.00    -0.318 C  
BRANCH  27  28
HETATM   28  C   UNL     1     -11.513  15.930  68.458  1.00  0.00    -0.377 C  
BRANCH  28  29
HETATM   29  C   UNL     1     -11.396  14.684  67.611  1.00  0.00    -0.350 A  
HETATM   30  C   UNL     1     -11.679  13.428  68.158  1.00  0.00    -0.397 A  
HETATM   31  C   UNL     1     -11.493  12.272  67.399  1.00  0.00    -0.422 A  
HETATM   32  C   UNL     1     -11.022  12.364  66.091  1.00  0.00    -0.321 A  
HETATM   33  C   UNL     1     -10.741  13.612  65.536  1.00  0.00    -0.296 A  
HETATM   34  C   UNL     1     -10.927  14.769  66.293  1.00  0.00    -0.330 A  
ENDBRANCH  28  29
ENDBRANCH  27  28
ENDBRANCH  26  27
ENDBRANCH  25  26
ENDBRANCH  24  25
ENDBRANCH  23  24
ENDBRANCH  22  23
ENDBRANCH  21  22
ENDBRANCH  20  21
ENDBRANCH  19  20
ENDBRANCH  18  19
ENDBRANCH  16  18
ENDBRANCH  15  16
ENDBRANCH  12  15
ENDBRANCH  10  12
ENDBRANCH   2   4
TORSDOF 16
ENDMDL
MODEL      261
REMARK 921   NORMALIZED FREE ENERGY PREDICTED BY IDOCK:   -4.31 KCAL/MOL
REMARK 922        TOTAL FREE ENERGY PREDICTED BY IDOCK:  -10.69 KCAL/MOL
REMARK 923 INTER-LIGAND FREE ENERGY PREDICTED BY IDOCK:   -7.42 KCAL/MOL
REMARK 924 INTRA-LIGAND FREE ENERGY PREDICTED BY IDOCK:   -3.27 KCAL/MOL
REMARK 927      BINDING AFFINITY PREDICTED BY RF-SCORE:    0.00 PKD
ROOT
HETATM    1  O   UNL     1     -10.288   6.079  69.215  1.00  0.00    -0.189 OA 
HETATM    2  C   UNL     1     -10.917   6.581  68.036  1.00  0.00    -0.282 C  
HETATM    3  H   UNL     1     -10.938   5.908  69.887  1.00  0.00     0.000 HD 
ENDROOT
BRANCH   2   4
HETATM    4  C   UNL     1      -9.887   6.853  66.971  1.00  0.00    -0.228 A  
HETATM    5  C   UNL     1      -9.095   5.845  66.409  1.00  0.00    -0.149 A  
HETATM    6  O   UNL     1      -9.162   4.550  66.841  1.00  0.00    -0.119 OA 
HETATM    7  C   UNL     1      -8.178   6.120  65.401  1.00  0.00    -0.145 A  
HETATM    8  C   UNL     1      -8.018   7.427  64.948  1.00  0.00    -0.128 A  
HETATM    9  H   UNL     1      -8.624   3.866  66.460  1.00  0.00     0.000 HD 
HETATM   10  C   UNL     1      -8.790   8.469  65.488  1.00  0.00    -0.196 A  
HETATM   11  C   UNL     1      -9.736   8.163  66.481  1.00  0.00    -0.309 A  
BRANCH  10  12
HETATM   12  C   UNL     1      -8.600   9.907  65.042  1.00  0.00    -0.161 C  
HETATM   13  O   UNL     1      -7.917   9.947  63.780  1.00  0.00    -0.135 OA 
HETATM   14  H   UNL     1      -7.798  10.848  63.500  1.00  0.00     0.000 HD 
BRANCH  12  15
HETATM   15  C   UNL     1      -9.942  10.658  64.909  1.00  0.00    -0.318 C  
BRANCH  15  16
HETATM   16  N   UNL     1      -9.785  11.895  64.126  1.00  0.00    -0.466 NA 
HETATM   17  H   UNL     1      -9.868  11.726  63.123  1.00  0.00     0.000 HD 
BRANCH  16  18
HETATM   18  C   UNL     1     -10.731  12.905  64.589  1.00  0.00    -0.353 C  
BRANCH  18  19
HETATM   19  C   UNL     1     -11.474  12.399  65.820  1.00  0.00    -0.416 C  
BRANCH  19  20
HETATM   20  C   UNL     1     -12.516  13.423  66.264  1.00  0.00    -0.338 C  
BRANCH  20  21
HETATM   21  C   UNL     1     -11.843  14.661  66.838  1.00  0.00    -0.345 C  
BRANCH  21  22
HETATM   22  C   UNL     1     -11.005  14.320  68.065  1.00  0.00    -0.261 C  
BRANCH  22  23
HETATM   23  C   UNL     1     -11.647  14.894  69.319  1.00  0.00    -0.306 C  
BRANCH  23  24
HETATM   24  O   UNL     1     -12.610  13.962  69.797  1.00  0.00    -0.262 OA 
BRANCH  24  25
HETATM   25  C   UNL     1     -12.119  13.238  70.923  1.00  0.00    -0.154 C  
BRANCH  25  26
HETATM   26  C   UNL     1     -12.857  11.908  71.009  1.00  0.00    -0.291 C  
BRANCH  26  27
HETATM   27  C   UNL     1     -11.895  10.734  70.817  1.00  0.00    -0.443 C  
BRANCH  27  28
HETATM   28  C   UNL     1     -11.473  10.574  69.358  1.00  0.00    -0.329 C  
BRANCH  28  29
HETATM   29  C   UNL     1      -9.971  10.450  69.268  1.00  0.00    -0.246 A  
HETATM   30  C   UNL     1      -9.284   9.542  70.081  1.00  0.00    -0.281 A  
HETATM   31  C   UNL     1      -7.891   9.487  70.054  1.00  0.00    -0.157 A  
HETATM   32  C   UNL     1      -7.174  10.339  69.217  1.00  0.00    -0.093 A  
HETATM   33  C   UNL     1      -7.849  11.245  68.400  1.00  0.00    -0.136 A  
HETATM   34  C   UNL     1      -9.243  11.302  68.425  1.00  0.00    -0.178 A  
ENDBRANCH  28  29
ENDBRANCH  27  28
ENDBRANCH  26  27
ENDBRANCH  25  26
ENDBRANCH  24  25
ENDBRANCH  23  24
ENDBRANCH  22  23
ENDBRANCH  21  22
ENDBRANCH  20  21
ENDBRANCH  19  20
ENDBRANCH  18  19
ENDBRANCH  16  18
ENDBRANCH  15  16
ENDBRANCH  12  15
ENDBRANCH  10  12
ENDBRANCH   2   4
TORSDOF 16
ENDMDL
MODEL      262
REMARK 921   NORMALIZED FREE ENERGY PREDICTED BY IDOCK:   -4.30 KCAL/MOL
REMARK 922        TOTAL FREE ENERGY PREDICTED BY IDOCK:  -10.67 KCAL/MOL
REMARK 923 INTER-LIGAND FREE ENERGY PREDICTED BY IDOCK:   -8.89 KCAL/MOL
REMARK 924 INTRA-LIGAND FREE ENERGY PREDICTED BY IDOCK:   -1.78 KCAL/MOL
REMARK 927      BINDING AFFINITY PREDICTED BY RF-SCORE:    0.00 PKD
ROOT
HETATM    1  O   UNL     1     -11.720  14.479  67.768  1.00  0.00    -0.349 OA 
HETATM    2  C   UNL     1     -11.856  13.062  67.655  1.00  0.00    -0.351 C  
HETATM    3  H   UNL     1     -11.787  14.743  68.679  1.00  0.00     0.000 HD 
ENDROOT
BRANCH   2   4
HETATM    4  C   UNL     1     -11.750  12.643  66.212  1.00  0.00    -0.460 A  
HETATM    5  C   UNL     1     -12.569  13.172  65.207  1.00  0.00    -0.472 A  
HETATM    6  O   UNL     1     -13.568  14.062  65.486  1.00  0.00    -0.673 OA 
HETATM    7  C   UNL     1     -12.423  12.793  63.878  1.00  0.00    -0.454 A  
HETATM    8  C   UNL     1     -11.460  11.849  63.529  1.00  0.00    -0.523 A  
HETATM    9  H   UNL     1     -14.124  14.421  64.804  1.00  0.00     0.000 HD 
HETATM   10  C   UNL     1     -10.621  11.290  64.505  1.00  0.00    -0.401 A  
HETATM   11  C   UNL     1     -10.762  11.714  65.839  1.00  0.00    -0.328 A  
BRANCH  10  12
HETATM   12  C   UNL     1      -9.596  10.227  64.155  1.00  0.00    -0.315 C  
HETATM   13  O   UNL     1      -8.426  10.836  63.588  1.00  0.00    -0.317 OA 
HETATM   14  H   UNL     1      -7.784  10.171  63.369  1.00  0.00     0.000 HD 
BRANCH  12  15
HETATM   15  C   UNL     1      -9.180   9.390  65.384  1.00  0.00    -0.244 C  
BRANCH  15  16
HETATM   16  N   UNL     1      -8.766   8.034  64.989  1.00  0.00    -0.381 NA 
HETATM   17  H   UNL     1      -8.071   8.048  64.242  1.00  0.00     0.000 HD 
BRANCH  16  18
HETATM   18  C   UNL     1      -8.297   7.293  66.156  1.00  0.00    -0.133 C  
BRANCH  18  19
HETATM   19  C   UNL     1      -9.478   6.657  66.879  1.00  0.00    -0.184 C  
BRANCH  19  20
HETATM   20  C   UNL     1      -8.997   5.928  68.132  1.00  0.00    -0.115 C  
BRANCH  20  21
HETATM   21  C   UNL     1      -7.543   6.267  68.427  1.00  0.00    -0.096 C  
BRANCH  21  22
HETATM   22  C   UNL     1      -7.348   6.664  69.885  1.00  0.00    -0.086 C  
BRANCH  22  23
HETATM   23  C   UNL     1      -7.588   8.156  70.063  1.00  0.00    -0.077 C  
BRANCH  23  24
HETATM   24  O   UNL     1      -8.991   8.387  70.070  1.00  0.00    -0.135 OA 
BRANCH  24  25
HETATM   25  C   UNL     1      -9.388   9.154  71.204  1.00  0.00    -0.243 C  
BRANCH  25  26
HETATM   26  C   UNL     1     -10.909   9.161  71.284  1.00  0.00    -0.402 C  
BRANCH  26  27
HETATM   27  C   UNL     1     -11.423   7.940  72.048  1.00  0.00    -0.351 C  
BRANCH  27  28
HETATM   28  C   UNL     1     -10.428   7.468  73.107  1.00  0.00    -0.419 C  
BRANCH  28  29
HETATM   29  C   UNL     1     -10.209   5.979  72.979  1.00  0.00    -0.210 A  
HETATM   30  C   UNL     1     -10.125   5.381  71.717  1.00  0.00    -0.251 A  
HETATM   31  C   UNL     1     -10.003   3.997  71.600  1.00  0.00    -0.232 A  
HETATM   32  C   UNL     1      -9.968   3.200  72.742  1.00  0.00    -0.213 A  
HETATM   33  C   UNL     1     -10.047   3.786  74.004  1.00  0.00    -0.198 A  
HETATM   34  C   UNL     1     -10.169   5.171  74.124  1.00  0.00    -0.280 A  
ENDBRANCH  28  29
ENDBRANCH  27  28
ENDBRANCH  26  27
ENDBRANCH  25  26
ENDBRANCH  24  25
ENDBRANCH  23  24
ENDBRANCH  22  23
ENDBRANCH  21  22
ENDBRANCH  20  21
ENDBRANCH  19  20
ENDBRANCH  18  19
ENDBRANCH  16  18
ENDBRANCH  15  16
ENDBRANCH  12  15
ENDBRANCH  10  12
ENDBRANCH   2   4
TORSDOF 16
ENDMDL
MODEL      263
REMARK 921   NORMALIZED FREE ENERGY PREDICTED BY IDOCK:   -4.30 KCAL/MOL
REMARK 922        TOTAL FREE ENERGY PREDICTED BY IDOCK:  -10.67 KCAL/MOL
REMARK 923 INTER-LIGAND FREE ENERGY PREDICTED BY IDOCK:   -9.20 KCAL/MOL
REMARK 924 INTRA-LIGAND FREE ENERGY PREDICTED BY IDOCK:   -1.47 KCAL/MOL
REMARK 927      BINDING AFFINITY PREDICTED BY RF-SCORE:    0.00 PKD
ROOT
HETATM    1  O   UNL     1     -10.055  13.407  63.961  1.00  0.00    -0.764 OA 
HETATM    2  C   UNL     1     -10.949  12.417  64.470  1.00  0.00    -0.316 C  
HETATM    3  H   UNL     1     -10.530  14.203  63.753  1.00  0.00     0.000 HD 
ENDROOT
BRANCH   2   4
HETATM    4  C   UNL     1     -10.196  11.155  64.799  1.00  0.00    -0.365 A  
HETATM    5  C   UNL     1      -9.176  10.647  63.986  1.00  0.00    -0.239 A  
HETATM    6  O   UNL     1      -8.842  11.236  62.798  1.00  0.00    -0.434 OA 
HETATM    7  C   UNL     1      -8.473   9.500  64.334  1.00  0.00    -0.191 A  
HETATM    8  C   UNL     1      -8.797   8.818  65.505  1.00  0.00    -0.229 A  
HETATM    9  H   UNL     1      -8.150  10.891  62.245  1.00  0.00     0.000 HD 
HETATM   10  C   UNL     1      -9.816   9.291  66.348  1.00  0.00    -0.347 A  
HETATM   11  C   UNL     1     -10.490  10.473  65.994  1.00  0.00    -0.226 A  
BRANCH  10  12
HETATM   12  C   UNL     1     -10.216   8.539  67.604  1.00  0.00    -0.236 C  
HETATM   13  O   UNL     1     -11.216   7.556  67.294  1.00  0.00    -0.521 OA 
HETATM   14  H   UNL     1     -11.467   7.085  68.081  1.00  0.00     0.000 HD 
BRANCH  12  15
HETATM   15  C   UNL     1      -9.014   7.838  68.272  1.00  0.00    -0.131 C  
BRANCH  15  16
HETATM   16  N   UNL     1      -9.449   6.675  69.063  1.00  0.00    -0.133 NA 
HETATM   17  H   UNL     1      -8.844   5.866  68.917  1.00  0.00     0.000 HD 
BRANCH  16  18
HETATM   18  C   UNL     1      -9.547   7.036  70.473  1.00  0.00    -0.169 C  
BRANCH  18  19
HETATM   19  C   UNL     1     -10.886   6.578  71.038  1.00  0.00    -0.301 C  
BRANCH  19  20
HETATM   20  C   UNL     1     -11.821   7.773  71.213  1.00  0.00    -0.318 C  
BRANCH  20  21
HETATM   21  C   UNL     1     -11.056   8.982  71.731  1.00  0.00    -0.444 C  
BRANCH  21  22
HETATM   22  C   UNL     1     -10.955  10.073  70.672  1.00  0.00    -0.392 C  
BRANCH  22  23
HETATM   23  C   UNL     1     -12.101  11.062  70.822  1.00  0.00    -0.366 C  
BRANCH  23  24
HETATM   24  O   UNL     1     -11.868  12.156  69.944  1.00  0.00    -0.319 OA 
BRANCH  24  25
HETATM   25  C   UNL     1     -12.441  13.360  70.448  1.00  0.00    -0.252 C  
BRANCH  25  26
HETATM   26  C   UNL     1     -11.595  14.539  69.983  1.00  0.00    -0.339 C  
BRANCH  26  27
HETATM   27  C   UNL     1     -11.188  14.377  68.518  1.00  0.00    -0.286 C  
BRANCH  27  28
HETATM   28  C   UNL     1     -11.202  15.709  67.771  1.00  0.00    -0.297 C  
BRANCH  28  29
HETATM   29  C   UNL     1      -9.797  16.254  67.663  1.00  0.00    -0.238 A  
HETATM   30  C   UNL     1      -9.179  16.377  66.414  1.00  0.00    -0.335 A  
HETATM   31  C   UNL     1      -7.854  16.803  66.323  1.00  0.00    -0.334 A  
HETATM   32  C   UNL     1      -7.137  17.107  67.479  1.00  0.00    -0.175 A  
HETATM   33  C   UNL     1      -7.746  16.990  68.728  1.00  0.00    -0.249 A  
HETATM   34  C   UNL     1      -9.071  16.565  68.821  1.00  0.00    -0.256 A  
ENDBRANCH  28  29
ENDBRANCH  27  28
ENDBRANCH  26  27
ENDBRANCH  25  26
ENDBRANCH  24  25
ENDBRANCH  23  24
ENDBRANCH  22  23
ENDBRANCH  21  22
ENDBRANCH  20  21
ENDBRANCH  19  20
ENDBRANCH  18  19
ENDBRANCH  16  18
ENDBRANCH  15  16
ENDBRANCH  12  15
ENDBRANCH  10  12
ENDBRANCH   2   4
TORSDOF 16
ENDMDL
MODEL      264
REMARK 921   NORMALIZED FREE ENERGY PREDICTED BY IDOCK:   -4.29 KCAL/MOL
REMARK 922        TOTAL FREE ENERGY PREDICTED BY IDOCK:  -10.66 KCAL/MOL
REMARK 923 INTER-LIGAND FREE ENERGY PREDICTED BY IDOCK:   -8.77 KCAL/MOL
REMARK 924 INTRA-LIGAND FREE ENERGY PREDICTED BY IDOCK:   -1.89 KCAL/MOL
REMARK 927      BINDING AFFINITY PREDICTED BY RF-SCORE:    0.00 PKD
ROOT
HETATM    1  O   UNL     1      -6.866  10.769  66.803  1.00  0.00    -0.098 OA 
HETATM    2  C   UNL     1      -7.322   9.533  66.252  1.00  0.00    -0.093 C  
HETATM    3  H   UNL     1      -6.469  10.623  67.654  1.00  0.00     0.000 HD 
ENDROOT
BRANCH   2   4
HETATM    4  C   UNL     1      -7.952   9.765  64.904  1.00  0.00    -0.133 A  
HETATM    5  C   UNL     1      -7.585   9.043  63.762  1.00  0.00    -0.115 A  
HETATM    6  O   UNL     1      -6.578   8.119  63.787  1.00  0.00    -0.070 OA 
HETATM    7  C   UNL     1      -8.210   9.253  62.538  1.00  0.00    -0.158 A  
HETATM    8  C   UNL     1      -9.208  10.218  62.428  1.00  0.00    -0.311 A  
HETATM    9  H   UNL     1      -6.328   7.629  63.012  1.00  0.00     0.000 HD 
HETATM   10  C   UNL     1      -9.604  10.968  63.547  1.00  0.00    -0.344 A  
HETATM   11  C   UNL     1      -8.984  10.713  64.783  1.00  0.00    -0.218 A  
BRANCH  10  12
HETATM   12  C   UNL     1     -10.657  12.055  63.439  1.00  0.00    -0.428 C  
HETATM   13  O   UNL     1     -11.955  11.469  63.256  1.00  0.00    -0.847 OA 
HETATM   14  H   UNL     1     -12.615  12.149  63.189  1.00  0.00     0.000 HD 
BRANCH  12  15
HETATM   15  C   UNL     1     -10.690  12.961  64.688  1.00  0.00    -0.353 C  
BRANCH  15  16
HETATM   16  N   UNL     1     -11.923  12.754  65.465  1.00  0.00    -0.425 NA 
HETATM   17  H   UNL     1     -12.551  12.090  65.014  1.00  0.00     0.000 HD 
BRANCH  16  18
HETATM   18  C   UNL     1     -11.595  12.356  66.830  1.00  0.00    -0.370 C  
BRANCH  18  19
HETATM   19  C   UNL     1     -11.934  13.483  67.798  1.00  0.00    -0.369 C  
BRANCH  19  20
HETATM   20  C   UNL     1     -11.314  14.793  67.319  1.00  0.00    -0.366 C  
BRANCH  20  21
HETATM   21  C   UNL     1      -9.895  14.942  67.850  1.00  0.00    -0.214 C  
BRANCH  21  22
HETATM   22  C   UNL     1      -9.693  16.293  68.527  1.00  0.00    -0.224 C  
BRANCH  22  23
HETATM   23  C   UNL     1     -10.907  17.181  68.306  1.00  0.00    -0.314 C  
BRANCH  23  24
HETATM   24  O   UNL     1     -10.454  18.485  67.963  1.00  0.00    -0.384 OA 
BRANCH  24  25
HETATM   25  C   UNL     1     -10.399  18.662  66.550  1.00  0.00    -0.421 C  
BRANCH  25  26
HETATM   26  C   UNL     1      -9.870  20.059  66.251  1.00  0.00    -0.576 C  
BRANCH  26  27
HETATM   27  C   UNL     1      -8.418  20.206  66.709  1.00  0.00    -0.365 C  
BRANCH  27  28
HETATM   28  C   UNL     1      -7.489  19.235  65.983  1.00  0.00    -0.295 C  
BRANCH  28  29
HETATM   29  C   UNL     1      -6.867  18.280  66.973  1.00  0.00    -0.206 A  
HETATM   30  C   UNL     1      -6.539  16.975  66.589  1.00  0.00    -0.272 A  
HETATM   31  C   UNL     1      -6.040  16.070  67.525  1.00  0.00    -0.189 A  
HETATM   32  C   UNL     1      -5.868  16.460  68.852  1.00  0.00    -0.132 A  
HETATM   33  C   UNL     1      -6.189  17.759  69.243  1.00  0.00    -0.239 A  
HETATM   34  C   UNL     1      -6.688  18.667  68.309  1.00  0.00    -0.237 A  
ENDBRANCH  28  29
ENDBRANCH  27  28
ENDBRANCH  26  27
ENDBRANCH  25  26
ENDBRANCH  24  25
ENDBRANCH  23  24
ENDBRANCH  22  23
ENDBRANCH  21  22
ENDBRANCH  20  21
ENDBRANCH  19  20
ENDBRANCH  18  19
ENDBRANCH  16  18
ENDBRANCH  15  16
ENDBRANCH  12  15
ENDBRANCH  10  12
ENDBRANCH   2   4
TORSDOF 16
ENDMDL
MODEL      265
REMARK 921   NORMALIZED FREE ENERGY PREDICTED BY IDOCK:   -4.28 KCAL/MOL
REMARK 922        TOTAL FREE ENERGY PREDICTED BY IDOCK:  -10.63 KCAL/MOL
REMARK 923 INTER-LIGAND FREE ENERGY PREDICTED BY IDOCK:   -8.21 KCAL/MOL
REMARK 924 INTRA-LIGAND FREE ENERGY PREDICTED BY IDOCK:   -2.42 KCAL/MOL
REMARK 927      BINDING AFFINITY PREDICTED BY RF-SCORE:    0.00 PKD
ROOT
HETATM    1  O   UNL     1      -5.453  17.006  69.408  1.00  0.00    -0.142 OA 
HETATM    2  C   UNL     1      -6.285  15.863  69.200  1.00  0.00    -0.140 C  
HETATM    3  H   UNL     1      -4.757  16.797  70.021  1.00  0.00     0.000 HD 
ENDROOT
BRANCH   2   4
HETATM    4  C   UNL     1      -7.388  16.193  68.229  1.00  0.00    -0.140 A  
HETATM    5  C   UNL     1      -7.155  16.824  67.002  1.00  0.00    -0.203 A  
HETATM    6  O   UNL     1      -5.906  17.242  66.633  1.00  0.00    -0.175 OA 
HETATM    7  C   UNL     1      -8.189  17.081  66.110  1.00  0.00    -0.284 A  
HETATM    8  C   UNL     1      -9.495  16.730  66.444  1.00  0.00    -0.307 A  
HETATM    9  H   UNL     1      -5.747  17.670  65.800  1.00  0.00     0.000 HD 
HETATM   10  C   UNL     1      -9.774  16.100  67.667  1.00  0.00    -0.233 A  
HETATM   11  C   UNL     1      -8.708  15.816  68.538  1.00  0.00    -0.184 A  
BRANCH  10  12
HETATM   12  C   UNL     1     -11.194  15.750  68.071  1.00  0.00    -0.338 C  
HETATM   13  O   UNL     1     -11.672  14.644  67.289  1.00  0.00    -0.381 OA 
HETATM   14  H   UNL     1     -12.562  14.424  67.542  1.00  0.00     0.000 HD 
BRANCH  12  15
HETATM   15  C   UNL     1     -11.303  15.388  69.567  1.00  0.00    -0.301 C  
BRANCH  15  16
HETATM   16  N   UNL     1     -12.664  14.944  69.911  1.00  0.00    -0.589 NA 
HETATM   17  H   UNL     1     -13.064  14.345  69.189  1.00  0.00     0.000 HD 
BRANCH  16  18
HETATM   18  C   UNL     1     -12.665  14.298  71.220  1.00  0.00    -0.357 C  
BRANCH  18  19
HETATM   19  C   UNL     1     -12.517  12.791  71.058  1.00  0.00    -0.369 C  
BRANCH  19  20
HETATM   20  C   UNL     1     -13.446  12.063  72.027  1.00  0.00    -0.364 C  
BRANCH  20  21
HETATM   21  C   UNL     1     -13.072  10.592  72.128  1.00  0.00    -0.413 C  
BRANCH  21  22
HETATM   22  C   UNL     1     -12.014  10.214  71.097  1.00  0.00    -0.480 C  
BRANCH  22  23
HETATM   23  C   UNL     1     -11.335   8.911  71.490  1.00  0.00    -0.325 C  
BRANCH  23  24
HETATM   24  O   UNL     1     -12.337   7.918  71.667  1.00  0.00    -0.296 OA 
BRANCH  24  25
HETATM   25  C   UNL     1     -12.335   6.978  70.595  1.00  0.00    -0.190 C  
BRANCH  25  26
HETATM   26  C   UNL     1     -10.908   6.822  70.083  1.00  0.00    -0.311 C  
BRANCH  26  27
HETATM   27  C   UNL     1     -10.883   6.693  68.559  1.00  0.00    -0.319 C  
BRANCH  27  28
HETATM   28  C   UNL     1      -9.659   7.373  67.949  1.00  0.00    -0.157 C  
BRANCH  28  29
HETATM   29  C   UNL     1      -9.799   8.873  68.054  1.00  0.00    -0.199 A  
HETATM   30  C   UNL     1      -8.914   9.613  68.846  1.00  0.00    -0.144 A  
HETATM   31  C   UNL     1      -9.094  10.987  69.006  1.00  0.00    -0.076 A  
HETATM   32  C   UNL     1     -10.159  11.631  68.379  1.00  0.00    -0.207 A  
HETATM   33  C   UNL     1     -11.043  10.902  67.585  1.00  0.00    -0.376 A  
HETATM   34  C   UNL     1     -10.866   9.528  67.422  1.00  0.00    -0.215 A  
ENDBRANCH  28  29
ENDBRANCH  27  28
ENDBRANCH  26  27
ENDBRANCH  25  26
ENDBRANCH  24  25
ENDBRANCH  23  24
ENDBRANCH  22  23
ENDBRANCH  21  22
ENDBRANCH  20  21
ENDBRANCH  19  20
ENDBRANCH  18  19
ENDBRANCH  16  18
ENDBRANCH  15  16
ENDBRANCH  12  15
ENDBRANCH  10  12
ENDBRANCH   2   4
TORSDOF 16
ENDMDL
MODEL      266
REMARK 921   NORMALIZED FREE ENERGY PREDICTED BY IDOCK:   -4.26 KCAL/MOL
REMARK 922        TOTAL FREE ENERGY PREDICTED BY IDOCK:  -10.59 KCAL/MOL
REMARK 923 INTER-LIGAND FREE ENERGY PREDICTED BY IDOCK:   -9.15 KCAL/MOL
REMARK 924 INTRA-LIGAND FREE ENERGY PREDICTED BY IDOCK:   -1.45 KCAL/MOL
REMARK 927      BINDING AFFINITY PREDICTED BY RF-SCORE:    0.00 PKD
ROOT
HETATM    1  O   UNL     1     -10.532   4.235  62.716  1.00  0.00    -0.375 OA 
HETATM    2  C   UNL     1     -10.304   3.100  63.553  1.00  0.00    -0.212 C  
HETATM    3  H   UNL     1     -10.723   3.955  61.828  1.00  0.00     0.000 HD 
ENDROOT
BRANCH   2   4
HETATM    4  C   UNL     1     -10.001   3.543  64.960  1.00  0.00    -0.063 A  
HETATM    5  C   UNL     1      -9.268   2.760  65.860  1.00  0.00    -0.080 A  
HETATM    6  O   UNL     1      -8.833   1.505  65.535  1.00  0.00    -0.116 OA 
HETATM    7  C   UNL     1      -8.973   3.212  67.141  1.00  0.00    -0.181 A  
HETATM    8  C   UNL     1      -9.431   4.459  67.558  1.00  0.00    -0.201 A  
HETATM    9  H   UNL     1      -8.337   0.974  66.146  1.00  0.00     0.000 HD 
HETATM   10  C   UNL     1     -10.172   5.275  66.689  1.00  0.00    -0.291 A  
HETATM   11  C   UNL     1     -10.429   4.814  65.386  1.00  0.00    -0.106 A  
BRANCH  10  12
HETATM   12  C   UNL     1     -10.719   6.617  67.137  1.00  0.00    -0.370 C  
HETATM   13  O   UNL     1     -11.231   6.521  68.475  1.00  0.00    -0.498 OA 
HETATM   14  H   UNL     1     -11.574   7.361  68.756  1.00  0.00     0.000 HD 
BRANCH  12  15
HETATM   15  C   UNL     1      -9.649   7.729  67.090  1.00  0.00    -0.170 C  
BRANCH  15  16
HETATM   16  N   UNL     1      -9.634   8.398  65.779  1.00  0.00    -0.451 NA 
HETATM   17  H   UNL     1     -10.558   8.415  65.348  1.00  0.00     0.000 HD 
BRANCH  16  18
HETATM   18  C   UNL     1      -9.067   9.737  65.906  1.00  0.00    -0.168 C  
BRANCH  18  19
HETATM   19  C   UNL     1      -9.083  10.174  67.366  1.00  0.00    -0.149 C  
BRANCH  19  20
HETATM   20  C   UNL     1      -9.768  11.532  67.501  1.00  0.00    -0.189 C  
BRANCH  20  21
HETATM   21  C   UNL     1     -11.236  11.435  67.111  1.00  0.00    -0.363 C  
BRANCH  21  22
HETATM   22  C   UNL     1     -11.622  12.526  66.119  1.00  0.00    -0.448 C  
BRANCH  22  23
HETATM   23  C   UNL     1     -10.585  13.639  66.129  1.00  0.00    -0.291 C  
BRANCH  23  24
HETATM   24  O   UNL     1     -11.254  14.878  65.931  1.00  0.00    -0.335 OA 
BRANCH  24  25
HETATM   25  C   UNL     1     -10.846  15.850  66.891  1.00  0.00    -0.240 C  
BRANCH  25  26
HETATM   26  C   UNL     1      -9.764  15.242  67.775  1.00  0.00    -0.215 C  
BRANCH  26  27
HETATM   27  C   UNL     1     -10.321  14.877  69.152  1.00  0.00    -0.246 C  
BRANCH  27  28
HETATM   28  C   UNL     1     -11.545  15.717  69.513  1.00  0.00    -0.366 C  
BRANCH  28  29
HETATM   29  C   UNL     1     -12.385  14.988  70.536  1.00  0.00    -0.411 A  
HETATM   30  C   UNL     1     -13.142  15.703  71.470  1.00  0.00    -0.561 A  
HETATM   31  C   UNL     1     -13.852  15.030  72.464  1.00  0.00    -0.571 A  
HETATM   32  C   UNL     1     -13.809  13.639  72.533  1.00  0.00    -0.620 A  
HETATM   33  C   UNL     1     -13.060  12.918  71.605  1.00  0.00    -0.430 A  
HETATM   34  C   UNL     1     -12.349  13.588  70.609  1.00  0.00    -0.432 A  
ENDBRANCH  28  29
ENDBRANCH  27  28
ENDBRANCH  26  27
ENDBRANCH  25  26
ENDBRANCH  24  25
ENDBRANCH  23  24
ENDBRANCH  22  23
ENDBRANCH  21  22
ENDBRANCH  20  21
ENDBRANCH  19  20
ENDBRANCH  18  19
ENDBRANCH  16  18
ENDBRANCH  15  16
ENDBRANCH  12  15
ENDBRANCH  10  12
ENDBRANCH   2   4
TORSDOF 16
ENDMDL
MODEL      267
REMARK 921   NORMALIZED FREE ENERGY PREDICTED BY IDOCK:   -4.25 KCAL/MOL
REMARK 922        TOTAL FREE ENERGY PREDICTED BY IDOCK:  -10.57 KCAL/MOL
REMARK 923 INTER-LIGAND FREE ENERGY PREDICTED BY IDOCK:   -8.52 KCAL/MOL
REMARK 924 INTRA-LIGAND FREE ENERGY PREDICTED BY IDOCK:   -2.05 KCAL/MOL
REMARK 927      BINDING AFFINITY PREDICTED BY RF-SCORE:    0.00 PKD
ROOT
HETATM    1  O   UNL     1     -13.538  11.052  72.216  1.00  0.00    -0.550 OA 
HETATM    2  C   UNL     1     -13.027  10.413  71.045  1.00  0.00    -0.399 C  
HETATM    3  H   UNL     1     -14.150  11.738  71.974  1.00  0.00     0.000 HD 
ENDROOT
BRANCH   2   4
HETATM    4  C   UNL     1     -12.057   9.326  71.427  1.00  0.00    -0.424 A  
HETATM    5  C   UNL     1     -12.465   8.101  71.967  1.00  0.00    -0.336 A  
HETATM    6  O   UNL     1     -13.778   7.838  72.243  1.00  0.00    -0.514 OA 
HETATM    7  C   UNL     1     -11.549   7.102  72.275  1.00  0.00    -0.309 A  
HETATM    8  C   UNL     1     -10.189   7.322  72.070  1.00  0.00    -0.212 A  
HETATM    9  H   UNL     1     -14.056   7.006  72.610  1.00  0.00     0.000 HD 
HETATM   10  C   UNL     1      -9.736   8.539  71.534  1.00  0.00    -0.303 A  
HETATM   11  C   UNL     1     -10.683   9.521  71.196  1.00  0.00    -0.408 A  
BRANCH  10  12
HETATM   12  C   UNL     1      -8.256   8.817  71.345  1.00  0.00    -0.153 C  
HETATM   13  O   UNL     1      -7.500   7.608  71.515  1.00  0.00    -0.075 OA 
HETATM   14  H   UNL     1      -6.573   7.783  71.396  1.00  0.00     0.000 HD 
BRANCH  12  15
HETATM   15  C   UNL     1      -7.948   9.408  69.952  1.00  0.00    -0.130 C  
BRANCH  15  16
HETATM   16  N   UNL     1      -7.430  10.782  70.059  1.00  0.00    -0.415 NA 
HETATM   17  H   UNL     1      -6.914  10.929  70.926  1.00  0.00     0.000 HD 
BRANCH  16  18
HETATM   18  C   UNL     1      -6.629  11.109  68.884  1.00  0.00    -0.065 C  
BRANCH  18  19
HETATM   19  C   UNL     1      -6.112  12.538  68.985  1.00  0.00    -0.081 C  
BRANCH  19  20
HETATM   20  C   UNL     1      -7.279  13.523  68.974  1.00  0.00    -0.031 C  
BRANCH  20  21
HETATM   21  C   UNL     1      -6.813  14.914  69.378  1.00  0.00    -0.164 C  
BRANCH  21  22
HETATM   22  C   UNL     1      -6.827  15.872  68.193  1.00  0.00    -0.129 C  
BRANCH  22  23
HETATM   23  C   UNL     1      -8.096  16.709  68.205  1.00  0.00    -0.198 C  
BRANCH  23  24
HETATM   24  O   UNL     1      -9.035  16.115  67.317  1.00  0.00    -0.191 OA 
BRANCH  24  25
HETATM   25  C   UNL     1     -10.371  16.282  67.783  1.00  0.00    -0.287 C  
BRANCH  25  26
HETATM   26  C   UNL     1     -11.268  15.275  67.073  1.00  0.00    -0.275 C  
BRANCH  26  27
HETATM   27  C   UNL     1     -11.008  13.856  67.580  1.00  0.00    -0.278 C  
BRANCH  27  28
HETATM   28  C   UNL     1     -11.904  12.830  66.889  1.00  0.00    -0.440 C  
BRANCH  28  29
HETATM   29  C   UNL     1     -11.136  11.551  66.655  1.00  0.00    -0.355 A  
HETATM   30  C   UNL     1     -10.505  11.318  65.428  1.00  0.00    -0.326 A  
HETATM   31  C   UNL     1      -9.865  10.102  65.185  1.00  0.00    -0.394 A  
HETATM   32  C   UNL     1      -9.851   9.112  66.165  1.00  0.00    -0.363 A  
HETATM   33  C   UNL     1     -10.474   9.336  67.392  1.00  0.00    -0.340 A  
HETATM   34  C   UNL     1     -11.115  10.551  67.638  1.00  0.00    -0.375 A  
ENDBRANCH  28  29
ENDBRANCH  27  28
ENDBRANCH  26  27
ENDBRANCH  25  26
ENDBRANCH  24  25
ENDBRANCH  23  24
ENDBRANCH  22  23
ENDBRANCH  21  22
ENDBRANCH  20  21
ENDBRANCH  19  20
ENDBRANCH  18  19
ENDBRANCH  16  18
ENDBRANCH  15  16
ENDBRANCH  12  15
ENDBRANCH  10  12
ENDBRANCH   2   4
TORSDOF 16
ENDMDL
MODEL      268
REMARK 921   NORMALIZED FREE ENERGY PREDICTED BY IDOCK:   -4.24 KCAL/MOL
REMARK 922        TOTAL FREE ENERGY PREDICTED BY IDOCK:  -10.56 KCAL/MOL
REMARK 923 INTER-LIGAND FREE ENERGY PREDICTED BY IDOCK:   -8.83 KCAL/MOL
REMARK 924 INTRA-LIGAND FREE ENERGY PREDICTED BY IDOCK:   -1.73 KCAL/MOL
REMARK 927      BINDING AFFINITY PREDICTED BY RF-SCORE:    0.00 PKD
ROOT
HETATM    1  O   UNL     1     -12.458  14.690  67.398  1.00  0.00    -0.537 OA 
HETATM    2  C   UNL     1     -11.162  14.484  66.836  1.00  0.00    -0.336 C  
HETATM    3  H   UNL     1     -12.413  15.329  68.101  1.00  0.00     0.000 HD 
ENDROOT
BRANCH   2   4
HETATM    4  C   UNL     1     -11.232  13.471  65.723  1.00  0.00    -0.308 A  
HETATM    5  C   UNL     1     -12.111  13.595  64.640  1.00  0.00    -0.412 A  
HETATM    6  O   UNL     1     -13.012  14.619  64.558  1.00  0.00    -0.491 OA 
HETATM    7  C   UNL     1     -12.127  12.663  63.609  1.00  0.00    -0.632 A  
HETATM    8  C   UNL     1     -11.272  11.565  63.655  1.00  0.00    -0.451 A  
HETATM    9  H   UNL     1     -13.609  14.703  63.823  1.00  0.00     0.000 HD 
HETATM   10  C   UNL     1     -10.378  11.399  64.725  1.00  0.00    -0.349 A  
HETATM   11  C   UNL     1     -10.353  12.373  65.739  1.00  0.00    -0.289 A  
BRANCH  10  12
HETATM   12  C   UNL     1      -9.470  10.187  64.818  1.00  0.00    -0.295 C  
HETATM   13  O   UNL     1      -8.100  10.582  64.646  1.00  0.00    -0.263 OA 
HETATM   14  H   UNL     1      -7.531   9.823  64.705  1.00  0.00     0.000 HD 
BRANCH  12  15
HETATM   15  C   UNL     1      -9.614   9.453  66.168  1.00  0.00    -0.247 C  
BRANCH  15  16
HETATM   16  N   UNL     1      -9.788   8.004  65.970  1.00  0.00    -0.449 NA 
HETATM   17  H   UNL     1      -8.960   7.573  65.561  1.00  0.00     0.000 HD 
BRANCH  16  18
HETATM   18  C   UNL     1     -10.170   7.370  67.228  1.00  0.00    -0.260 C  
BRANCH  18  19
HETATM   19  C   UNL     1     -10.799   6.009  66.956  1.00  0.00    -0.413 C  
BRANCH  19  20
HETATM   20  C   UNL     1      -9.837   4.894  67.359  1.00  0.00    -0.213 C  
BRANCH  20  21
HETATM   21  C   UNL     1      -9.009   4.442  66.165  1.00  0.00    -0.121 C  
BRANCH  21  22
HETATM   22  C   UNL     1      -7.834   3.574  66.599  1.00  0.00    -0.081 C  
BRANCH  22  23
HETATM   23  C   UNL     1      -6.867   4.382  67.451  1.00  0.00    -0.055 C  
BRANCH  23  24
HETATM   24  O   UNL     1      -6.604   3.654  68.644  1.00  0.00    -0.039 OA 
BRANCH  24  25
HETATM   25  C   UNL     1      -7.116   4.331  69.790  1.00  0.00    -0.049 C  
BRANCH  25  26
HETATM   26  C   UNL     1      -7.997   3.367  70.575  1.00  0.00    -0.050 C  
BRANCH  26  27
HETATM   27  C   UNL     1      -9.473   3.752  70.457  1.00  0.00    -0.254 C  
BRANCH  27  28
HETATM   28  C   UNL     1     -10.108   4.005  71.822  1.00  0.00    -0.199 C  
BRANCH  28  29
HETATM   29  C   UNL     1     -10.605   5.430  71.902  1.00  0.00    -0.288 A  
HETATM   30  C   UNL     1     -11.078   6.080  70.758  1.00  0.00    -0.355 A  
HETATM   31  C   UNL     1     -11.460   7.420  70.817  1.00  0.00    -0.313 A  
HETATM   32  C   UNL     1     -11.370   8.120  72.018  1.00  0.00    -0.378 A  
HETATM   33  C   UNL     1     -10.904   7.479  73.165  1.00  0.00    -0.448 A  
HETATM   34  C   UNL     1     -10.521   6.139  73.109  1.00  0.00    -0.254 A  
ENDBRANCH  28  29
ENDBRANCH  27  28
ENDBRANCH  26  27
ENDBRANCH  25  26
ENDBRANCH  24  25
ENDBRANCH  23  24
ENDBRANCH  22  23
ENDBRANCH  21  22
ENDBRANCH  20  21
ENDBRANCH  19  20
ENDBRANCH  18  19
ENDBRANCH  16  18
ENDBRANCH  15  16
ENDBRANCH  12  15
ENDBRANCH  10  12
ENDBRANCH   2   4
TORSDOF 16
ENDMDL
MODEL      269
REMARK 921   NORMALIZED FREE ENERGY PREDICTED BY IDOCK:   -4.23 KCAL/MOL
REMARK 922        TOTAL FREE ENERGY PREDICTED BY IDOCK:  -10.54 KCAL/MOL
REMARK 923 INTER-LIGAND FREE ENERGY PREDICTED BY IDOCK:   -9.42 KCAL/MOL
REMARK 924 INTRA-LIGAND FREE ENERGY PREDICTED BY IDOCK:   -1.12 KCAL/MOL
REMARK 927      BINDING AFFINITY PREDICTED BY RF-SCORE:    0.00 PKD
ROOT
HETATM    1  O   UNL     1     -10.445  17.642  67.141  1.00  0.00    -0.339 OA 
HETATM    2  C   UNL     1      -9.804  16.967  66.058  1.00  0.00    -0.258 C  
HETATM    3  H   UNL     1      -9.967  18.433  67.364  1.00  0.00     0.000 HD 
ENDROOT
BRANCH   2   4
HETATM    4  C   UNL     1     -10.560  15.713  65.706  1.00  0.00    -0.374 A  
HETATM    5  C   UNL     1     -11.402  15.623  64.591  1.00  0.00    -0.349 A  
HETATM    6  O   UNL     1     -11.642  16.698  63.782  1.00  0.00    -1.506 OA 
HETATM    7  C   UNL     1     -12.058  14.440  64.270  1.00  0.00    -0.461 A  
HETATM    8  C   UNL     1     -11.901  13.319  65.082  1.00  0.00    -0.377 A  
HETATM    9  H   UNL     1     -12.214  16.638  63.025  1.00  0.00     0.000 HD 
HETATM   10  C   UNL     1     -11.069  13.367  66.212  1.00  0.00    -0.305 A  
HETATM   11  C   UNL     1     -10.387  14.563  66.497  1.00  0.00    -0.283 A  
BRANCH  10  12
HETATM   12  C   UNL     1     -10.919  12.172  67.135  1.00  0.00    -0.268 C  
HETATM   13  O   UNL     1      -9.589  12.129  67.675  1.00  0.00    -0.182 OA 
HETATM   14  H   UNL     1      -9.495  11.381  68.254  1.00  0.00     0.000 HD 
BRANCH  12  15
HETATM   15  C   UNL     1     -11.931  12.204  68.300  1.00  0.00    -0.187 C  
BRANCH  15  16
HETATM   16  N   UNL     1     -12.130  10.862  68.870  1.00  0.00    -0.725 NA 
HETATM   17  H   UNL     1     -11.394  10.214  68.589  1.00  0.00     0.000 HD 
BRANCH  16  18
HETATM   18  C   UNL     1     -12.258  10.947  70.322  1.00  0.00    -0.348 C  
BRANCH  18  19
HETATM   19  C   UNL     1     -11.769   9.656  70.966  1.00  0.00    -0.433 C  
BRANCH  19  20
HETATM   20  C   UNL     1     -10.252   9.541  70.831  1.00  0.00    -0.356 C  
BRANCH  20  21
HETATM   21  C   UNL     1      -9.667   8.761  71.999  1.00  0.00    -0.370 C  
BRANCH  21  22
HETATM   22  C   UNL     1      -8.577   7.801  71.538  1.00  0.00    -0.133 C  
BRANCH  22  23
HETATM   23  C   UNL     1      -8.363   7.927  70.037  1.00  0.00    -0.121 C  
BRANCH  23  24
HETATM   24  O   UNL     1      -7.249   7.122  69.673  1.00  0.00    -0.072 OA 
BRANCH  24  25
HETATM   25  C   UNL     1      -7.148   6.980  68.258  1.00  0.00    -0.082 C  
BRANCH  25  26
HETATM   26  C   UNL     1      -7.480   5.540  67.885  1.00  0.00    -0.080 C  
BRANCH  26  27
HETATM   27  C   UNL     1      -8.695   5.480  66.959  1.00  0.00    -0.108 C  
BRANCH  27  28
HETATM   28  C   UNL     1      -9.667   4.373  67.364  1.00  0.00    -0.217 C  
BRANCH  28  29
HETATM   29  C   UNL     1      -9.908   4.420  68.854  1.00  0.00    -0.163 A  
HETATM   30  C   UNL     1     -10.608   5.488  69.425  1.00  0.00    -0.349 A  
HETATM   31  C   UNL     1     -10.760   5.571  70.809  1.00  0.00    -0.294 A  
HETATM   32  C   UNL     1     -10.211   4.590  71.632  1.00  0.00    -0.214 A  
HETATM   33  C   UNL     1      -9.515   3.519  71.072  1.00  0.00    -0.226 A  
HETATM   34  C   UNL     1      -9.362   3.434  69.688  1.00  0.00    -0.241 A  
ENDBRANCH  28  29
ENDBRANCH  27  28
ENDBRANCH  26  27
ENDBRANCH  25  26
ENDBRANCH  24  25
ENDBRANCH  23  24
ENDBRANCH  22  23
ENDBRANCH  21  22
ENDBRANCH  20  21
ENDBRANCH  19  20
ENDBRANCH  18  19
ENDBRANCH  16  18
ENDBRANCH  15  16
ENDBRANCH  12  15
ENDBRANCH  10  12
ENDBRANCH   2   4
TORSDOF 16
ENDMDL
MODEL      270
REMARK 921   NORMALIZED FREE ENERGY PREDICTED BY IDOCK:   -4.22 KCAL/MOL
REMARK 922        TOTAL FREE ENERGY PREDICTED BY IDOCK:  -10.51 KCAL/MOL
REMARK 923 INTER-LIGAND FREE ENERGY PREDICTED BY IDOCK:   -9.20 KCAL/MOL
REMARK 924 INTRA-LIGAND FREE ENERGY PREDICTED BY IDOCK:   -1.32 KCAL/MOL
REMARK 927      BINDING AFFINITY PREDICTED BY RF-SCORE:    0.00 PKD
ROOT
HETATM    1  O   UNL     1      -9.169   5.535  67.884  1.00  0.00    -0.108 OA 
HETATM    2  C   UNL     1      -9.926   6.557  67.233  1.00  0.00    -0.147 C  
HETATM    3  H   UNL     1      -9.626   5.232  68.660  1.00  0.00     0.000 HD 
ENDROOT
BRANCH   2   4
HETATM    4  C   UNL     1      -9.202   7.037  66.003  1.00  0.00    -0.066 A  
HETATM    5  C   UNL     1      -8.372   6.208  65.239  1.00  0.00    -0.144 A  
HETATM    6  O   UNL     1      -8.115   4.915  65.602  1.00  0.00    -0.108 OA 
HETATM    7  C   UNL     1      -7.746   6.670  64.087  1.00  0.00    -0.109 A  
HETATM    8  C   UNL     1      -7.921   7.993  63.687  1.00  0.00    -0.130 A  
HETATM    9  H   UNL     1      -7.552   4.352  65.084  1.00  0.00     0.000 HD 
HETATM   10  C   UNL     1      -8.741   8.860  64.427  1.00  0.00    -0.099 A  
HETATM   11  C   UNL     1      -9.393   8.362  65.568  1.00  0.00     0.026 A  
BRANCH  10  12
HETATM   12  C   UNL     1      -8.910  10.316  64.036  1.00  0.00    -0.221 C  
HETATM   13  O   UNL     1      -8.887  10.450  62.606  1.00  0.00    -0.189 OA 
HETATM   14  H   UNL     1      -8.993  11.362  62.360  1.00  0.00     0.000 HD 
BRANCH  12  15
HETATM   15  C   UNL     1     -10.227  10.916  64.573  1.00  0.00    -0.356 C  
BRANCH  15  16
HETATM   16  N   UNL     1     -11.157  11.229  63.475  1.00  0.00    -0.702 NA 
HETATM   17  H   UNL     1     -11.363  10.409  62.904  1.00  0.00     0.000 HD 
BRANCH  16  18
HETATM   18  C   UNL     1     -12.369  11.844  64.005  1.00  0.00    -0.327 C  
BRANCH  18  19
HETATM   19  C   UNL     1     -12.065  12.547  65.322  1.00  0.00    -0.500 C  
BRANCH  19  20
HETATM   20  C   UNL     1     -12.668  13.950  65.322  1.00  0.00    -0.485 C  
BRANCH  20  21
HETATM   21  C   UNL     1     -11.601  14.994  65.025  1.00  0.00    -0.332 C  
BRANCH  21  22
HETATM   22  C   UNL     1     -10.205  14.382  65.039  1.00  0.00    -0.406 C  
BRANCH  22  23
HETATM   23  C   UNL     1      -9.322  15.104  66.046  1.00  0.00    -0.291 C  
BRANCH  23  24
HETATM   24  O   UNL     1      -9.575  16.500  65.946  1.00  0.00    -0.415 OA 
BRANCH  24  25
HETATM   25  C   UNL     1      -9.279  17.172  67.167  1.00  0.00    -0.236 C  
BRANCH  25  26
HETATM   26  C   UNL     1     -10.465  17.019  68.112  1.00  0.00    -0.357 C  
BRANCH  26  27
HETATM   27  C   UNL     1     -10.143  16.038  69.241  1.00  0.00    -0.249 C  
BRANCH  27  28
HETATM   28  C   UNL     1     -11.191  14.933  69.353  1.00  0.00    -0.302 C  
BRANCH  28  29
HETATM   29  C   UNL     1     -12.075  15.181  70.552  1.00  0.00    -0.390 A  
HETATM   30  C   UNL     1     -11.592  15.899  71.652  1.00  0.00    -0.541 A  
HETATM   31  C   UNL     1     -12.381  16.058  72.790  1.00  0.00    -0.603 A  
HETATM   32  C   UNL     1     -13.657  15.500  72.840  1.00  0.00    -0.633 A  
HETATM   33  C   UNL     1     -14.149  14.786  71.747  1.00  0.00    -0.598 A  
HETATM   34  C   UNL     1     -13.361  14.626  70.607  1.00  0.00    -0.181 A  
ENDBRANCH  28  29
ENDBRANCH  27  28
ENDBRANCH  26  27
ENDBRANCH  25  26
ENDBRANCH  24  25
ENDBRANCH  23  24
ENDBRANCH  22  23
ENDBRANCH  21  22
ENDBRANCH  20  21
ENDBRANCH  19  20
ENDBRANCH  18  19
ENDBRANCH  16  18
ENDBRANCH  15  16
ENDBRANCH  12  15
ENDBRANCH  10  12
ENDBRANCH   2   4
TORSDOF 16
ENDMDL
MODEL      271
REMARK 921   NORMALIZED FREE ENERGY PREDICTED BY IDOCK:   -4.22 KCAL/MOL
REMARK 922        TOTAL FREE ENERGY PREDICTED BY IDOCK:  -10.50 KCAL/MOL
REMARK 923 INTER-LIGAND FREE ENERGY PREDICTED BY IDOCK:   -8.70 KCAL/MOL
REMARK 924 INTRA-LIGAND FREE ENERGY PREDICTED BY IDOCK:   -1.81 KCAL/MOL
REMARK 927      BINDING AFFINITY PREDICTED BY RF-SCORE:    0.00 PKD
ROOT
HETATM    1  O   UNL     1      -6.638   4.469  63.330  1.00  0.00    -0.029 OA 
HETATM    2  C   UNL     1      -7.576   3.703  64.086  1.00  0.00    -0.075 C  
HETATM    3  H   UNL     1      -6.107   3.897  62.789  1.00  0.00     0.000 HD 
ENDROOT
BRANCH   2   4
HETATM    4  C   UNL     1      -8.418   4.610  64.944  1.00  0.00    -0.135 A  
HETATM    5  C   UNL     1      -9.554   4.165  65.631  1.00  0.00    -0.188 A  
HETATM    6  O   UNL     1     -10.010   2.881  65.513  1.00  0.00    -0.364 OA 
HETATM    7  C   UNL     1     -10.290   5.017  66.445  1.00  0.00    -0.335 A  
HETATM    8  C   UNL     1      -9.914   6.352  66.570  1.00  0.00    -0.162 A  
HETATM    9  H   UNL     1     -10.781   2.579  65.978  1.00  0.00     0.000 HD 
HETATM   10  C   UNL     1      -8.784   6.841  65.895  1.00  0.00    -0.147 A  
HETATM   11  C   UNL     1      -8.033   5.953  65.105  1.00  0.00    -0.121 A  
BRANCH  10  12
HETATM   12  C   UNL     1      -8.382   8.302  65.981  1.00  0.00    -0.128 C  
HETATM   13  O   UNL     1      -7.448   8.496  67.055  1.00  0.00    -0.083 OA 
HETATM   14  H   UNL     1      -7.196   9.410  67.108  1.00  0.00     0.000 HD 
BRANCH  12  15
HETATM   15  C   UNL     1      -7.746   8.810  64.669  1.00  0.00    -0.119 C  
BRANCH  15  16
HETATM   16  N   UNL     1      -8.648   9.736  63.964  1.00  0.00    -0.180 NA 
HETATM   17  H   UNL     1      -9.437   9.250  63.537  1.00  0.00     0.000 HD 
BRANCH  16  18
HETATM   18  C   UNL     1      -9.083  10.796  64.867  1.00  0.00    -0.198 C  
BRANCH  18  19
HETATM   19  C   UNL     1     -10.584  11.014  64.731  1.00  0.00    -0.350 C  
BRANCH  19  20
HETATM   20  C   UNL     1     -10.902  11.670  63.389  1.00  0.00    -0.453 C  
BRANCH  20  21
HETATM   21  C   UNL     1     -12.183  12.487  63.481  1.00  0.00    -0.652 C  
BRANCH  21  22
HETATM   22  C   UNL     1     -12.577  12.745  64.930  1.00  0.00    -0.541 C  
BRANCH  22  23
HETATM   23  C   UNL     1     -12.375  14.212  65.279  1.00  0.00    -0.460 C  
BRANCH  23  24
HETATM   24  O   UNL     1     -12.170  14.315  66.683  1.00  0.00    -0.449 OA 
BRANCH  24  25
HETATM   25  C   UNL     1     -10.847  13.926  67.046  1.00  0.00    -0.285 C  
BRANCH  25  26
HETATM   26  C   UNL     1     -10.800  13.691  68.550  1.00  0.00    -0.275 C  
BRANCH  26  27
HETATM   27  C   UNL     1     -11.908  12.732  68.990  1.00  0.00    -0.344 C  
BRANCH  27  28
HETATM   28  C   UNL     1     -11.639  11.300  68.532  1.00  0.00    -0.384 C  
BRANCH  28  29
HETATM   29  C   UNL     1     -11.204  10.457  69.707  1.00  0.00    -0.353 A  
HETATM   30  C   UNL     1      -9.896   9.965  69.781  1.00  0.00    -0.268 A  
HETATM   31  C   UNL     1      -9.520   9.121  70.825  1.00  0.00    -0.334 A  
HETATM   32  C   UNL     1     -10.447   8.760  71.801  1.00  0.00    -0.417 A  
HETATM   33  C   UNL     1     -11.751   9.249  71.738  1.00  0.00    -0.456 A  
HETATM   34  C   UNL     1     -12.130  10.094  70.695  1.00  0.00    -0.411 A  
ENDBRANCH  28  29
ENDBRANCH  27  28
ENDBRANCH  26  27
ENDBRANCH  25  26
ENDBRANCH  24  25
ENDBRANCH  23  24
ENDBRANCH  22  23
ENDBRANCH  21  22
ENDBRANCH  20  21
ENDBRANCH  19  20
ENDBRANCH  18  19
ENDBRANCH  16  18
ENDBRANCH  15  16
ENDBRANCH  12  15
ENDBRANCH  10  12
ENDBRANCH   2   4
TORSDOF 16
ENDMDL
MODEL      272
REMARK 921   NORMALIZED FREE ENERGY PREDICTED BY IDOCK:   -4.21 KCAL/MOL
REMARK 922        TOTAL FREE ENERGY PREDICTED BY IDOCK:  -10.50 KCAL/MOL
REMARK 923 INTER-LIGAND FREE ENERGY PREDICTED BY IDOCK:   -8.19 KCAL/MOL
REMARK 924 INTRA-LIGAND FREE ENERGY PREDICTED BY IDOCK:   -2.31 KCAL/MOL
REMARK 927      BINDING AFFINITY PREDICTED BY RF-SCORE:    0.00 PKD
ROOT
HETATM    1  O   UNL     1      -9.751   9.487  63.533  1.00  0.00    -0.417 OA 
HETATM    2  C   UNL     1      -9.327   9.554  64.895  1.00  0.00    -0.198 C  
HETATM    3  H   UNL     1      -9.175   8.916  63.037  1.00  0.00     0.000 HD 
ENDROOT
BRANCH   2   4
HETATM    4  C   UNL     1     -10.238  10.460  65.680  1.00  0.00    -0.308 A  
HETATM    5  C   UNL     1     -10.564  10.229  67.022  1.00  0.00    -0.239 A  
HETATM    6  O   UNL     1     -10.121   9.122  67.691  1.00  0.00    -0.191 OA 
HETATM    7  C   UNL     1     -11.379  11.104  67.732  1.00  0.00    -0.364 A  
HETATM    8  C   UNL     1     -11.908  12.225  67.098  1.00  0.00    -0.328 A  
HETATM    9  H   UNL     1     -10.342   8.965  68.601  1.00  0.00     0.000 HD 
HETATM   10  C   UNL     1     -11.611  12.491  65.752  1.00  0.00    -0.439 A  
HETATM   11  C   UNL     1     -10.756  11.613  65.064  1.00  0.00    -0.351 A  
BRANCH  10  12
HETATM   12  C   UNL     1     -12.214  13.682  65.029  1.00  0.00    -0.421 C  
HETATM   13  O   UNL     1     -13.322  14.205  65.777  1.00  0.00    -0.677 OA 
HETATM   14  H   UNL     1     -13.700  14.951  65.325  1.00  0.00     0.000 HD 
BRANCH  12  15
HETATM   15  C   UNL     1     -11.185  14.810  64.804  1.00  0.00    -0.385 C  
BRANCH  15  16
HETATM   16  N   UNL     1     -11.277  15.833  65.858  1.00  0.00    -0.088 NA 
HETATM   17  H   UNL     1     -12.226  15.923  66.221  1.00  0.00     0.000 HD 
BRANCH  16  18
HETATM   18  C   UNL     1     -10.313  15.551  66.917  1.00  0.00    -0.290 C  
BRANCH  18  19
HETATM   19  C   UNL     1      -8.902  15.868  66.436  1.00  0.00    -0.368 C  
BRANCH  19  20
HETATM   20  C   UNL     1      -7.884  15.021  67.195  1.00  0.00    -0.224 C  
BRANCH  20  21
HETATM   21  C   UNL     1      -8.490  13.684  67.598  1.00  0.00    -0.183 C  
BRANCH  21  22
HETATM   22  C   UNL     1      -7.618  12.519  67.146  1.00  0.00    -0.087 C  
BRANCH  22  23
HETATM   23  C   UNL     1      -6.551  12.222  68.189  1.00  0.00    -0.067 C  
BRANCH  23  24
HETATM   24  O   UNL     1      -5.949  10.973  67.873  1.00  0.00    -0.046 OA 
BRANCH  24  25
HETATM   25  C   UNL     1      -6.897   9.909  67.929  1.00  0.00    -0.076 C  
BRANCH  25  26
HETATM   26  C   UNL     1      -6.715   9.160  69.244  1.00  0.00    -0.049 C  
BRANCH  26  27
HETATM   27  C   UNL     1      -7.573   9.777  70.350  1.00  0.00    -0.165 C  
BRANCH  27  28
HETATM   28  C   UNL     1      -7.719   8.842  71.548  1.00  0.00    -0.139 C  
BRANCH  28  29
HETATM   29  C   UNL     1      -9.182   8.572  71.813  1.00  0.00    -0.316 A  
HETATM   30  C   UNL     1      -9.582   7.935  72.993  1.00  0.00    -0.341 A  
HETATM   31  C   UNL     1     -10.923   7.614  73.200  1.00  0.00    -0.411 A  
HETATM   32  C   UNL     1     -11.874   7.925  72.230  1.00  0.00    -0.404 A  
HETATM   33  C   UNL     1     -11.485   8.564  71.053  1.00  0.00    -0.313 A  
HETATM   34  C   UNL     1     -10.144   8.886  70.843  1.00  0.00    -0.304 A  
ENDBRANCH  28  29
ENDBRANCH  27  28
ENDBRANCH  26  27
ENDBRANCH  25  26
ENDBRANCH  24  25
ENDBRANCH  23  24
ENDBRANCH  22  23
ENDBRANCH  21  22
ENDBRANCH  20  21
ENDBRANCH  19  20
ENDBRANCH  18  19
ENDBRANCH  16  18
ENDBRANCH  15  16
ENDBRANCH  12  15
ENDBRANCH  10  12
ENDBRANCH   2   4
TORSDOF 16
ENDMDL
MODEL      273
REMARK 921   NORMALIZED FREE ENERGY PREDICTED BY IDOCK:   -4.21 KCAL/MOL
REMARK 922        TOTAL FREE ENERGY PREDICTED BY IDOCK:  -10.49 KCAL/MOL
REMARK 923 INTER-LIGAND FREE ENERGY PREDICTED BY IDOCK:   -7.93 KCAL/MOL
REMARK 924 INTRA-LIGAND FREE ENERGY PREDICTED BY IDOCK:   -2.57 KCAL/MOL
REMARK 927      BINDING AFFINITY PREDICTED BY RF-SCORE:    0.00 PKD
ROOT
HETATM    1  O   UNL     1      -7.126  14.209  67.040  1.00  0.00    -0.373 OA 
HETATM    2  C   UNL     1      -7.822  15.455  67.079  1.00  0.00    -0.209 C  
HETATM    3  H   UNL     1      -6.321  14.267  67.542  1.00  0.00     0.000 HD 
ENDROOT
BRANCH   2   4
HETATM    4  C   UNL     1      -9.098  15.364  66.284  1.00  0.00    -0.355 A  
HETATM    5  C   UNL     1      -9.791  16.492  65.830  1.00  0.00    -0.295 A  
HETATM    6  O   UNL     1      -9.384  17.760  66.139  1.00  0.00    -0.456 OA 
HETATM    7  C   UNL     1     -10.947  16.375  65.066  1.00  0.00    -0.265 A  
HETATM    8  C   UNL     1     -11.449  15.113  64.759  1.00  0.00    -0.383 A  
HETATM    9  H   UNL     1      -9.854  18.526  65.832  1.00  0.00     0.000 HD 
HETATM   10  C   UNL     1     -10.787  13.955  65.197  1.00  0.00    -0.364 A  
HETATM   11  C   UNL     1      -9.601  14.096  65.938  1.00  0.00    -0.208 A  
BRANCH  10  12
HETATM   12  C   UNL     1     -11.341  12.571  64.913  1.00  0.00    -0.310 C  
HETATM   13  O   UNL     1     -12.700  12.480  65.368  1.00  0.00    -0.624 OA 
HETATM   14  H   UNL     1     -13.048  11.614  65.189  1.00  0.00     0.000 HD 
BRANCH  12  15
HETATM   15  C   UNL     1     -11.291  12.221  63.411  1.00  0.00    -0.428 C  
BRANCH  15  16
HETATM   16  N   UNL     1      -9.909  11.976  62.966  1.00  0.00    -0.578 NA 
HETATM   17  H   UNL     1      -9.251  12.630  63.388  1.00  0.00     0.000 HD 
BRANCH  16  18
HETATM   18  C   UNL     1      -9.540  10.587  63.222  1.00  0.00    -0.331 C  
BRANCH  18  19
HETATM   19  C   UNL     1      -8.125  10.323  62.721  1.00  0.00    -0.160 C  
BRANCH  19  20
HETATM   20  C   UNL     1      -7.363   9.463  63.727  1.00  0.00    -0.108 C  
BRANCH  20  21
HETATM   21  C   UNL     1      -8.206   8.275  64.166  1.00  0.00    -0.107 C  
BRANCH  21  22
HETATM   22  C   UNL     1      -7.523   7.489  65.279  1.00  0.00    -0.084 C  
BRANCH  22  23
HETATM   23  C   UNL     1      -7.519   6.004  64.951  1.00  0.00    -0.082 C  
BRANCH  23  24
HETATM   24  O   UNL     1      -7.998   5.292  66.085  1.00  0.00    -0.102 OA 
BRANCH  24  25
HETATM   25  C   UNL     1      -9.422   5.316  66.153  1.00  0.00    -0.158 C  
BRANCH  25  26
HETATM   26  C   UNL     1      -9.848   5.154  67.606  1.00  0.00    -0.197 C  
BRANCH  26  27
HETATM   27  C   UNL     1     -10.974   6.126  67.960  1.00  0.00    -0.399 C  
BRANCH  27  28
HETATM   28  C   UNL     1     -10.566   7.095  69.067  1.00  0.00    -0.225 C  
BRANCH  28  29
HETATM   29  C   UNL     1      -9.905   8.313  68.466  1.00  0.00    -0.188 A  
HETATM   30  C   UNL     1     -10.473   8.953  67.359  1.00  0.00    -0.347 A  
HETATM   31  C   UNL     1      -9.820  10.028  66.755  1.00  0.00    -0.251 A  
HETATM   32  C   UNL     1      -8.595  10.469  67.251  1.00  0.00    -0.122 A  
HETATM   33  C   UNL     1      -8.023   9.840  68.356  1.00  0.00    -0.089 A  
HETATM   34  C   UNL     1      -8.674   8.765  68.962  1.00  0.00    -0.133 A  
ENDBRANCH  28  29
ENDBRANCH  27  28
ENDBRANCH  26  27
ENDBRANCH  25  26
ENDBRANCH  24  25
ENDBRANCH  23  24
ENDBRANCH  22  23
ENDBRANCH  21  22
ENDBRANCH  20  21
ENDBRANCH  19  20
ENDBRANCH  18  19
ENDBRANCH  16  18
ENDBRANCH  15  16
ENDBRANCH  12  15
ENDBRANCH  10  12
ENDBRANCH   2   4
TORSDOF 16
ENDMDL
MODEL      274
REMARK 921   NORMALIZED FREE ENERGY PREDICTED BY IDOCK:   -4.21 KCAL/MOL
REMARK 922        TOTAL FREE ENERGY PREDICTED BY IDOCK:  -10.49 KCAL/MOL
REMARK 923 INTER-LIGAND FREE ENERGY PREDICTED BY IDOCK:   -8.99 KCAL/MOL
REMARK 924 INTRA-LIGAND FREE ENERGY PREDICTED BY IDOCK:   -1.50 KCAL/MOL
REMARK 927      BINDING AFFINITY PREDICTED BY RF-SCORE:    0.00 PKD
ROOT
HETATM    1  O   UNL     1      -6.719  14.740  69.166  1.00  0.00    -0.106 OA 
HETATM    2  C   UNL     1      -6.165  16.016  69.489  1.00  0.00    -0.172 C  
HETATM    3  H   UNL     1      -6.132  14.047  69.446  1.00  0.00     0.000 HD 
ENDROOT
BRANCH   2   4
HETATM    4  C   UNL     1      -7.094  17.115  69.044  1.00  0.00    -0.232 A  
HETATM    5  C   UNL     1      -6.765  18.472  69.143  1.00  0.00    -0.263 A  
HETATM    6  O   UNL     1      -5.596  18.890  69.714  1.00  0.00    -0.206 OA 
HETATM    7  C   UNL     1      -7.629  19.463  68.689  1.00  0.00    -0.398 A  
HETATM    8  C   UNL     1      -8.861  19.111  68.144  1.00  0.00    -0.360 A  
HETATM    9  H   UNL     1      -5.373  19.811  69.782  1.00  0.00     0.000 HD 
HETATM   10  C   UNL     1      -9.232  17.762  68.030  1.00  0.00    -0.273 A  
HETATM   11  C   UNL     1      -8.329  16.775  68.462  1.00  0.00    -0.243 A  
BRANCH  10  12
HETATM   12  C   UNL     1     -10.588  17.357  67.482  1.00  0.00    -0.330 C  
HETATM   13  O   UNL     1     -10.532  17.258  66.050  1.00  0.00    -0.356 OA 
HETATM   14  H   UNL     1     -11.381  17.004  65.707  1.00  0.00     0.000 HD 
BRANCH  12  15
HETATM   15  C   UNL     1     -11.072  16.010  68.059  1.00  0.00    -0.334 C  
BRANCH  15  16
HETATM   16  N   UNL     1     -11.958  16.214  69.217  1.00  0.00    -0.254 NA 
HETATM   17  H   UNL     1     -12.765  16.791  68.984  1.00  0.00     0.000 HD 
BRANCH  16  18
HETATM   18  C   UNL     1     -12.352  14.926  69.779  1.00  0.00    -0.244 C  
BRANCH  18  19
HETATM   19  C   UNL     1     -12.521  15.045  71.289  1.00  0.00    -0.402 C  
BRANCH  19  20
HETATM   20  C   UNL     1     -12.605  13.657  71.921  1.00  0.00    -0.252 C  
BRANCH  20  21
HETATM   21  C   UNL     1     -13.025  12.621  70.888  1.00  0.00    -0.071 C  
BRANCH  21  22
HETATM   22  C   UNL     1     -12.460  11.245  71.218  1.00  0.00    -0.441 C  
BRANCH  22  23
HETATM   23  C   UNL     1     -11.827  10.624  69.983  1.00  0.00    -0.322 C  
BRANCH  23  24
HETATM   24  O   UNL     1     -10.828   9.703  70.404  1.00  0.00    -0.248 OA 
BRANCH  24  25
HETATM   25  C   UNL     1      -9.567   9.991  69.805  1.00  0.00    -0.216 C  
BRANCH  25  26
HETATM   26  C   UNL     1      -9.725  11.197  68.887  1.00  0.00    -0.163 C  
BRANCH  26  27
HETATM   27  C   UNL     1      -9.248  10.874  67.470  1.00  0.00    -0.153 C  
BRANCH  27  28
HETATM   28  C   UNL     1     -10.375  10.316  66.602  1.00  0.00    -0.283 C  
BRANCH  28  29
HETATM   29  C   UNL     1     -10.867  11.381  65.652  1.00  0.00    -0.280 A  
HETATM   30  C   UNL     1     -11.672  12.427  66.116  1.00  0.00    -0.460 A  
HETATM   31  C   UNL     1     -12.192  13.365  65.223  1.00  0.00    -0.478 A  
HETATM   32  C   UNL     1     -11.914  13.262  63.861  1.00  0.00    -0.541 A  
HETATM   33  C   UNL     1     -11.110  12.225  63.390  1.00  0.00    -0.487 A  
HETATM   34  C   UNL     1     -10.589  11.286  64.281  1.00  0.00    -0.422 A  
ENDBRANCH  28  29
ENDBRANCH  27  28
ENDBRANCH  26  27
ENDBRANCH  25  26
ENDBRANCH  24  25
ENDBRANCH  23  24
ENDBRANCH  22  23
ENDBRANCH  21  22
ENDBRANCH  20  21
ENDBRANCH  19  20
ENDBRANCH  18  19
ENDBRANCH  16  18
ENDBRANCH  15  16
ENDBRANCH  12  15
ENDBRANCH  10  12
ENDBRANCH   2   4
TORSDOF 16
ENDMDL
MODEL      275
REMARK 921   NORMALIZED FREE ENERGY PREDICTED BY IDOCK:   -4.21 KCAL/MOL
REMARK 922        TOTAL FREE ENERGY PREDICTED BY IDOCK:  -10.48 KCAL/MOL
REMARK 923 INTER-LIGAND FREE ENERGY PREDICTED BY IDOCK:   -7.62 KCAL/MOL
REMARK 924 INTRA-LIGAND FREE ENERGY PREDICTED BY IDOCK:   -2.87 KCAL/MOL
REMARK 927      BINDING AFFINITY PREDICTED BY RF-SCORE:    0.00 PKD
ROOT
HETATM    1  O   UNL     1      -9.788   5.129  65.019  1.00  0.00    -0.364 OA 
HETATM    2  C   UNL     1     -10.501   4.926  66.240  1.00  0.00    -0.304 C  
HETATM    3  H   UNL     1     -10.143   4.574  64.335  1.00  0.00     0.000 HD 
ENDROOT
BRANCH   2   4
HETATM    4  C   UNL     1      -9.938   5.806  67.325  1.00  0.00    -0.178 A  
HETATM    5  C   UNL     1      -9.891   7.202  67.221  1.00  0.00    -0.167 A  
HETATM    6  O   UNL     1     -10.299   7.854  66.091  1.00  0.00    -0.390 OA 
HETATM    7  C   UNL     1      -9.399   7.990  68.255  1.00  0.00    -0.143 A  
HETATM    8  C   UNL     1      -8.917   7.389  69.415  1.00  0.00    -0.139 A  
HETATM    9  H   UNL     1     -10.267   8.801  66.020  1.00  0.00     0.000 HD 
HETATM   10  C   UNL     1      -8.941   5.993  69.559  1.00  0.00    -0.131 A  
HETATM   11  C   UNL     1      -9.476   5.216  68.515  1.00  0.00    -0.175 A  
BRANCH  10  12
HETATM   12  C   UNL     1      -8.380   5.314  70.794  1.00  0.00    -0.115 C  
HETATM   13  O   UNL     1      -7.786   6.288  71.666  1.00  0.00    -0.098 OA 
HETATM   14  H   UNL     1      -7.434   5.864  72.440  1.00  0.00     0.000 HD 
BRANCH  12  15
HETATM   15  C   UNL     1      -9.461   4.537  71.575  1.00  0.00    -0.153 C  
BRANCH  15  16
HETATM   16  N   UNL     1      -9.492   4.943  72.990  1.00  0.00    -0.135 NA 
HETATM   17  H   UNL     1      -8.793   5.657  73.198  1.00  0.00     0.000 HD 
BRANCH  16  18
HETATM   18  C   UNL     1     -10.837   5.372  73.359  1.00  0.00    -0.297 C  
BRANCH  18  19
HETATM   19  C   UNL     1     -11.659   5.650  72.107  1.00  0.00    -0.202 C  
BRANCH  19  20
HETATM   20  C   UNL     1     -12.200   7.077  72.137  1.00  0.00    -0.255 C  
BRANCH  20  21
HETATM   21  C   UNL     1     -11.121   8.052  72.586  1.00  0.00    -0.453 C  
BRANCH  21  22
HETATM   22  C   UNL     1     -10.985   9.218  71.615  1.00  0.00    -0.433 C  
BRANCH  22  23
HETATM   23  C   UNL     1     -12.296   9.449  70.880  1.00  0.00    -0.193 C  
BRANCH  23  24
HETATM   24  O   UNL     1     -12.718  10.785  71.124  1.00  0.00    -0.366 OA 
BRANCH  24  25
HETATM   25  C   UNL     1     -12.008  11.713  70.307  1.00  0.00    -0.358 C  
BRANCH  25  26
HETATM   26  C   UNL     1     -11.936  11.163  68.888  1.00  0.00    -0.367 C  
BRANCH  26  27
HETATM   27  C   UNL     1     -11.525  12.252  67.897  1.00  0.00    -0.390 C  
BRANCH  27  28
HETATM   28  C   UNL     1     -10.020  12.248  67.634  1.00  0.00    -0.199 C  
BRANCH  28  29
HETATM   29  C   UNL     1      -9.726  11.523  66.342  1.00  0.00    -0.231 A  
HETATM   30  C   UNL     1      -8.475  10.933  66.131  1.00  0.00    -0.171 A  
HETATM   31  C   UNL     1      -8.177  10.335  64.906  1.00  0.00    -0.157 A  
HETATM   32  C   UNL     1      -9.125  10.324  63.885  1.00  0.00    -0.284 A  
HETATM   33  C   UNL     1     -10.376  10.906  64.088  1.00  0.00    -0.432 A  
HETATM   34  C   UNL     1     -10.676  11.505  65.312  1.00  0.00    -0.337 A  
ENDBRANCH  28  29
ENDBRANCH  27  28
ENDBRANCH  26  27
ENDBRANCH  25  26
ENDBRANCH  24  25
ENDBRANCH  23  24
ENDBRANCH  22  23
ENDBRANCH  21  22
ENDBRANCH  20  21
ENDBRANCH  19  20
ENDBRANCH  18  19
ENDBRANCH  16  18
ENDBRANCH  15  16
ENDBRANCH  12  15
ENDBRANCH  10  12
ENDBRANCH   2   4
TORSDOF 16
ENDMDL
MODEL      276
REMARK 921   NORMALIZED FREE ENERGY PREDICTED BY IDOCK:   -4.18 KCAL/MOL
REMARK 922        TOTAL FREE ENERGY PREDICTED BY IDOCK:  -10.44 KCAL/MOL
REMARK 923 INTER-LIGAND FREE ENERGY PREDICTED BY IDOCK:   -7.89 KCAL/MOL
REMARK 924 INTRA-LIGAND FREE ENERGY PREDICTED BY IDOCK:   -2.55 KCAL/MOL
REMARK 927      BINDING AFFINITY PREDICTED BY RF-SCORE:    0.00 PKD
ROOT
HETATM    1  O   UNL     1     -12.432  13.488  64.441  1.00  0.00    -0.578 OA 
HETATM    2  C   UNL     1     -11.173  14.157  64.517  1.00  0.00    -0.337 C  
HETATM    3  H   UNL     1     -12.478  12.965  63.648  1.00  0.00     0.000 HD 
ENDROOT
BRANCH   2   4
HETATM    4  C   UNL     1     -11.099  14.985  65.773  1.00  0.00    -0.346 A  
HETATM    5  C   UNL     1     -11.553  14.523  67.014  1.00  0.00    -0.386 A  
HETATM    6  O   UNL     1     -12.157  13.304  67.151  1.00  0.00    -0.361 OA 
HETATM    7  C   UNL     1     -11.438  15.296  68.163  1.00  0.00    -0.357 A  
HETATM    8  C   UNL     1     -10.881  16.570  68.087  1.00  0.00    -0.345 A  
HETATM    9  H   UNL     1     -12.467  12.990  67.993  1.00  0.00     0.000 HD 
HETATM   10  C   UNL     1     -10.416  17.075  66.862  1.00  0.00    -0.268 A  
HETATM   11  C   UNL     1     -10.510  16.262  65.719  1.00  0.00    -0.379 A  
BRANCH  10  12
HETATM   12  C   UNL     1      -9.848  18.477  66.748  1.00  0.00    -0.342 C  
HETATM   13  O   UNL     1     -10.899  19.448  66.874  1.00  0.00    -0.460 OA 
HETATM   14  H   UNL     1     -10.543  20.326  66.803  1.00  0.00     0.000 HD 
BRANCH  12  15
HETATM   15  C   UNL     1      -8.773  18.760  67.819  1.00  0.00    -0.287 C  
BRANCH  15  16
HETATM   16  N   UNL     1      -7.648  17.818  67.707  1.00  0.00    -0.209 NA 
HETATM   17  H   UNL     1      -6.994  18.090  66.972  1.00  0.00     0.000 HD 
BRANCH  16  18
HETATM   18  C   UNL     1      -6.986  17.671  68.999  1.00  0.00    -0.233 C  
BRANCH  18  19
HETATM   19  C   UNL     1      -6.510  16.235  69.181  1.00  0.00    -0.175 C  
BRANCH  19  20
HETATM   20  C   UNL     1      -7.700  15.278  69.162  1.00  0.00    -0.200 C  
BRANCH  20  21
HETATM   21  C   UNL     1      -7.540  14.244  68.057  1.00  0.00    -0.144 C  
BRANCH  21  22
HETATM   22  C   UNL     1      -8.497  13.074  68.248  1.00  0.00    -0.159 C  
BRANCH  22  23
HETATM   23  C   UNL     1      -8.539  12.216  66.993  1.00  0.00    -0.191 C  
BRANCH  23  24
HETATM   24  O   UNL     1      -7.395  11.372  66.986  1.00  0.00    -0.129 OA 
BRANCH  24  25
HETATM   25  C   UNL     1      -7.687  10.093  67.543  1.00  0.00    -0.091 C  
BRANCH  25  26
HETATM   26  C   UNL     1      -6.733   9.833  68.702  1.00  0.00    -0.051 C  
BRANCH  26  27
HETATM   27  C   UNL     1      -7.422  10.079  70.045  1.00  0.00    -0.181 C  
BRANCH  27  28
HETATM   28  C   UNL     1      -8.897   9.684  70.011  1.00  0.00    -0.259 C  
BRANCH  28  29
HETATM   29  C   UNL     1      -9.149   8.550  70.977  1.00  0.00    -0.221 A  
HETATM   30  C   UNL     1      -8.459   7.341  70.844  1.00  0.00    -0.128 A  
HETATM   31  C   UNL     1      -8.750   6.268  71.686  1.00  0.00    -0.134 A  
HETATM   32  C   UNL     1      -9.735   6.395  72.664  1.00  0.00    -0.167 A  
HETATM   33  C   UNL     1     -10.425   7.598  72.807  1.00  0.00    -0.368 A  
HETATM   34  C   UNL     1     -10.135   8.672  71.966  1.00  0.00    -0.401 A  
ENDBRANCH  28  29
ENDBRANCH  27  28
ENDBRANCH  26  27
ENDBRANCH  25  26
ENDBRANCH  24  25
ENDBRANCH  23  24
ENDBRANCH  22  23
ENDBRANCH  21  22
ENDBRANCH  20  21
ENDBRANCH  19  20
ENDBRANCH  18  19
ENDBRANCH  16  18
ENDBRANCH  15  16
ENDBRANCH  12  15
ENDBRANCH  10  12
ENDBRANCH   2   4
TORSDOF 16
ENDMDL
MODEL      277
REMARK 921   NORMALIZED FREE ENERGY PREDICTED BY IDOCK:   -4.18 KCAL/MOL
REMARK 922        TOTAL FREE ENERGY PREDICTED BY IDOCK:  -10.43 KCAL/MOL
REMARK 923 INTER-LIGAND FREE ENERGY PREDICTED BY IDOCK:   -8.51 KCAL/MOL
REMARK 924 INTRA-LIGAND FREE ENERGY PREDICTED BY IDOCK:   -1.92 KCAL/MOL
REMARK 927      BINDING AFFINITY PREDICTED BY RF-SCORE:    0.00 PKD
ROOT
HETATM    1  O   UNL     1      -5.452  12.907  67.835  1.00  0.00    -0.091 OA 
HETATM    2  C   UNL     1      -6.357  13.123  68.919  1.00  0.00    -0.093 C  
HETATM    3  H   UNL     1      -4.556  12.898  68.153  1.00  0.00     0.000 HD 
ENDROOT
BRANCH   2   4
HETATM    4  C   UNL     1      -7.776  13.138  68.417  1.00  0.00    -0.138 A  
HETATM    5  C   UNL     1      -8.409  12.002  67.898  1.00  0.00    -0.155 A  
HETATM    6  O   UNL     1      -7.749  10.813  67.753  1.00  0.00    -0.101 OA 
HETATM    7  C   UNL     1      -9.733  12.037  67.476  1.00  0.00    -0.188 A  
HETATM    8  C   UNL     1     -10.450  13.229  67.545  1.00  0.00    -0.237 A  
HETATM    9  H   UNL     1      -8.178  10.042  67.400  1.00  0.00     0.000 HD 
HETATM   10  C   UNL     1      -9.853  14.393  68.055  1.00  0.00    -0.221 A  
HETATM   11  C   UNL     1      -8.524  14.326  68.509  1.00  0.00    -0.164 A  
BRANCH  10  12
HETATM   12  C   UNL     1     -10.600  15.713  68.097  1.00  0.00    -0.274 C  
HETATM   13  O   UNL     1     -11.111  16.033  66.794  1.00  0.00    -0.190 OA 
HETATM   14  H   UNL     1     -11.579  16.860  66.820  1.00  0.00     0.000 HD 
BRANCH  12  15
HETATM   15  C   UNL     1     -11.772  15.688  69.102  1.00  0.00    -0.390 C  
BRANCH  15  16
HETATM   16  N   UNL     1     -11.406  16.352  70.364  1.00  0.00    -0.488 NA 
HETATM   17  H   UNL     1     -11.422  17.368  70.279  1.00  0.00     0.000 HD 
BRANCH  16  18
HETATM   18  C   UNL     1     -12.265  15.880  71.445  1.00  0.00    -0.448 C  
BRANCH  18  19
HETATM   19  C   UNL     1     -13.346  14.961  70.891  1.00  0.00    -0.393 C  
BRANCH  19  20
HETATM   20  C   UNL     1     -13.998  14.170  72.023  1.00  0.00    -0.604 C  
BRANCH  20  21
HETATM   21  C   UNL     1     -13.322  12.817  72.192  1.00  0.00    -0.593 C  
BRANCH  21  22
HETATM   22  C   UNL     1     -12.570  12.409  70.931  1.00  0.00    -0.337 C  
BRANCH  22  23
HETATM   23  C   UNL     1     -12.197  10.936  70.992  1.00  0.00    -0.358 C  
BRANCH  23  24
HETATM   24  O   UNL     1     -13.394  10.173  71.079  1.00  0.00    -0.387 OA 
BRANCH  24  25
HETATM   25  C   UNL     1     -13.334   9.228  72.145  1.00  0.00    -0.468 C  
BRANCH  25  26
HETATM   26  C   UNL     1     -11.963   8.564  72.135  1.00  0.00    -0.451 C  
BRANCH  26  27
HETATM   27  C   UNL     1     -12.082   7.064  71.858  1.00  0.00    -0.358 C  
BRANCH  27  28
HETATM   28  C   UNL     1     -12.013   6.752  70.364  1.00  0.00    -0.343 C  
BRANCH  28  29
HETATM   29  C   UNL     1     -10.571   6.634  69.931  1.00  0.00    -0.268 A  
HETATM   30  C   UNL     1      -9.706   5.745  70.579  1.00  0.00    -0.225 A  
HETATM   31  C   UNL     1      -8.356   5.696  70.230  1.00  0.00    -0.112 A  
HETATM   32  C   UNL     1      -7.861   6.536  69.235  1.00  0.00    -0.110 A  
HETATM   33  C   UNL     1      -8.715   7.423  68.581  1.00  0.00    -0.128 A  
HETATM   34  C   UNL     1     -10.066   7.473  68.927  1.00  0.00    -0.195 A  
ENDBRANCH  28  29
ENDBRANCH  27  28
ENDBRANCH  26  27
ENDBRANCH  25  26
ENDBRANCH  24  25
ENDBRANCH  23  24
ENDBRANCH  22  23
ENDBRANCH  21  22
ENDBRANCH  20  21
ENDBRANCH  19  20
ENDBRANCH  18  19
ENDBRANCH  16  18
ENDBRANCH  15  16
ENDBRANCH  12  15
ENDBRANCH  10  12
ENDBRANCH   2   4
TORSDOF 16
ENDMDL
MODEL      278
REMARK 921   NORMALIZED FREE ENERGY PREDICTED BY IDOCK:   -4.16 KCAL/MOL
REMARK 922        TOTAL FREE ENERGY PREDICTED BY IDOCK:  -10.40 KCAL/MOL
REMARK 923 INTER-LIGAND FREE ENERGY PREDICTED BY IDOCK:   -9.22 KCAL/MOL
REMARK 924 INTRA-LIGAND FREE ENERGY PREDICTED BY IDOCK:   -1.18 KCAL/MOL
REMARK 927      BINDING AFFINITY PREDICTED BY RF-SCORE:    0.00 PKD
ROOT
HETATM    1  O   UNL     1      -8.196   4.063  71.061  1.00  0.00    -0.069 OA 
HETATM    2  C   UNL     1      -9.614   4.206  71.153  1.00  0.00    -0.179 C  
HETATM    3  H   UNL     1      -7.858   3.635  71.840  1.00  0.00     0.000 HD 
ENDROOT
BRANCH   2   4
HETATM    4  C   UNL     1     -10.149   4.885  69.920  1.00  0.00    -0.332 A  
HETATM    5  C   UNL     1     -10.916   6.055  69.972  1.00  0.00    -0.380 A  
HETATM    6  O   UNL     1     -11.284   6.623  71.160  1.00  0.00    -0.264 OA 
HETATM    7  C   UNL     1     -11.365   6.681  68.814  1.00  0.00    -0.181 A  
HETATM    8  C   UNL     1     -11.072   6.127  67.571  1.00  0.00    -0.318 A  
HETATM    9  H   UNL     1     -11.805   7.417  71.195  1.00  0.00     0.000 HD 
HETATM   10  C   UNL     1     -10.310   4.952  67.473  1.00  0.00    -0.105 A  
HETATM   11  C   UNL     1      -9.835   4.356  68.655  1.00  0.00    -0.141 A  
BRANCH  10  12
HETATM   12  C   UNL     1     -10.017   4.307  66.131  1.00  0.00    -0.215 C  
HETATM   13  O   UNL     1     -11.136   4.476  65.247  1.00  0.00    -0.846 OA 
HETATM   14  H   UNL     1     -10.953   4.072  64.407  1.00  0.00     0.000 HD 
BRANCH  12  15
HETATM   15  C   UNL     1      -8.757   4.897  65.463  1.00  0.00    -0.139 C  
BRANCH  15  16
HETATM   16  N   UNL     1      -8.881   6.353  65.285  1.00  0.00    -0.364 NA 
HETATM   17  H   UNL     1      -9.805   6.693  65.552  1.00  0.00     0.000 HD 
BRANCH  16  18
HETATM   18  C   UNL     1      -7.816   7.039  66.011  1.00  0.00    -0.104 C  
BRANCH  18  19
HETATM   19  C   UNL     1      -8.008   8.547  65.918  1.00  0.00    -0.105 C  
BRANCH  19  20
HETATM   20  C   UNL     1      -9.020   9.015  66.960  1.00  0.00    -0.144 C  
BRANCH  20  21
HETATM   21  C   UNL     1     -10.269   9.565  66.288  1.00  0.00    -0.290 C  
BRANCH  21  22
HETATM   22  C   UNL     1     -10.563  10.991  66.739  1.00  0.00    -0.317 C  
BRANCH  22  23
HETATM   23  C   UNL     1     -11.005  11.839  65.557  1.00  0.00    -0.290 C  
BRANCH  23  24
HETATM   24  O   UNL     1     -12.222  12.490  65.900  1.00  0.00    -0.593 OA 
BRANCH  24  25
HETATM   25  C   UNL     1     -12.441  13.645  65.094  1.00  0.00    -0.449 C  
BRANCH  25  26
HETATM   26  C   UNL     1     -11.108  14.347  64.871  1.00  0.00    -0.404 C  
BRANCH  26  27
HETATM   27  C   UNL     1     -11.107  15.738  65.508  1.00  0.00    -0.193 C  
BRANCH  27  28
HETATM   28  C   UNL     1     -10.061  15.859  66.615  1.00  0.00    -0.287 C  
BRANCH  28  29
HETATM   29  C   UNL     1      -9.937  17.300  67.050  1.00  0.00    -0.289 A  
HETATM   30  C   UNL     1      -9.326  17.622  68.267  1.00  0.00    -0.290 A  
HETATM   31  C   UNL     1      -9.285  18.946  68.705  1.00  0.00    -0.399 A  
HETATM   32  C   UNL     1      -9.855  19.956  67.932  1.00  0.00    -0.529 A  
HETATM   33  C   UNL     1     -10.463  19.644  66.717  1.00  0.00    -0.605 A  
HETATM   34  C   UNL     1     -10.506  18.321  66.276  1.00  0.00    -0.397 A  
ENDBRANCH  28  29
ENDBRANCH  27  28
ENDBRANCH  26  27
ENDBRANCH  25  26
ENDBRANCH  24  25
ENDBRANCH  23  24
ENDBRANCH  22  23
ENDBRANCH  21  22
ENDBRANCH  20  21
ENDBRANCH  19  20
ENDBRANCH  18  19
ENDBRANCH  16  18
ENDBRANCH  15  16
ENDBRANCH  12  15
ENDBRANCH  10  12
ENDBRANCH   2   4
TORSDOF 16
ENDMDL
MODEL      279
REMARK 921   NORMALIZED FREE ENERGY PREDICTED BY IDOCK:   -4.16 KCAL/MOL
REMARK 922        TOTAL FREE ENERGY PREDICTED BY IDOCK:  -10.40 KCAL/MOL
REMARK 923 INTER-LIGAND FREE ENERGY PREDICTED BY IDOCK:   -8.27 KCAL/MOL
REMARK 924 INTRA-LIGAND FREE ENERGY PREDICTED BY IDOCK:   -2.12 KCAL/MOL
REMARK 927      BINDING AFFINITY PREDICTED BY RF-SCORE:    0.00 PKD
ROOT
HETATM    1  O   UNL     1     -13.416  10.955  72.328  1.00  0.00    -0.599 OA 
HETATM    2  C   UNL     1     -13.104  10.292  71.102  1.00  0.00    -0.390 C  
HETATM    3  H   UNL     1     -14.270  11.368  72.269  1.00  0.00     0.000 HD 
ENDROOT
BRANCH   2   4
HETATM    4  C   UNL     1     -11.750   9.638  71.195  1.00  0.00    -0.450 A  
HETATM    5  C   UNL     1     -11.443   8.664  72.152  1.00  0.00    -0.373 A  
HETATM    6  O   UNL     1     -12.342   8.290  73.113  1.00  0.00    -0.622 OA 
HETATM    7  C   UNL     1     -10.197   8.050  72.190  1.00  0.00    -0.308 A  
HETATM    8  C   UNL     1      -9.215   8.421  71.274  1.00  0.00    -0.228 A  
HETATM    9  H   UNL     1     -12.134   7.630  73.763  1.00  0.00     0.000 HD 
HETATM   10  C   UNL     1      -9.479   9.396  70.299  1.00  0.00    -0.294 A  
HETATM   11  C   UNL     1     -10.758   9.978  70.257  1.00  0.00    -0.367 A  
BRANCH  10  12
HETATM   12  C   UNL     1      -8.410   9.848  69.322  1.00  0.00    -0.151 C  
HETATM   13  O   UNL     1      -7.418   8.822  69.165  1.00  0.00    -0.074 OA 
HETATM   14  H   UNL     1      -6.749   9.105  68.552  1.00  0.00     0.000 HD 
BRANCH  12  15
HETATM   15  C   UNL     1      -8.996  10.194  67.936  1.00  0.00    -0.128 C  
BRANCH  15  16
HETATM   16  N   UNL     1      -8.778  11.611  67.603  1.00  0.00    -0.151 NA 
HETATM   17  H   UNL     1      -8.941  12.221  68.404  1.00  0.00     0.000 HD 
BRANCH  16  18
HETATM   18  C   UNL     1      -7.443  11.794  67.041  1.00  0.00    -0.137 C  
BRANCH  18  19
HETATM   19  C   UNL     1      -6.648  12.775  67.892  1.00  0.00    -0.118 C  
BRANCH  19  20
HETATM   20  C   UNL     1      -6.830  14.197  67.367  1.00  0.00    -0.033 C  
BRANCH  20  21
HETATM   21  C   UNL     1      -5.878  15.155  68.068  1.00  0.00    -0.154 C  
BRANCH  21  22
HETATM   22  C   UNL     1      -6.637  16.234  68.832  1.00  0.00    -0.150 C  
BRANCH  22  23
HETATM   23  C   UNL     1      -7.831  15.629  69.554  1.00  0.00    -0.180 C  
BRANCH  23  24
HETATM   24  O   UNL     1      -9.012  16.259  69.073  1.00  0.00    -0.246 OA 
BRANCH  24  25
HETATM   25  C   UNL     1     -10.154  15.423  69.244  1.00  0.00    -0.253 C  
BRANCH  25  26
HETATM   26  C   UNL     1     -11.067  15.587  68.035  1.00  0.00    -0.322 C  
BRANCH  26  27
HETATM   27  C   UNL     1     -10.345  15.193  66.745  1.00  0.00    -0.273 C  
BRANCH  27  28
HETATM   28  C   UNL     1     -10.572  16.212  65.630  1.00  0.00    -0.377 C  
BRANCH  28  29
HETATM   29  C   UNL     1      -9.820  17.486  65.936  1.00  0.00    -0.113 A  
HETATM   30  C   UNL     1     -10.505  18.699  66.063  1.00  0.00    -0.456 A  
HETATM   31  C   UNL     1      -9.802  19.886  66.266  1.00  0.00    -0.570 A  
HETATM   32  C   UNL     1      -8.410  19.870  66.340  1.00  0.00    -0.368 A  
HETATM   33  C   UNL     1      -7.719  18.666  66.218  1.00  0.00    -0.290 A  
HETATM   34  C   UNL     1      -8.420  17.476  66.015  1.00  0.00    -0.099 A  
ENDBRANCH  28  29
ENDBRANCH  27  28
ENDBRANCH  26  27
ENDBRANCH  25  26
ENDBRANCH  24  25
ENDBRANCH  23  24
ENDBRANCH  22  23
ENDBRANCH  21  22
ENDBRANCH  20  21
ENDBRANCH  19  20
ENDBRANCH  18  19
ENDBRANCH  16  18
ENDBRANCH  15  16
ENDBRANCH  12  15
ENDBRANCH  10  12
ENDBRANCH   2   4
TORSDOF 16
ENDMDL
MODEL      280
REMARK 921   NORMALIZED FREE ENERGY PREDICTED BY IDOCK:   -4.16 KCAL/MOL
REMARK 922        TOTAL FREE ENERGY PREDICTED BY IDOCK:  -10.40 KCAL/MOL
REMARK 923 INTER-LIGAND FREE ENERGY PREDICTED BY IDOCK:   -8.38 KCAL/MOL
REMARK 924 INTRA-LIGAND FREE ENERGY PREDICTED BY IDOCK:   -2.02 KCAL/MOL
REMARK 927      BINDING AFFINITY PREDICTED BY RF-SCORE:    0.00 PKD
ROOT
HETATM    1  O   UNL     1      -6.816  20.671  67.605  1.00  0.00    -0.292 OA 
HETATM    2  C   UNL     1      -7.442  19.619  68.341  1.00  0.00    -0.324 C  
HETATM    3  H   UNL     1      -6.135  21.078  68.129  1.00  0.00     0.000 HD 
ENDROOT
BRANCH   2   4
HETATM    4  C   UNL     1      -8.521  18.974  67.512  1.00  0.00    -0.307 A  
HETATM    5  C   UNL     1      -9.491  19.711  66.823  1.00  0.00    -0.367 A  
HETATM    6  O   UNL     1      -9.558  21.074  66.914  1.00  0.00    -0.671 OA 
HETATM    7  C   UNL     1     -10.452  19.089  66.035  1.00  0.00    -0.530 A  
HETATM    8  C   UNL     1     -10.476  17.700  65.940  1.00  0.00    -0.247 A  
HETATM    9  H   UNL     1     -10.217  21.575  66.447  1.00  0.00     0.000 HD 
HETATM   10  C   UNL     1      -9.524  16.921  66.617  1.00  0.00    -0.282 A  
HETATM   11  C   UNL     1      -8.539  17.573  67.380  1.00  0.00    -0.225 A  
BRANCH  10  12
HETATM   12  C   UNL     1      -9.559  15.405  66.564  1.00  0.00    -0.275 C  
HETATM   13  O   UNL     1      -8.598  14.857  67.480  1.00  0.00    -0.164 OA 
HETATM   14  H   UNL     1      -8.620  13.907  67.447  1.00  0.00     0.000 HD 
BRANCH  12  15
HETATM   15  C   UNL     1     -10.954  14.841  66.906  1.00  0.00    -0.328 C  
BRANCH  15  16
HETATM   16  N   UNL     1     -11.334  15.162  68.292  1.00  0.00    -0.313 NA 
HETATM   17  H   UNL     1     -11.943  15.978  68.342  1.00  0.00     0.000 HD 
BRANCH  16  18
HETATM   18  C   UNL     1     -11.931  13.993  68.931  1.00  0.00    -0.352 C  
BRANCH  18  19
HETATM   19  C   UNL     1     -12.023  12.844  67.936  1.00  0.00    -0.333 C  
BRANCH  19  20
HETATM   20  C   UNL     1     -11.736  11.517  68.635  1.00  0.00    -0.389 C  
BRANCH  20  21
HETATM   21  C   UNL     1     -11.969  11.638  70.134  1.00  0.00    -0.441 C  
BRANCH  21  22
HETATM   22  C   UNL     1     -11.536  10.375  70.869  1.00  0.00    -0.428 C  
BRANCH  22  23
HETATM   23  C   UNL     1     -10.447   9.657  70.088  1.00  0.00    -0.273 C  
BRANCH  23  24
HETATM   24  O   UNL     1      -9.668   8.894  71.001  1.00  0.00    -0.206 OA 
BRANCH  24  25
HETATM   25  C   UNL     1      -8.426   8.499  70.424  1.00  0.00    -0.137 C  
BRANCH  25  26
HETATM   26  C   UNL     1      -8.702   7.798  69.100  1.00  0.00    -0.139 C  
BRANCH  26  27
HETATM   27  C   UNL     1      -7.426   7.683  68.264  1.00  0.00    -0.104 C  
BRANCH  27  28
HETATM   28  C   UNL     1      -6.911   9.049  67.817  1.00  0.00    -0.070 C  
BRANCH  28  29
HETATM   29  C   UNL     1      -7.860   9.653  66.810  1.00  0.00    -0.102 A  
HETATM   30  C   UNL     1      -8.451  10.898  67.051  1.00  0.00    -0.134 A  
HETATM   31  C   UNL     1      -9.389  11.417  66.158  1.00  0.00    -0.232 A  
HETATM   32  C   UNL     1      -9.745  10.695  65.021  1.00  0.00    -0.336 A  
HETATM   33  C   UNL     1      -9.159   9.455  64.770  1.00  0.00    -0.248 A  
HETATM   34  C   UNL     1      -8.220   8.934  65.661  1.00  0.00    -0.126 A  
ENDBRANCH  28  29
ENDBRANCH  27  28
ENDBRANCH  26  27
ENDBRANCH  25  26
ENDBRANCH  24  25
ENDBRANCH  23  24
ENDBRANCH  22  23
ENDBRANCH  21  22
ENDBRANCH  20  21
ENDBRANCH  19  20
ENDBRANCH  18  19
ENDBRANCH  16  18
ENDBRANCH  15  16
ENDBRANCH  12  15
ENDBRANCH  10  12
ENDBRANCH   2   4
TORSDOF 16
ENDMDL
MODEL      281
REMARK 921   NORMALIZED FREE ENERGY PREDICTED BY IDOCK:   -4.15 KCAL/MOL
REMARK 922        TOTAL FREE ENERGY PREDICTED BY IDOCK:  -10.38 KCAL/MOL
REMARK 923 INTER-LIGAND FREE ENERGY PREDICTED BY IDOCK:   -6.86 KCAL/MOL
REMARK 924 INTRA-LIGAND FREE ENERGY PREDICTED BY IDOCK:   -3.52 KCAL/MOL
REMARK 927      BINDING AFFINITY PREDICTED BY RF-SCORE:    0.00 PKD
ROOT
HETATM    1  O   UNL     1      -7.322  11.503  69.617  1.00  0.00    -0.354 OA 
HETATM    2  C   UNL     1      -8.114  11.258  68.454  1.00  0.00    -0.143 C  
HETATM    3  H   UNL     1      -6.403  11.553  69.383  1.00  0.00     0.000 HD 
ENDROOT
BRANCH   2   4
HETATM    4  C   UNL     1      -9.572  11.178  68.824  1.00  0.00    -0.180 A  
HETATM    5  C   UNL     1     -10.559  11.938  68.185  1.00  0.00    -0.208 A  
HETATM    6  O   UNL     1     -10.250  12.856  67.220  1.00  0.00    -0.231 OA 
HETATM    7  C   UNL     1     -11.902  11.816  68.524  1.00  0.00    -0.365 A  
HETATM    8  C   UNL     1     -12.283  10.938  69.536  1.00  0.00    -0.331 A  
HETATM    9  H   UNL     1     -10.919  13.372  66.787  1.00  0.00     0.000 HD 
HETATM   10  C   UNL     1     -11.326  10.160  70.205  1.00  0.00    -0.387 A  
HETATM   11  C   UNL     1      -9.978  10.274  69.822  1.00  0.00    -0.222 A  
BRANCH  10  12
HETATM   12  C   UNL     1     -11.713   9.232  71.341  1.00  0.00    -0.361 C  
HETATM   13  O   UNL     1     -12.451   8.110  70.832  1.00  0.00    -0.495 OA 
HETATM   14  H   UNL     1     -12.694   7.528  71.543  1.00  0.00     0.000 HD 
BRANCH  12  15
HETATM   15  C   UNL     1     -10.483   8.712  72.115  1.00  0.00    -0.340 C  
BRANCH  15  16
HETATM   16  N   UNL     1     -10.664   7.309  72.523  1.00  0.00    -0.243 NA 
HETATM   17  H   UNL     1     -11.586   6.953  72.269  1.00  0.00     0.000 HD 
BRANCH  16  18
HETATM   18  C   UNL     1      -9.591   6.485  71.976  1.00  0.00    -0.149 C  
BRANCH  18  19
HETATM   19  C   UNL     1      -8.463   7.371  71.461  1.00  0.00    -0.114 C  
BRANCH  19  20
HETATM   20  C   UNL     1      -8.069   6.954  70.047  1.00  0.00    -0.125 C  
BRANCH  20  21
HETATM   21  C   UNL     1      -8.633   5.580  69.714  1.00  0.00    -0.112 C  
BRANCH  21  22
HETATM   22  C   UNL     1      -7.530   4.534  69.615  1.00  0.00    -0.051 C  
BRANCH  22  23
HETATM   23  C   UNL     1      -8.129   3.137  69.563  1.00  0.00    -0.048 C  
BRANCH  23  24
HETATM   24  O   UNL     1      -9.297   3.179  68.752  1.00  0.00    -0.156 OA 
BRANCH  24  25
HETATM   25  C   UNL     1      -9.375   2.045  67.892  1.00  0.00    -0.168 C  
BRANCH  25  26
HETATM   26  C   UNL     1      -8.536   2.313  66.649  1.00  0.00    -0.117 C  
BRANCH  26  27
HETATM   27  C   UNL     1      -9.271   3.241  65.681  1.00  0.00    -0.150 C  
BRANCH  27  28
HETATM   28  C   UNL     1      -8.484   4.522  65.409  1.00  0.00    -0.123 C  
BRANCH  28  29
HETATM   29  C   UNL     1      -9.214   5.708  65.994  1.00  0.00    -0.164 A  
HETATM   30  C   UNL     1      -8.602   6.966  66.034  1.00  0.00    -0.150 A  
HETATM   31  C   UNL     1      -9.245   8.041  66.647  1.00  0.00    -0.225 A  
HETATM   32  C   UNL     1     -10.500   7.867  67.226  1.00  0.00    -0.390 A  
HETATM   33  C   UNL     1     -11.119   6.619  67.187  1.00  0.00    -0.427 A  
HETATM   34  C   UNL     1     -10.479   5.541  66.574  1.00  0.00    -0.331 A  
ENDBRANCH  28  29
ENDBRANCH  27  28
ENDBRANCH  26  27
ENDBRANCH  25  26
ENDBRANCH  24  25
ENDBRANCH  23  24
ENDBRANCH  22  23
ENDBRANCH  21  22
ENDBRANCH  20  21
ENDBRANCH  19  20
ENDBRANCH  18  19
ENDBRANCH  16  18
ENDBRANCH  15  16
ENDBRANCH  12  15
ENDBRANCH  10  12
ENDBRANCH   2   4
TORSDOF 16
ENDMDL
MODEL      282
REMARK 921   NORMALIZED FREE ENERGY PREDICTED BY IDOCK:   -4.15 KCAL/MOL
REMARK 922        TOTAL FREE ENERGY PREDICTED BY IDOCK:  -10.37 KCAL/MOL
REMARK 923 INTER-LIGAND FREE ENERGY PREDICTED BY IDOCK:   -8.91 KCAL/MOL
REMARK 924 INTRA-LIGAND FREE ENERGY PREDICTED BY IDOCK:   -1.46 KCAL/MOL
REMARK 927      BINDING AFFINITY PREDICTED BY RF-SCORE:    0.00 PKD
ROOT
HETATM    1  O   UNL     1      -8.129   8.070  70.531  1.00  0.00    -0.100 OA 
HETATM    2  C   UNL     1      -9.010   8.376  69.449  1.00  0.00    -0.153 C  
HETATM    3  H   UNL     1      -7.419   7.514  70.229  1.00  0.00     0.000 HD 
ENDROOT
BRANCH   2   4
HETATM    4  C   UNL     1     -10.135   9.256  69.928  1.00  0.00    -0.230 A  
HETATM    5  C   UNL     1     -10.922   8.941  71.042  1.00  0.00    -0.276 A  
HETATM    6  O   UNL     1     -10.758   7.773  71.733  1.00  0.00    -0.216 OA 
HETATM    7  C   UNL     1     -11.930   9.792  71.483  1.00  0.00    -0.488 A  
HETATM    8  C   UNL     1     -12.187  10.974  70.794  1.00  0.00    -0.480 A  
HETATM    9  H   UNL     1     -11.293   7.558  72.489  1.00  0.00     0.000 HD 
HETATM   10  C   UNL     1     -11.425  11.327  69.669  1.00  0.00    -0.380 A  
HETATM   11  C   UNL     1     -10.387  10.470  69.263  1.00  0.00    -0.248 A  
BRANCH  10  12
HETATM   12  C   UNL     1     -11.718  12.588  68.878  1.00  0.00    -0.322 C  
HETATM   13  O   UNL     1     -10.904  13.671  69.355  1.00  0.00    -0.420 OA 
HETATM   14  H   UNL     1     -11.087  14.461  68.859  1.00  0.00     0.000 HD 
BRANCH  12  15
HETATM   15  C   UNL     1     -11.464  12.400  67.367  1.00  0.00    -0.352 C  
BRANCH  15  16
HETATM   16  N   UNL     1     -12.614  12.864  66.572  1.00  0.00    -0.172 NA 
HETATM   17  H   UNL     1     -13.447  12.992  67.145  1.00  0.00     0.000 HD 
BRANCH  16  18
HETATM   18  C   UNL     1     -12.260  14.078  65.842  1.00  0.00    -0.456 C  
BRANCH  18  19
HETATM   19  C   UNL     1     -11.014  13.837  65.001  1.00  0.00    -0.359 C  
BRANCH  19  20
HETATM   20  C   UNL     1     -10.092  15.053  65.064  1.00  0.00    -0.289 C  
BRANCH  20  21
HETATM   21  C   UNL     1     -10.477  15.959  66.224  1.00  0.00    -0.324 C  
BRANCH  21  22
HETATM   22  C   UNL     1     -10.032  17.396  65.980  1.00  0.00    -0.230 C  
BRANCH  22  23
HETATM   23  C   UNL     1     -10.654  18.324  67.012  1.00  0.00    -0.349 C  
BRANCH  23  24
HETATM   24  O   UNL     1     -10.163  17.963  68.296  1.00  0.00    -0.347 OA 
BRANCH  24  25
HETATM   25  C   UNL     1      -9.771  19.111  69.046  1.00  0.00    -0.361 C  
BRANCH  25  26
HETATM   26  C   UNL     1      -8.955  20.030  68.145  1.00  0.00    -0.271 C  
BRANCH  26  27
HETATM   27  C   UNL     1      -7.483  20.040  68.560  1.00  0.00    -0.237 C  
BRANCH  27  28
HETATM   28  C   UNL     1      -6.654  20.993  67.701  1.00  0.00    -0.416 C  
BRANCH  28  29
HETATM   29  C   UNL     1      -6.206  20.292  66.441  1.00  0.00    -0.220 A  
HETATM   30  C   UNL     1      -6.242  20.956  65.210  1.00  0.00    -0.258 A  
HETATM   31  C   UNL     1      -5.905  20.282  64.036  1.00  0.00    -0.314 A  
HETATM   32  C   UNL     1      -5.532  18.940  64.084  1.00  0.00    -0.272 A  
HETATM   33  C   UNL     1      -5.489  18.271  65.306  1.00  0.00    -0.191 A  
HETATM   34  C   UNL     1      -5.826  18.943  66.481  1.00  0.00    -0.179 A  
ENDBRANCH  28  29
ENDBRANCH  27  28
ENDBRANCH  26  27
ENDBRANCH  25  26
ENDBRANCH  24  25
ENDBRANCH  23  24
ENDBRANCH  22  23
ENDBRANCH  21  22
ENDBRANCH  20  21
ENDBRANCH  19  20
ENDBRANCH  18  19
ENDBRANCH  16  18
ENDBRANCH  15  16
ENDBRANCH  12  15
ENDBRANCH  10  12
ENDBRANCH   2   4
TORSDOF 16
ENDMDL
MODEL      283
REMARK 921   NORMALIZED FREE ENERGY PREDICTED BY IDOCK:   -4.14 KCAL/MOL
REMARK 922        TOTAL FREE ENERGY PREDICTED BY IDOCK:  -10.37 KCAL/MOL
REMARK 923 INTER-LIGAND FREE ENERGY PREDICTED BY IDOCK:   -8.04 KCAL/MOL
REMARK 924 INTRA-LIGAND FREE ENERGY PREDICTED BY IDOCK:   -2.33 KCAL/MOL
REMARK 927      BINDING AFFINITY PREDICTED BY RF-SCORE:    0.00 PKD
ROOT
HETATM    1  O   UNL     1      -9.828   9.879  63.411  1.00  0.00    -0.503 OA 
HETATM    2  C   UNL     1      -9.348   9.603  64.728  1.00  0.00    -0.222 C  
HETATM    3  H   UNL     1      -9.314   9.404  62.768  1.00  0.00     0.000 HD 
ENDROOT
BRANCH   2   4
HETATM    4  C   UNL     1     -10.162  10.356  65.747  1.00  0.00    -0.305 A  
HETATM    5  C   UNL     1     -10.494   9.821  66.997  1.00  0.00    -0.227 A  
HETATM    6  O   UNL     1     -10.150   8.545  67.349  1.00  0.00    -0.194 OA 
HETATM    7  C   UNL     1     -11.215  10.554  67.932  1.00  0.00    -0.358 A  
HETATM    8  C   UNL     1     -11.644  11.842  67.621  1.00  0.00    -0.364 A  
HETATM    9  H   UNL     1     -10.376   8.181  68.197  1.00  0.00     0.000 HD 
HETATM   10  C   UNL     1     -11.337  12.415  66.376  1.00  0.00    -0.392 A  
HETATM   11  C   UNL     1     -10.575  11.669  65.460  1.00  0.00    -0.329 A  
BRANCH  10  12
HETATM   12  C   UNL     1     -11.832  13.799  65.998  1.00  0.00    -0.390 C  
HETATM   13  O   UNL     1     -12.689  14.316  67.029  1.00  0.00    -0.483 OA 
HETATM   14  H   UNL     1     -12.999  15.182  66.792  1.00  0.00     0.000 HD 
BRANCH  12  15
HETATM   15  C   UNL     1     -10.672  14.791  65.768  1.00  0.00    -0.326 C  
BRANCH  15  16
HETATM   16  N   UNL     1     -10.519  15.706  66.911  1.00  0.00    -0.302 NA 
HETATM   17  H   UNL     1     -11.386  15.807  67.438  1.00  0.00     0.000 HD 
BRANCH  16  18
HETATM   18  C   UNL     1      -9.412  15.271  67.757  1.00  0.00    -0.197 C  
BRANCH  18  19
HETATM   19  C   UNL     1      -8.172  15.023  66.907  1.00  0.00    -0.206 C  
BRANCH  19  20
HETATM   20  C   UNL     1      -7.297  13.951  67.553  1.00  0.00    -0.181 C  
BRANCH  20  21
HETATM   21  C   UNL     1      -8.156  12.879  68.208  1.00  0.00    -0.151 C  
BRANCH  21  22
HETATM   22  C   UNL     1      -7.516  11.501  68.084  1.00  0.00    -0.101 C  
BRANCH  22  23
HETATM   23  C   UNL     1      -7.044  11.013  69.445  1.00  0.00    -0.128 C  
BRANCH  23  24
HETATM   24  O   UNL     1      -7.435   9.655  69.596  1.00  0.00    -0.078 OA 
BRANCH  24  25
HETATM   25  C   UNL     1      -8.653   9.541  70.329  1.00  0.00    -0.226 C  
BRANCH  25  26
HETATM   26  C   UNL     1      -9.052   8.073  70.393  1.00  0.00    -0.150 C  
BRANCH  26  27
HETATM   27  C   UNL     1     -10.149   7.847  71.435  1.00  0.00    -0.212 C  
BRANCH  27  28
HETATM   28  C   UNL     1     -11.171   6.811  70.972  1.00  0.00    -0.335 C  
BRANCH  28  29
HETATM   29  C   UNL     1     -10.880   5.477  71.617  1.00  0.00    -0.271 A  
HETATM   30  C   UNL     1     -11.472   5.135  72.837  1.00  0.00    -0.329 A  
HETATM   31  C   UNL     1     -11.140   3.938  73.471  1.00  0.00    -0.342 A  
HETATM   32  C   UNL     1     -10.212   3.075  72.891  1.00  0.00    -0.235 A  
HETATM   33  C   UNL     1      -9.619   3.405  71.673  1.00  0.00    -0.229 A  
HETATM   34  C   UNL     1      -9.950   4.602  71.037  1.00  0.00    -0.270 A  
ENDBRANCH  28  29
ENDBRANCH  27  28
ENDBRANCH  26  27
ENDBRANCH  25  26
ENDBRANCH  24  25
ENDBRANCH  23  24
ENDBRANCH  22  23
ENDBRANCH  21  22
ENDBRANCH  20  21
ENDBRANCH  19  20
ENDBRANCH  18  19
ENDBRANCH  16  18
ENDBRANCH  15  16
ENDBRANCH  12  15
ENDBRANCH  10  12
ENDBRANCH   2   4
TORSDOF 16
ENDMDL
MODEL      284
REMARK 921   NORMALIZED FREE ENERGY PREDICTED BY IDOCK:   -4.14 KCAL/MOL
REMARK 922        TOTAL FREE ENERGY PREDICTED BY IDOCK:  -10.36 KCAL/MOL
REMARK 923 INTER-LIGAND FREE ENERGY PREDICTED BY IDOCK:   -9.43 KCAL/MOL
REMARK 924 INTRA-LIGAND FREE ENERGY PREDICTED BY IDOCK:   -0.93 KCAL/MOL
REMARK 927      BINDING AFFINITY PREDICTED BY RF-SCORE:    0.00 PKD
ROOT
HETATM    1  O   UNL     1      -7.129  21.365  67.110  1.00  0.00    -0.762 OA 
HETATM    2  C   UNL     1      -7.221  20.048  67.655  1.00  0.00    -0.281 C  
HETATM    3  H   UNL     1      -6.377  21.819  67.473  1.00  0.00     0.000 HD 
ENDROOT
BRANCH   2   4
HETATM    4  C   UNL     1      -8.414  19.329  67.081  1.00  0.00    -0.310 A  
HETATM    5  C   UNL     1      -9.627  19.972  66.808  1.00  0.00    -0.417 A  
HETATM    6  O   UNL     1      -9.828  21.290  67.110  1.00  0.00    -0.505 OA 
HETATM    7  C   UNL     1     -10.699  19.290  66.243  1.00  0.00    -0.477 A  
HETATM    8  C   UNL     1     -10.582  17.931  65.959  1.00  0.00    -0.235 A  
HETATM    9  H   UNL     1     -10.652  21.726  66.925  1.00  0.00     0.000 HD 
HETATM   10  C   UNL     1      -9.384  17.247  66.220  1.00  0.00    -0.248 A  
HETATM   11  C   UNL     1      -8.302  17.965  66.758  1.00  0.00    -0.273 A  
BRANCH  10  12
HETATM   12  C   UNL     1      -9.250  15.758  65.961  1.00  0.00    -0.344 C  
HETATM   13  O   UNL     1      -8.087  15.243  66.627  1.00  0.00    -0.324 OA 
HETATM   14  H   UNL     1      -8.002  14.311  66.465  1.00  0.00     0.000 HD 
BRANCH  12  15
HETATM   15  C   UNL     1     -10.489  14.969  66.436  1.00  0.00    -0.294 C  
BRANCH  15  16
HETATM   16  N   UNL     1     -10.699  15.130  67.885  1.00  0.00    -0.262 NA 
HETATM   17  H   UNL     1     -11.503  15.724  68.090  1.00  0.00     0.000 HD 
BRANCH  16  18
HETATM   18  C   UNL     1     -10.808  13.823  68.523  1.00  0.00    -0.263 C  
BRANCH  18  19
HETATM   19  C   UNL     1     -11.773  12.939  67.743  1.00  0.00    -0.412 C  
BRANCH  19  20
HETATM   20  C   UNL     1     -11.981  11.614  68.473  1.00  0.00    -0.284 C  
BRANCH  20  21
HETATM   21  C   UNL     1     -10.692  11.160  69.143  1.00  0.00    -0.262 C  
BRANCH  21  22
HETATM   22  C   UNL     1     -10.720   9.668  69.451  1.00  0.00    -0.248 C  
BRANCH  22  23
HETATM   23  C   UNL     1     -10.607   9.437  70.950  1.00  0.00    -0.320 C  
BRANCH  23  24
HETATM   24  O   UNL     1     -11.389   8.299  71.290  1.00  0.00    -0.254 OA 
BRANCH  24  25
HETATM   25  C   UNL     1     -11.520   8.159  72.702  1.00  0.00    -0.387 C  
BRANCH  25  26
HETATM   26  C   UNL     1     -10.187   7.694  73.275  1.00  0.00    -0.398 C  
BRANCH  26  27
HETATM   27  C   UNL     1     -10.284   6.260  73.798  1.00  0.00    -0.285 C  
BRANCH  27  28
HETATM   28  C   UNL     1     -11.161   5.385  72.904  1.00  0.00    -0.372 C  
BRANCH  28  29
HETATM   29  C   UNL     1     -10.426   4.115  72.547  1.00  0.00    -0.205 A  
HETATM   30  C   UNL     1      -9.552   4.087  71.454  1.00  0.00    -0.241 A  
HETATM   31  C   UNL     1      -8.936   2.894  71.076  1.00  0.00    -0.162 A  
HETATM   32  C   UNL     1      -9.190   1.721  71.785  1.00  0.00    -0.149 A  
HETATM   33  C   UNL     1     -10.056   1.741  72.877  1.00  0.00    -0.183 A  
HETATM   34  C   UNL     1     -10.674   2.933  73.258  1.00  0.00    -0.276 A  
ENDBRANCH  28  29
ENDBRANCH  27  28
ENDBRANCH  26  27
ENDBRANCH  25  26
ENDBRANCH  24  25
ENDBRANCH  23  24
ENDBRANCH  22  23
ENDBRANCH  21  22
ENDBRANCH  20  21
ENDBRANCH  19  20
ENDBRANCH  18  19
ENDBRANCH  16  18
ENDBRANCH  15  16
ENDBRANCH  12  15
ENDBRANCH  10  12
ENDBRANCH   2   4
TORSDOF 16
ENDMDL
MODEL      285
REMARK 921   NORMALIZED FREE ENERGY PREDICTED BY IDOCK:   -4.13 KCAL/MOL
REMARK 922        TOTAL FREE ENERGY PREDICTED BY IDOCK:  -10.35 KCAL/MOL
REMARK 923 INTER-LIGAND FREE ENERGY PREDICTED BY IDOCK:   -6.87 KCAL/MOL
REMARK 924 INTRA-LIGAND FREE ENERGY PREDICTED BY IDOCK:   -3.47 KCAL/MOL
REMARK 927      BINDING AFFINITY PREDICTED BY RF-SCORE:    0.00 PKD
ROOT
HETATM    1  O   UNL     1      -6.916   8.396  63.605  1.00  0.00    -0.083 OA 
HETATM    2  C   UNL     1      -7.108   9.699  64.158  1.00  0.00    -0.119 C  
HETATM    3  H   UNL     1      -6.070   8.343  63.176  1.00  0.00     0.000 HD 
ENDROOT
BRANCH   2   4
HETATM    4  C   UNL     1      -8.449   9.783  64.838  1.00  0.00    -0.165 A  
HETATM    5  C   UNL     1      -8.942   8.773  65.672  1.00  0.00    -0.200 A  
HETATM    6  O   UNL     1      -8.257   7.606  65.871  1.00  0.00    -0.117 OA 
HETATM    7  C   UNL     1     -10.167   8.896  66.316  1.00  0.00    -0.203 A  
HETATM    8  C   UNL     1     -10.943  10.035  66.116  1.00  0.00     0.324 A  
HETATM    9  H   UNL     1      -8.591   6.919  66.436  1.00  0.00     0.000 HD 
HETATM   10  C   UNL     1     -10.489  11.071  65.285  1.00  0.00    -0.316 A  
HETATM   11  C   UNL     1      -9.230  10.942  64.672  1.00  0.00    -0.223 A  
BRANCH  10  12
HETATM   12  C   UNL     1     -11.337  12.301  65.017  1.00  0.00    -0.328 C  
HETATM   13  O   UNL     1     -12.314  12.463  66.057  1.00  0.00    -0.627 OA 
HETATM   14  H   UNL     1     -12.845  13.233  65.890  1.00  0.00     0.000 HD 
BRANCH  12  15
HETATM   15  C   UNL     1     -10.488  13.586  64.924  1.00  0.00    -0.402 C  
BRANCH  15  16
HETATM   16  N   UNL     1     -10.845  14.539  65.989  1.00  0.00    -0.303 NA 
HETATM   17  H   UNL     1     -10.402  14.303  66.877  1.00  0.00     0.000 HD 
BRANCH  16  18
HETATM   18  C   UNL     1     -10.533  15.901  65.568  1.00  0.00    -0.404 C  
BRANCH  18  19
HETATM   19  C   UNL     1     -10.614  16.847  66.759  1.00  0.00    -0.201 C  
BRANCH  19  20
HETATM   20  C   UNL     1     -10.330  18.280  66.313  1.00  0.00    -0.422 C  
BRANCH  20  21
HETATM   21  C   UNL     1     -10.342  19.226  67.506  1.00  0.00    -0.542 C  
BRANCH  21  22
HETATM   22  C   UNL     1      -9.262  18.860  68.517  1.00  0.00    -0.404 C  
BRANCH  22  23
HETATM   23  C   UNL     1      -7.906  19.363  68.048  1.00  0.00    -0.302 C  
BRANCH  23  24
HETATM   24  O   UNL     1      -7.017  18.255  67.976  1.00  0.00    -0.213 OA 
BRANCH  24  25
HETATM   25  C   UNL     1      -7.543  17.119  68.657  1.00  0.00    -0.258 C  
BRANCH  25  26
HETATM   26  C   UNL     1      -7.177  15.865  67.873  1.00  0.00    -0.151 C  
BRANCH  26  27
HETATM   27  C   UNL     1      -7.749  14.614  68.542  1.00  0.00    -0.126 C  
BRANCH  27  28
HETATM   28  C   UNL     1      -8.066  13.517  67.526  1.00  0.00    -0.190 C  
BRANCH  28  29
HETATM   29  C   UNL     1      -8.581  12.289  68.239  1.00  0.00    -0.172 A  
HETATM   30  C   UNL     1      -9.903  12.236  68.692  1.00  0.00    -0.098 A  
HETATM   31  C   UNL     1     -10.354  11.135  69.421  1.00  0.00    -0.090 A  
HETATM   32  C   UNL     1      -9.486  10.082  69.704  1.00  0.00    -0.247 A  
HETATM   33  C   UNL     1      -8.167  10.125  69.254  1.00  0.00    -0.156 A  
HETATM   34  C   UNL     1      -7.714  11.225  68.525  1.00  0.00    -0.131 A  
ENDBRANCH  28  29
ENDBRANCH  27  28
ENDBRANCH  26  27
ENDBRANCH  25  26
ENDBRANCH  24  25
ENDBRANCH  23  24
ENDBRANCH  22  23
ENDBRANCH  21  22
ENDBRANCH  20  21
ENDBRANCH  19  20
ENDBRANCH  18  19
ENDBRANCH  16  18
ENDBRANCH  15  16
ENDBRANCH  12  15
ENDBRANCH  10  12
ENDBRANCH   2   4
TORSDOF 16
ENDMDL
MODEL      286
REMARK 921   NORMALIZED FREE ENERGY PREDICTED BY IDOCK:   -4.13 KCAL/MOL
REMARK 922        TOTAL FREE ENERGY PREDICTED BY IDOCK:  -10.34 KCAL/MOL
REMARK 923 INTER-LIGAND FREE ENERGY PREDICTED BY IDOCK:   -8.80 KCAL/MOL
REMARK 924 INTRA-LIGAND FREE ENERGY PREDICTED BY IDOCK:   -1.54 KCAL/MOL
REMARK 927      BINDING AFFINITY PREDICTED BY RF-SCORE:    0.00 PKD
ROOT
HETATM    1  O   UNL     1      -9.550   4.375  63.817  1.00  0.00    -0.274 OA 
HETATM    2  C   UNL     1     -10.692   4.300  64.672  1.00  0.00    -0.091 C  
HETATM    3  H   UNL     1      -9.820   4.341  62.906  1.00  0.00     0.000 HD 
ENDROOT
BRANCH   2   4
HETATM    4  C   UNL     1     -10.265   4.353  66.115  1.00  0.00    -0.232 A  
HETATM    5  C   UNL     1      -9.581   3.305  66.742  1.00  0.00    -0.022 A  
HETATM    6  O   UNL     1      -9.312   2.131  66.095  1.00  0.00    -0.328 OA 
HETATM    7  C   UNL     1      -9.167   3.398  68.066  1.00  0.00    -0.238 A  
HETATM    8  C   UNL     1      -9.454   4.544  68.802  1.00  0.00    -0.221 A  
HETATM    9  H   UNL     1      -8.848   1.420  66.520  1.00  0.00     0.000 HD 
HETATM   10  C   UNL     1     -10.142   5.617  68.214  1.00  0.00    -0.217 A  
HETATM   11  C   UNL     1     -10.520   5.517  66.863  1.00  0.00    -0.348 A  
BRANCH  10  12
HETATM   12  C   UNL     1     -10.506   6.857  69.010  1.00  0.00    -0.208 C  
HETATM   13  O   UNL     1     -11.897   6.825  69.366  1.00  0.00    -0.628 OA 
HETATM   14  H   UNL     1     -12.125   7.601  69.865  1.00  0.00     0.000 HD 
BRANCH  12  15
HETATM   15  C   UNL     1      -9.664   6.992  70.297  1.00  0.00    -0.175 C  
BRANCH  15  16
HETATM   16  N   UNL     1     -10.474   7.508  71.412  1.00  0.00    -0.209 NA 
HETATM   17  H   UNL     1     -10.363   6.947  72.257  1.00  0.00     0.000 HD 
BRANCH  16  18
HETATM   18  C   UNL     1     -10.164   8.915  71.647  1.00  0.00    -0.345 C  
BRANCH  18  19
HETATM   19  C   UNL     1     -11.291   9.793  71.119  1.00  0.00    -0.459 C  
BRANCH  19  20
HETATM   20  C   UNL     1     -10.802  10.624  69.935  1.00  0.00    -0.301 C  
BRANCH  20  21
HETATM   21  C   UNL     1     -11.977  11.227  69.180  1.00  0.00    -0.405 C  
BRANCH  21  22
HETATM   22  C   UNL     1     -11.571  12.496  68.440  1.00  0.00    -0.368 C  
BRANCH  22  23
HETATM   23  C   UNL     1     -10.400  12.213  67.510  1.00  0.00    -0.205 C  
BRANCH  23  24
HETATM   24  O   UNL     1     -10.863  11.397  66.441  1.00  0.00    -0.269 OA 
BRANCH  24  25
HETATM   25  C   UNL     1     -10.910  12.122  65.215  1.00  0.00    -0.293 C  
BRANCH  25  26
HETATM   26  C   UNL     1     -12.328  12.638  65.005  1.00  0.00    -0.561 C  
BRANCH  26  27
HETATM   27  C   UNL     1     -12.432  14.120  65.368  1.00  0.00    -0.488 C  
BRANCH  27  28
HETATM   28  C   UNL     1     -11.152  14.882  65.030  1.00  0.00    -0.422 C  
BRANCH  28  29
HETATM   29  C   UNL     1     -10.677  15.650  66.241  1.00  0.00    -0.295 A  
HETATM   30  C   UNL     1      -9.395  16.210  66.266  1.00  0.00    -0.351 A  
HETATM   31  C   UNL     1      -8.928  16.850  67.415  1.00  0.00    -0.215 A  
HETATM   32  C   UNL     1      -9.737  16.932  68.546  1.00  0.00    -0.264 A  
HETATM   33  C   UNL     1     -11.018  16.380  68.529  1.00  0.00    -0.350 A  
HETATM   34  C   UNL     1     -11.487  15.740  67.382  1.00  0.00    -0.019 A  
ENDBRANCH  28  29
ENDBRANCH  27  28
ENDBRANCH  26  27
ENDBRANCH  25  26
ENDBRANCH  24  25
ENDBRANCH  23  24
ENDBRANCH  22  23
ENDBRANCH  21  22
ENDBRANCH  20  21
ENDBRANCH  19  20
ENDBRANCH  18  19
ENDBRANCH  16  18
ENDBRANCH  15  16
ENDBRANCH  12  15
ENDBRANCH  10  12
ENDBRANCH   2   4
TORSDOF 16
ENDMDL
MODEL      287
REMARK 921   NORMALIZED FREE ENERGY PREDICTED BY IDOCK:   -4.13 KCAL/MOL
REMARK 922        TOTAL FREE ENERGY PREDICTED BY IDOCK:  -10.33 KCAL/MOL
REMARK 923 INTER-LIGAND FREE ENERGY PREDICTED BY IDOCK:   -9.01 KCAL/MOL
REMARK 924 INTRA-LIGAND FREE ENERGY PREDICTED BY IDOCK:   -1.32 KCAL/MOL
REMARK 927      BINDING AFFINITY PREDICTED BY RF-SCORE:    0.00 PKD
ROOT
HETATM    1  O   UNL     1      -9.252   5.357  65.061  1.00  0.00    -0.345 OA 
HETATM    2  C   UNL     1     -10.357   5.145  65.941  1.00  0.00    -0.122 C  
HETATM    3  H   UNL     1      -9.284   4.739  64.340  1.00  0.00     0.000 HD 
ENDROOT
BRANCH   2   4
HETATM    4  C   UNL     1     -10.308   6.125  67.084  1.00  0.00    -0.286 A  
HETATM    5  C   UNL     1      -9.984   7.476  66.911  1.00  0.00    -0.248 A  
HETATM    6  O   UNL     1      -9.625   7.980  65.691  1.00  0.00    -0.412 OA 
HETATM    7  C   UNL     1      -9.983   8.365  67.979  1.00  0.00    -0.221 A  
HETATM    8  C   UNL     1     -10.286   7.908  69.260  1.00  0.00    -0.222 A  
HETATM    9  H   UNL     1      -9.405   8.897  65.574  1.00  0.00     0.000 HD 
HETATM   10  C   UNL     1     -10.613   6.560  69.479  1.00  0.00    -0.293 A  
HETATM   11  C   UNL     1     -10.643   5.686  68.377  1.00  0.00    -0.249 A  
BRANCH  10  12
HETATM   12  C   UNL     1     -10.903   6.032  70.871  1.00  0.00    -0.285 C  
HETATM   13  O   UNL     1      -9.677   5.863  71.600  1.00  0.00    -0.159 OA 
HETATM   14  H   UNL     1      -9.858   5.532  72.472  1.00  0.00     0.000 HD 
BRANCH  12  15
HETATM   15  C   UNL     1     -11.834   6.969  71.669  1.00  0.00    -0.313 C  
BRANCH  15  16
HETATM   16  N   UNL     1     -13.127   7.142  70.987  1.00  0.00    -0.556 NA 
HETATM   17  H   UNL     1     -13.639   6.264  70.909  1.00  0.00     0.000 HD 
BRANCH  16  18
HETATM   18  C   UNL     1     -13.912   8.175  71.655  1.00  0.00    -0.395 C  
BRANCH  18  19
HETATM   19  C   UNL     1     -13.038   9.387  71.950  1.00  0.00    -0.505 C  
BRANCH  19  20
HETATM   20  C   UNL     1     -12.974  10.301  70.728  1.00  0.00    -0.408 C  
BRANCH  20  21
HETATM   21  C   UNL     1     -12.416  11.665  71.105  1.00  0.00    -0.412 C  
BRANCH  21  22
HETATM   22  C   UNL     1     -13.339  12.396  72.073  1.00  0.00    -0.511 C  
BRANCH  22  23
HETATM   23  C   UNL     1     -12.937  13.858  72.185  1.00  0.00    -0.350 C  
BRANCH  23  24
HETATM   24  O   UNL     1     -13.276  14.512  70.969  1.00  0.00    -0.360 OA 
BRANCH  24  25
HETATM   25  C   UNL     1     -12.322  15.517  70.634  1.00  0.00    -0.416 C  
BRANCH  25  26
HETATM   26  C   UNL     1     -12.132  15.528  69.122  1.00  0.00    -0.266 C  
BRANCH  26  27
HETATM   27  C   UNL     1     -10.839  16.249  68.737  1.00  0.00    -0.317 C  
BRANCH  27  28
HETATM   28  C   UNL     1      -9.787  15.284  68.194  1.00  0.00    -0.217 C  
BRANCH  28  29
HETATM   29  C   UNL     1      -8.426  15.938  68.222  1.00  0.00    -0.170 A  
HETATM   30  C   UNL     1      -7.741  16.097  69.431  1.00  0.00    -0.145 A  
HETATM   31  C   UNL     1      -6.521  16.773  69.466  1.00  0.00    -0.225 A  
HETATM   32  C   UNL     1      -5.979  17.296  68.294  1.00  0.00    -0.148 A  
HETATM   33  C   UNL     1      -6.652  17.139  67.083  1.00  0.00    -0.210 A  
HETATM   34  C   UNL     1      -7.872  16.463  67.046  1.00  0.00    -0.247 A  
ENDBRANCH  28  29
ENDBRANCH  27  28
ENDBRANCH  26  27
ENDBRANCH  25  26
ENDBRANCH  24  25
ENDBRANCH  23  24
ENDBRANCH  22  23
ENDBRANCH  21  22
ENDBRANCH  20  21
ENDBRANCH  19  20
ENDBRANCH  18  19
ENDBRANCH  16  18
ENDBRANCH  15  16
ENDBRANCH  12  15
ENDBRANCH  10  12
ENDBRANCH   2   4
TORSDOF 16
ENDMDL
MODEL      288
REMARK 921   NORMALIZED FREE ENERGY PREDICTED BY IDOCK:   -4.12 KCAL/MOL
REMARK 922        TOTAL FREE ENERGY PREDICTED BY IDOCK:  -10.31 KCAL/MOL
REMARK 923 INTER-LIGAND FREE ENERGY PREDICTED BY IDOCK:   -7.90 KCAL/MOL
REMARK 924 INTRA-LIGAND FREE ENERGY PREDICTED BY IDOCK:   -2.41 KCAL/MOL
REMARK 927      BINDING AFFINITY PREDICTED BY RF-SCORE:    0.00 PKD
ROOT
HETATM    1  O   UNL     1     -10.283  10.806  66.113  1.00  0.00    -0.237 OA 
HETATM    2  C   UNL     1     -11.329  11.625  66.637  1.00  0.00    -0.270 C  
HETATM    3  H   UNL     1     -10.301   9.948  66.523  1.00  0.00     0.000 HD 
ENDROOT
BRANCH   2   4
HETATM    4  C   UNL     1     -11.301  12.983  65.987  1.00  0.00    -0.343 A  
HETATM    5  C   UNL     1     -12.245  13.388  65.036  1.00  0.00    -0.424 A  
HETATM    6  O   UNL     1     -13.222  12.544  64.586  1.00  0.00    -0.848 OA 
HETATM    7  C   UNL     1     -12.216  14.662  64.481  1.00  0.00    -0.473 A  
HETATM    8  C   UNL     1     -11.216  15.557  64.854  1.00  0.00    -0.396 A  
HETATM    9  H   UNL     1     -13.862  12.818  63.940  1.00  0.00     0.000 HD 
HETATM   10  C   UNL     1     -10.247  15.191  65.802  1.00  0.00    -0.365 A  
HETATM   11  C   UNL     1     -10.317  13.910  66.377  1.00  0.00    -0.289 A  
BRANCH  10  12
HETATM   12  C   UNL     1      -9.122  16.133  66.189  1.00  0.00    -0.347 C  
HETATM   13  O   UNL     1      -9.550  17.497  66.050  1.00  0.00    -0.473 OA 
HETATM   14  H   UNL     1      -8.846  18.087  66.292  1.00  0.00     0.000 HD 
BRANCH  12  15
HETATM   15  C   UNL     1      -8.643  15.905  67.638  1.00  0.00    -0.163 C  
BRANCH  15  16
HETATM   16  N   UNL     1      -7.258  15.405  67.669  1.00  0.00    -0.164 NA 
HETATM   17  H   UNL     1      -6.601  16.119  67.982  1.00  0.00     0.000 HD 
BRANCH  16  18
HETATM   18  C   UNL     1      -7.180  14.196  68.484  1.00  0.00    -0.110 C  
BRANCH  18  19
HETATM   19  C   UNL     1      -7.029  12.972  67.589  1.00  0.00    -0.154 C  
BRANCH  19  20
HETATM   20  C   UNL     1      -7.794  11.790  68.180  1.00  0.00    -0.135 C  
BRANCH  20  21
HETATM   21  C   UNL     1      -7.006  10.499  68.005  1.00  0.00    -0.074 C  
BRANCH  21  22
HETATM   22  C   UNL     1      -6.723  10.215  66.535  1.00  0.00    -0.085 C  
BRANCH  22  23
HETATM   23  C   UNL     1      -7.097   8.781  66.193  1.00  0.00    -0.085 C  
BRANCH  23  24
HETATM   24  O   UNL     1      -8.496   8.729  65.944  1.00  0.00    -0.127 OA 
BRANCH  24  25
HETATM   25  C   UNL     1      -8.992   7.395  66.030  1.00  0.00    -0.121 C  
BRANCH  25  26
HETATM   26  C   UNL     1     -10.263   7.397  66.870  1.00  0.00    -0.346 C  
BRANCH  26  27
HETATM   27  C   UNL     1      -9.937   7.522  68.359  1.00  0.00    -0.185 C  
BRANCH  27  28
HETATM   28  C   UNL     1     -10.325   8.890  68.916  1.00  0.00    -0.229 C  
BRANCH  28  29
HETATM   29  C   UNL     1     -10.839   8.743  70.329  1.00  0.00    -0.252 A  
HETATM   30  C   UNL     1     -10.010   8.236  71.335  1.00  0.00    -0.250 A  
HETATM   31  C   UNL     1     -10.511   8.025  72.620  1.00  0.00    -0.408 A  
HETATM   32  C   UNL     1     -11.843   8.316  72.907  1.00  0.00    -0.102 A  
HETATM   33  C   UNL     1     -12.676   8.825  71.912  1.00  0.00    -0.427 A  
HETATM   34  C   UNL     1     -12.178   9.037  70.626  1.00  0.00    -0.017 A  
ENDBRANCH  28  29
ENDBRANCH  27  28
ENDBRANCH  26  27
ENDBRANCH  25  26
ENDBRANCH  24  25
ENDBRANCH  23  24
ENDBRANCH  22  23
ENDBRANCH  21  22
ENDBRANCH  20  21
ENDBRANCH  19  20
ENDBRANCH  18  19
ENDBRANCH  16  18
ENDBRANCH  15  16
ENDBRANCH  12  15
ENDBRANCH  10  12
ENDBRANCH   2   4
TORSDOF 16
ENDMDL
MODEL      289
REMARK 921   NORMALIZED FREE ENERGY PREDICTED BY IDOCK:   -4.12 KCAL/MOL
REMARK 922        TOTAL FREE ENERGY PREDICTED BY IDOCK:  -10.31 KCAL/MOL
REMARK 923 INTER-LIGAND FREE ENERGY PREDICTED BY IDOCK:   -8.98 KCAL/MOL
REMARK 924 INTRA-LIGAND FREE ENERGY PREDICTED BY IDOCK:   -1.33 KCAL/MOL
REMARK 927      BINDING AFFINITY PREDICTED BY RF-SCORE:    0.00 PKD
ROOT
HETATM    1  O   UNL     1      -7.838   9.747  70.966  1.00  0.00    -0.341 OA 
HETATM    2  C   UNL     1      -6.806   8.842  71.363  1.00  0.00    -0.083 C  
HETATM    3  H   UNL     1      -7.469  10.603  70.779  1.00  0.00     0.000 HD 
ENDROOT
BRANCH   2   4
HETATM    4  C   UNL     1      -7.390   7.485  71.659  1.00  0.00    -0.075 A  
HETATM    5  C   UNL     1      -6.799   6.294  71.220  1.00  0.00    -0.067 A  
HETATM    6  O   UNL     1      -5.681   6.292  70.434  1.00  0.00    -0.017 OA 
HETATM    7  C   UNL     1      -7.341   5.055  71.541  1.00  0.00    -0.081 A  
HETATM    8  C   UNL     1      -8.510   4.984  72.294  1.00  0.00    -0.124 A  
HETATM    9  H   UNL     1      -5.280   5.484  70.135  1.00  0.00     0.000 HD 
HETATM   10  C   UNL     1      -9.137   6.154  72.751  1.00  0.00    -0.128 A  
HETATM   11  C   UNL     1      -8.552   7.396  72.446  1.00  0.00    -0.138 A  
BRANCH  10  12
HETATM   12  C   UNL     1     -10.435   6.102  73.535  1.00  0.00    -0.264 C  
HETATM   13  O   UNL     1     -10.788   7.416  73.994  1.00  0.00    -0.558 OA 
HETATM   14  H   UNL     1     -11.601   7.384  74.485  1.00  0.00     0.000 HD 
BRANCH  12  15
HETATM   15  C   UNL     1     -11.601   5.536  72.696  1.00  0.00    -0.232 C  
BRANCH  15  16
HETATM   16  N   UNL     1     -12.498   6.609  72.237  1.00  0.00    -0.546 NA 
HETATM   17  H   UNL     1     -12.505   7.401  72.880  1.00  0.00     0.000 HD 
BRANCH  16  18
HETATM   18  C   UNL     1     -12.146   7.011  70.879  1.00  0.00    -0.357 C  
BRANCH  18  19
HETATM   19  C   UNL     1     -11.687   8.464  70.866  1.00  0.00    -0.269 C  
BRANCH  19  20
HETATM   20  C   UNL     1     -12.749   9.357  71.504  1.00  0.00    -0.444 C  
BRANCH  20  21
HETATM   21  C   UNL     1     -12.343  10.821  71.416  1.00  0.00    -0.433 C  
BRANCH  21  22
HETATM   22  C   UNL     1     -12.128  11.254  69.971  1.00  0.00    -0.425 C  
BRANCH  22  23
HETATM   23  C   UNL     1     -12.030  12.769  69.882  1.00  0.00    -0.298 C  
BRANCH  23  24
HETATM   24  O   UNL     1     -12.044  13.140  68.510  1.00  0.00    -0.317 OA 
BRANCH  24  25
HETATM   25  C   UNL     1     -11.916  14.551  68.350  1.00  0.00    -0.274 C  
BRANCH  25  26
HETATM   26  C   UNL     1     -12.019  15.211  69.720  1.00  0.00    -0.367 C  
BRANCH  26  27
HETATM   27  C   UNL     1     -11.005  16.348  69.859  1.00  0.00    -0.339 C  
BRANCH  27  28
HETATM   28  C   UNL     1     -10.077  16.437  68.650  1.00  0.00    -0.244 C  
BRANCH  28  29
HETATM   29  C   UNL     1     -10.203  17.795  68.003  1.00  0.00    -0.377 A  
HETATM   30  C   UNL     1     -10.611  17.910  66.669  1.00  0.00    -0.243 A  
HETATM   31  C   UNL     1     -10.650  19.160  66.050  1.00  0.00    -0.524 A  
HETATM   32  C   UNL     1     -10.279  20.301  66.757  1.00  0.00    -0.497 A  
HETATM   33  C   UNL     1      -9.874  20.197  68.087  1.00  0.00    -0.460 A  
HETATM   34  C   UNL     1      -9.835  18.949  68.709  1.00  0.00    -0.461 A  
ENDBRANCH  28  29
ENDBRANCH  27  28
ENDBRANCH  26  27
ENDBRANCH  25  26
ENDBRANCH  24  25
ENDBRANCH  23  24
ENDBRANCH  22  23
ENDBRANCH  21  22
ENDBRANCH  20  21
ENDBRANCH  19  20
ENDBRANCH  18  19
ENDBRANCH  16  18
ENDBRANCH  15  16
ENDBRANCH  12  15
ENDBRANCH  10  12
ENDBRANCH   2   4
TORSDOF 16
ENDMDL
MODEL      290
REMARK 921   NORMALIZED FREE ENERGY PREDICTED BY IDOCK:   -4.11 KCAL/MOL
REMARK 922        TOTAL FREE ENERGY PREDICTED BY IDOCK:  -10.30 KCAL/MOL
REMARK 923 INTER-LIGAND FREE ENERGY PREDICTED BY IDOCK:   -7.94 KCAL/MOL
REMARK 924 INTRA-LIGAND FREE ENERGY PREDICTED BY IDOCK:   -2.36 KCAL/MOL
REMARK 927      BINDING AFFINITY PREDICTED BY RF-SCORE:    0.00 PKD
ROOT
HETATM    1  O   UNL     1      -9.878   9.873  63.502  1.00  0.00    -0.495 OA 
HETATM    2  C   UNL     1      -9.551   9.536  64.851  1.00  0.00    -0.088 C  
HETATM    3  H   UNL     1      -9.435   9.286  62.900  1.00  0.00     0.000 HD 
ENDROOT
BRANCH   2   4
HETATM    4  C   UNL     1     -10.253  10.467  65.804  1.00  0.00    -0.310 A  
HETATM    5  C   UNL     1     -10.863  10.025  66.984  1.00  0.00    -0.126 A  
HETATM    6  O   UNL     1     -10.918   8.700  67.314  1.00  0.00    -0.434 OA 
HETATM    7  C   UNL     1     -11.471  10.914  67.864  1.00  0.00    -0.344 A  
HETATM    8  C   UNL     1     -11.500  12.274  67.564  1.00  0.00    -0.414 A  
HETATM    9  H   UNL     1     -11.332   8.399  68.115  1.00  0.00     0.000 HD 
HETATM   10  C   UNL     1     -10.904  12.759  66.389  1.00  0.00    -0.294 A  
HETATM   11  C   UNL     1     -10.263  11.847  65.532  1.00  0.00    -0.290 A  
BRANCH  10  12
HETATM   12  C   UNL     1     -10.963  14.230  66.021  1.00  0.00    -0.312 C  
HETATM   13  O   UNL     1     -11.814  14.935  66.938  1.00  0.00    -0.315 OA 
HETATM   14  H   UNL     1     -11.851  15.856  66.707  1.00  0.00     0.000 HD 
BRANCH  12  15
HETATM   15  C   UNL     1      -9.567  14.889  66.025  1.00  0.00    -0.313 C  
BRANCH  15  16
HETATM   16  N   UNL     1      -9.394  15.761  67.198  1.00  0.00    -0.210 NA 
HETATM   17  H   UNL     1     -10.287  16.086  67.568  1.00  0.00     0.000 HD 
BRANCH  16  18
HETATM   18  C   UNL     1      -8.595  15.082  68.214  1.00  0.00    -0.156 C  
BRANCH  18  19
HETATM   19  C   UNL     1      -7.241  14.689  67.637  1.00  0.00    -0.206 C  
BRANCH  19  20
HETATM   20  C   UNL     1      -6.729  13.419  68.312  1.00  0.00    -0.105 C  
BRANCH  20  21
HETATM   21  C   UNL     1      -7.864  12.425  68.517  1.00  0.00    -0.112 C  
BRANCH  21  22
HETATM   22  C   UNL     1      -7.491  11.041  68.000  1.00  0.00    -0.090 C  
BRANCH  22  23
HETATM   23  C   UNL     1      -7.010  10.161  69.144  1.00  0.00    -0.062 C  
BRANCH  23  24
HETATM   24  O   UNL     1      -7.680   8.910  69.061  1.00  0.00    -0.087 OA 
BRANCH  24  25
HETATM   25  C   UNL     1      -8.860   8.898  69.861  1.00  0.00    -0.151 C  
BRANCH  25  26
HETATM   26  C   UNL     1      -9.129   7.469  70.317  1.00  0.00    -0.154 C  
BRANCH  26  27
HETATM   27  C   UNL     1      -9.244   7.392  71.840  1.00  0.00    -0.151 C  
BRANCH  27  28
HETATM   28  C   UNL     1     -10.443   6.555  72.281  1.00  0.00    -0.226 C  
BRANCH  28  29
HETATM   29  C   UNL     1     -11.714   7.356  72.127  1.00  0.00    -0.328 A  
HETATM   30  C   UNL     1     -12.907   6.728  71.756  1.00  0.00    -0.307 A  
HETATM   31  C   UNL     1     -14.061   7.480  71.536  1.00  0.00    -0.550 A  
HETATM   32  C   UNL     1     -14.029   8.866  71.682  1.00  0.00    -0.417 A  
HETATM   33  C   UNL     1     -12.845   9.501  72.054  1.00  0.00    -0.499 A  
HETATM   34  C   UNL     1     -11.690   8.750  72.276  1.00  0.00    -0.398 A  
ENDBRANCH  28  29
ENDBRANCH  27  28
ENDBRANCH  26  27
ENDBRANCH  25  26
ENDBRANCH  24  25
ENDBRANCH  23  24
ENDBRANCH  22  23
ENDBRANCH  21  22
ENDBRANCH  20  21
ENDBRANCH  19  20
ENDBRANCH  18  19
ENDBRANCH  16  18
ENDBRANCH  15  16
ENDBRANCH  12  15
ENDBRANCH  10  12
ENDBRANCH   2   4
TORSDOF 16
ENDMDL
MODEL      291
REMARK 921   NORMALIZED FREE ENERGY PREDICTED BY IDOCK:   -4.11 KCAL/MOL
REMARK 922        TOTAL FREE ENERGY PREDICTED BY IDOCK:  -10.30 KCAL/MOL
REMARK 923 INTER-LIGAND FREE ENERGY PREDICTED BY IDOCK:   -8.43 KCAL/MOL
REMARK 924 INTRA-LIGAND FREE ENERGY PREDICTED BY IDOCK:   -1.87 KCAL/MOL
REMARK 927      BINDING AFFINITY PREDICTED BY RF-SCORE:    0.00 PKD
ROOT
HETATM    1  O   UNL     1      -9.757   4.296  68.202  1.00  0.00    -0.155 OA 
HETATM    2  C   UNL     1     -10.149   4.618  66.867  1.00  0.00    -0.191 C  
HETATM    3  H   UNL     1     -10.027   3.411  68.418  1.00  0.00     0.000 HD 
ENDROOT
BRANCH   2   4
HETATM    4  C   UNL     1      -9.721   6.021  66.523  1.00  0.00    -0.183 A  
HETATM    5  C   UNL     1      -8.623   6.298  65.700  1.00  0.00    -0.139 A  
HETATM    6  O   UNL     1      -7.824   5.305  65.205  1.00  0.00    -0.089 OA 
HETATM    7  C   UNL     1      -8.274   7.603  65.370  1.00  0.00    -0.137 A  
HETATM    8  C   UNL     1      -9.012   8.667  65.883  1.00  0.00    -0.245 A  
HETATM    9  H   UNL     1      -7.079   5.493  64.647  1.00  0.00     0.000 HD 
HETATM   10  C   UNL     1     -10.119   8.434  66.715  1.00  0.00    -0.373 A  
HETATM   11  C   UNL     1     -10.475   7.106  67.007  1.00  0.00    -0.392 A  
BRANCH  10  12
HETATM   12  C   UNL     1     -10.909   9.579  67.322  1.00  0.00    -0.118 C  
HETATM   13  O   UNL     1     -11.168   9.320  68.710  1.00  0.00    -0.453 OA 
HETATM   14  H   UNL     1     -11.663  10.037  69.090  1.00  0.00     0.000 HD 
BRANCH  12  15
HETATM   15  C   UNL     1     -10.171  10.929  67.194  1.00  0.00    -0.210 C  
BRANCH  15  16
HETATM   16  N   UNL     1      -9.396  11.229  68.409  1.00  0.00    -0.176 NA 
HETATM   17  H   UNL     1      -9.061  10.382  68.868  1.00  0.00     0.000 HD 
BRANCH  16  18
HETATM   18  C   UNL     1      -8.305  12.146  68.094  1.00  0.00    -0.170 C  
BRANCH  18  19
HETATM   19  C   UNL     1      -8.813  13.583  68.098  1.00  0.00    -0.179 C  
BRANCH  19  20
HETATM   20  C   UNL     1      -7.642  14.556  67.992  1.00  0.00    -0.138 C  
BRANCH  20  21
HETATM   21  C   UNL     1      -7.824  15.489  66.804  1.00  0.00    -0.162 C  
BRANCH  21  22
HETATM   22  C   UNL     1      -9.206  15.334  66.181  1.00  0.00    -0.345 C  
BRANCH  22  23
HETATM   23  C   UNL     1      -9.860  16.696  66.001  1.00  0.00    -0.309 C  
BRANCH  23  24
HETATM   24  O   UNL     1     -10.813  16.878  67.041  1.00  0.00    -0.204 OA 
BRANCH  24  25
HETATM   25  C   UNL     1     -10.317  17.748  68.055  1.00  0.00    -0.393 C  
BRANCH  25  26
HETATM   26  C   UNL     1     -10.525  17.088  69.412  1.00  0.00    -0.250 C  
BRANCH  26  27
HETATM   27  C   UNL     1     -11.310  15.783  69.274  1.00  0.00    -0.350 C  
BRANCH  27  28
HETATM   28  C   UNL     1     -12.479  15.713  70.254  1.00  0.00    -0.369 C  
BRANCH  28  29
HETATM   29  C   UNL     1     -12.639  14.299  70.763  1.00  0.00    -0.427 A  
HETATM   30  C   UNL     1     -11.999  13.237  70.116  1.00  0.00    -0.388 A  
HETATM   31  C   UNL     1     -12.212  11.925  70.537  1.00  0.00    -0.426 A  
HETATM   32  C   UNL     1     -13.068  11.664  71.606  1.00  0.00    -0.456 A  
HETATM   33  C   UNL     1     -13.707  12.717  72.259  1.00  0.00    -0.495 A  
HETATM   34  C   UNL     1     -13.495  14.031  71.840  1.00  0.00    -0.506 A  
ENDBRANCH  28  29
ENDBRANCH  27  28
ENDBRANCH  26  27
ENDBRANCH  25  26
ENDBRANCH  24  25
ENDBRANCH  23  24
ENDBRANCH  22  23
ENDBRANCH  21  22
ENDBRANCH  20  21
ENDBRANCH  19  20
ENDBRANCH  18  19
ENDBRANCH  16  18
ENDBRANCH  15  16
ENDBRANCH  12  15
ENDBRANCH  10  12
ENDBRANCH   2   4
TORSDOF 16
ENDMDL
MODEL      292
REMARK 921   NORMALIZED FREE ENERGY PREDICTED BY IDOCK:   -4.11 KCAL/MOL
REMARK 922        TOTAL FREE ENERGY PREDICTED BY IDOCK:  -10.29 KCAL/MOL
REMARK 923 INTER-LIGAND FREE ENERGY PREDICTED BY IDOCK:   -8.09 KCAL/MOL
REMARK 924 INTRA-LIGAND FREE ENERGY PREDICTED BY IDOCK:   -2.20 KCAL/MOL
REMARK 927      BINDING AFFINITY PREDICTED BY RF-SCORE:    0.00 PKD
ROOT
HETATM    1  O   UNL     1     -10.125   3.939  68.006  1.00  0.00     0.054 OA 
HETATM    2  C   UNL     1      -9.623   5.153  68.567  1.00  0.00    -0.140 C  
HETATM    3  H   UNL     1      -9.721   3.776  67.161  1.00  0.00     0.000 HD 
ENDROOT
BRANCH   2   4
HETATM    4  C   UNL     1     -10.264   5.412  69.905  1.00  0.00    -0.351 A  
HETATM    5  C   UNL     1      -9.810   4.820  71.090  1.00  0.00    -0.190 A  
HETATM    6  O   UNL     1      -8.788   3.912  71.096  1.00  0.00    -0.083 OA 
HETATM    7  C   UNL     1     -10.398   5.108  72.317  1.00  0.00    -0.267 A  
HETATM    8  C   UNL     1     -11.479   5.984  72.377  1.00  0.00    -0.357 A  
HETATM    9  H   UNL     1      -8.480   3.510  71.900  1.00  0.00     0.000 HD 
HETATM   10  C   UNL     1     -11.969   6.596  71.213  1.00  0.00    -0.409 A  
HETATM   11  C   UNL     1     -11.336   6.319  69.988  1.00  0.00    -0.486 A  
BRANCH  10  12
HETATM   12  C   UNL     1     -13.174   7.518  71.249  1.00  0.00    -0.257 C  
HETATM   13  O   UNL     1     -14.129   7.044  72.211  1.00  0.00    -0.574 OA 
HETATM   14  H   UNL     1     -14.884   7.621  72.234  1.00  0.00     0.000 HD 
BRANCH  12  15
HETATM   15  C   UNL     1     -12.786   8.970  71.602  1.00  0.00    -0.359 C  
BRANCH  15  16
HETATM   16  N   UNL     1     -13.279   9.914  70.585  1.00  0.00    -0.611 NA 
HETATM   17  H   UNL     1     -14.008  10.524  70.952  1.00  0.00     0.000 HD 
BRANCH  16  18
HETATM   18  C   UNL     1     -12.165  10.671  70.023  1.00  0.00    -0.298 C  
BRANCH  18  19
HETATM   19  C   UNL     1     -12.270  12.135  70.430  1.00  0.00    -0.378 C  
BRANCH  19  20
HETATM   20  C   UNL     1     -11.642  13.026  69.360  1.00  0.00    -0.360 C  
BRANCH  20  21
HETATM   21  C   UNL     1     -11.848  12.430  67.975  1.00  0.00    -0.376 C  
BRANCH  21  22
HETATM   22  C   UNL     1     -11.891  13.513  66.904  1.00  0.00    -0.452 C  
BRANCH  22  23
HETATM   23  C   UNL     1     -10.721  14.470  67.072  1.00  0.00    -0.291 C  
BRANCH  23  24
HETATM   24  O   UNL     1      -9.591  13.918  66.407  1.00  0.00    -0.279 OA 
BRANCH  24  25
HETATM   25  C   UNL     1      -8.371  14.407  66.960  1.00  0.00    -0.145 C  
BRANCH  25  26
HETATM   26  C   UNL     1      -8.259  13.926  68.401  1.00  0.00    -0.153 C  
BRANCH  26  27
HETATM   27  C   UNL     1      -8.146  12.402  68.464  1.00  0.00    -0.096 C  
BRANCH  27  28
HETATM   28  C   UNL     1      -7.597  11.816  67.164  1.00  0.00    -0.155 C  
BRANCH  28  29
HETATM   29  C   UNL     1      -8.274  10.499  66.867  1.00  0.00    -0.123 A  
HETATM   30  C   UNL     1      -8.079   9.864  65.636  1.00  0.00    -0.128 A  
HETATM   31  C   UNL     1      -8.769   8.690  65.332  1.00  0.00    -0.208 A  
HETATM   32  C   UNL     1      -9.659   8.144  66.254  1.00  0.00    -0.248 A  
HETATM   33  C   UNL     1      -9.857   8.768  67.485  1.00  0.00    -0.232 A  
HETATM   34  C   UNL     1      -9.169   9.942  67.792  1.00  0.00    -0.141 A  
ENDBRANCH  28  29
ENDBRANCH  27  28
ENDBRANCH  26  27
ENDBRANCH  25  26
ENDBRANCH  24  25
ENDBRANCH  23  24
ENDBRANCH  22  23
ENDBRANCH  21  22
ENDBRANCH  20  21
ENDBRANCH  19  20
ENDBRANCH  18  19
ENDBRANCH  16  18
ENDBRANCH  15  16
ENDBRANCH  12  15
ENDBRANCH  10  12
ENDBRANCH   2   4
TORSDOF 16
ENDMDL
MODEL      293
REMARK 921   NORMALIZED FREE ENERGY PREDICTED BY IDOCK:   -4.11 KCAL/MOL
REMARK 922        TOTAL FREE ENERGY PREDICTED BY IDOCK:  -10.29 KCAL/MOL
REMARK 923 INTER-LIGAND FREE ENERGY PREDICTED BY IDOCK:   -8.65 KCAL/MOL
REMARK 924 INTRA-LIGAND FREE ENERGY PREDICTED BY IDOCK:   -1.64 KCAL/MOL
REMARK 927      BINDING AFFINITY PREDICTED BY RF-SCORE:    0.00 PKD
ROOT
HETATM    1  O   UNL     1      -7.182   7.893  73.776  1.00  0.00    -0.116 OA 
HETATM    2  C   UNL     1      -8.587   7.737  73.973  1.00  0.00    -0.265 C  
HETATM    3  H   UNL     1      -6.845   8.579  74.341  1.00  0.00     0.000 HD 
ENDROOT
BRANCH   2   4
HETATM    4  C   UNL     1      -9.121   6.649  73.078  1.00  0.00    -0.140 A  
HETATM    5  C   UNL     1      -8.669   5.326  73.141  1.00  0.00    -0.120 A  
HETATM    6  O   UNL     1      -7.661   4.948  73.983  1.00  0.00    -0.091 OA 
HETATM    7  C   UNL     1      -9.208   4.336  72.327  1.00  0.00    -0.155 A  
HETATM    8  C   UNL     1     -10.202   4.660  71.407  1.00  0.00    -0.212 A  
HETATM    9  H   UNL     1      -7.353   4.050  74.025  1.00  0.00     0.000 HD 
HETATM   10  C   UNL     1     -10.681   5.976  71.308  1.00  0.00    -0.320 A  
HETATM   11  C   UNL     1     -10.148   6.954  72.166  1.00  0.00    -0.198 A  
BRANCH  10  12
HETATM   12  C   UNL     1     -11.731   6.361  70.282  1.00  0.00    -0.320 C  
HETATM   13  O   UNL     1     -12.161   7.714  70.500  1.00  0.00    -0.507 OA 
HETATM   14  H   UNL     1     -12.819   7.956  69.858  1.00  0.00     0.000 HD 
BRANCH  12  15
HETATM   15  C   UNL     1     -11.209   6.229  68.836  1.00  0.00    -0.309 C  
BRANCH  15  16
HETATM   16  N   UNL     1      -9.898   6.880  68.680  1.00  0.00    -0.143 NA 
HETATM   17  H   UNL     1      -9.268   6.334  68.093  1.00  0.00     0.000 HD 
BRANCH  16  18
HETATM   18  C   UNL     1     -10.071   8.240  68.179  1.00  0.00    -0.200 C  
BRANCH  18  19
HETATM   19  C   UNL     1      -9.924   8.261  66.663  1.00  0.00    -0.348 C  
BRANCH  19  20
HETATM   20  C   UNL     1      -9.265   9.563  66.215  1.00  0.00    -0.219 C  
BRANCH  20  21
HETATM   21  C   UNL     1      -9.967  10.762  66.836  1.00  0.00    -0.240 C  
BRANCH  21  22
HETATM   22  C   UNL     1     -10.962  11.389  65.866  1.00  0.00    -0.268 C  
BRANCH  22  23
HETATM   23  C   UNL     1     -10.448  12.735  65.379  1.00  0.00    -0.286 C  
BRANCH  23  24
HETATM   24  O   UNL     1      -9.438  13.181  66.275  1.00  0.00    -0.252 OA 
BRANCH  24  25
HETATM   25  C   UNL     1      -9.756  14.457  66.825  1.00  0.00    -0.270 C  
BRANCH  25  26
HETATM   26  C   UNL     1     -11.207  14.784  66.499  1.00  0.00    -0.342 C  
BRANCH  26  27
HETATM   27  C   UNL     1     -12.106  14.566  67.717  1.00  0.00    -0.269 C  
BRANCH  27  28
HETATM   28  C   UNL     1     -11.300  14.463  69.011  1.00  0.00    -0.297 C  
BRANCH  28  29
HETATM   29  C   UNL     1     -11.957  13.479  69.949  1.00  0.00    -0.416 A  
HETATM   30  C   UNL     1     -12.654  13.931  71.075  1.00  0.00    -0.444 A  
HETATM   31  C   UNL     1     -13.191  13.019  71.984  1.00  0.00    -0.543 A  
HETATM   32  C   UNL     1     -13.033  11.650  71.776  1.00  0.00    -0.483 A  
HETATM   33  C   UNL     1     -12.343  11.190  70.655  1.00  0.00    -0.482 A  
HETATM   34  C   UNL     1     -11.806  12.100  69.744  1.00  0.00    -0.397 A  
ENDBRANCH  28  29
ENDBRANCH  27  28
ENDBRANCH  26  27
ENDBRANCH  25  26
ENDBRANCH  24  25
ENDBRANCH  23  24
ENDBRANCH  22  23
ENDBRANCH  21  22
ENDBRANCH  20  21
ENDBRANCH  19  20
ENDBRANCH  18  19
ENDBRANCH  16  18
ENDBRANCH  15  16
ENDBRANCH  12  15
ENDBRANCH  10  12
ENDBRANCH   2   4
TORSDOF 16
ENDMDL
MODEL      294
REMARK 921   NORMALIZED FREE ENERGY PREDICTED BY IDOCK:   -4.11 KCAL/MOL
REMARK 922        TOTAL FREE ENERGY PREDICTED BY IDOCK:  -10.29 KCAL/MOL
REMARK 923 INTER-LIGAND FREE ENERGY PREDICTED BY IDOCK:   -7.74 KCAL/MOL
REMARK 924 INTRA-LIGAND FREE ENERGY PREDICTED BY IDOCK:   -2.55 KCAL/MOL
REMARK 927      BINDING AFFINITY PREDICTED BY RF-SCORE:    0.00 PKD
ROOT
HETATM    1  O   UNL     1     -10.069  13.637  64.287  1.00  0.00    -0.738 OA 
HETATM    2  C   UNL     1     -11.326  13.010  64.542  1.00  0.00    -0.339 C  
HETATM    3  H   UNL     1     -10.093  14.093  63.453  1.00  0.00     0.000 HD 
ENDROOT
BRANCH   2   4
HETATM    4  C   UNL     1     -11.288  12.287  65.863  1.00  0.00    -0.406 A  
HETATM    5  C   UNL     1     -11.795  12.841  67.045  1.00  0.00    -0.361 A  
HETATM    6  O   UNL     1     -12.302  14.110  67.086  1.00  0.00    -0.562 OA 
HETATM    7  C   UNL     1     -11.779  12.135  68.242  1.00  0.00    -0.401 A  
HETATM    8  C   UNL     1     -11.229  10.856  68.285  1.00  0.00    -0.347 A  
HETATM    9  H   UNL     1     -12.645  14.486  67.888  1.00  0.00     0.000 HD 
HETATM   10  C   UNL     1     -10.706  10.265  67.124  1.00  0.00    -0.303 A  
HETATM   11  C   UNL     1     -10.764  10.983  65.917  1.00  0.00    -0.226 A  
BRANCH  10  12
HETATM   12  C   UNL     1     -10.060   8.892  67.157  1.00  0.00    -0.249 C  
HETATM   13  O   UNL     1      -8.654   9.001  66.885  1.00  0.00    -0.121 OA 
HETATM   14  H   UNL     1      -8.249   8.141  66.906  1.00  0.00     0.000 HD 
BRANCH  12  15
HETATM   15  C   UNL     1     -10.254   8.188  68.517  1.00  0.00    -0.208 C  
BRANCH  15  16
HETATM   16  N   UNL     1     -11.088   6.983  68.379  1.00  0.00    -0.483 NA 
HETATM   17  H   UNL     1     -10.641   6.274  67.797  1.00  0.00     0.000 HD 
BRANCH  16  18
HETATM   18  C   UNL     1     -11.442   6.465  69.697  1.00  0.00    -0.378 C  
BRANCH  18  19
HETATM   19  C   UNL     1     -10.892   7.381  70.783  1.00  0.00    -0.257 C  
BRANCH  19  20
HETATM   20  C   UNL     1     -10.458   6.559  71.995  1.00  0.00    -0.227 C  
BRANCH  20  21
HETATM   21  C   UNL     1     -11.536   5.555  72.377  1.00  0.00    -0.266 C  
BRANCH  21  22
HETATM   22  C   UNL     1     -11.141   4.759  73.615  1.00  0.00    -0.380 C  
BRANCH  22  23
HETATM   23  C   UNL     1      -9.766   5.187  74.102  1.00  0.00    -0.155 C  
BRANCH  23  24
HETATM   24  O   UNL     1      -8.989   4.019  74.338  1.00  0.00    -0.094 OA 
BRANCH  24  25
HETATM   25  C   UNL     1      -8.126   3.737  73.239  1.00  0.00    -0.087 C  
BRANCH  25  26
HETATM   26  C   UNL     1      -8.210   2.250  72.918  1.00  0.00    -0.058 C  
BRANCH  26  27
HETATM   27  C   UNL     1      -8.331   2.021  71.410  1.00  0.00    -0.067 C  
BRANCH  27  28
HETATM   28  C   UNL     1      -9.449   2.858  70.793  1.00  0.00    -0.223 C  
BRANCH  28  29
HETATM   29  C   UNL     1      -8.919   3.630  69.607  1.00  0.00    -0.175 A  
HETATM   30  C   UNL     1      -8.103   4.750  69.799  1.00  0.00    -0.069 A  
HETATM   31  C   UNL     1      -7.681   5.508  68.707  1.00  0.00    -0.091 A  
HETATM   32  C   UNL     1      -8.072   5.154  67.417  1.00  0.00    -0.100 A  
HETATM   33  C   UNL     1      -8.882   4.037  67.216  1.00  0.00    -0.130 A  
HETATM   34  C   UNL     1      -9.305   3.277  68.306  1.00  0.00    -0.242 A  
ENDBRANCH  28  29
ENDBRANCH  27  28
ENDBRANCH  26  27
ENDBRANCH  25  26
ENDBRANCH  24  25
ENDBRANCH  23  24
ENDBRANCH  22  23
ENDBRANCH  21  22
ENDBRANCH  20  21
ENDBRANCH  19  20
ENDBRANCH  18  19
ENDBRANCH  16  18
ENDBRANCH  15  16
ENDBRANCH  12  15
ENDBRANCH  10  12
ENDBRANCH   2   4
TORSDOF 16
ENDMDL
MODEL      295
REMARK 921   NORMALIZED FREE ENERGY PREDICTED BY IDOCK:   -4.10 KCAL/MOL
REMARK 922        TOTAL FREE ENERGY PREDICTED BY IDOCK:  -10.27 KCAL/MOL
REMARK 923 INTER-LIGAND FREE ENERGY PREDICTED BY IDOCK:   -8.82 KCAL/MOL
REMARK 924 INTRA-LIGAND FREE ENERGY PREDICTED BY IDOCK:   -1.45 KCAL/MOL
REMARK 927      BINDING AFFINITY PREDICTED BY RF-SCORE:    0.00 PKD
ROOT
HETATM    1  O   UNL     1     -14.013   7.645  72.305  1.00  0.00    -0.530 OA 
HETATM    2  C   UNL     1     -12.896   8.533  72.249  1.00  0.00    -0.355 C  
HETATM    3  H   UNL     1     -14.815   8.136  72.442  1.00  0.00     0.000 HD 
ENDROOT
BRANCH   2   4
HETATM    4  C   UNL     1     -11.624   7.756  72.032  1.00  0.00    -0.347 A  
HETATM    5  C   UNL     1     -11.391   6.987  70.886  1.00  0.00    -0.295 A  
HETATM    6  O   UNL     1     -12.340   6.840  69.912  1.00  0.00    -0.581 OA 
HETATM    7  C   UNL     1     -10.192   6.310  70.697  1.00  0.00    -0.240 A  
HETATM    8  C   UNL     1      -9.201   6.372  71.674  1.00  0.00    -0.144 A  
HETATM    9  H   UNL     1     -12.182   6.317  69.135  1.00  0.00     0.000 HD 
HETATM   10  C   UNL     1      -9.394   7.128  72.841  1.00  0.00    -0.179 A  
HETATM   11  C   UNL     1     -10.601   7.834  72.994  1.00  0.00    -0.441 A  
BRANCH  10  12
HETATM   12  C   UNL     1      -8.347   7.173  73.938  1.00  0.00    -0.146 C  
HETATM   13  O   UNL     1      -8.206   5.877  74.540  1.00  0.00    -0.111 OA 
HETATM   14  H   UNL     1      -7.550   5.904  75.227  1.00  0.00     0.000 HD 
BRANCH  12  15
HETATM   15  C   UNL     1      -6.970   7.633  73.412  1.00  0.00    -0.084 C  
BRANCH  15  16
HETATM   16  N   UNL     1      -7.095   8.838  72.576  1.00  0.00    -0.322 NA 
HETATM   17  H   UNL     1      -6.842   9.684  73.086  1.00  0.00     0.000 HD 
BRANCH  16  18
HETATM   18  C   UNL     1      -6.313   8.683  71.354  1.00  0.00    -0.060 C  
BRANCH  18  19
HETATM   19  C   UNL     1      -6.371   9.964  70.531  1.00  0.00    -0.109 C  
BRANCH  19  20
HETATM   20  C   UNL     1      -6.117   9.655  69.057  1.00  0.00    -0.041 C  
BRANCH  20  21
HETATM   21  C   UNL     1      -6.950  10.565  68.166  1.00  0.00    -0.073 C  
BRANCH  21  22
HETATM   22  C   UNL     1      -8.149   9.826  67.583  1.00  0.00    -0.113 C  
BRANCH  22  23
HETATM   23  C   UNL     1      -8.773   8.920  68.633  1.00  0.00    -0.134 C  
BRANCH  23  24
HETATM   24  O   UNL     1      -9.486   9.729  69.559  1.00  0.00    -0.185 OA 
BRANCH  24  25
HETATM   25  C   UNL     1     -10.770  10.089  69.056  1.00  0.00    -0.220 C  
BRANCH  25  26
HETATM   26  C   UNL     1     -10.771  11.578  68.734  1.00  0.00    -0.247 C  
BRANCH  26  27
HETATM   27  C   UNL     1     -11.883  12.303  69.493  1.00  0.00    -0.380 C  
BRANCH  27  28
HETATM   28  C   UNL     1     -11.673  13.816  69.508  1.00  0.00    -0.380 C  
BRANCH  28  29
HETATM   29  C   UNL     1     -12.169  14.391  70.813  1.00  0.00    -0.413 A  
HETATM   30  C   UNL     1     -11.676  15.615  71.281  1.00  0.00    -0.478 A  
HETATM   31  C   UNL     1     -12.075  16.105  72.524  1.00  0.00    -0.644 A  
HETATM   32  C   UNL     1     -12.965  15.376  73.310  1.00  0.00    -0.648 A  
HETATM   33  C   UNL     1     -13.464  14.158  72.851  1.00  0.00    -0.466 A  
HETATM   34  C   UNL     1     -13.068  13.665  71.608  1.00  0.00    -0.455 A  
ENDBRANCH  28  29
ENDBRANCH  27  28
ENDBRANCH  26  27
ENDBRANCH  25  26
ENDBRANCH  24  25
ENDBRANCH  23  24
ENDBRANCH  22  23
ENDBRANCH  21  22
ENDBRANCH  20  21
ENDBRANCH  19  20
ENDBRANCH  18  19
ENDBRANCH  16  18
ENDBRANCH  15  16
ENDBRANCH  12  15
ENDBRANCH  10  12
ENDBRANCH   2   4
TORSDOF 16
ENDMDL
MODEL      296
REMARK 921   NORMALIZED FREE ENERGY PREDICTED BY IDOCK:   -4.09 KCAL/MOL
REMARK 922        TOTAL FREE ENERGY PREDICTED BY IDOCK:  -10.26 KCAL/MOL
REMARK 923 INTER-LIGAND FREE ENERGY PREDICTED BY IDOCK:   -7.81 KCAL/MOL
REMARK 924 INTRA-LIGAND FREE ENERGY PREDICTED BY IDOCK:   -2.46 KCAL/MOL
REMARK 927      BINDING AFFINITY PREDICTED BY RF-SCORE:    0.00 PKD
ROOT
HETATM    1  O   UNL     1      -6.290  10.823  67.034  1.00  0.00    -0.067 OA 
HETATM    2  C   UNL     1      -6.963  10.535  68.260  1.00  0.00    -0.073 C  
HETATM    3  H   UNL     1      -5.351  10.856  67.176  1.00  0.00     0.000 HD 
ENDROOT
BRANCH   2   4
HETATM    4  C   UNL     1      -8.452  10.482  68.037  1.00  0.00    -0.120 A  
HETATM    5  C   UNL     1      -9.278   9.536  68.655  1.00  0.00    -0.135 A  
HETATM    6  O   UNL     1      -8.771   8.552  69.457  1.00  0.00    -0.133 OA 
HETATM    7  C   UNL     1     -10.654   9.536  68.459  1.00  0.00    -0.247 A  
HETATM    8  C   UNL     1     -11.233  10.478  67.611  1.00  0.00    -0.338 A  
HETATM    9  H   UNL     1      -9.332   7.909  69.876  1.00  0.00     0.000 HD 
HETATM   10  C   UNL     1     -10.440  11.442  66.968  1.00  0.00    -0.271 A  
HETATM   11  C   UNL     1      -9.055  11.447  67.209  1.00  0.00    -0.162 A  
BRANCH  10  12
HETATM   12  C   UNL     1     -11.043  12.449  66.006  1.00  0.00    -0.308 C  
HETATM   13  O   UNL     1     -12.475  12.343  66.014  1.00  0.00    -0.551 OA 
HETATM   14  H   UNL     1     -12.853  12.973  65.411  1.00  0.00     0.000 HD 
BRANCH  12  15
HETATM   15  C   UNL     1     -10.647  13.899  66.355  1.00  0.00    -0.280 C  
BRANCH  15  16
HETATM   16  N   UNL     1     -11.711  14.574  67.117  1.00  0.00    -0.392 NA 
HETATM   17  H   UNL     1     -12.633  14.194  66.903  1.00  0.00     0.000 HD 
BRANCH  16  18
HETATM   18  C   UNL     1     -11.416  14.520  68.545  1.00  0.00    -0.301 C  
BRANCH  18  19
HETATM   19  C   UNL     1     -11.330  15.930  69.114  1.00  0.00    -0.366 C  
BRANCH  19  20
HETATM   20  C   UNL     1     -10.868  16.907  68.035  1.00  0.00    -0.338 C  
BRANCH  20  21
HETATM   21  C   UNL     1     -10.142  18.091  68.657  1.00  0.00    -0.401 C  
BRANCH  21  22
HETATM   22  C   UNL     1     -10.451  19.385  67.915  1.00  0.00    -0.536 C  
BRANCH  22  23
HETATM   23  C   UNL     1     -10.274  19.191  66.417  1.00  0.00    -0.438 C  
BRANCH  23  24
HETATM   24  O   UNL     1      -9.266  20.087  65.963  1.00  0.00    -0.375 OA 
BRANCH  24  25
HETATM   25  C   UNL     1      -7.972  19.494  66.035  1.00  0.00    -0.303 C  
BRANCH  25  26
HETATM   26  C   UNL     1      -7.126  20.281  67.028  1.00  0.00    -0.309 C  
BRANCH  26  27
HETATM   27  C   UNL     1      -6.632  19.381  68.162  1.00  0.00    -0.276 C  
BRANCH  27  28
HETATM   28  C   UNL     1      -5.726  18.263  67.650  1.00  0.00    -0.150 C  
BRANCH  28  29
HETATM   29  C   UNL     1      -6.200  16.932  68.184  1.00  0.00    -0.135 A  
HETATM   30  C   UNL     1      -7.041  16.120  67.415  1.00  0.00    -0.209 A  
HETATM   31  C   UNL     1      -7.543  14.930  67.940  1.00  0.00    -0.146 A  
HETATM   32  C   UNL     1      -7.211  14.544  69.237  1.00  0.00    -0.131 A  
HETATM   33  C   UNL     1      -6.370  15.344  70.010  1.00  0.00    -0.136 A  
HETATM   34  C   UNL     1      -5.867  16.536  69.486  1.00  0.00    -0.178 A  
ENDBRANCH  28  29
ENDBRANCH  27  28
ENDBRANCH  26  27
ENDBRANCH  25  26
ENDBRANCH  24  25
ENDBRANCH  23  24
ENDBRANCH  22  23
ENDBRANCH  21  22
ENDBRANCH  20  21
ENDBRANCH  19  20
ENDBRANCH  18  19
ENDBRANCH  16  18
ENDBRANCH  15  16
ENDBRANCH  12  15
ENDBRANCH  10  12
ENDBRANCH   2   4
TORSDOF 16
ENDMDL
MODEL      297
REMARK 921   NORMALIZED FREE ENERGY PREDICTED BY IDOCK:   -4.07 KCAL/MOL
REMARK 922        TOTAL FREE ENERGY PREDICTED BY IDOCK:  -10.23 KCAL/MOL
REMARK 923 INTER-LIGAND FREE ENERGY PREDICTED BY IDOCK:   -8.68 KCAL/MOL
REMARK 924 INTRA-LIGAND FREE ENERGY PREDICTED BY IDOCK:   -1.55 KCAL/MOL
REMARK 927      BINDING AFFINITY PREDICTED BY RF-SCORE:    0.00 PKD
ROOT
HETATM    1  O   UNL     1     -11.077   8.916  72.151  1.00  0.00    -0.362 OA 
HETATM    2  C   UNL     1     -10.899   7.609  71.603  1.00  0.00    -0.227 C  
HETATM    3  H   UNL     1     -11.173   8.865  73.095  1.00  0.00     0.000 HD 
ENDROOT
BRANCH   2   4
HETATM    4  C   UNL     1     -10.748   7.689  70.106  1.00  0.00    -0.245 A  
HETATM    5  C   UNL     1     -10.700   6.554  69.288  1.00  0.00    -0.280 A  
HETATM    6  O   UNL     1     -10.723   5.290  69.807  1.00  0.00    -0.286 OA 
HETATM    7  C   UNL     1     -10.598   6.660  67.905  1.00  0.00    -0.305 A  
HETATM    8  C   UNL     1     -10.517   7.917  67.312  1.00  0.00    -0.390 A  
HETATM    9  H   UNL     1     -10.690   4.520  69.252  1.00  0.00     0.000 HD 
HETATM   10  C   UNL     1     -10.557   9.082  68.096  1.00  0.00    -0.225 A  
HETATM   11  C   UNL     1     -10.696   8.952  69.489  1.00  0.00    -0.206 A  
BRANCH  10  12
HETATM   12  C   UNL     1     -10.424  10.459  67.474  1.00  0.00    -0.245 C  
HETATM   13  O   UNL     1     -11.698  11.121  67.463  1.00  0.00    -0.574 OA 
HETATM   14  H   UNL     1     -11.615  11.985  67.075  1.00  0.00     0.000 HD 
BRANCH  12  15
HETATM   15  C   UNL     1      -9.407  11.344  68.228  1.00  0.00    -0.187 C  
BRANCH  15  16
HETATM   16  N   UNL     1     -10.069  12.499  68.856  1.00  0.00    -0.428 NA 
HETATM   17  H   UNL     1     -10.049  12.444  69.874  1.00  0.00     0.000 HD 
BRANCH  16  18
HETATM   18  C   UNL     1      -9.480  13.741  68.365  1.00  0.00    -0.198 C  
BRANCH  18  19
HETATM   19  C   UNL     1     -10.428  14.906  68.621  1.00  0.00    -0.242 C  
BRANCH  19  20
HETATM   20  C   UNL     1     -10.372  15.897  67.460  1.00  0.00    -0.283 C  
BRANCH  20  21
HETATM   21  C   UNL     1     -10.537  15.176  66.130  1.00  0.00    -0.318 C  
BRANCH  21  22
HETATM   22  C   UNL     1     -11.724  14.220  66.159  1.00  0.00    -0.397 C  
BRANCH  22  23
HETATM   23  C   UNL     1     -12.618  14.452  64.951  1.00  0.00    -0.286 C  
BRANCH  23  24
HETATM   24  O   UNL     1     -12.864  13.199  64.326  1.00  0.00    -0.658 OA 
BRANCH  24  25
HETATM   25  C   UNL     1     -11.857  12.890  63.365  1.00  0.00    -0.507 C  
BRANCH  25  26
HETATM   26  C   UNL     1     -11.210  11.564  63.741  1.00  0.00    -0.456 C  
BRANCH  26  27
HETATM   27  C   UNL     1      -9.790  11.468  63.182  1.00  0.00    -0.413 C  
BRANCH  27  28
HETATM   28  C   UNL     1      -9.476  10.068  62.656  1.00  0.00    -0.232 C  
BRANCH  28  29
HETATM   29  C   UNL     1      -8.606   9.331  63.646  1.00  0.00    -0.208 A  
HETATM   30  C   UNL     1      -8.388   9.853  64.925  1.00  0.00    -0.154 A  
HETATM   31  C   UNL     1      -7.521   9.212  65.809  1.00  0.00    -0.090 A  
HETATM   32  C   UNL     1      -6.863   8.047  65.421  1.00  0.00    -0.062 A  
HETATM   33  C   UNL     1      -7.076   7.516  64.150  1.00  0.00    -0.064 A  
HETATM   34  C   UNL     1      -7.944   8.155  63.263  1.00  0.00    -0.149 A  
ENDBRANCH  28  29
ENDBRANCH  27  28
ENDBRANCH  26  27
ENDBRANCH  25  26
ENDBRANCH  24  25
ENDBRANCH  23  24
ENDBRANCH  22  23
ENDBRANCH  21  22
ENDBRANCH  20  21
ENDBRANCH  19  20
ENDBRANCH  18  19
ENDBRANCH  16  18
ENDBRANCH  15  16
ENDBRANCH  12  15
ENDBRANCH  10  12
ENDBRANCH   2   4
TORSDOF 16
ENDMDL
MODEL      298
REMARK 921   NORMALIZED FREE ENERGY PREDICTED BY IDOCK:   -4.06 KCAL/MOL
REMARK 922        TOTAL FREE ENERGY PREDICTED BY IDOCK:  -10.21 KCAL/MOL
REMARK 923 INTER-LIGAND FREE ENERGY PREDICTED BY IDOCK:   -7.77 KCAL/MOL
REMARK 924 INTRA-LIGAND FREE ENERGY PREDICTED BY IDOCK:   -2.44 KCAL/MOL
REMARK 927      BINDING AFFINITY PREDICTED BY RF-SCORE:    0.00 PKD
ROOT
HETATM    1  O   UNL     1      -8.884   3.011  67.713  1.00  0.00    -0.106 OA 
HETATM    2  C   UNL     1      -8.571   3.704  68.921  1.00  0.00    -0.085 C  
HETATM    3  H   UNL     1      -8.214   2.364  67.522  1.00  0.00     0.000 HD 
ENDROOT
BRANCH   2   4
HETATM    4  C   UNL     1      -9.632   4.729  69.224  1.00  0.00    -0.243 A  
HETATM    5  C   UNL     1     -10.235   5.511  68.232  1.00  0.00    -0.178 A  
HETATM    6  O   UNL     1      -9.848   5.439  66.922  1.00  0.00    -0.138 OA 
HETATM    7  C   UNL     1     -11.239   6.423  68.537  1.00  0.00    -0.321 A  
HETATM    8  C   UNL     1     -11.646   6.588  69.858  1.00  0.00    -0.433 A  
HETATM    9  H   UNL     1     -10.256   5.970  66.249  1.00  0.00     0.000 HD 
HETATM   10  C   UNL     1     -11.065   5.827  70.885  1.00  0.00    -0.267 A  
HETATM   11  C   UNL     1     -10.077   4.885  70.549  1.00  0.00    -0.312 A  
BRANCH  10  12
HETATM   12  C   UNL     1     -11.461   6.022  72.337  1.00  0.00    -0.308 C  
HETATM   13  O   UNL     1     -10.808   5.045  73.163  1.00  0.00    -0.234 OA 
HETATM   14  H   UNL     1     -11.056   5.167  74.072  1.00  0.00     0.000 HD 
BRANCH  12  15
HETATM   15  C   UNL     1     -11.106   7.432  72.854  1.00  0.00    -0.349 C  
BRANCH  15  16
HETATM   16  N   UNL     1     -10.025   7.377  73.851  1.00  0.00    -0.390 NA 
HETATM   17  H   UNL     1      -9.757   6.418  74.071  1.00  0.00     0.000 HD 
BRANCH  16  18
HETATM   18  C   UNL     1      -8.887   8.173  73.401  1.00  0.00    -0.253 C  
BRANCH  18  19
HETATM   19  C   UNL     1      -7.859   7.277  72.721  1.00  0.00    -0.107 C  
BRANCH  19  20
HETATM   20  C   UNL     1      -7.682   7.691  71.262  1.00  0.00    -0.085 C  
BRANCH  20  21
HETATM   21  C   UNL     1      -8.310   9.054  71.010  1.00  0.00    -0.237 C  
BRANCH  21  22
HETATM   22  C   UNL     1      -9.036   9.094  69.671  1.00  0.00    -0.158 C  
BRANCH  22  23
HETATM   23  C   UNL     1     -10.229  10.034  69.744  1.00  0.00    -0.250 C  
BRANCH  23  24
HETATM   24  O   UNL     1     -10.935   9.961  68.512  1.00  0.00    -0.225 OA 
BRANCH  24  25
HETATM   25  C   UNL     1     -11.555  11.204  68.191  1.00  0.00    -0.280 C  
BRANCH  25  26
HETATM   26  C   UNL     1     -10.678  12.337  68.711  1.00  0.00    -0.247 C  
BRANCH  26  27
HETATM   27  C   UNL     1     -11.110  13.680  68.119  1.00  0.00    -0.281 C  
BRANCH  27  28
HETATM   28  C   UNL     1     -10.015  14.302  67.256  1.00  0.00    -0.252 C  
BRANCH  28  29
HETATM   29  C   UNL     1     -10.067  15.808  67.365  1.00  0.00    -0.246 A  
HETATM   30  C   UNL     1     -10.020  16.429  68.618  1.00  0.00    -0.235 A  
HETATM   31  C   UNL     1     -10.150  17.814  68.722  1.00  0.00    -0.381 A  
HETATM   32  C   UNL     1     -10.329  18.587  67.577  1.00  0.00    -0.440 A  
HETATM   33  C   UNL     1     -10.372  17.977  66.324  1.00  0.00    -0.384 A  
HETATM   34  C   UNL     1     -10.243  16.592  66.217  1.00  0.00    -0.344 A  
ENDBRANCH  28  29
ENDBRANCH  27  28
ENDBRANCH  26  27
ENDBRANCH  25  26
ENDBRANCH  24  25
ENDBRANCH  23  24
ENDBRANCH  22  23
ENDBRANCH  21  22
ENDBRANCH  20  21
ENDBRANCH  19  20
ENDBRANCH  18  19
ENDBRANCH  16  18
ENDBRANCH  15  16
ENDBRANCH  12  15
ENDBRANCH  10  12
ENDBRANCH   2   4
TORSDOF 16
ENDMDL
MODEL      299
REMARK 921   NORMALIZED FREE ENERGY PREDICTED BY IDOCK:   -4.06 KCAL/MOL
REMARK 922        TOTAL FREE ENERGY PREDICTED BY IDOCK:  -10.21 KCAL/MOL
REMARK 923 INTER-LIGAND FREE ENERGY PREDICTED BY IDOCK:   -8.80 KCAL/MOL
REMARK 924 INTRA-LIGAND FREE ENERGY PREDICTED BY IDOCK:   -1.40 KCAL/MOL
REMARK 927      BINDING AFFINITY PREDICTED BY RF-SCORE:    0.00 PKD
ROOT
HETATM    1  O   UNL     1      -7.533  11.141  67.151  1.00  0.00    -0.108 OA 
HETATM    2  C   UNL     1      -7.328   9.902  66.472  1.00  0.00    -0.099 C  
HETATM    3  H   UNL     1      -7.112  11.122  68.003  1.00  0.00     0.000 HD 
ENDROOT
BRANCH   2   4
HETATM    4  C   UNL     1      -7.996   9.932  65.122  1.00  0.00    -0.139 A  
HETATM    5  C   UNL     1      -7.676   9.033  64.098  1.00  0.00    -0.124 A  
HETATM    6  O   UNL     1      -6.682   8.104  64.239  1.00  0.00    -0.064 OA 
HETATM    7  C   UNL     1      -8.336   9.061  62.874  1.00  0.00    -0.202 A  
HETATM    8  C   UNL     1      -9.322  10.016  62.642  1.00  0.00    -0.296 A  
HETATM    9  H   UNL     1      -6.465   7.494  63.544  1.00  0.00     0.000 HD 
HETATM   10  C   UNL     1      -9.672  10.939  63.640  1.00  0.00    -0.374 A  
HETATM   11  C   UNL     1      -9.017  10.870  64.882  1.00  0.00    -0.167 A  
BRANCH  10  12
HETATM   12  C   UNL     1     -10.711  12.017  63.393  1.00  0.00    -0.417 C  
HETATM   13  O   UNL     1     -12.032  11.464  63.506  1.00  0.00    -0.598 OA 
HETATM   14  H   UNL     1     -12.683  12.139  63.352  1.00  0.00     0.000 HD 
BRANCH  12  15
HETATM   15  C   UNL     1     -10.576  13.195  64.381  1.00  0.00    -0.421 C  
BRANCH  15  16
HETATM   16  N   UNL     1     -11.880  13.556  64.961  1.00  0.00    -0.338 NA 
HETATM   17  H   UNL     1     -12.488  12.745  65.068  1.00  0.00     0.000 HD 
BRANCH  16  18
HETATM   18  C   UNL     1     -11.688  14.265  66.223  1.00  0.00    -0.393 C  
BRANCH  18  19
HETATM   19  C   UNL     1     -10.866  13.412  67.181  1.00  0.00    -0.284 C  
BRANCH  19  20
HETATM   20  C   UNL     1     -11.711  12.259  67.718  1.00  0.00    -0.403 C  
BRANCH  20  21
HETATM   21  C   UNL     1     -11.686  12.237  69.239  1.00  0.00    -0.388 C  
BRANCH  21  22
HETATM   22  C   UNL     1     -12.018  10.852  69.782  1.00  0.00    -0.423 C  
BRANCH  22  23
HETATM   23  C   UNL     1     -12.751  10.967  71.109  1.00  0.00    -0.419 C  
BRANCH  23  24
HETATM   24  O   UNL     1     -12.941   9.658  71.632  1.00  0.00    -0.349 OA 
BRANCH  24  25
HETATM   25  C   UNL     1     -11.702   9.063  72.009  1.00  0.00    -0.347 C  
BRANCH  25  26
HETATM   26  C   UNL     1     -11.920   7.571  72.228  1.00  0.00    -0.303 C  
BRANCH  26  27
HETATM   27  C   UNL     1     -11.973   6.824  70.894  1.00  0.00    -0.437 C  
BRANCH  27  28
HETATM   28  C   UNL     1     -10.601   6.751  70.226  1.00  0.00    -0.251 C  
BRANCH  28  29
HETATM   29  C   UNL     1     -10.109   5.323  70.216  1.00  0.00    -0.329 A  
HETATM   30  C   UNL     1      -9.784   4.694  69.009  1.00  0.00    -0.242 A  
HETATM   31  C   UNL     1      -9.407   3.351  68.994  1.00  0.00    -0.239 A  
HETATM   32  C   UNL     1      -9.355   2.627  70.184  1.00  0.00    -0.193 A  
HETATM   33  C   UNL     1      -9.674   3.246  71.391  1.00  0.00    -0.226 A  
HETATM   34  C   UNL     1     -10.051   4.589  71.409  1.00  0.00    -0.230 A  
ENDBRANCH  28  29
ENDBRANCH  27  28
ENDBRANCH  26  27
ENDBRANCH  25  26
ENDBRANCH  24  25
ENDBRANCH  23  24
ENDBRANCH  22  23
ENDBRANCH  21  22
ENDBRANCH  20  21
ENDBRANCH  19  20
ENDBRANCH  18  19
ENDBRANCH  16  18
ENDBRANCH  15  16
ENDBRANCH  12  15
ENDBRANCH  10  12
ENDBRANCH   2   4
TORSDOF 16
ENDMDL
MODEL      300
REMARK 921   NORMALIZED FREE ENERGY PREDICTED BY IDOCK:   -4.06 KCAL/MOL
REMARK 922        TOTAL FREE ENERGY PREDICTED BY IDOCK:  -10.20 KCAL/MOL
REMARK 923 INTER-LIGAND FREE ENERGY PREDICTED BY IDOCK:   -8.93 KCAL/MOL
REMARK 924 INTRA-LIGAND FREE ENERGY PREDICTED BY IDOCK:   -1.27 KCAL/MOL
REMARK 927      BINDING AFFINITY PREDICTED BY RF-SCORE:    0.00 PKD
ROOT
HETATM    1  O   UNL     1     -12.051   5.292  72.876  1.00  0.00    -0.469 OA 
HETATM    2  C   UNL     1     -11.869   6.405  72.000  1.00  0.00    -0.333 C  
HETATM    3  H   UNL     1     -12.747   5.473  73.497  1.00  0.00     0.000 HD 
ENDROOT
BRANCH   2   4
HETATM    4  C   UNL     1     -10.765   6.119  71.017  1.00  0.00    -0.317 A  
HETATM    5  C   UNL     1      -9.567   5.496  71.383  1.00  0.00    -0.154 A  
HETATM    6  O   UNL     1      -9.295   5.163  72.681  1.00  0.00    -0.137 OA 
HETATM    7  C   UNL     1      -8.581   5.211  70.445  1.00  0.00    -0.122 A  
HETATM    8  C   UNL     1      -8.769   5.570  69.112  1.00  0.00    -0.103 A  
HETATM    9  H   UNL     1      -8.481   4.741  72.929  1.00  0.00     0.000 HD 
HETATM   10  C   UNL     1      -9.954   6.201  68.703  1.00  0.00    -0.176 A  
HETATM   11  C   UNL     1     -10.953   6.447  69.662  1.00  0.00    -0.420 A  
BRANCH  10  12
HETATM   12  C   UNL     1     -10.161   6.642  67.266  1.00  0.00    -0.170 C  
HETATM   13  O   UNL     1     -11.393   6.109  66.758  1.00  0.00    -0.670 OA 
HETATM   14  H   UNL     1     -11.523   6.385  65.858  1.00  0.00     0.000 HD 
BRANCH  12  15
HETATM   15  C   UNL     1     -10.185   8.179  67.125  1.00  0.00    -0.296 C  
BRANCH  15  16
HETATM   16  N   UNL     1     -10.001   8.589  65.723  1.00  0.00    -0.368 NA 
HETATM   17  H   UNL     1     -10.788   8.310  65.137  1.00  0.00     0.000 HD 
BRANCH  16  18
HETATM   18  C   UNL     1      -9.747  10.024  65.649  1.00  0.00    -0.272 C  
BRANCH  18  19
HETATM   19  C   UNL     1      -8.803  10.445  66.768  1.00  0.00    -0.139 C  
BRANCH  19  20
HETATM   20  C   UNL     1      -8.883  11.955  66.985  1.00  0.00    -0.190 C  
BRANCH  20  21
HETATM   21  C   UNL     1     -10.333  12.406  67.091  1.00  0.00    -0.232 C  
BRANCH  21  22
HETATM   22  C   UNL     1     -10.498  13.856  66.653  1.00  0.00    -0.272 C  
BRANCH  22  23
HETATM   23  C   UNL     1     -11.699  14.483  67.344  1.00  0.00    -0.400 C  
BRANCH  23  24
HETATM   24  O   UNL     1     -11.465  14.471  68.747  1.00  0.00    -0.264 OA 
BRANCH  24  25
HETATM   25  C   UNL     1     -11.546  15.783  69.300  1.00  0.00    -0.373 C  
BRANCH  25  26
HETATM   26  C   UNL     1     -10.260  16.073  70.065  1.00  0.00    -0.130 C  
BRANCH  26  27
HETATM   27  C   UNL     1      -9.031  15.742  69.217  1.00  0.00    -0.266 C  
BRANCH  27  28
HETATM   28  C   UNL     1      -8.293  17.002  68.767  1.00  0.00    -0.237 C  
BRANCH  28  29
HETATM   29  C   UNL     1      -9.252  17.941  68.076  1.00  0.00    -0.267 A  
HETATM   30  C   UNL     1      -9.671  17.688  66.765  1.00  0.00    -0.300 A  
HETATM   31  C   UNL     1     -10.493  18.598  66.100  1.00  0.00    -0.473 A  
HETATM   32  C   UNL     1     -10.900  19.768  66.739  1.00  0.00    -0.436 A  
HETATM   33  C   UNL     1     -10.490  20.027  68.046  1.00  0.00    -0.448 A  
HETATM   34  C   UNL     1      -9.669  19.118  68.713  1.00  0.00    -0.491 A  
ENDBRANCH  28  29
ENDBRANCH  27  28
ENDBRANCH  26  27
ENDBRANCH  25  26
ENDBRANCH  24  25
ENDBRANCH  23  24
ENDBRANCH  22  23
ENDBRANCH  21  22
ENDBRANCH  20  21
ENDBRANCH  19  20
ENDBRANCH  18  19
ENDBRANCH  16  18
ENDBRANCH  15  16
ENDBRANCH  12  15
ENDBRANCH  10  12
ENDBRANCH   2   4
TORSDOF 16
ENDMDL
MODEL      301
REMARK 921   NORMALIZED FREE ENERGY PREDICTED BY IDOCK:   -4.06 KCAL/MOL
REMARK 922        TOTAL FREE ENERGY PREDICTED BY IDOCK:  -10.19 KCAL/MOL
REMARK 923 INTER-LIGAND FREE ENERGY PREDICTED BY IDOCK:   -7.84 KCAL/MOL
REMARK 924 INTRA-LIGAND FREE ENERGY PREDICTED BY IDOCK:   -2.35 KCAL/MOL
REMARK 927      BINDING AFFINITY PREDICTED BY RF-SCORE:    0.00 PKD
ROOT
HETATM    1  O   UNL     1      -7.509  10.356  70.399  1.00  0.00    -0.430 OA 
HETATM    2  C   UNL     1      -6.626   9.419  71.017  1.00  0.00    -0.081 C  
HETATM    3  H   UNL     1      -7.034  11.141  70.150  1.00  0.00     0.000 HD 
ENDROOT
BRANCH   2   4
HETATM    4  C   UNL     1      -7.379   8.176  71.413  1.00  0.00    -0.076 A  
HETATM    5  C   UNL     1      -6.793   6.906  71.423  1.00  0.00    -0.061 A  
HETATM    6  O   UNL     1      -5.505   6.703  71.009  1.00  0.00    -0.025 OA 
HETATM    7  C   UNL     1      -7.503   5.781  71.829  1.00  0.00    -0.095 A  
HETATM    8  C   UNL     1      -8.836   5.906  72.212  1.00  0.00    -0.138 A  
HETATM    9  H   UNL     1      -5.107   5.841  71.016  1.00  0.00     0.000 HD 
HETATM   10  C   UNL     1      -9.465   7.161  72.213  1.00  0.00    -0.157 A  
HETATM   11  C   UNL     1      -8.717   8.290  71.833  1.00  0.00    -0.230 A  
BRANCH  10  12
HETATM   12  C   UNL     1     -10.928   7.314  72.583  1.00  0.00    -0.299 C  
HETATM   13  O   UNL     1     -11.348   8.674  72.391  1.00  0.00    -0.359 OA 
HETATM   14  H   UNL     1     -12.264   8.769  72.623  1.00  0.00     0.000 HD 
BRANCH  12  15
HETATM   15  C   UNL     1     -11.840   6.386  71.752  1.00  0.00    -0.321 C  
BRANCH  15  16
HETATM   16  N   UNL     1     -12.129   6.968  70.431  1.00  0.00    -0.599 NA 
HETATM   17  H   UNL     1     -11.932   7.968  70.403  1.00  0.00     0.000 HD 
BRANCH  16  18
HETATM   18  C   UNL     1     -11.404   6.240  69.394  1.00  0.00    -0.378 C  
BRANCH  18  19
HETATM   19  C   UNL     1     -10.388   7.157  68.725  1.00  0.00    -0.200 C  
BRANCH  19  20
HETATM   20  C   UNL     1     -10.764   8.618  68.958  1.00  0.00    -0.122 C  
BRANCH  20  21
HETATM   21  C   UNL     1      -9.928   9.535  68.076  1.00  0.00    -0.198 C  
BRANCH  21  22
HETATM   22  C   UNL     1      -9.238   8.758  66.961  1.00  0.00    -0.177 C  
BRANCH  22  23
HETATM   23  C   UNL     1      -9.538   9.392  65.612  1.00  0.00    -0.274 C  
BRANCH  23  24
HETATM   24  O   UNL     1      -8.316   9.529  64.898  1.00  0.00    -0.129 OA 
BRANCH  24  25
HETATM   25  C   UNL     1      -8.471  10.367  63.755  1.00  0.00    -0.162 C  
BRANCH  25  26
HETATM   26  C   UNL     1      -9.955  10.486  63.432  1.00  0.00    -0.251 C  
BRANCH  26  27
HETATM   27  C   UNL     1     -10.359  11.949  63.241  1.00  0.00    -0.432 C  
BRANCH  27  28
HETATM   28  C   UNL     1     -11.685  12.270  63.927  1.00  0.00    -0.536 C  
BRANCH  28  29
HETATM   29  C   UNL     1     -11.428  12.928  65.262  1.00  0.00    -0.348 A  
HETATM   30  C   UNL     1     -11.834  12.308  66.448  1.00  0.00    -0.382 A  
HETATM   31  C   UNL     1     -11.668  12.954  67.673  1.00  0.00    -0.422 A  
HETATM   32  C   UNL     1     -11.097  14.224  67.721  1.00  0.00    -0.294 A  
HETATM   33  C   UNL     1     -10.686  14.849  66.545  1.00  0.00    -0.309 A  
HETATM   34  C   UNL     1     -10.850  14.205  65.318  1.00  0.00    -0.356 A  
ENDBRANCH  28  29
ENDBRANCH  27  28
ENDBRANCH  26  27
ENDBRANCH  25  26
ENDBRANCH  24  25
ENDBRANCH  23  24
ENDBRANCH  22  23
ENDBRANCH  21  22
ENDBRANCH  20  21
ENDBRANCH  19  20
ENDBRANCH  18  19
ENDBRANCH  16  18
ENDBRANCH  15  16
ENDBRANCH  12  15
ENDBRANCH  10  12
ENDBRANCH   2   4
TORSDOF 16
ENDMDL
MODEL      302
REMARK 921   NORMALIZED FREE ENERGY PREDICTED BY IDOCK:   -4.05 KCAL/MOL
REMARK 922        TOTAL FREE ENERGY PREDICTED BY IDOCK:  -10.19 KCAL/MOL
REMARK 923 INTER-LIGAND FREE ENERGY PREDICTED BY IDOCK:   -7.42 KCAL/MOL
REMARK 924 INTRA-LIGAND FREE ENERGY PREDICTED BY IDOCK:   -2.77 KCAL/MOL
REMARK 927      BINDING AFFINITY PREDICTED BY RF-SCORE:    0.00 PKD
ROOT
HETATM    1  O   UNL     1      -7.880   8.955  72.782  1.00  0.00    -0.371 OA 
HETATM    2  C   UNL     1      -7.301   8.493  71.561  1.00  0.00    -0.098 C  
HETATM    3  H   UNL     1      -7.205   9.076  73.440  1.00  0.00     0.000 HD 
ENDROOT
BRANCH   2   4
HETATM    4  C   UNL     1      -8.370   8.301  70.518  1.00  0.00    -0.124 A  
HETATM    5  C   UNL     1      -9.673   7.896  70.833  1.00  0.00    -0.164 A  
HETATM    6  O   UNL     1     -10.041   7.586  72.113  1.00  0.00    -0.185 OA 
HETATM    7  C   UNL     1     -10.649   7.763  69.853  1.00  0.00    -0.239 A  
HETATM    8  C   UNL     1     -10.330   8.012  68.520  1.00  0.00    -0.229 A  
HETATM    9  H   UNL     1     -10.925   7.311  72.327  1.00  0.00     0.000 HD 
HETATM   10  C   UNL     1      -9.034   8.415  68.159  1.00  0.00    -0.139 A  
HETATM   11  C   UNL     1      -8.072   8.579  69.172  1.00  0.00    -0.117 A  
BRANCH  10  12
HETATM   12  C   UNL     1      -8.652   8.648  66.709  1.00  0.00    -0.120 C  
HETATM   13  O   UNL     1      -8.120   7.442  66.139  1.00  0.00    -0.106 OA 
HETATM   14  H   UNL     1      -7.881   7.587  65.231  1.00  0.00     0.000 HD 
BRANCH  12  15
HETATM   15  C   UNL     1      -9.852   9.117  65.858  1.00  0.00    -0.235 C  
BRANCH  15  16
HETATM   16  N   UNL     1      -9.596  10.438  65.260  1.00  0.00    -0.235 NA 
HETATM   17  H   UNL     1      -9.700  10.424  64.245  1.00  0.00     0.000 HD 
BRANCH  16  18
HETATM   18  C   UNL     1     -10.450  11.443  65.883  1.00  0.00    -0.258 C  
BRANCH  18  19
HETATM   19  C   UNL     1      -9.597  12.553  66.485  1.00  0.00    -0.242 C  
BRANCH  19  20
HETATM   20  C   UNL     1      -8.919  12.062  67.763  1.00  0.00    -0.176 C  
BRANCH  20  21
HETATM   21  C   UNL     1      -8.320  13.228  68.536  1.00  0.00    -0.075 C  
BRANCH  21  22
HETATM   22  C   UNL     1      -7.314  13.999  67.690  1.00  0.00    -0.188 C  
BRANCH  22  23
HETATM   23  C   UNL     1      -7.667  15.478  67.665  1.00  0.00    -0.158 C  
BRANCH  23  24
HETATM   24  O   UNL     1      -9.084  15.602  67.690  1.00  0.00    -0.189 OA 
BRANCH  24  25
HETATM   25  C   UNL     1      -9.486  16.890  68.150  1.00  0.00    -0.251 C  
BRANCH  25  26
HETATM   26  C   UNL     1     -10.687  16.729  69.072  1.00  0.00    -0.331 C  
BRANCH  26  27
HETATM   27  C   UNL     1     -11.059  15.254  69.236  1.00  0.00    -0.277 C  
BRANCH  27  28
HETATM   28  C   UNL     1     -12.284  15.070  70.130  1.00  0.00    -0.392 C  
BRANCH  28  29
HETATM   29  C   UNL     1     -12.488  13.603  70.426  1.00  0.00    -0.364 A  
HETATM   30  C   UNL     1     -13.102  13.199  71.617  1.00  0.00    -0.444 A  
HETATM   31  C   UNL     1     -13.218  11.844  71.925  1.00  0.00    -0.467 A  
HETATM   32  C   UNL     1     -12.718  10.883  71.048  1.00  0.00    -0.505 A  
HETATM   33  C   UNL     1     -12.108  11.276  69.858  1.00  0.00    -0.414 A  
HETATM   34  C   UNL     1     -11.992  12.630  69.546  1.00  0.00    -0.332 A  
ENDBRANCH  28  29
ENDBRANCH  27  28
ENDBRANCH  26  27
ENDBRANCH  25  26
ENDBRANCH  24  25
ENDBRANCH  23  24
ENDBRANCH  22  23
ENDBRANCH  21  22
ENDBRANCH  20  21
ENDBRANCH  19  20
ENDBRANCH  18  19
ENDBRANCH  16  18
ENDBRANCH  15  16
ENDBRANCH  12  15
ENDBRANCH  10  12
ENDBRANCH   2   4
TORSDOF 16
ENDMDL
MODEL      303
REMARK 921   NORMALIZED FREE ENERGY PREDICTED BY IDOCK:   -4.05 KCAL/MOL
REMARK 922        TOTAL FREE ENERGY PREDICTED BY IDOCK:  -10.17 KCAL/MOL
REMARK 923 INTER-LIGAND FREE ENERGY PREDICTED BY IDOCK:   -7.54 KCAL/MOL
REMARK 924 INTRA-LIGAND FREE ENERGY PREDICTED BY IDOCK:   -2.64 KCAL/MOL
REMARK 927      BINDING AFFINITY PREDICTED BY RF-SCORE:    0.00 PKD
ROOT
HETATM    1  O   UNL     1      -9.646   2.719  66.549  1.00  0.00    -0.395 OA 
HETATM    2  C   UNL     1      -8.845   3.481  67.453  1.00  0.00    -0.130 C  
HETATM    3  H   UNL     1      -9.108   2.084  66.089  1.00  0.00     0.000 HD 
ENDROOT
BRANCH   2   4
HETATM    4  C   UNL     1      -9.697   4.488  68.180  1.00  0.00    -0.188 A  
HETATM    5  C   UNL     1     -10.442   5.470  67.518  1.00  0.00    -0.204 A  
HETATM    6  O   UNL     1     -10.390   5.620  66.160  1.00  0.00    -0.398 OA 
HETATM    7  C   UNL     1     -11.249   6.363  68.214  1.00  0.00    -0.276 A  
HETATM    8  C   UNL     1     -11.307   6.303  69.604  1.00  0.00    -0.492 A  
HETATM    9  H   UNL     1     -10.895   6.287  65.710  1.00  0.00     0.000 HD 
HETATM   10  C   UNL     1     -10.573   5.335  70.309  1.00  0.00    -0.288 A  
HETATM   11  C   UNL     1      -9.792   4.420  69.582  1.00  0.00    -0.272 A  
BRANCH  10  12
HETATM   12  C   UNL     1     -10.587   5.281  71.826  1.00  0.00    -0.201 C  
HETATM   13  O   UNL     1      -9.978   4.063  72.282  1.00  0.00    -0.156 OA 
HETATM   14  H   UNL     1      -9.986   4.029  73.231  1.00  0.00     0.000 HD 
BRANCH  12  15
HETATM   15  C   UNL     1      -9.847   6.478  72.459  1.00  0.00    -0.165 C  
BRANCH  15  16
HETATM   16  N   UNL     1      -8.521   6.080  72.960  1.00  0.00    -0.120 NA 
HETATM   17  H   UNL     1      -8.408   5.067  72.979  1.00  0.00     0.000 HD 
BRANCH  16  18
HETATM   18  C   UNL     1      -7.474   6.732  72.179  1.00  0.00    -0.093 C  
BRANCH  18  19
HETATM   19  C   UNL     1      -6.698   5.694  71.377  1.00  0.00    -0.060 C  
BRANCH  19  20
HETATM   20  C   UNL     1      -6.622   6.111  69.910  1.00  0.00    -0.044 C  
BRANCH  20  21
HETATM   21  C   UNL     1      -7.455   7.360  69.663  1.00  0.00    -0.093 C  
BRANCH  21  22
HETATM   22  C   UNL     1      -7.548   7.682  68.176  1.00  0.00    -0.114 C  
BRANCH  22  23
HETATM   23  C   UNL     1      -8.575   8.778  67.936  1.00  0.00    -0.130 C  
BRANCH  23  24
HETATM   24  O   UNL     1      -8.831   9.433  69.172  1.00  0.00    -0.134 OA 
BRANCH  24  25
HETATM   25  C   UNL     1     -10.152   9.967  69.215  1.00  0.00    -0.213 C  
BRANCH  25  26
HETATM   26  C   UNL     1     -10.719   9.988  67.801  1.00  0.00    -0.333 C  
BRANCH  26  27
HETATM   27  C   UNL     1     -10.452  11.333  67.123  1.00  0.00    -0.259 C  
BRANCH  27  28
HETATM   28  C   UNL     1     -11.595  12.321  67.346  1.00  0.00    -0.425 C  
BRANCH  28  29
HETATM   29  C   UNL     1     -11.474  13.475  66.379  1.00  0.00    -0.356 A  
HETATM   30  C   UNL     1     -10.567  14.512  66.623  1.00  0.00    -0.283 A  
HETATM   31  C   UNL     1     -10.514  15.615  65.772  1.00  0.00    -0.383 A  
HETATM   32  C   UNL     1     -11.367  15.692  64.673  1.00  0.00    -0.355 A  
HETATM   33  C   UNL     1     -12.271  14.661  64.419  1.00  0.00    -0.473 A  
HETATM   34  C   UNL     1     -12.327  13.556  65.269  1.00  0.00    -0.506 A  
ENDBRANCH  28  29
ENDBRANCH  27  28
ENDBRANCH  26  27
ENDBRANCH  25  26
ENDBRANCH  24  25
ENDBRANCH  23  24
ENDBRANCH  22  23
ENDBRANCH  21  22
ENDBRANCH  20  21
ENDBRANCH  19  20
ENDBRANCH  18  19
ENDBRANCH  16  18
ENDBRANCH  15  16
ENDBRANCH  12  15
ENDBRANCH  10  12
ENDBRANCH   2   4
TORSDOF 16
ENDMDL
MODEL      304
REMARK 921   NORMALIZED FREE ENERGY PREDICTED BY IDOCK:   -4.04 KCAL/MOL
REMARK 922        TOTAL FREE ENERGY PREDICTED BY IDOCK:  -10.17 KCAL/MOL
REMARK 923 INTER-LIGAND FREE ENERGY PREDICTED BY IDOCK:   -7.19 KCAL/MOL
REMARK 924 INTRA-LIGAND FREE ENERGY PREDICTED BY IDOCK:   -2.98 KCAL/MOL
REMARK 927      BINDING AFFINITY PREDICTED BY RF-SCORE:    0.00 PKD
ROOT
HETATM    1  O   UNL     1      -8.778   7.520  64.306  1.00  0.00    -0.317 OA 
HETATM    2  C   UNL     1      -7.988   8.709  64.270  1.00  0.00    -0.148 C  
HETATM    3  H   UNL     1      -9.208   7.386  63.469  1.00  0.00     0.000 HD 
ENDROOT
BRANCH   2   4
HETATM    4  C   UNL     1      -7.307   8.922  65.596  1.00  0.00    -0.085 A  
HETATM    5  C   UNL     1      -6.724   7.879  66.325  1.00  0.00    -0.054 A  
HETATM    6  O   UNL     1      -6.794   6.580  65.905  1.00  0.00    -0.050 OA 
HETATM    7  C   UNL     1      -6.069   8.112  67.529  1.00  0.00    -0.051 A  
HETATM    8  C   UNL     1      -6.006   9.404  68.044  1.00  0.00    -0.048 A  
HETATM    9  H   UNL     1      -6.399   5.871  66.399  1.00  0.00     0.000 HD 
HETATM   10  C   UNL     1      -6.581  10.479  67.348  1.00  0.00    -0.067 A  
HETATM   11  C   UNL     1      -7.207  10.226  66.114  1.00  0.00    -0.121 A  
BRANCH  10  12
HETATM   12  C   UNL     1      -6.564  11.888  67.912  1.00  0.00    -0.075 C  
HETATM   13  O   UNL     1      -6.262  12.832  66.873  1.00  0.00    -0.490 OA 
HETATM   14  H   UNL     1      -6.252  13.715  67.226  1.00  0.00     0.000 HD 
BRANCH  12  15
HETATM   15  C   UNL     1      -7.911  12.273  68.562  1.00  0.00    -0.111 C  
BRANCH  15  16
HETATM   16  N   UNL     1      -8.018  13.730  68.742  1.00  0.00    -0.289 NA 
HETATM   17  H   UNL     1      -7.326  14.235  68.189  1.00  0.00     0.000 HD 
BRANCH  16  18
HETATM   18  C   UNL     1      -9.378  14.172  68.450  1.00  0.00    -0.208 C  
BRANCH  18  19
HETATM   19  C   UNL     1      -9.400  15.678  68.222  1.00  0.00    -0.192 C  
BRANCH  19  20
HETATM   20  C   UNL     1     -10.600  16.062  67.358  1.00  0.00    -0.316 C  
BRANCH  20  21
HETATM   21  C   UNL     1     -10.151  16.847  66.134  1.00  0.00    -0.347 C  
BRANCH  21  22
HETATM   22  C   UNL     1     -10.835  16.344  64.869  1.00  0.00    -0.268 C  
BRANCH  22  23
HETATM   23  C   UNL     1     -10.859  14.824  64.850  1.00  0.00    -0.416 C  
BRANCH  23  24
HETATM   24  O   UNL     1     -12.190  14.398  64.586  1.00  0.00    -0.444 OA 
BRANCH  24  25
HETATM   25  C   UNL     1     -12.244  13.004  64.296  1.00  0.00    -0.396 C  
BRANCH  25  26
HETATM   26  C   UNL     1     -10.827  12.444  64.315  1.00  0.00    -0.395 C  
BRANCH  26  27
HETATM   27  C   UNL     1     -10.739  11.204  65.206  1.00  0.00    -0.271 C  
BRANCH  27  28
HETATM   28  C   UNL     1     -11.024  11.532  66.671  1.00  0.00    -0.349 C  
BRANCH  28  29
HETATM   29  C   UNL     1     -10.832  10.298  67.521  1.00  0.00    -0.355 A  
HETATM   30  C   UNL     1     -10.933  10.375  68.914  1.00  0.00    -0.289 A  
HETATM   31  C   UNL     1     -10.677   9.253  69.702  1.00  0.00    -0.244 A  
HETATM   32  C   UNL     1     -10.315   8.048  69.103  1.00  0.00    -0.226 A  
HETATM   33  C   UNL     1     -10.215   7.960  67.715  1.00  0.00    -0.276 A  
HETATM   34  C   UNL     1     -10.472   9.081  66.925  1.00  0.00    -0.293 A  
ENDBRANCH  28  29
ENDBRANCH  27  28
ENDBRANCH  26  27
ENDBRANCH  25  26
ENDBRANCH  24  25
ENDBRANCH  23  24
ENDBRANCH  22  23
ENDBRANCH  21  22
ENDBRANCH  20  21
ENDBRANCH  19  20
ENDBRANCH  18  19
ENDBRANCH  16  18
ENDBRANCH  15  16
ENDBRANCH  12  15
ENDBRANCH  10  12
ENDBRANCH   2   4
TORSDOF 16
ENDMDL
MODEL      305
REMARK 921   NORMALIZED FREE ENERGY PREDICTED BY IDOCK:   -4.04 KCAL/MOL
REMARK 922        TOTAL FREE ENERGY PREDICTED BY IDOCK:  -10.17 KCAL/MOL
REMARK 923 INTER-LIGAND FREE ENERGY PREDICTED BY IDOCK:   -8.55 KCAL/MOL
REMARK 924 INTRA-LIGAND FREE ENERGY PREDICTED BY IDOCK:   -1.62 KCAL/MOL
REMARK 927      BINDING AFFINITY PREDICTED BY RF-SCORE:    0.00 PKD
ROOT
HETATM    1  O   UNL     1     -10.046   2.441  72.025  1.00  0.00    -0.162 OA 
HETATM    2  C   UNL     1      -9.013   3.064  72.789  1.00  0.00    -0.087 C  
HETATM    3  H   UNL     1      -9.845   1.522  71.888  1.00  0.00     0.000 HD 
ENDROOT
BRANCH   2   4
HETATM    4  C   UNL     1      -9.332   4.520  73.006  1.00  0.00    -0.138 A  
HETATM    5  C   UNL     1      -8.566   5.349  73.834  1.00  0.00    -0.115 A  
HETATM    6  O   UNL     1      -7.509   4.868  74.555  1.00  0.00    -0.087 OA 
HETATM    7  C   UNL     1      -8.863   6.698  73.985  1.00  0.00    -0.171 A  
HETATM    8  C   UNL     1      -9.960   7.244  73.322  1.00  0.00    -0.319 A  
HETATM    9  H   UNL     1      -6.989   5.430  75.117  1.00  0.00     0.000 HD 
HETATM   10  C   UNL     1     -10.757   6.448  72.485  1.00  0.00    -0.256 A  
HETATM   11  C   UNL     1     -10.417   5.094  72.318  1.00  0.00    -0.277 A  
BRANCH  10  12
HETATM   12  C   UNL     1     -11.983   7.011  71.789  1.00  0.00    -0.326 C  
HETATM   13  O   UNL     1     -13.173   6.409  72.321  1.00  0.00    -0.516 OA 
HETATM   14  H   UNL     1     -13.941   6.762  71.885  1.00  0.00     0.000 HD 
BRANCH  12  15
HETATM   15  C   UNL     1     -12.086   8.543  71.940  1.00  0.00    -0.349 C  
BRANCH  15  16
HETATM   16  N   UNL     1     -11.955   9.217  70.637  1.00  0.00    -0.461 NA 
HETATM   17  H   UNL     1     -12.521  10.064  70.586  1.00  0.00     0.000 HD 
BRANCH  16  18
HETATM   18  C   UNL     1     -10.549   9.481  70.349  1.00  0.00    -0.276 C  
BRANCH  18  19
HETATM   19  C   UNL     1     -10.383   9.900  68.894  1.00  0.00    -0.221 C  
BRANCH  19  20
HETATM   20  C   UNL     1      -8.902   9.975  68.532  1.00  0.00    -0.120 C  
BRANCH  20  21
HETATM   21  C   UNL     1      -8.695   9.692  67.052  1.00  0.00    -0.135 C  
BRANCH  21  22
HETATM   22  C   UNL     1      -9.920  10.081  66.234  1.00  0.00    -0.310 C  
BRANCH  22  23
HETATM   23  C   UNL     1      -9.620   9.972  64.747  1.00  0.00    -0.308 C  
BRANCH  23  24
HETATM   24  O   UNL     1     -10.542  10.792  64.040  1.00  0.00    -0.332 OA 
BRANCH  24  25
HETATM   25  C   UNL     1      -9.949  12.030  63.656  1.00  0.00    -0.363 C  
BRANCH  25  26
HETATM   26  C   UNL     1     -10.769  13.171  64.246  1.00  0.00    -0.431 C  
BRANCH  26  27
HETATM   27  C   UNL     1     -10.114  13.716  65.517  1.00  0.00    -0.293 C  
BRANCH  27  28
HETATM   28  C   UNL     1     -10.833  14.958  66.041  1.00  0.00    -0.328 C  
BRANCH  28  29
HETATM   29  C   UNL     1     -11.238  14.748  67.480  1.00  0.00    -0.339 A  
HETATM   30  C   UNL     1     -11.316  15.834  68.360  1.00  0.00    -0.372 A  
HETATM   31  C   UNL     1     -11.613  15.628  69.707  1.00  0.00    -0.360 A  
HETATM   32  C   UNL     1     -11.830  14.338  70.186  1.00  0.00    -0.379 A  
HETATM   33  C   UNL     1     -11.757  13.250  69.316  1.00  0.00    -0.380 A  
HETATM   34  C   UNL     1     -11.462  13.453  67.968  1.00  0.00    -0.339 A  
ENDBRANCH  28  29
ENDBRANCH  27  28
ENDBRANCH  26  27
ENDBRANCH  25  26
ENDBRANCH  24  25
ENDBRANCH  23  24
ENDBRANCH  22  23
ENDBRANCH  21  22
ENDBRANCH  20  21
ENDBRANCH  19  20
ENDBRANCH  18  19
ENDBRANCH  16  18
ENDBRANCH  15  16
ENDBRANCH  12  15
ENDBRANCH  10  12
ENDBRANCH   2   4
TORSDOF 16
ENDMDL
MODEL      306
REMARK 921   NORMALIZED FREE ENERGY PREDICTED BY IDOCK:   -4.03 KCAL/MOL
REMARK 922        TOTAL FREE ENERGY PREDICTED BY IDOCK:  -10.14 KCAL/MOL
REMARK 923 INTER-LIGAND FREE ENERGY PREDICTED BY IDOCK:   -7.43 KCAL/MOL
REMARK 924 INTRA-LIGAND FREE ENERGY PREDICTED BY IDOCK:   -2.71 KCAL/MOL
REMARK 927      BINDING AFFINITY PREDICTED BY RF-SCORE:    0.00 PKD
ROOT
HETATM    1  O   UNL     1      -6.943  20.740  67.566  1.00  0.00    -0.319 OA 
HETATM    2  C   UNL     1      -7.558  19.787  68.434  1.00  0.00    -0.301 C  
HETATM    3  H   UNL     1      -6.304  21.255  68.045  1.00  0.00     0.000 HD 
ENDROOT
BRANCH   2   4
HETATM    4  C   UNL     1      -8.571  18.970  67.676  1.00  0.00    -0.317 A  
HETATM    5  C   UNL     1      -9.478  19.536  66.771  1.00  0.00    -0.354 A  
HETATM    6  O   UNL     1      -9.543  20.886  66.567  1.00  0.00    -0.600 OA 
HETATM    7  C   UNL     1     -10.376  18.751  66.057  1.00  0.00    -0.467 A  
HETATM    8  C   UNL     1     -10.401  17.373  66.255  1.00  0.00    -0.330 A  
HETATM    9  H   UNL     1     -10.159  21.271  65.954  1.00  0.00     0.000 HD 
HETATM   10  C   UNL     1      -9.512  16.765  67.156  1.00  0.00    -0.237 A  
HETATM   11  C   UNL     1      -8.588  17.573  67.841  1.00  0.00    -0.239 A  
BRANCH  10  12
HETATM   12  C   UNL     1      -9.552  15.271  67.421  1.00  0.00    -0.207 C  
HETATM   13  O   UNL     1      -9.823  14.560  66.203  1.00  0.00    -0.289 OA 
HETATM   14  H   UNL     1      -9.848  13.625  66.369  1.00  0.00     0.000 HD 
BRANCH  12  15
HETATM   15  C   UNL     1      -8.230  14.750  68.022  1.00  0.00    -0.142 C  
BRANCH  15  16
HETATM   16  N   UNL     1      -7.373  14.152  66.985  1.00  0.00    -0.332 NA 
HETATM   17  H   UNL     1      -6.600  14.766  66.727  1.00  0.00     0.000 HD 
BRANCH  16  18
HETATM   18  C   UNL     1      -6.906  12.838  67.416  1.00  0.00    -0.133 C  
BRANCH  18  19
HETATM   19  C   UNL     1      -7.768  12.329  68.564  1.00  0.00    -0.118 C  
BRANCH  19  20
HETATM   20  C   UNL     1      -7.551  10.830  68.761  1.00  0.00    -0.113 C  
BRANCH  20  21
HETATM   21  C   UNL     1      -6.137  10.434  68.360  1.00  0.00    -0.044 C  
BRANCH  21  22
HETATM   22  C   UNL     1      -5.837   8.988  68.734  1.00  0.00    -0.041 C  
BRANCH  22  23
HETATM   23  C   UNL     1      -7.131   8.211  68.920  1.00  0.00    -0.066 C  
BRANCH  23  24
HETATM   24  O   UNL     1      -7.202   7.773  70.271  1.00  0.00    -0.060 OA 
BRANCH  24  25
HETATM   25  C   UNL     1      -8.552   7.570  70.683  1.00  0.00    -0.137 C  
BRANCH  25  26
HETATM   26  C   UNL     1      -9.059   8.842  71.349  1.00  0.00    -0.318 C  
BRANCH  26  27
HETATM   27  C   UNL     1     -10.391   9.286  70.743  1.00  0.00    -0.348 C  
BRANCH  27  28
HETATM   28  C   UNL     1     -10.775   8.442  69.529  1.00  0.00    -0.181 C  
BRANCH  28  29
HETATM   29  C   UNL     1     -10.776   9.300  68.286  1.00  0.00    -0.195 A  
HETATM   30  C   UNL     1     -10.127   8.867  67.126  1.00  0.00    -0.316 A  
HETATM   31  C   UNL     1     -10.060   9.695  66.005  1.00  0.00    -0.318 A  
HETATM   32  C   UNL     1     -10.639  10.962  66.037  1.00  0.00    -0.254 A  
HETATM   33  C   UNL     1     -11.292  11.401  67.188  1.00  0.00    -0.327 A  
HETATM   34  C   UNL     1     -11.360  10.575  68.310  1.00  0.00    -0.332 A  
ENDBRANCH  28  29
ENDBRANCH  27  28
ENDBRANCH  26  27
ENDBRANCH  25  26
ENDBRANCH  24  25
ENDBRANCH  23  24
ENDBRANCH  22  23
ENDBRANCH  21  22
ENDBRANCH  20  21
ENDBRANCH  19  20
ENDBRANCH  18  19
ENDBRANCH  16  18
ENDBRANCH  15  16
ENDBRANCH  12  15
ENDBRANCH  10  12
ENDBRANCH   2   4
TORSDOF 16
ENDMDL
MODEL      307
REMARK 921   NORMALIZED FREE ENERGY PREDICTED BY IDOCK:   -4.02 KCAL/MOL
REMARK 922        TOTAL FREE ENERGY PREDICTED BY IDOCK:  -10.14 KCAL/MOL
REMARK 923 INTER-LIGAND FREE ENERGY PREDICTED BY IDOCK:   -8.77 KCAL/MOL
REMARK 924 INTRA-LIGAND FREE ENERGY PREDICTED BY IDOCK:   -1.37 KCAL/MOL
REMARK 927      BINDING AFFINITY PREDICTED BY RF-SCORE:    0.00 PKD
ROOT
HETATM    1  O   UNL     1      -9.891   4.849  67.140  1.00  0.00    -0.162 OA 
HETATM    2  C   UNL     1     -10.841   5.907  67.277  1.00  0.00    -0.260 C  
HETATM    3  H   UNL     1     -10.060   4.357  66.344  1.00  0.00     0.000 HD 
ENDROOT
BRANCH   2   4
HETATM    4  C   UNL     1     -10.573   6.685  68.538  1.00  0.00    -0.276 A  
HETATM    5  C   UNL     1      -9.446   7.499  68.702  1.00  0.00    -0.146 A  
HETATM    6  O   UNL     1      -8.475   7.586  67.744  1.00  0.00    -0.118 OA 
HETATM    7  C   UNL     1      -9.245   8.235  69.864  1.00  0.00    -0.154 A  
HETATM    8  C   UNL     1     -10.167   8.152  70.904  1.00  0.00    -0.216 A  
HETATM    9  H   UNL     1      -7.710   8.138  67.855  1.00  0.00     0.000 HD 
HETATM   10  C   UNL     1     -11.310   7.345  70.783  1.00  0.00    -0.303 A  
HETATM   11  C   UNL     1     -11.511   6.637  69.586  1.00  0.00    -0.358 A  
BRANCH  10  12
HETATM   12  C   UNL     1     -12.304   7.204  71.921  1.00  0.00    -0.317 C  
HETATM   13  O   UNL     1     -11.640   7.383  73.182  1.00  0.00    -0.598 OA 
HETATM   14  H   UNL     1     -12.263   7.295  73.895  1.00  0.00     0.000 HD 
BRANCH  12  15
HETATM   15  C   UNL     1     -13.460   8.221  71.815  1.00  0.00    -0.352 C  
BRANCH  15  16
HETATM   16  N   UNL     1     -13.130   9.307  70.878  1.00  0.00    -0.548 NA 
HETATM   17  H   UNL     1     -13.864   9.450  70.184  1.00  0.00     0.000 HD 
BRANCH  16  18
HETATM   18  C   UNL     1     -12.829  10.531  71.614  1.00  0.00    -0.475 C  
BRANCH  18  19
HETATM   19  C   UNL     1     -12.514  11.661  70.643  1.00  0.00    -0.386 C  
BRANCH  19  20
HETATM   20  C   UNL     1     -12.011  11.092  69.318  1.00  0.00    -0.421 C  
BRANCH  20  21
HETATM   21  C   UNL     1     -10.590  11.559  69.037  1.00  0.00    -0.207 C  
BRANCH  21  22
HETATM   22  C   UNL     1     -10.575  12.949  68.412  1.00  0.00    -0.267 C  
BRANCH  22  23
HETATM   23  C   UNL     1      -9.145  13.387  68.134  1.00  0.00    -0.207 C  
BRANCH  23  24
HETATM   24  O   UNL     1      -9.181  14.639  67.460  1.00  0.00    -0.184 OA 
BRANCH  24  25
HETATM   25  C   UNL     1      -7.874  15.067  67.085  1.00  0.00    -0.190 C  
BRANCH  25  26
HETATM   26  C   UNL     1      -7.133  15.530  68.333  1.00  0.00    -0.111 C  
BRANCH  26  27
HETATM   27  C   UNL     1      -6.677  16.983  68.193  1.00  0.00    -0.153 C  
BRANCH  27  28
HETATM   28  C   UNL     1      -7.467  17.920  69.105  1.00  0.00    -0.087 C  
BRANCH  28  29
HETATM   29  C   UNL     1      -8.554  18.611  68.315  1.00  0.00    -0.347 A  
HETATM   30  C   UNL     1      -9.541  19.354  68.970  1.00  0.00    -0.432 A  
HETATM   31  C   UNL     1     -10.590  19.923  68.247  1.00  0.00    -0.296 A  
HETATM   32  C   UNL     1     -10.660  19.752  66.866  1.00  0.00    -0.588 A  
HETATM   33  C   UNL     1      -9.678  19.015  66.204  1.00  0.00    -0.333 A  
HETATM   34  C   UNL     1      -8.628  18.445  66.925  1.00  0.00    -0.276 A  
ENDBRANCH  28  29
ENDBRANCH  27  28
ENDBRANCH  26  27
ENDBRANCH  25  26
ENDBRANCH  24  25
ENDBRANCH  23  24
ENDBRANCH  22  23
ENDBRANCH  21  22
ENDBRANCH  20  21
ENDBRANCH  19  20
ENDBRANCH  18  19
ENDBRANCH  16  18
ENDBRANCH  15  16
ENDBRANCH  12  15
ENDBRANCH  10  12
ENDBRANCH   2   4
TORSDOF 16
ENDMDL
MODEL      308
REMARK 921   NORMALIZED FREE ENERGY PREDICTED BY IDOCK:   -4.02 KCAL/MOL
REMARK 922        TOTAL FREE ENERGY PREDICTED BY IDOCK:  -10.12 KCAL/MOL
REMARK 923 INTER-LIGAND FREE ENERGY PREDICTED BY IDOCK:   -8.53 KCAL/MOL
REMARK 924 INTRA-LIGAND FREE ENERGY PREDICTED BY IDOCK:   -1.59 KCAL/MOL
REMARK 927      BINDING AFFINITY PREDICTED BY RF-SCORE:    0.00 PKD
ROOT
HETATM    1  O   UNL     1      -8.021   8.892  71.775  1.00  0.00    -0.303 OA 
HETATM    2  C   UNL     1      -7.996   8.515  70.397  1.00  0.00    -0.099 C  
HETATM    3  H   UNL     1      -7.251   9.408  71.987  1.00  0.00     0.000 HD 
ENDROOT
BRANCH   2   4
HETATM    4  C   UNL     1      -9.215   7.697  70.060  1.00  0.00    -0.151 A  
HETATM    5  C   UNL     1      -9.482   7.233  68.767  1.00  0.00    -0.142 A  
HETATM    6  O   UNL     1      -8.680   7.551  67.707  1.00  0.00    -0.123 OA 
HETATM    7  C   UNL     1     -10.597   6.447  68.493  1.00  0.00    -0.302 A  
HETATM    8  C   UNL     1     -11.486   6.129  69.516  1.00  0.00    -0.299 A  
HETATM    9  H   UNL     1      -8.861   7.237  66.829  1.00  0.00     0.000 HD 
HETATM   10  C   UNL     1     -11.259   6.577  70.827  1.00  0.00    -0.377 A  
HETATM   11  C   UNL     1     -10.107   7.339  71.088  1.00  0.00    -0.190 A  
BRANCH  10  12
HETATM   12  C   UNL     1     -12.238   6.280  71.947  1.00  0.00    -0.199 C  
HETATM   13  O   UNL     1     -11.690   6.698  73.207  1.00  0.00    -0.333 OA 
HETATM   14  H   UNL     1     -12.304   6.512  73.908  1.00  0.00     0.000 HD 
BRANCH  12  15
HETATM   15  C   UNL     1     -13.597   6.982  71.735  1.00  0.00    -0.212 C  
BRANCH  15  16
HETATM   16  N   UNL     1     -13.428   8.273  71.048  1.00  0.00    -0.522 NA 
HETATM   17  H   UNL     1     -14.127   8.412  70.318  1.00  0.00     0.000 HD 
BRANCH  16  18
HETATM   18  C   UNL     1     -13.430   9.362  72.020  1.00  0.00    -0.449 C  
BRANCH  18  19
HETATM   19  C   UNL     1     -12.667  10.558  71.465  1.00  0.00    -0.558 C  
BRANCH  19  20
HETATM   20  C   UNL     1     -12.217  10.278  70.033  1.00  0.00    -0.191 C  
BRANCH  20  21
HETATM   21  C   UNL     1     -10.779  10.730  69.824  1.00  0.00    -0.241 C  
BRANCH  21  22
HETATM   22  C   UNL     1     -10.682  11.798  68.741  1.00  0.00    -0.255 C  
BRANCH  22  23
HETATM   23  C   UNL     1     -11.469  11.374  67.510  1.00  0.00    -0.260 C  
BRANCH  23  24
HETATM   24  O   UNL     1     -12.360  12.426  67.163  1.00  0.00    -0.380 OA 
BRANCH  24  25
HETATM   25  C   UNL     1     -11.881  13.167  66.043  1.00  0.00    -0.407 C  
BRANCH  25  26
HETATM   26  C   UNL     1     -11.398  14.528  66.525  1.00  0.00    -0.354 C  
BRANCH  26  27
HETATM   27  C   UNL     1     -10.136  14.960  65.777  1.00  0.00    -0.367 C  
BRANCH  27  28
HETATM   28  C   UNL     1      -9.733  16.394  66.116  1.00  0.00    -0.355 C  
BRANCH  28  29
HETATM   29  C   UNL     1      -8.264  16.446  66.466  1.00  0.00    -0.341 A  
HETATM   30  C   UNL     1      -7.710  15.503  67.339  1.00  0.00    -0.222 A  
HETATM   31  C   UNL     1      -6.373  15.600  67.724  1.00  0.00    -0.179 A  
HETATM   32  C   UNL     1      -5.582  16.641  67.243  1.00  0.00    -0.184 A  
HETATM   33  C   UNL     1      -6.124  17.584  66.370  1.00  0.00    -0.259 A  
HETATM   34  C   UNL     1      -7.461  17.488  65.983  1.00  0.00    -0.274 A  
ENDBRANCH  28  29
ENDBRANCH  27  28
ENDBRANCH  26  27
ENDBRANCH  25  26
ENDBRANCH  24  25
ENDBRANCH  23  24
ENDBRANCH  22  23
ENDBRANCH  21  22
ENDBRANCH  20  21
ENDBRANCH  19  20
ENDBRANCH  18  19
ENDBRANCH  16  18
ENDBRANCH  15  16
ENDBRANCH  12  15
ENDBRANCH  10  12
ENDBRANCH   2   4
TORSDOF 16
ENDMDL
MODEL      309
REMARK 921   NORMALIZED FREE ENERGY PREDICTED BY IDOCK:   -4.01 KCAL/MOL
REMARK 922        TOTAL FREE ENERGY PREDICTED BY IDOCK:  -10.11 KCAL/MOL
REMARK 923 INTER-LIGAND FREE ENERGY PREDICTED BY IDOCK:   -7.88 KCAL/MOL
REMARK 924 INTRA-LIGAND FREE ENERGY PREDICTED BY IDOCK:   -2.24 KCAL/MOL
REMARK 927      BINDING AFFINITY PREDICTED BY RF-SCORE:    0.00 PKD
ROOT
HETATM    1  O   UNL     1      -9.575   5.143  65.025  1.00  0.00    -0.360 OA 
HETATM    2  C   UNL     1     -10.134   4.656  66.246  1.00  0.00    -0.265 C  
HETATM    3  H   UNL     1      -9.814   4.572  64.304  1.00  0.00     0.000 HD 
ENDROOT
BRANCH   2   4
HETATM    4  C   UNL     1      -9.756   5.560  67.390  1.00  0.00    -0.147 A  
HETATM    5  C   UNL     1     -10.180   6.891  67.475  1.00  0.00    -0.194 A  
HETATM    6  O   UNL     1     -10.916   7.478  66.483  1.00  0.00    -0.258 OA 
HETATM    7  C   UNL     1      -9.846   7.691  68.562  1.00  0.00    -0.174 A  
HETATM    8  C   UNL     1      -9.052   7.175  69.583  1.00  0.00    -0.140 A  
HETATM    9  H   UNL     1     -11.204   8.382  66.541  1.00  0.00     0.000 HD 
HETATM   10  C   UNL     1      -8.602   5.846  69.536  1.00  0.00    -0.117 A  
HETATM   11  C   UNL     1      -8.982   5.044  68.445  1.00  0.00    -0.123 A  
BRANCH  10  12
HETATM   12  C   UNL     1      -7.700   5.276  70.614  1.00  0.00    -0.084 C  
HETATM   13  O   UNL     1      -7.488   6.252  71.647  1.00  0.00    -0.090 OA 
HETATM   14  H   UNL     1      -6.923   5.895  72.323  1.00  0.00     0.000 HD 
BRANCH  12  15
HETATM   15  C   UNL     1      -8.285   3.996  71.248  1.00  0.00    -0.072 C  
BRANCH  15  16
HETATM   16  N   UNL     1      -8.128   4.007  72.712  1.00  0.00    -0.090 NA 
HETATM   17  H   UNL     1      -7.555   4.788  73.029  1.00  0.00     0.000 HD 
BRANCH  16  18
HETATM   18  C   UNL     1      -9.438   3.994  73.355  1.00  0.00    -0.110 C  
BRANCH  18  19
HETATM   19  C   UNL     1     -10.514   4.404  72.358  1.00  0.00    -0.219 C  
BRANCH  19  20
HETATM   20  C   UNL     1     -11.425   5.465  72.971  1.00  0.00    -0.324 C  
BRANCH  20  21
HETATM   21  C   UNL     1     -10.623   6.694  73.372  1.00  0.00    -0.333 C  
BRANCH  21  22
HETATM   22  C   UNL     1     -10.989   7.902  72.518  1.00  0.00    -0.412 C  
BRANCH  22  23
HETATM   23  C   UNL     1     -12.461   7.851  72.136  1.00  0.00    -0.267 C  
BRANCH  23  24
HETATM   24  O   UNL     1     -12.939   9.185  72.014  1.00  0.00    -0.360 OA 
BRANCH  24  25
HETATM   25  C   UNL     1     -11.950  10.044  71.453  1.00  0.00    -0.383 C  
BRANCH  25  26
HETATM   26  C   UNL     1     -12.555  10.779  70.264  1.00  0.00    -0.350 C  
BRANCH  26  27
HETATM   27  C   UNL     1     -11.624  11.888  69.772  1.00  0.00    -0.359 C  
BRANCH  27  28
HETATM   28  C   UNL     1     -10.863  11.478  68.513  1.00  0.00    -0.254 C  
BRANCH  28  29
HETATM   29  C   UNL     1     -11.390  12.241  67.321  1.00  0.00    -0.392 A  
HETATM   30  C   UNL     1     -11.408  11.651  66.053  1.00  0.00    -0.261 A  
HETATM   31  C   UNL     1     -11.820  12.384  64.940  1.00  0.00    -0.442 A  
HETATM   32  C   UNL     1     -12.215  13.713  65.086  1.00  0.00    -0.461 A  
HETATM   33  C   UNL     1     -12.204  14.309  66.347  1.00  0.00    -0.426 A  
HETATM   34  C   UNL     1     -11.792  13.577  67.461  1.00  0.00    -0.406 A  
ENDBRANCH  28  29
ENDBRANCH  27  28
ENDBRANCH  26  27
ENDBRANCH  25  26
ENDBRANCH  24  25
ENDBRANCH  23  24
ENDBRANCH  22  23
ENDBRANCH  21  22
ENDBRANCH  20  21
ENDBRANCH  19  20
ENDBRANCH  18  19
ENDBRANCH  16  18
ENDBRANCH  15  16
ENDBRANCH  12  15
ENDBRANCH  10  12
ENDBRANCH   2   4
TORSDOF 16
ENDMDL
MODEL      310
REMARK 921   NORMALIZED FREE ENERGY PREDICTED BY IDOCK:   -4.01 KCAL/MOL
REMARK 922        TOTAL FREE ENERGY PREDICTED BY IDOCK:  -10.11 KCAL/MOL
REMARK 923 INTER-LIGAND FREE ENERGY PREDICTED BY IDOCK:   -7.59 KCAL/MOL
REMARK 924 INTRA-LIGAND FREE ENERGY PREDICTED BY IDOCK:   -2.53 KCAL/MOL
REMARK 927      BINDING AFFINITY PREDICTED BY RF-SCORE:    0.00 PKD
ROOT
HETATM    1  O   UNL     1      -9.621   1.706  67.837  1.00  0.00    -0.340 OA 
HETATM    2  C   UNL     1      -9.151   2.791  68.638  1.00  0.00    -0.158 C  
HETATM    3  H   UNL     1      -9.197   0.897  68.099  1.00  0.00     0.000 HD 
ENDROOT
BRANCH   2   4
HETATM    4  C   UNL     1      -9.823   4.074  68.223  1.00  0.00    -0.056 A  
HETATM    5  C   UNL     1     -10.104   4.385  66.888  1.00  0.00    -0.120 A  
HETATM    6  O   UNL     1      -9.724   3.564  65.862  1.00  0.00    -0.341 OA 
HETATM    7  C   UNL     1     -10.759   5.560  66.538  1.00  0.00    -0.309 A  
HETATM    8  C   UNL     1     -11.127   6.467  67.528  1.00  0.00    -0.396 A  
HETATM    9  H   UNL     1      -9.914   3.775  64.955  1.00  0.00     0.000 HD 
HETATM   10  C   UNL     1     -10.861   6.197  68.880  1.00  0.00    -0.406 A  
HETATM   11  C   UNL     1     -10.230   4.986  69.214  1.00  0.00    -0.245 A  
BRANCH  10  12
HETATM   12  C   UNL     1     -11.213   7.192  69.970  1.00  0.00    -0.238 C  
HETATM   13  O   UNL     1     -11.153   6.556  71.257  1.00  0.00    -0.250 OA 
HETATM   14  H   UNL     1     -11.373   7.179  71.940  1.00  0.00     0.000 HD 
BRANCH  12  15
HETATM   15  C   UNL     1     -10.271   8.414  69.971  1.00  0.00    -0.202 C  
BRANCH  15  16
HETATM   16  N   UNL     1      -9.506   8.496  71.227  1.00  0.00    -0.185 NA 
HETATM   17  H   UNL     1      -9.791   7.780  71.895  1.00  0.00     0.000 HD 
BRANCH  16  18
HETATM   18  C   UNL     1      -8.074   8.440  70.946  1.00  0.00    -0.110 C  
BRANCH  18  19
HETATM   19  C   UNL     1      -7.599   6.993  70.937  1.00  0.00    -0.086 C  
BRANCH  19  20
HETATM   20  C   UNL     1      -6.949   6.660  69.596  1.00  0.00    -0.067 C  
BRANCH  20  21
HETATM   21  C   UNL     1      -6.911   7.888  68.698  1.00  0.00    -0.071 C  
BRANCH  21  22
HETATM   22  C   UNL     1      -7.619   7.630  67.373  1.00  0.00    -0.109 C  
BRANCH  22  23
HETATM   23  C   UNL     1      -8.031   8.945  66.729  1.00  0.00    -0.107 C  
BRANCH  23  24
HETATM   24  O   UNL     1      -8.804   8.656  65.571  1.00  0.00    -0.183 OA 
BRANCH  24  25
HETATM   25  C   UNL     1      -8.916   9.795  64.722  1.00  0.00    -0.225 C  
BRANCH  25  26
HETATM   26  C   UNL     1     -10.280  10.438  64.942  1.00  0.00    -0.330 C  
BRANCH  26  27
HETATM   27  C   UNL     1     -10.438  11.696  64.087  1.00  0.00    -0.402 C  
BRANCH  27  28
HETATM   28  C   UNL     1     -11.722  12.454  64.419  1.00  0.00    -0.435 C  
BRANCH  28  29
HETATM   29  C   UNL     1     -11.445  13.497  65.475  1.00  0.00    -0.320 A  
HETATM   30  C   UNL     1     -11.964  13.353  66.766  1.00  0.00    -0.447 A  
HETATM   31  C   UNL     1     -11.775  14.356  67.717  1.00  0.00    -0.407 A  
HETATM   32  C   UNL     1     -11.069  15.510  67.384  1.00  0.00    -0.285 A  
HETATM   33  C   UNL     1     -10.545  15.661  66.101  1.00  0.00    -0.325 A  
HETATM   34  C   UNL     1     -10.732  14.660  65.148  1.00  0.00    -0.430 A  
ENDBRANCH  28  29
ENDBRANCH  27  28
ENDBRANCH  26  27
ENDBRANCH  25  26
ENDBRANCH  24  25
ENDBRANCH  23  24
ENDBRANCH  22  23
ENDBRANCH  21  22
ENDBRANCH  20  21
ENDBRANCH  19  20
ENDBRANCH  18  19
ENDBRANCH  16  18
ENDBRANCH  15  16
ENDBRANCH  12  15
ENDBRANCH  10  12
ENDBRANCH   2   4
TORSDOF 16
ENDMDL
MODEL      311
REMARK 921   NORMALIZED FREE ENERGY PREDICTED BY IDOCK:   -4.00 KCAL/MOL
REMARK 922        TOTAL FREE ENERGY PREDICTED BY IDOCK:  -10.09 KCAL/MOL
REMARK 923 INTER-LIGAND FREE ENERGY PREDICTED BY IDOCK:   -8.78 KCAL/MOL
REMARK 924 INTRA-LIGAND FREE ENERGY PREDICTED BY IDOCK:   -1.31 KCAL/MOL
REMARK 927      BINDING AFFINITY PREDICTED BY RF-SCORE:    0.00 PKD
ROOT
HETATM    1  O   UNL     1     -10.614  17.870  68.280  1.00  0.00    -0.368 OA 
HETATM    2  C   UNL     1      -9.967  16.640  67.950  1.00  0.00    -0.254 C  
HETATM    3  H   UNL     1     -10.253  18.225  69.084  1.00  0.00     0.000 HD 
ENDROOT
BRANCH   2   4
HETATM    4  C   UNL     1     -10.539  16.077  66.675  1.00  0.00    -0.297 A  
HETATM    5  C   UNL     1     -10.821  16.869  65.556  1.00  0.00    -0.096 A  
HETATM    6  O   UNL     1     -10.654  18.226  65.573  1.00  0.00    -0.632 OA 
HETATM    7  C   UNL     1     -11.314  16.315  64.380  1.00  0.00    -0.137 A  
HETATM    8  C   UNL     1     -11.559  14.946  64.310  1.00  0.00    -0.201 A  
HETATM    9  H   UNL     1     -10.846  18.764  64.814  1.00  0.00     0.000 HD 
HETATM   10  C   UNL     1     -11.294  14.115  65.410  1.00  0.00    -0.322 A  
HETATM   11  C   UNL     1     -10.762  14.692  66.577  1.00  0.00    -0.312 A  
BRANCH  10  12
HETATM   12  C   UNL     1     -11.596  12.629  65.371  1.00  0.00    -0.363 C  
HETATM   13  O   UNL     1     -12.465  12.272  66.457  1.00  0.00    -0.340 OA 
HETATM   14  H   UNL     1     -12.655  11.341  66.433  1.00  0.00     0.000 HD 
BRANCH  12  15
HETATM   15  C   UNL     1     -12.255  12.202  64.042  1.00  0.00    -0.446 C  
BRANCH  15  16
HETATM   16  N   UNL     1     -11.386  11.285  63.287  1.00  0.00    -0.818 NA 
HETATM   17  H   UNL     1     -11.063  11.698  62.412  1.00  0.00     0.000 HD 
BRANCH  16  18
HETATM   18  C   UNL     1     -10.275  10.843  64.125  1.00  0.00    -0.359 C  
BRANCH  18  19
HETATM   19  C   UNL     1      -9.278  10.046  63.293  1.00  0.00    -0.317 C  
BRANCH  19  20
HETATM   20  C   UNL     1      -8.349   9.249  64.206  1.00  0.00    -0.180 C  
BRANCH  20  21
HETATM   21  C   UNL     1      -7.884   7.974  63.518  1.00  0.00    -0.146 C  
BRANCH  21  22
HETATM   22  C   UNL     1      -8.008   6.767  64.440  1.00  0.00    -0.096 C  
BRANCH  22  23
HETATM   23  C   UNL     1      -7.298   7.034  65.758  1.00  0.00    -0.079 C  
BRANCH  23  24
HETATM   24  O   UNL     1      -7.990   6.340  66.789  1.00  0.00    -0.106 OA 
BRANCH  24  25
HETATM   25  C   UNL     1      -9.217   5.792  66.315  1.00  0.00    -0.158 C  
BRANCH  25  26
HETATM   26  C   UNL     1      -9.656   4.681  67.262  1.00  0.00    -0.201 C  
BRANCH  26  27
HETATM   27  C   UNL     1      -9.852   5.216  68.681  1.00  0.00    -0.225 C  
BRANCH  27  28
HETATM   28  C   UNL     1     -10.978   6.245  68.754  1.00  0.00    -0.424 C  
BRANCH  28  29
HETATM   29  C   UNL     1     -10.967   6.925  70.102  1.00  0.00    -0.322 A  
HETATM   30  C   UNL     1      -9.774   7.427  70.632  1.00  0.00    -0.175 A  
HETATM   31  C   UNL     1      -9.751   7.983  71.912  1.00  0.00    -0.250 A  
HETATM   32  C   UNL     1     -10.918   8.038  72.671  1.00  0.00    -0.448 A  
HETATM   33  C   UNL     1     -12.113   7.543  72.149  1.00  0.00    -0.305 A  
HETATM   34  C   UNL     1     -12.139   6.988  70.869  1.00  0.00    -0.403 A  
ENDBRANCH  28  29
ENDBRANCH  27  28
ENDBRANCH  26  27
ENDBRANCH  25  26
ENDBRANCH  24  25
ENDBRANCH  23  24
ENDBRANCH  22  23
ENDBRANCH  21  22
ENDBRANCH  20  21
ENDBRANCH  19  20
ENDBRANCH  18  19
ENDBRANCH  16  18
ENDBRANCH  15  16
ENDBRANCH  12  15
ENDBRANCH  10  12
ENDBRANCH   2   4
TORSDOF 16
ENDMDL
MODEL      312
REMARK 921   NORMALIZED FREE ENERGY PREDICTED BY IDOCK:   -4.00 KCAL/MOL
REMARK 922        TOTAL FREE ENERGY PREDICTED BY IDOCK:  -10.08 KCAL/MOL
REMARK 923 INTER-LIGAND FREE ENERGY PREDICTED BY IDOCK:   -7.45 KCAL/MOL
REMARK 924 INTRA-LIGAND FREE ENERGY PREDICTED BY IDOCK:   -2.63 KCAL/MOL
REMARK 927      BINDING AFFINITY PREDICTED BY RF-SCORE:    0.00 PKD
ROOT
HETATM    1  O   UNL     1      -7.555  10.922  70.146  1.00  0.00    -0.399 OA 
HETATM    2  C   UNL     1      -6.508  10.203  69.492  1.00  0.00    -0.055 C  
HETATM    3  H   UNL     1      -7.279  11.814  70.324  1.00  0.00     0.000 HD 
ENDROOT
BRANCH   2   4
HETATM    4  C   UNL     1      -6.944   8.789  69.211  1.00  0.00    -0.058 A  
HETATM    5  C   UNL     1      -6.418   8.028  68.161  1.00  0.00    -0.055 A  
HETATM    6  O   UNL     1      -5.513   8.548  67.278  1.00  0.00    -0.037 OA 
HETATM    7  C   UNL     1      -6.813   6.712  67.949  1.00  0.00    -0.077 A  
HETATM    8  C   UNL     1      -7.772   6.135  68.778  1.00  0.00    -0.096 A  
HETATM    9  H   UNL     1      -5.156   8.031  66.565  1.00  0.00     0.000 HD 
HETATM   10  C   UNL     1      -8.329   6.864  69.841  1.00  0.00    -0.139 A  
HETATM   11  C   UNL     1      -7.888   8.181  70.059  1.00  0.00    -0.103 A  
BRANCH  10  12
HETATM   12  C   UNL     1      -9.407   6.271  70.729  1.00  0.00    -0.158 C  
HETATM   13  O   UNL     1      -9.858   7.249  71.679  1.00  0.00    -0.166 OA 
HETATM   14  H   UNL     1     -10.534   6.878  72.235  1.00  0.00     0.000 HD 
BRANCH  12  15
HETATM   15  C   UNL     1     -10.619   5.767  69.917  1.00  0.00    -0.318 C  
BRANCH  15  16
HETATM   16  N   UNL     1     -11.323   6.882  69.262  1.00  0.00    -0.535 NA 
HETATM   17  H   UNL     1     -10.962   7.788  69.559  1.00  0.00     0.000 HD 
BRANCH  16  18
HETATM   18  C   UNL     1     -11.275   6.722  67.812  1.00  0.00    -0.108 C  
BRANCH  18  19
HETATM   19  C   UNL     1     -10.476   7.860  67.188  1.00  0.00    -0.414 C  
BRANCH  19  20
HETATM   20  C   UNL     1     -10.603   9.122  68.038  1.00  0.00    -0.253 C  
BRANCH  20  21
HETATM   21  C   UNL     1      -9.685  10.217  67.515  1.00  0.00    -0.190 C  
BRANCH  21  22
HETATM   22  C   UNL     1      -9.121   9.863  66.145  1.00  0.00    -0.193 C  
BRANCH  22  23
HETATM   23  C   UNL     1     -10.054  10.349  65.047  1.00  0.00    -0.309 C  
BRANCH  23  24
HETATM   24  O   UNL     1      -9.274  10.666  63.901  1.00  0.00    -0.207 OA 
BRANCH  24  25
HETATM   25  C   UNL     1      -9.829  11.763  63.180  1.00  0.00    -0.336 C  
BRANCH  25  26
HETATM   26  C   UNL     1     -11.346  11.725  63.319  1.00  0.00    -0.347 C  
BRANCH  26  27
HETATM   27  C   UNL     1     -11.878  13.040  63.889  1.00  0.00    -0.542 C  
BRANCH  27  28
HETATM   28  C   UNL     1     -12.537  12.846  65.254  1.00  0.00    -0.502 C  
BRANCH  28  29
HETATM   29  C   UNL     1     -11.535  13.114  66.351  1.00  0.00    -0.374 A  
HETATM   30  C   UNL     1     -11.868  12.873  67.689  1.00  0.00    -0.400 A  
HETATM   31  C   UNL     1     -10.971  13.197  68.707  1.00  0.00    -0.298 A  
HETATM   32  C   UNL     1      -9.737  13.765  68.396  1.00  0.00    -0.219 A  
HETATM   33  C   UNL     1      -9.395  14.006  67.066  1.00  0.00    -0.256 A  
HETATM   34  C   UNL     1     -10.290  13.683  66.046  1.00  0.00    -0.305 A  
ENDBRANCH  28  29
ENDBRANCH  27  28
ENDBRANCH  26  27
ENDBRANCH  25  26
ENDBRANCH  24  25
ENDBRANCH  23  24
ENDBRANCH  22  23
ENDBRANCH  21  22
ENDBRANCH  20  21
ENDBRANCH  19  20
ENDBRANCH  18  19
ENDBRANCH  16  18
ENDBRANCH  15  16
ENDBRANCH  12  15
ENDBRANCH  10  12
ENDBRANCH   2   4
TORSDOF 16
ENDMDL
MODEL      313
REMARK 921   NORMALIZED FREE ENERGY PREDICTED BY IDOCK:   -3.99 KCAL/MOL
REMARK 922        TOTAL FREE ENERGY PREDICTED BY IDOCK:  -10.08 KCAL/MOL
REMARK 923 INTER-LIGAND FREE ENERGY PREDICTED BY IDOCK:   -7.50 KCAL/MOL
REMARK 924 INTRA-LIGAND FREE ENERGY PREDICTED BY IDOCK:   -2.57 KCAL/MOL
REMARK 927      BINDING AFFINITY PREDICTED BY RF-SCORE:    0.00 PKD
ROOT
HETATM    1  O   UNL     1      -9.825   4.667  65.171  1.00  0.00    -0.274 OA 
HETATM    2  C   UNL     1     -10.188   5.145  66.467  1.00  0.00    -0.264 C  
HETATM    3  H   UNL     1     -10.434   4.993  64.519  1.00  0.00     0.000 HD 
ENDROOT
BRANCH   2   4
HETATM    4  C   UNL     1      -9.223   4.629  67.502  1.00  0.00    -0.148 A  
HETATM    5  C   UNL     1      -8.904   3.272  67.630  1.00  0.00    -0.132 A  
HETATM    6  O   UNL     1      -9.504   2.315  66.860  1.00  0.00    -0.376 OA 
HETATM    7  C   UNL     1      -7.981   2.829  68.571  1.00  0.00    -0.061 A  
HETATM    8  C   UNL     1      -7.371   3.743  69.426  1.00  0.00    -0.052 A  
HETATM    9  H   UNL     1      -9.289   1.394  66.947  1.00  0.00     0.000 HD 
HETATM   10  C   UNL     1      -7.665   5.113  69.334  1.00  0.00    -0.076 A  
HETATM   11  C   UNL     1      -8.575   5.543  68.352  1.00  0.00    -0.099 A  
BRANCH  10  12
HETATM   12  C   UNL     1      -7.047   6.121  70.285  1.00  0.00    -0.074 C  
HETATM   13  O   UNL     1      -7.518   7.442  69.979  1.00  0.00    -0.081 OA 
HETATM   14  H   UNL     1      -7.131   8.074  70.574  1.00  0.00     0.000 HD 
BRANCH  12  15
HETATM   15  C   UNL     1      -7.368   5.804  71.761  1.00  0.00    -0.093 C  
BRANCH  15  16
HETATM   16  N   UNL     1      -8.200   6.859  72.363  1.00  0.00    -0.104 NA 
HETATM   17  H   UNL     1      -8.955   7.151  71.743  1.00  0.00     0.000 HD 
BRANCH  16  18
HETATM   18  C   UNL     1      -8.700   6.422  73.663  1.00  0.00    -0.123 C  
BRANCH  18  19
HETATM   19  C   UNL     1     -10.205   6.642  73.745  1.00  0.00    -0.354 C  
BRANCH  19  20
HETATM   20  C   UNL     1     -10.930   5.675  72.811  1.00  0.00    -0.320 C  
BRANCH  20  21
HETATM   21  C   UNL     1     -11.794   6.435  71.816  1.00  0.00    -0.374 C  
BRANCH  21  22
HETATM   22  C   UNL     1     -11.232   6.337  70.402  1.00  0.00    -0.439 C  
BRANCH  22  23
HETATM   23  C   UNL     1     -11.027   7.726  69.818  1.00  0.00    -0.158 C  
BRANCH  23  24
HETATM   24  O   UNL     1     -10.239   8.484  70.728  1.00  0.00    -0.189 OA 
BRANCH  24  25
HETATM   25  C   UNL     1     -10.210   9.863  70.368  1.00  0.00    -0.236 C  
BRANCH  25  26
HETATM   26  C   UNL     1     -11.636  10.333  70.110  1.00  0.00    -0.376 C  
BRANCH  26  27
HETATM   27  C   UNL     1     -11.688  11.312  68.936  1.00  0.00    -0.409 C  
BRANCH  27  28
HETATM   28  C   UNL     1     -10.825  10.845  67.765  1.00  0.00    -0.309 C  
BRANCH  28  29
HETATM   29  C   UNL     1     -11.110  11.692  66.547  1.00  0.00    -0.357 A  
HETATM   30  C   UNL     1     -10.439  11.449  65.344  1.00  0.00    -0.336 A  
HETATM   31  C   UNL     1     -10.643  12.283  64.244  1.00  0.00    -0.387 A  
HETATM   32  C   UNL     1     -11.516  13.364  64.339  1.00  0.00    -0.417 A  
HETATM   33  C   UNL     1     -12.192  13.612  65.533  1.00  0.00    -0.476 A  
HETATM   34  C   UNL     1     -11.990  12.779  66.635  1.00  0.00    -0.411 A  
ENDBRANCH  28  29
ENDBRANCH  27  28
ENDBRANCH  26  27
ENDBRANCH  25  26
ENDBRANCH  24  25
ENDBRANCH  23  24
ENDBRANCH  22  23
ENDBRANCH  21  22
ENDBRANCH  20  21
ENDBRANCH  19  20
ENDBRANCH  18  19
ENDBRANCH  16  18
ENDBRANCH  15  16
ENDBRANCH  12  15
ENDBRANCH  10  12
ENDBRANCH   2   4
TORSDOF 16
ENDMDL
MODEL      314
REMARK 921   NORMALIZED FREE ENERGY PREDICTED BY IDOCK:   -3.99 KCAL/MOL
REMARK 922        TOTAL FREE ENERGY PREDICTED BY IDOCK:  -10.06 KCAL/MOL
REMARK 923 INTER-LIGAND FREE ENERGY PREDICTED BY IDOCK:   -7.98 KCAL/MOL
REMARK 924 INTRA-LIGAND FREE ENERGY PREDICTED BY IDOCK:   -2.08 KCAL/MOL
REMARK 927      BINDING AFFINITY PREDICTED BY RF-SCORE:    0.00 PKD
ROOT
HETATM    1  O   UNL     1      -9.969   9.076  65.612  1.00  0.00    -0.457 OA 
HETATM    2  C   UNL     1      -8.846   9.581  64.888  1.00  0.00    -0.203 C  
HETATM    3  H   UNL     1     -10.479   8.494  65.061  1.00  0.00     0.000 HD 
ENDROOT
BRANCH   2   4
HETATM    4  C   UNL     1      -8.037  10.505  65.760  1.00  0.00    -0.158 A  
HETATM    5  C   UNL     1      -6.671  10.316  66.003  1.00  0.00    -0.114 A  
HETATM    6  O   UNL     1      -5.995   9.235  65.510  1.00  0.00    -0.057 OA 
HETATM    7  C   UNL     1      -5.942  11.207  66.782  1.00  0.00    -0.116 A  
HETATM    8  C   UNL     1      -6.579  12.302  67.360  1.00  0.00    -0.154 A  
HETATM    9  H   UNL     1      -5.068   9.106  65.675  1.00  0.00     0.000 HD 
HETATM   10  C   UNL     1      -7.948  12.527  67.146  1.00  0.00    -0.140 A  
HETATM   11  C   UNL     1      -8.658  11.634  66.325  1.00  0.00    -0.103 A  
BRANCH  10  12
HETATM   12  C   UNL     1      -8.672  13.688  67.803  1.00  0.00    -0.184 C  
HETATM   13  O   UNL     1      -8.344  13.749  69.200  1.00  0.00    -0.337 OA 
HETATM   14  H   UNL     1      -8.797  14.476  69.611  1.00  0.00     0.000 HD 
BRANCH  12  15
HETATM   15  C   UNL     1      -8.320  15.041  67.147  1.00  0.00    -0.217 C  
BRANCH  15  16
HETATM   16  N   UNL     1      -8.939  15.165  65.817  1.00  0.00    -0.347 NA 
HETATM   17  H   UNL     1      -8.896  14.291  65.293  1.00  0.00     0.000 HD 
BRANCH  16  18
HETATM   18  C   UNL     1     -10.306  15.659  65.945  1.00  0.00    -0.350 C  
BRANCH  18  19
HETATM   19  C   UNL     1     -11.238  14.854  65.049  1.00  0.00    -0.408 C  
BRANCH  19  20
HETATM   20  C   UNL     1     -12.326  14.185  65.885  1.00  0.00    -0.486 C  
BRANCH  20  21
HETATM   21  C   UNL     1     -11.914  12.771  66.271  1.00  0.00    -0.460 C  
BRANCH  21  22
HETATM   22  C   UNL     1     -11.905  12.587  67.784  1.00  0.00    -0.375 C  
BRANCH  22  23
HETATM   23  C   UNL     1     -12.184  13.911  68.479  1.00  0.00    -0.166 C  
BRANCH  23  24
HETATM   24  O   UNL     1     -12.623  13.639  69.804  1.00  0.00    -0.201 OA 
BRANCH  24  25
HETATM   25  C   UNL     1     -11.842  12.614  70.412  1.00  0.00    -0.154 C  
BRANCH  25  26
HETATM   26  C   UNL     1     -12.779  11.561  70.992  1.00  0.00    -0.426 C  
BRANCH  26  27
HETATM   27  C   UNL     1     -12.044  10.239  71.220  1.00  0.00    -0.479 C  
BRANCH  27  28
HETATM   28  C   UNL     1     -10.964   9.997  70.168  1.00  0.00    -0.368 C  
BRANCH  28  29
HETATM   29  C   UNL     1     -10.633   8.525  70.101  1.00  0.00    -0.238 A  
HETATM   30  C   UNL     1      -9.538   8.078  69.353  1.00  0.00    -0.160 A  
HETATM   31  C   UNL     1      -9.282   6.713  69.227  1.00  0.00    -0.140 A  
HETATM   32  C   UNL     1     -10.119   5.785  69.842  1.00  0.00    -0.273 A  
HETATM   33  C   UNL     1     -11.211   6.220  70.592  1.00  0.00    -0.401 A  
HETATM   34  C   UNL     1     -11.469   7.585  70.721  1.00  0.00    -0.305 A  
ENDBRANCH  28  29
ENDBRANCH  27  28
ENDBRANCH  26  27
ENDBRANCH  25  26
ENDBRANCH  24  25
ENDBRANCH  23  24
ENDBRANCH  22  23
ENDBRANCH  21  22
ENDBRANCH  20  21
ENDBRANCH  19  20
ENDBRANCH  18  19
ENDBRANCH  16  18
ENDBRANCH  15  16
ENDBRANCH  12  15
ENDBRANCH  10  12
ENDBRANCH   2   4
TORSDOF 16
ENDMDL
MODEL      315
REMARK 921   NORMALIZED FREE ENERGY PREDICTED BY IDOCK:   -3.98 KCAL/MOL
REMARK 922        TOTAL FREE ENERGY PREDICTED BY IDOCK:  -10.05 KCAL/MOL
REMARK 923 INTER-LIGAND FREE ENERGY PREDICTED BY IDOCK:   -8.75 KCAL/MOL
REMARK 924 INTRA-LIGAND FREE ENERGY PREDICTED BY IDOCK:   -1.29 KCAL/MOL
REMARK 927      BINDING AFFINITY PREDICTED BY RF-SCORE:    0.00 PKD
ROOT
HETATM    1  O   UNL     1     -10.957  17.605  64.900  1.00  0.00    -0.886 OA 
HETATM    2  C   UNL     1     -10.150  16.607  65.526  1.00  0.00    -0.134 C  
HETATM    3  H   UNL     1     -10.559  18.462  65.002  1.00  0.00     0.000 HD 
ENDROOT
BRANCH   2   4
HETATM    4  C   UNL     1     -10.781  15.249  65.364  1.00  0.00    -0.407 A  
HETATM    5  C   UNL     1     -11.791  14.990  64.431  1.00  0.00    -0.339 A  
HETATM    6  O   UNL     1     -12.318  15.977  63.645  1.00  0.00    -1.090 OA 
HETATM    7  C   UNL     1     -12.329  13.717  64.278  1.00  0.00    -0.388 A  
HETATM    8  C   UNL     1     -11.877  12.674  65.083  1.00  0.00    -0.437 A  
HETATM    9  H   UNL     1     -13.004  15.801  63.012  1.00  0.00     0.000 HD 
HETATM   10  C   UNL     1     -10.868  12.891  66.035  1.00  0.00    -0.300 A  
HETATM   11  C   UNL     1     -10.313  14.178  66.147  1.00  0.00    -0.304 A  
BRANCH  10  12
HETATM   12  C   UNL     1     -10.393  11.780  66.953  1.00  0.00    -0.217 C  
HETATM   13  O   UNL     1      -9.934  10.662  66.178  1.00  0.00    -0.211 OA 
HETATM   14  H   UNL     1      -9.635   9.966  66.753  1.00  0.00     0.000 HD 
BRANCH  12  15
HETATM   15  C   UNL     1      -9.254  12.243  67.887  1.00  0.00    -0.190 C  
BRANCH  15  16
HETATM   16  N   UNL     1      -9.311  11.545  69.182  1.00  0.00    -0.396 NA 
HETATM   17  H   UNL     1     -10.251  11.553  69.579  1.00  0.00     0.000 HD 
BRANCH  16  18
HETATM   18  C   UNL     1      -8.788  10.190  69.044  1.00  0.00    -0.166 C  
BRANCH  18  19
HETATM   19  C   UNL     1      -7.368  10.120  69.592  1.00  0.00    -0.138 C  
BRANCH  19  20
HETATM   20  C   UNL     1      -7.160   8.811  70.350  1.00  0.00    -0.048 C  
BRANCH  20  21
HETATM   21  C   UNL     1      -6.155   7.925  69.627  1.00  0.00    -0.033 C  
BRANCH  21  22
HETATM   22  C   UNL     1      -6.452   6.448  69.852  1.00  0.00    -0.047 C  
BRANCH  22  23
HETATM   23  C   UNL     1      -7.953   6.208  69.875  1.00  0.00    -0.114 C  
BRANCH  23  24
HETATM   24  O   UNL     1      -8.199   4.954  70.500  1.00  0.00    -0.091 OA 
BRANCH  24  25
HETATM   25  C   UNL     1      -9.395   4.353  70.009  1.00  0.00    -0.157 C  
BRANCH  25  26
HETATM   26  C   UNL     1     -10.142   3.722  71.177  1.00  0.00    -0.026 C  
BRANCH  26  27
HETATM   27  C   UNL     1      -9.931   4.526  72.461  1.00  0.00    -0.225 C  
BRANCH  27  28
HETATM   28  C   UNL     1     -11.219   5.197  72.933  1.00  0.00    -0.362 C  
BRANCH  28  29
HETATM   29  C   UNL     1     -11.323   6.583  72.341  1.00  0.00    -0.314 A  
HETATM   30  C   UNL     1     -10.267   7.491  72.475  1.00  0.00    -0.283 A  
HETATM   31  C   UNL     1     -10.396   8.796  71.999  1.00  0.00    -0.411 A  
HETATM   32  C   UNL     1     -11.581   9.203  71.388  1.00  0.00    -0.411 A  
HETATM   33  C   UNL     1     -12.637   8.304  71.247  1.00  0.00    -0.237 A  
HETATM   34  C   UNL     1     -12.511   6.998  71.722  1.00  0.00    -0.393 A  
ENDBRANCH  28  29
ENDBRANCH  27  28
ENDBRANCH  26  27
ENDBRANCH  25  26
ENDBRANCH  24  25
ENDBRANCH  23  24
ENDBRANCH  22  23
ENDBRANCH  21  22
ENDBRANCH  20  21
ENDBRANCH  19  20
ENDBRANCH  18  19
ENDBRANCH  16  18
ENDBRANCH  15  16
ENDBRANCH  12  15
ENDBRANCH  10  12
ENDBRANCH   2   4
TORSDOF 16
ENDMDL
MODEL      316
REMARK 921   NORMALIZED FREE ENERGY PREDICTED BY IDOCK:   -3.98 KCAL/MOL
REMARK 922        TOTAL FREE ENERGY PREDICTED BY IDOCK:  -10.04 KCAL/MOL
REMARK 923 INTER-LIGAND FREE ENERGY PREDICTED BY IDOCK:   -7.30 KCAL/MOL
REMARK 924 INTRA-LIGAND FREE ENERGY PREDICTED BY IDOCK:   -2.74 KCAL/MOL
REMARK 927      BINDING AFFINITY PREDICTED BY RF-SCORE:    0.00 PKD
ROOT
HETATM    1  O   UNL     1     -10.329  16.650  67.170  1.00  0.00    -0.293 OA 
HETATM    2  C   UNL     1     -11.006  16.717  68.426  1.00  0.00    -0.325 C  
HETATM    3  H   UNL     1     -10.115  17.525  66.865  1.00  0.00     0.000 HD 
ENDROOT
BRANCH   2   4
HETATM    4  C   UNL     1     -11.346  15.332  68.908  1.00  0.00    -0.315 A  
HETATM    5  C   UNL     1     -11.955  15.088  70.145  1.00  0.00    -0.320 A  
HETATM    6  O   UNL     1     -12.222  16.097  71.028  1.00  0.00    -0.543 OA 
HETATM    7  C   UNL     1     -12.291  13.800  70.547  1.00  0.00    -0.429 A  
HETATM    8  C   UNL     1     -11.998  12.719  69.721  1.00  0.00    -0.362 A  
HETATM    9  H   UNL     1     -12.635  15.932  71.867  1.00  0.00     0.000 HD 
HETATM   10  C   UNL     1     -11.384  12.918  68.474  1.00  0.00    -0.324 A  
HETATM   11  C   UNL     1     -11.086  14.231  68.072  1.00  0.00    -0.286 A  
BRANCH  10  12
HETATM   12  C   UNL     1     -11.015  11.750  67.578  1.00  0.00    -0.256 C  
HETATM   13  O   UNL     1     -11.851  10.620  67.869  1.00  0.00    -0.738 OA 
HETATM   14  H   UNL     1     -11.621   9.889  67.308  1.00  0.00     0.000 HD 
BRANCH  12  15
HETATM   15  C   UNL     1     -11.150  12.099  66.080  1.00  0.00    -0.313 C  
BRANCH  15  16
HETATM   16  N   UNL     1      -9.895  11.836  65.357  1.00  0.00    -0.232 NA 
HETATM   17  H   UNL     1      -9.100  11.752  65.990  1.00  0.00     0.000 HD 
BRANCH  16  18
HETATM   18  C   UNL     1     -10.044  10.658  64.508  1.00  0.00    -0.353 C  
BRANCH  18  19
HETATM   19  C   UNL     1      -9.660   9.404  65.283  1.00  0.00    -0.251 C  
BRANCH  19  20
HETATM   20  C   UNL     1      -8.338   8.846  64.761  1.00  0.00    -0.184 C  
BRANCH  20  21
HETATM   21  C   UNL     1      -8.058   7.477  65.363  1.00  0.00    -0.133 C  
BRANCH  21  22
HETATM   22  C   UNL     1      -9.014   7.166  66.508  1.00  0.00    -0.172 C  
BRANCH  22  23
HETATM   23  C   UNL     1      -8.236   6.777  67.756  1.00  0.00    -0.120 C  
BRANCH  23  24
HETATM   24  O   UNL     1      -9.142   6.716  68.850  1.00  0.00    -0.133 OA 
BRANCH  24  25
HETATM   25  C   UNL     1     -10.449   7.140  68.469  1.00  0.00    -0.204 C  
BRANCH  25  26
HETATM   26  C   UNL     1     -11.035   7.990  69.589  1.00  0.00    -0.106 C  
BRANCH  26  27
HETATM   27  C   UNL     1      -9.984   8.284  70.662  1.00  0.00    -0.204 C  
BRANCH  27  28
HETATM   28  C   UNL     1      -9.581   9.757  70.678  1.00  0.00    -0.097 C  
BRANCH  28  29
HETATM   29  C   UNL     1      -8.341   9.960  69.839  1.00  0.00    -0.200 A  
HETATM   30  C   UNL     1      -8.416  10.637  68.617  1.00  0.00    -0.142 A  
HETATM   31  C   UNL     1      -7.287  10.752  67.806  1.00  0.00    -0.093 A  
HETATM   32  C   UNL     1      -6.077  10.191  68.209  1.00  0.00    -0.045 A  
HETATM   33  C   UNL     1      -5.992   9.518  69.427  1.00  0.00    -0.033 A  
HETATM   34  C   UNL     1      -7.120   9.401  70.240  1.00  0.00    -0.097 A  
ENDBRANCH  28  29
ENDBRANCH  27  28
ENDBRANCH  26  27
ENDBRANCH  25  26
ENDBRANCH  24  25
ENDBRANCH  23  24
ENDBRANCH  22  23
ENDBRANCH  21  22
ENDBRANCH  20  21
ENDBRANCH  19  20
ENDBRANCH  18  19
ENDBRANCH  16  18
ENDBRANCH  15  16
ENDBRANCH  12  15
ENDBRANCH  10  12
ENDBRANCH   2   4
TORSDOF 16
ENDMDL
MODEL      317
REMARK 921   NORMALIZED FREE ENERGY PREDICTED BY IDOCK:   -3.97 KCAL/MOL
REMARK 922        TOTAL FREE ENERGY PREDICTED BY IDOCK:  -10.04 KCAL/MOL
REMARK 923 INTER-LIGAND FREE ENERGY PREDICTED BY IDOCK:   -7.51 KCAL/MOL
REMARK 924 INTRA-LIGAND FREE ENERGY PREDICTED BY IDOCK:   -2.53 KCAL/MOL
REMARK 927      BINDING AFFINITY PREDICTED BY RF-SCORE:    0.00 PKD
ROOT
HETATM    1  O   UNL     1      -9.799   3.951  65.091  1.00  0.00    -0.179 OA 
HETATM    2  C   UNL     1     -10.234   4.612  66.280  1.00  0.00    -0.275 C  
HETATM    3  H   UNL     1     -10.381   4.157  64.369  1.00  0.00     0.000 HD 
ENDROOT
BRANCH   2   4
HETATM    4  C   UNL     1      -9.312   4.286  67.425  1.00  0.00    -0.190 A  
HETATM    5  C   UNL     1      -9.053   2.974  67.839  1.00  0.00    -0.181 A  
HETATM    6  O   UNL     1      -9.678   1.901  67.267  1.00  0.00    -0.394 OA 
HETATM    7  C   UNL     1      -8.168   2.701  68.876  1.00  0.00    -0.074 A  
HETATM    8  C   UNL     1      -7.536   3.750  69.540  1.00  0.00    -0.052 A  
HETATM    9  H   UNL     1      -9.504   1.011  67.548  1.00  0.00     0.000 HD 
HETATM   10  C   UNL     1      -7.770   5.081  69.159  1.00  0.00    -0.076 A  
HETATM   11  C   UNL     1      -8.641   5.332  68.084  1.00  0.00    -0.099 A  
BRANCH  10  12
HETATM   12  C   UNL     1      -7.127   6.240  69.897  1.00  0.00    -0.072 C  
HETATM   13  O   UNL     1      -7.685   7.484  69.445  1.00  0.00    -0.106 OA 
HETATM   14  H   UNL     1      -7.283   8.210  69.908  1.00  0.00     0.000 HD 
BRANCH  12  15
HETATM   15  C   UNL     1      -7.315   6.134  71.426  1.00  0.00    -0.088 C  
BRANCH  15  16
HETATM   16  N   UNL     1      -7.959   7.341  71.969  1.00  0.00    -0.090 NA 
HETATM   17  H   UNL     1      -8.857   7.528  71.523  1.00  0.00     0.000 HD 
BRANCH  16  18
HETATM   18  C   UNL     1      -8.081   7.235  73.419  1.00  0.00    -0.110 C  
BRANCH  18  19
HETATM   19  C   UNL     1      -9.544   7.343  73.830  1.00  0.00    -0.333 C  
BRANCH  19  20
HETATM   20  C   UNL     1     -10.305   6.091  73.401  1.00  0.00    -0.247 C  
BRANCH  20  21
HETATM   21  C   UNL     1     -11.402   6.443  72.407  1.00  0.00    -0.324 C  
BRANCH  21  22
HETATM   22  C   UNL     1     -10.981   6.126  70.977  1.00  0.00    -0.354 C  
BRANCH  22  23
HETATM   23  C   UNL     1     -11.124   7.359  70.099  1.00  0.00    -0.246 C  
BRANCH  23  24
HETATM   24  O   UNL     1     -10.314   8.394  70.643  1.00  0.00    -0.192 OA 
BRANCH  24  25
HETATM   25  C   UNL     1     -10.922   9.673  70.476  1.00  0.00    -0.313 C  
BRANCH  25  26
HETATM   26  C   UNL     1     -12.201   9.720  71.304  1.00  0.00    -0.465 C  
BRANCH  26  27
HETATM   27  C   UNL     1     -13.080  10.901  70.889  1.00  0.00    -0.237 C  
BRANCH  27  28
HETATM   28  C   UNL     1     -13.371  11.836  72.061  1.00  0.00    -0.417 C  
BRANCH  28  29
HETATM   29  C   UNL     1     -12.763  13.194  71.798  1.00  0.00    -0.270 A  
HETATM   30  C   UNL     1     -12.096  13.450  70.595  1.00  0.00    -0.374 A  
HETATM   31  C   UNL     1     -11.466  14.678  70.388  1.00  0.00    -0.283 A  
HETATM   32  C   UNL     1     -11.496  15.655  71.380  1.00  0.00    -0.488 A  
HETATM   33  C   UNL     1     -12.161  15.409  72.581  1.00  0.00    -0.535 A  
HETATM   34  C   UNL     1     -12.792  14.183  72.791  1.00  0.00    -0.445 A  
ENDBRANCH  28  29
ENDBRANCH  27  28
ENDBRANCH  26  27
ENDBRANCH  25  26
ENDBRANCH  24  25
ENDBRANCH  23  24
ENDBRANCH  22  23
ENDBRANCH  21  22
ENDBRANCH  20  21
ENDBRANCH  19  20
ENDBRANCH  18  19
ENDBRANCH  16  18
ENDBRANCH  15  16
ENDBRANCH  12  15
ENDBRANCH  10  12
ENDBRANCH   2   4
TORSDOF 16
ENDMDL
MODEL      318
REMARK 921   NORMALIZED FREE ENERGY PREDICTED BY IDOCK:   -3.97 KCAL/MOL
REMARK 922        TOTAL FREE ENERGY PREDICTED BY IDOCK:  -10.03 KCAL/MOL
REMARK 923 INTER-LIGAND FREE ENERGY PREDICTED BY IDOCK:   -7.80 KCAL/MOL
REMARK 924 INTRA-LIGAND FREE ENERGY PREDICTED BY IDOCK:   -2.23 KCAL/MOL
REMARK 927      BINDING AFFINITY PREDICTED BY RF-SCORE:    0.00 PKD
ROOT
HETATM    1  O   UNL     1     -10.026  13.144  64.024  1.00  0.00    -0.721 OA 
HETATM    2  C   UNL     1     -10.841  12.081  64.520  1.00  0.00    -0.314 C  
HETATM    3  H   UNL     1      -9.855  13.021  63.097  1.00  0.00     0.000 HD 
ENDROOT
BRANCH   2   4
HETATM    4  C   UNL     1     -11.113  12.274  65.989  1.00  0.00    -0.347 A  
HETATM    5  C   UNL     1     -11.740  13.416  66.500  1.00  0.00    -0.373 A  
HETATM    6  O   UNL     1     -12.090  14.466  65.697  1.00  0.00    -0.379 OA 
HETATM    7  C   UNL     1     -12.010  13.550  67.857  1.00  0.00    -0.372 A  
HETATM    8  C   UNL     1     -11.633  12.542  68.740  1.00  0.00    -0.366 A  
HETATM    9  H   UNL     1     -12.515  15.242  66.043  1.00  0.00     0.000 HD 
HETATM   10  C   UNL     1     -10.998  11.381  68.271  1.00  0.00    -0.266 A  
HETATM   11  C   UNL     1     -10.766  11.251  66.890  1.00  0.00    -0.319 A  
BRANCH  10  12
HETATM   12  C   UNL     1     -10.537  10.292  69.221  1.00  0.00    -0.230 C  
HETATM   13  O   UNL     1      -9.317  10.684  69.868  1.00  0.00    -0.374 OA 
HETATM   14  H   UNL     1      -9.028  10.002  70.464  1.00  0.00     0.000 HD 
BRANCH  12  15
HETATM   15  C   UNL     1     -11.595   9.971  70.298  1.00  0.00    -0.280 C  
BRANCH  15  16
HETATM   16  N   UNL     1     -12.037   8.570  70.211  1.00  0.00    -0.327 NA 
HETATM   17  H   UNL     1     -11.377   7.993  69.690  1.00  0.00     0.000 HD 
BRANCH  16  18
HETATM   18  C   UNL     1     -12.288   8.040  71.548  1.00  0.00    -0.308 C  
BRANCH  18  19
HETATM   19  C   UNL     1     -11.186   8.485  72.501  1.00  0.00    -0.336 C  
BRANCH  19  20
HETATM   20  C   UNL     1     -10.186   7.351  72.717  1.00  0.00    -0.287 C  
BRANCH  20  21
HETATM   21  C   UNL     1     -10.857   6.164  73.392  1.00  0.00    -0.243 C  
BRANCH  21  22
HETATM   22  C   UNL     1      -9.850   5.071  73.727  1.00  0.00    -0.167 C  
BRANCH  22  23
HETATM   23  C   UNL     1      -8.499   5.389  73.105  1.00  0.00    -0.118 C  
BRANCH  23  24
HETATM   24  O   UNL     1      -7.942   4.182  72.599  1.00  0.00    -0.081 OA 
BRANCH  24  25
HETATM   25  C   UNL     1      -7.661   4.283  71.205  1.00  0.00    -0.066 C  
BRANCH  25  26
HETATM   26  C   UNL     1      -8.420   3.185  70.470  1.00  0.00    -0.099 C  
BRANCH  26  27
HETATM   27  C   UNL     1      -8.894   3.669  69.099  1.00  0.00    -0.157 C  
BRANCH  27  28
HETATM   28  C   UNL     1      -9.877   4.833  69.212  1.00  0.00    -0.269 C  
BRANCH  28  29
HETATM   29  C   UNL     1      -9.604   5.844  68.124  1.00  0.00    -0.130 A  
HETATM   30  C   UNL     1      -8.290   6.197  67.798  1.00  0.00    -0.116 A  
HETATM   31  C   UNL     1      -8.041   7.189  66.850  1.00  0.00    -0.116 A  
HETATM   32  C   UNL     1      -9.103   7.837  66.222  1.00  0.00    -0.221 A  
HETATM   33  C   UNL     1     -10.416   7.490  66.538  1.00  0.00    -0.021 A  
HETATM   34  C   UNL     1     -10.667   6.497  67.485  1.00  0.00    -0.395 A  
ENDBRANCH  28  29
ENDBRANCH  27  28
ENDBRANCH  26  27
ENDBRANCH  25  26
ENDBRANCH  24  25
ENDBRANCH  23  24
ENDBRANCH  22  23
ENDBRANCH  21  22
ENDBRANCH  20  21
ENDBRANCH  19  20
ENDBRANCH  18  19
ENDBRANCH  16  18
ENDBRANCH  15  16
ENDBRANCH  12  15
ENDBRANCH  10  12
ENDBRANCH   2   4
TORSDOF 16
ENDMDL
MODEL      319
REMARK 921   NORMALIZED FREE ENERGY PREDICTED BY IDOCK:   -3.97 KCAL/MOL
REMARK 922        TOTAL FREE ENERGY PREDICTED BY IDOCK:  -10.03 KCAL/MOL
REMARK 923 INTER-LIGAND FREE ENERGY PREDICTED BY IDOCK:   -6.27 KCAL/MOL
REMARK 924 INTRA-LIGAND FREE ENERGY PREDICTED BY IDOCK:   -3.76 KCAL/MOL
REMARK 927      BINDING AFFINITY PREDICTED BY RF-SCORE:    0.00 PKD
ROOT
HETATM    1  O   UNL     1      -7.751   6.633  72.051  1.00  0.00    -0.095 OA 
HETATM    2  C   UNL     1      -6.961   7.652  71.436  1.00  0.00    -0.053 C  
HETATM    3  H   UNL     1      -7.792   6.771  72.990  1.00  0.00     0.000 HD 
ENDROOT
BRANCH   2   4
HETATM    4  C   UNL     1      -6.897   7.434  69.948  1.00  0.00    -0.055 A  
HETATM    5  C   UNL     1      -6.512   6.216  69.376  1.00  0.00    -0.043 A  
HETATM    6  O   UNL     1      -6.105   5.158  70.140  1.00  0.00    -0.017 OA 
HETATM    7  C   UNL     1      -6.498   6.033  67.998  1.00  0.00    -0.050 A  
HETATM    8  C   UNL     1      -6.850   7.085  67.156  1.00  0.00    -0.065 A  
HETATM    9  H   UNL     1      -5.843   4.331  69.752  1.00  0.00     0.000 HD 
HETATM   10  C   UNL     1      -7.239   8.326  67.688  1.00  0.00    -0.088 A  
HETATM   11  C   UNL     1      -7.280   8.477  69.085  1.00  0.00    -0.068 A  
BRANCH  10  12
HETATM   12  C   UNL     1      -7.582   9.499  66.790  1.00  0.00    -0.098 C  
HETATM   13  O   UNL     1      -6.445   9.858  65.988  1.00  0.00    -0.076 OA 
HETATM   14  H   UNL     1      -6.660  10.593  65.426  1.00  0.00     0.000 HD 
BRANCH  12  15
HETATM   15  C   UNL     1      -8.774   9.192  65.858  1.00  0.00    -0.158 C  
BRANCH  15  16
HETATM   16  N   UNL     1      -9.722  10.317  65.817  1.00  0.00    -0.220 NA 
HETATM   17  H   UNL     1      -9.967  10.576  64.861  1.00  0.00     0.000 HD 
BRANCH  16  18
HETATM   18  C   UNL     1     -10.902  10.007  66.618  1.00  0.00     0.012 C  
BRANCH  18  19
HETATM   19  C   UNL     1     -11.191  11.148  67.585  1.00  0.00    -0.364 C  
BRANCH  19  20
HETATM   20  C   UNL     1     -10.252  11.071  68.787  1.00  0.00    -0.211 C  
BRANCH  20  21
HETATM   21  C   UNL     1     -10.959  10.446  69.981  1.00  0.00    -0.370 C  
BRANCH  21  22
HETATM   22  C   UNL     1     -12.077  11.343  70.498  1.00  0.00    -0.487 C  
BRANCH  22  23
HETATM   23  C   UNL     1     -13.062  10.534  71.328  1.00  0.00    -0.383 C  
BRANCH  23  24
HETATM   24  O   UNL     1     -12.811   9.152  71.103  1.00  0.00    -0.289 OA 
BRANCH  24  25
HETATM   25  C   UNL     1     -12.639   8.447  72.329  1.00  0.00    -0.349 C  
BRANCH  25  26
HETATM   26  C   UNL     1     -12.377   6.979  72.018  1.00  0.00    -0.302 C  
BRANCH  26  27
HETATM   27  C   UNL     1     -12.009   6.787  70.546  1.00  0.00    -0.385 C  
BRANCH  27  28
HETATM   28  C   UNL     1     -10.550   6.367  70.372  1.00  0.00    -0.294 C  
BRANCH  28  29
HETATM   29  C   UNL     1     -10.346   5.775  68.998  1.00  0.00    -0.313 A  
HETATM   30  C   UNL     1     -10.841   6.428  67.864  1.00  0.00    -0.404 A  
HETATM   31  C   UNL     1     -10.722   5.840  66.605  1.00  0.00    -0.333 A  
HETATM   32  C   UNL     1     -10.111   4.596  66.470  1.00  0.00    -0.279 A  
HETATM   33  C   UNL     1      -9.612   3.938  67.593  1.00  0.00    -0.205 A  
HETATM   34  C   UNL     1      -9.729   4.524  68.854  1.00  0.00    -0.224 A  
ENDBRANCH  28  29
ENDBRANCH  27  28
ENDBRANCH  26  27
ENDBRANCH  25  26
ENDBRANCH  24  25
ENDBRANCH  23  24
ENDBRANCH  22  23
ENDBRANCH  21  22
ENDBRANCH  20  21
ENDBRANCH  19  20
ENDBRANCH  18  19
ENDBRANCH  16  18
ENDBRANCH  15  16
ENDBRANCH  12  15
ENDBRANCH  10  12
ENDBRANCH   2   4
TORSDOF 16
ENDMDL
MODEL      320
REMARK 921   NORMALIZED FREE ENERGY PREDICTED BY IDOCK:   -3.96 KCAL/MOL
REMARK 922        TOTAL FREE ENERGY PREDICTED BY IDOCK:  -10.00 KCAL/MOL
REMARK 923 INTER-LIGAND FREE ENERGY PREDICTED BY IDOCK:   -8.92 KCAL/MOL
REMARK 924 INTRA-LIGAND FREE ENERGY PREDICTED BY IDOCK:   -1.09 KCAL/MOL
REMARK 927      BINDING AFFINITY PREDICTED BY RF-SCORE:    0.00 PKD
ROOT
HETATM    1  O   UNL     1     -13.955   6.990  72.236  1.00  0.00    -0.542 OA 
HETATM    2  C   UNL     1     -12.844   7.662  71.641  1.00  0.00    -0.349 C  
HETATM    3  H   UNL     1     -14.594   7.623  72.545  1.00  0.00     0.000 HD 
ENDROOT
BRANCH   2   4
HETATM    4  C   UNL     1     -11.832   6.660  71.151  1.00  0.00    -0.414 A  
HETATM    5  C   UNL     1     -11.298   5.659  71.970  1.00  0.00    -0.176 A  
HETATM    6  O   UNL     1     -11.616   5.568  73.297  1.00  0.00    -0.511 OA 
HETATM    7  C   UNL     1     -10.393   4.724  71.479  1.00  0.00    -0.203 A  
HETATM    8  C   UNL     1      -9.983   4.790  70.150  1.00  0.00    -0.321 A  
HETATM    9  H   UNL     1     -11.253   4.889  73.854  1.00  0.00     0.000 HD 
HETATM   10  C   UNL     1     -10.491   5.780  69.294  1.00  0.00    -0.358 A  
HETATM   11  C   UNL     1     -11.432   6.693  69.802  1.00  0.00    -0.388 A  
BRANCH  10  12
HETATM   12  C   UNL     1     -10.024   5.898  67.855  1.00  0.00    -0.134 C  
HETATM   13  O   UNL     1     -11.123   5.672  66.959  1.00  0.00    -0.459 OA 
HETATM   14  H   UNL     1     -10.831   5.746  66.058  1.00  0.00     0.000 HD 
BRANCH  12  15
HETATM   15  C   UNL     1      -9.409   7.281  67.553  1.00  0.00    -0.129 C  
BRANCH  15  16
HETATM   16  N   UNL     1     -10.360   8.141  66.830  1.00  0.00    -0.368 NA 
HETATM   17  H   UNL     1     -10.849   8.780  67.456  1.00  0.00     0.000 HD 
BRANCH  16  18
HETATM   18  C   UNL     1      -9.676   8.849  65.752  1.00  0.00    -0.123 C  
BRANCH  18  19
HETATM   19  C   UNL     1      -8.324   8.203  65.479  1.00  0.00    -0.160 C  
BRANCH  19  20
HETATM   20  C   UNL     1      -7.677   8.835  64.248  1.00  0.00    -0.125 C  
BRANCH  20  21
HETATM   21  C   UNL     1      -8.146  10.271  64.073  1.00  0.00    -0.137 C  
BRANCH  21  22
HETATM   22  C   UNL     1      -8.696  10.510  62.671  1.00  0.00    -0.254 C  
BRANCH  22  23
HETATM   23  C   UNL     1     -10.121  11.037  62.746  1.00  0.00    -0.069 C  
BRANCH  23  24
HETATM   24  O   UNL     1     -10.185  12.016  63.775  1.00  0.00    -0.357 OA 
BRANCH  24  25
HETATM   25  C   UNL     1     -11.505  12.135  64.300  1.00  0.00    -0.367 C  
BRANCH  25  26
HETATM   26  C   UNL     1     -12.065  13.498  63.915  1.00  0.00    -0.493 C  
BRANCH  26  27
HETATM   27  C   UNL     1     -11.879  14.508  65.049  1.00  0.00    -0.399 C  
BRANCH  27  28
HETATM   28  C   UNL     1     -10.682  14.161  65.932  1.00  0.00    -0.298 C  
BRANCH  28  29
HETATM   29  C   UNL     1     -10.830  14.822  67.281  1.00  0.00    -0.309 A  
HETATM   30  C   UNL     1     -11.071  14.052  68.425  1.00  0.00    -0.275 A  
HETATM   31  C   UNL     1     -11.287  14.670  69.657  1.00  0.00    -0.317 A  
HETATM   32  C   UNL     1     -11.268  16.059  69.754  1.00  0.00    -0.344 A  
HETATM   33  C   UNL     1     -11.025  16.835  68.621  1.00  0.00    -0.298 A  
HETATM   34  C   UNL     1     -10.808  16.220  67.388  1.00  0.00    -0.242 A  
ENDBRANCH  28  29
ENDBRANCH  27  28
ENDBRANCH  26  27
ENDBRANCH  25  26
ENDBRANCH  24  25
ENDBRANCH  23  24
ENDBRANCH  22  23
ENDBRANCH  21  22
ENDBRANCH  20  21
ENDBRANCH  19  20
ENDBRANCH  18  19
ENDBRANCH  16  18
ENDBRANCH  15  16
ENDBRANCH  12  15
ENDBRANCH  10  12
ENDBRANCH   2   4
TORSDOF 16
ENDMDL
MODEL      321
REMARK 921   NORMALIZED FREE ENERGY PREDICTED BY IDOCK:   -3.95 KCAL/MOL
REMARK 922        TOTAL FREE ENERGY PREDICTED BY IDOCK:  -10.00 KCAL/MOL
REMARK 923 INTER-LIGAND FREE ENERGY PREDICTED BY IDOCK:   -7.69 KCAL/MOL
REMARK 924 INTRA-LIGAND FREE ENERGY PREDICTED BY IDOCK:   -2.30 KCAL/MOL
REMARK 927      BINDING AFFINITY PREDICTED BY RF-SCORE:    0.00 PKD
ROOT
HETATM    1  O   UNL     1      -9.649   2.557  67.919  1.00  0.00    -0.322 OA 
HETATM    2  C   UNL     1      -8.936   3.362  68.859  1.00  0.00    -0.128 C  
HETATM    3  H   UNL     1      -9.130   1.799  67.676  1.00  0.00     0.000 HD 
ENDROOT
BRANCH   2   4
HETATM    4  C   UNL     1      -9.758   4.564  69.244  1.00  0.00    -0.260 A  
HETATM    5  C   UNL     1     -10.209   5.504  68.311  1.00  0.00    -0.178 A  
HETATM    6  O   UNL     1      -9.874   5.425  66.988  1.00  0.00    -0.136 OA 
HETATM    7  C   UNL     1     -10.999   6.584  68.692  1.00  0.00    -0.363 A  
HETATM    8  C   UNL     1     -11.334   6.757  70.033  1.00  0.00    -0.396 A  
HETATM    9  H   UNL     1     -10.180   6.064  66.355  1.00  0.00     0.000 HD 
HETATM   10  C   UNL     1     -10.900   5.839  71.002  1.00  0.00    -0.316 A  
HETATM   11  C   UNL     1     -10.133   4.735  70.590  1.00  0.00    -0.288 A  
BRANCH  10  12
HETATM   12  C   UNL     1     -11.215   6.032  72.473  1.00  0.00    -0.290 C  
HETATM   13  O   UNL     1     -10.468   5.097  73.266  1.00  0.00    -0.183 OA 
HETATM   14  H   UNL     1     -10.665   5.218  74.188  1.00  0.00     0.000 HD 
BRANCH  12  15
HETATM   15  C   UNL     1     -10.897   7.464  72.955  1.00  0.00    -0.375 C  
BRANCH  15  16
HETATM   16  N   UNL     1      -9.746   7.473  73.873  1.00  0.00    -0.381 NA 
HETATM   17  H   UNL     1      -9.488   6.533  74.172  1.00  0.00     0.000 HD 
BRANCH  16  18
HETATM   18  C   UNL     1      -8.624   8.179  73.262  1.00  0.00    -0.242 C  
BRANCH  18  19
HETATM   19  C   UNL     1      -7.473   7.213  73.011  1.00  0.00    -0.078 C  
BRANCH  19  20
HETATM   20  C   UNL     1      -7.323   6.951  71.514  1.00  0.00    -0.081 C  
BRANCH  20  21
HETATM   21  C   UNL     1      -7.769   8.162  70.709  1.00  0.00    -0.080 C  
BRANCH  21  22
HETATM   22  C   UNL     1      -6.651   8.674  69.808  1.00  0.00    -0.042 C  
BRANCH  22  23
HETATM   23  C   UNL     1      -7.229   9.477  68.653  1.00  0.00    -0.074 C  
BRANCH  23  24
HETATM   24  O   UNL     1      -6.157  10.105  67.961  1.00  0.00    -0.051 OA 
BRANCH  24  25
HETATM   25  C   UNL     1      -6.547  10.505  66.649  1.00  0.00    -0.094 C  
BRANCH  25  26
HETATM   26  C   UNL     1      -7.907   9.896  66.334  1.00  0.00    -0.107 C  
BRANCH  26  27
HETATM   27  C   UNL     1      -8.482  10.476  65.041  1.00  0.00    -0.166 C  
BRANCH  27  28
HETATM   28  C   UNL     1      -9.961  10.134  64.870  1.00  0.00    -0.358 C  
BRANCH  28  29
HETATM   29  C   UNL     1     -10.770  11.403  64.739  1.00  0.00    -0.362 A  
HETATM   30  C   UNL     1     -11.340  11.999  65.870  1.00  0.00    -0.391 A  
HETATM   31  C   UNL     1     -12.153  13.124  65.738  1.00  0.00    -0.502 A  
HETATM   32  C   UNL     1     -12.405  13.660  64.477  1.00  0.00    -0.402 A  
HETATM   33  C   UNL     1     -11.839  13.075  63.345  1.00  0.00    -0.543 A  
HETATM   34  C   UNL     1     -11.025  11.950  63.474  1.00  0.00    -0.505 A  
ENDBRANCH  28  29
ENDBRANCH  27  28
ENDBRANCH  26  27
ENDBRANCH  25  26
ENDBRANCH  24  25
ENDBRANCH  23  24
ENDBRANCH  22  23
ENDBRANCH  21  22
ENDBRANCH  20  21
ENDBRANCH  19  20
ENDBRANCH  18  19
ENDBRANCH  16  18
ENDBRANCH  15  16
ENDBRANCH  12  15
ENDBRANCH  10  12
ENDBRANCH   2   4
TORSDOF 16
ENDMDL
MODEL      322
REMARK 921   NORMALIZED FREE ENERGY PREDICTED BY IDOCK:   -3.94 KCAL/MOL
REMARK 922        TOTAL FREE ENERGY PREDICTED BY IDOCK:   -9.98 KCAL/MOL
REMARK 923 INTER-LIGAND FREE ENERGY PREDICTED BY IDOCK:   -8.79 KCAL/MOL
REMARK 924 INTRA-LIGAND FREE ENERGY PREDICTED BY IDOCK:   -1.19 KCAL/MOL
REMARK 927      BINDING AFFINITY PREDICTED BY RF-SCORE:    0.00 PKD
ROOT
HETATM    1  O   UNL     1     -10.582   4.319  62.848  1.00  0.00    -0.402 OA 
HETATM    2  C   UNL     1     -10.310   3.163  63.642  1.00  0.00    -0.216 C  
HETATM    3  H   UNL     1     -10.754   4.067  61.949  1.00  0.00     0.000 HD 
ENDROOT
BRANCH   2   4
HETATM    4  C   UNL     1     -10.037   3.563  65.068  1.00  0.00    -0.005 A  
HETATM    5  C   UNL     1      -9.231   2.806  65.926  1.00  0.00    -0.080 A  
HETATM    6  O   UNL     1      -8.690   1.612  65.539  1.00  0.00    -0.104 OA 
HETATM    7  C   UNL     1      -8.967   3.220  67.227  1.00  0.00    -0.180 A  
HETATM    8  C   UNL     1      -9.530   4.401  67.705  1.00  0.00    -0.207 A  
HETATM    9  H   UNL     1      -8.143   1.097  66.122  1.00  0.00     0.000 HD 
HETATM   10  C   UNL     1     -10.347   5.189  66.879  1.00  0.00    -0.288 A  
HETATM   11  C   UNL     1     -10.572   4.769  65.556  1.00  0.00    -0.169 A  
BRANCH  10  12
HETATM   12  C   UNL     1     -11.007   6.454  67.394  1.00  0.00    -0.376 C  
HETATM   13  O   UNL     1     -11.459   6.263  68.743  1.00  0.00    -0.517 OA 
HETATM   14  H   UNL     1     -11.872   7.055  69.066  1.00  0.00     0.000 HD 
BRANCH  12  15
HETATM   15  C   UNL     1     -10.053   7.668  67.353  1.00  0.00    -0.222 C  
BRANCH  15  16
HETATM   16  N   UNL     1     -10.142   8.371  66.062  1.00  0.00    -0.412 NA 
HETATM   17  H   UNL     1     -11.109   8.538  65.784  1.00  0.00     0.000 HD 
BRANCH  16  18
HETATM   18  C   UNL     1      -9.367   9.607  66.111  1.00  0.00    -0.194 C  
BRANCH  18  19
HETATM   19  C   UNL     1      -8.926   9.890  67.542  1.00  0.00    -0.141 C  
BRANCH  19  20
HETATM   20  C   UNL     1      -9.375  11.287  67.965  1.00  0.00    -0.166 C  
BRANCH  20  21
HETATM   21  C   UNL     1     -10.636  11.211  68.814  1.00  0.00    -0.233 C  
BRANCH  21  22
HETATM   22  C   UNL     1     -11.742  12.095  68.248  1.00  0.00    -0.401 C  
BRANCH  22  23
HETATM   23  C   UNL     1     -11.489  12.380  66.776  1.00  0.00    -0.362 C  
BRANCH  23  24
HETATM   24  O   UNL     1     -12.370  13.416  66.361  1.00  0.00    -0.387 OA 
BRANCH  24  25
HETATM   25  C   UNL     1     -11.653  14.590  65.987  1.00  0.00    -0.356 C  
BRANCH  25  26
HETATM   26  C   UNL     1     -10.161  14.289  66.032  1.00  0.00    -0.333 C  
BRANCH  26  27
HETATM   27  C   UNL     1      -9.415  15.332  66.865  1.00  0.00    -0.249 C  
BRANCH  27  28
HETATM   28  C   UNL     1      -8.754  16.396  65.991  1.00  0.00    -0.274 C  
BRANCH  28  29
HETATM   29  C   UNL     1      -9.117  17.773  66.493  1.00  0.00    -0.281 A  
HETATM   30  C   UNL     1     -10.435  18.070  66.856  1.00  0.00    -0.350 A  
HETATM   31  C   UNL     1     -10.785  19.363  67.243  1.00  0.00    -0.603 A  
HETATM   32  C   UNL     1      -9.821  20.370  67.267  1.00  0.00    -0.597 A  
HETATM   33  C   UNL     1      -8.504  20.083  66.910  1.00  0.00    -0.385 A  
HETATM   34  C   UNL     1      -8.152  18.790  66.524  1.00  0.00    -0.302 A  
ENDBRANCH  28  29
ENDBRANCH  27  28
ENDBRANCH  26  27
ENDBRANCH  25  26
ENDBRANCH  24  25
ENDBRANCH  23  24
ENDBRANCH  22  23
ENDBRANCH  21  22
ENDBRANCH  20  21
ENDBRANCH  19  20
ENDBRANCH  18  19
ENDBRANCH  16  18
ENDBRANCH  15  16
ENDBRANCH  12  15
ENDBRANCH  10  12
ENDBRANCH   2   4
TORSDOF 16
ENDMDL
MODEL      323
REMARK 921   NORMALIZED FREE ENERGY PREDICTED BY IDOCK:   -3.94 KCAL/MOL
REMARK 922        TOTAL FREE ENERGY PREDICTED BY IDOCK:   -9.97 KCAL/MOL
REMARK 923 INTER-LIGAND FREE ENERGY PREDICTED BY IDOCK:   -8.35 KCAL/MOL
REMARK 924 INTRA-LIGAND FREE ENERGY PREDICTED BY IDOCK:   -1.62 KCAL/MOL
REMARK 927      BINDING AFFINITY PREDICTED BY RF-SCORE:    0.00 PKD
ROOT
HETATM    1  O   UNL     1     -10.856  16.336  70.847  1.00  0.00    -0.098 OA 
HETATM    2  C   UNL     1     -11.405  15.358  69.962  1.00  0.00    -0.306 C  
HETATM    3  H   UNL     1     -10.371  16.989  70.354  1.00  0.00     0.000 HD 
ENDROOT
BRANCH   2   4
HETATM    4  C   UNL     1     -12.172  14.324  70.743  1.00  0.00    -0.423 A  
HETATM    5  C   UNL     1     -12.996  14.648  71.827  1.00  0.00    -0.335 A  
HETATM    6  O   UNL     1     -13.105  15.930  72.290  1.00  0.00    -0.449 OA 
HETATM    7  C   UNL     1     -13.721  13.675  72.505  1.00  0.00    -0.663 A  
HETATM    8  C   UNL     1     -13.616  12.341  72.121  1.00  0.00    -0.348 A  
HETATM    9  H   UNL     1     -13.664  16.151  73.026  1.00  0.00     0.000 HD 
HETATM   10  C   UNL     1     -12.798  11.970  71.041  1.00  0.00    -0.279 A  
HETATM   11  C   UNL     1     -12.101  12.975  70.347  1.00  0.00    -0.391 A  
BRANCH  10  12
HETATM   12  C   UNL     1     -12.633  10.518  70.635  1.00  0.00    -0.369 C  
HETATM   13  O   UNL     1     -12.473  10.418  69.211  1.00  0.00    -0.699 OA 
HETATM   14  H   UNL     1     -12.369   9.509  68.956  1.00  0.00     0.000 HD 
BRANCH  12  15
HETATM   15  C   UNL     1     -11.420   9.854  71.322  1.00  0.00    -0.361 C  
BRANCH  15  16
HETATM   16  N   UNL     1     -11.822   8.642  72.056  1.00  0.00    -0.347 NA 
HETATM   17  H   UNL     1     -12.379   8.013  71.478  1.00  0.00     0.000 HD 
BRANCH  16  18
HETATM   18  C   UNL     1     -10.645   7.978  72.608  1.00  0.00    -0.350 C  
BRANCH  18  19
HETATM   19  C   UNL     1      -9.969   7.135  71.535  1.00  0.00    -0.190 C  
BRANCH  19  20
HETATM   20  C   UNL     1     -10.733   5.828  71.332  1.00  0.00    -0.319 C  
BRANCH  20  21
HETATM   21  C   UNL     1     -10.466   5.260  69.946  1.00  0.00    -0.351 C  
BRANCH  21  22
HETATM   22  C   UNL     1      -9.312   4.265  69.965  1.00  0.00    -0.234 C  
BRANCH  22  23
HETATM   23  C   UNL     1      -8.691   4.150  68.581  1.00  0.00    -0.097 C  
BRANCH  23  24
HETATM   24  O   UNL     1      -9.569   3.396  67.756  1.00  0.00    -0.200 OA 
BRANCH  24  25
HETATM   25  C   UNL     1      -9.592   3.899  66.422  1.00  0.00    -0.188 C  
BRANCH  25  26
HETATM   26  C   UNL     1      -8.217   4.464  66.088  1.00  0.00    -0.102 C  
BRANCH  26  27
HETATM   27  C   UNL     1      -8.338   5.743  65.257  1.00  0.00    -0.146 C  
BRANCH  27  28
HETATM   28  C   UNL     1      -7.359   6.820  65.721  1.00  0.00    -0.075 C  
BRANCH  28  29
HETATM   29  C   UNL     1      -8.106   7.919  66.438  1.00  0.00    -0.108 A  
HETATM   30  C   UNL     1      -7.572   8.502  67.593  1.00  0.00    -0.098 A  
HETATM   31  C   UNL     1      -8.300   9.459  68.299  1.00  0.00    -0.119 A  
HETATM   32  C   UNL     1      -9.566   9.839  67.859  1.00  0.00    -0.158 A  
HETATM   33  C   UNL     1     -10.105   9.266  66.708  1.00  0.00    -0.331 A  
HETATM   34  C   UNL     1      -9.379   8.309  65.999  1.00  0.00    -0.217 A  
ENDBRANCH  28  29
ENDBRANCH  27  28
ENDBRANCH  26  27
ENDBRANCH  25  26
ENDBRANCH  24  25
ENDBRANCH  23  24
ENDBRANCH  22  23
ENDBRANCH  21  22
ENDBRANCH  20  21
ENDBRANCH  19  20
ENDBRANCH  18  19
ENDBRANCH  16  18
ENDBRANCH  15  16
ENDBRANCH  12  15
ENDBRANCH  10  12
ENDBRANCH   2   4
TORSDOF 16
ENDMDL
MODEL      324
REMARK 921   NORMALIZED FREE ENERGY PREDICTED BY IDOCK:   -3.93 KCAL/MOL
REMARK 922        TOTAL FREE ENERGY PREDICTED BY IDOCK:   -9.94 KCAL/MOL
REMARK 923 INTER-LIGAND FREE ENERGY PREDICTED BY IDOCK:   -7.72 KCAL/MOL
REMARK 924 INTRA-LIGAND FREE ENERGY PREDICTED BY IDOCK:   -2.23 KCAL/MOL
REMARK 927      BINDING AFFINITY PREDICTED BY RF-SCORE:    0.00 PKD
ROOT
HETATM    1  O   UNL     1     -11.743   6.397  69.807  1.00  0.00    -0.568 OA 
HETATM    2  C   UNL     1     -11.227   6.966  68.603  1.00  0.00    -0.009 C  
HETATM    3  H   UNL     1     -12.495   6.892  70.108  1.00  0.00     0.000 HD 
ENDROOT
BRANCH   2   4
HETATM    4  C   UNL     1     -10.034   6.182  68.125  1.00  0.00    -0.158 A  
HETATM    5  C   UNL     1      -9.470   5.134  68.863  1.00  0.00    -0.134 A  
HETATM    6  O   UNL     1      -9.933   4.797  70.104  1.00  0.00    -0.222 OA 
HETATM    7  C   UNL     1      -8.392   4.403  68.378  1.00  0.00    -0.093 A  
HETATM    8  C   UNL     1      -7.835   4.727  67.143  1.00  0.00    -0.095 A  
HETATM    9  H   UNL     1      -9.551   4.087  70.606  1.00  0.00     0.000 HD 
HETATM   10  C   UNL     1      -8.366   5.773  66.372  1.00  0.00    -0.113 A  
HETATM   11  C   UNL     1      -9.480   6.475  66.865  1.00  0.00    -0.178 A  
BRANCH  10  12
HETATM   12  C   UNL     1      -7.748   6.172  65.046  1.00  0.00    -0.099 C  
HETATM   13  O   UNL     1      -8.772   6.585  64.127  1.00  0.00    -0.310 OA 
HETATM   14  H   UNL     1      -8.385   6.835  63.296  1.00  0.00     0.000 HD 
BRANCH  12  15
HETATM   15  C   UNL     1      -6.723   7.316  65.200  1.00  0.00    -0.047 C  
BRANCH  15  16
HETATM   16  N   UNL     1      -7.340   8.624  64.924  1.00  0.00    -0.088 NA 
HETATM   17  H   UNL     1      -8.179   8.537  64.350  1.00  0.00     0.000 HD 
BRANCH  16  18
HETATM   18  C   UNL     1      -7.604   9.327  66.175  1.00  0.00    -0.096 C  
BRANCH  18  19
HETATM   19  C   UNL     1      -8.475  10.550  65.912  1.00  0.00    -0.164 C  
BRANCH  19  20
HETATM   20  C   UNL     1      -9.791  10.130  65.261  1.00  0.00    -0.388 C  
BRANCH  20  21
HETATM   21  C   UNL     1      -9.823  10.547  63.798  1.00  0.00    -0.363 C  
BRANCH  21  22
HETATM   22  C   UNL     1     -10.231  12.007  63.644  1.00  0.00    -0.470 C  
BRANCH  22  23
HETATM   23  C   UNL     1     -11.538  12.270  64.378  1.00  0.00    -0.360 C  
BRANCH  23  24
HETATM   24  O   UNL     1     -11.471  13.564  64.964  1.00  0.00    -0.306 OA 
BRANCH  24  25
HETATM   25  C   UNL     1     -11.943  13.552  66.309  1.00  0.00    -0.413 C  
BRANCH  25  26
HETATM   26  C   UNL     1     -10.759  13.756  67.246  1.00  0.00    -0.286 C  
BRANCH  26  27
HETATM   27  C   UNL     1     -10.286  12.425  67.832  1.00  0.00    -0.215 C  
BRANCH  27  28
HETATM   28  C   UNL     1     -11.453  11.569  68.320  1.00  0.00    -0.368 C  
BRANCH  28  29
HETATM   29  C   UNL     1     -11.018  10.730  69.498  1.00  0.00    -0.317 A  
HETATM   30  C   UNL     1      -9.711  10.235  69.570  1.00  0.00    -0.235 A  
HETATM   31  C   UNL     1      -9.334   9.393  70.617  1.00  0.00    -0.314 A  
HETATM   32  C   UNL     1     -10.259   9.039  71.596  1.00  0.00    -0.418 A  
HETATM   33  C   UNL     1     -11.563   9.530  71.535  1.00  0.00    -0.465 A  
HETATM   34  C   UNL     1     -11.942  10.372  70.489  1.00  0.00    -0.427 A  
ENDBRANCH  28  29
ENDBRANCH  27  28
ENDBRANCH  26  27
ENDBRANCH  25  26
ENDBRANCH  24  25
ENDBRANCH  23  24
ENDBRANCH  22  23
ENDBRANCH  21  22
ENDBRANCH  20  21
ENDBRANCH  19  20
ENDBRANCH  18  19
ENDBRANCH  16  18
ENDBRANCH  15  16
ENDBRANCH  12  15
ENDBRANCH  10  12
ENDBRANCH   2   4
TORSDOF 16
ENDMDL
MODEL      325
REMARK 921   NORMALIZED FREE ENERGY PREDICTED BY IDOCK:   -3.91 KCAL/MOL
REMARK 922        TOTAL FREE ENERGY PREDICTED BY IDOCK:   -9.92 KCAL/MOL
REMARK 923 INTER-LIGAND FREE ENERGY PREDICTED BY IDOCK:   -9.12 KCAL/MOL
REMARK 924 INTRA-LIGAND FREE ENERGY PREDICTED BY IDOCK:   -0.80 KCAL/MOL
REMARK 927      BINDING AFFINITY PREDICTED BY RF-SCORE:    0.00 PKD
ROOT
HETATM    1  O   UNL     1      -8.233  15.770  69.455  1.00  0.00    -0.238 OA 
HETATM    2  C   UNL     1      -7.888  16.908  68.663  1.00  0.00    -0.244 C  
HETATM    3  H   UNL     1      -7.591  15.644  70.144  1.00  0.00     0.000 HD 
ENDROOT
BRANCH   2   4
HETATM    4  C   UNL     1      -8.905  17.108  67.569  1.00  0.00    -0.218 A  
HETATM    5  C   UNL     1      -9.305  18.375  67.129  1.00  0.00    -0.271 A  
HETATM    6  O   UNL     1      -8.842  19.521  67.714  1.00  0.00    -0.304 OA 
HETATM    7  C   UNL     1     -10.218  18.528  66.092  1.00  0.00    -0.424 A  
HETATM    8  C   UNL     1     -10.771  17.403  65.485  1.00  0.00    -0.081 A  
HETATM    9  H   UNL     1      -9.114  20.381  67.416  1.00  0.00     0.000 HD 
HETATM   10  C   UNL     1     -10.401  16.114  65.899  1.00  0.00    -0.384 A  
HETATM   11  C   UNL     1      -9.449  15.982  66.925  1.00  0.00    -0.242 A  
BRANCH  10  12
HETATM   12  C   UNL     1     -11.025  14.875  65.283  1.00  0.00    -0.380 C  
HETATM   13  O   UNL     1     -10.172  14.352  64.253  1.00  0.00    -0.530 OA 
HETATM   14  H   UNL     1     -10.562  13.576  63.867  1.00  0.00     0.000 HD 
BRANCH  12  15
HETATM   15  C   UNL     1     -11.281  13.769  66.330  1.00  0.00    -0.306 C  
BRANCH  15  16
HETATM   16  N   UNL     1     -12.098  14.272  67.446  1.00  0.00    -0.567 NA 
HETATM   17  H   UNL     1     -13.097  14.180  67.260  1.00  0.00     0.000 HD 
BRANCH  16  18
HETATM   18  C   UNL     1     -11.710  13.610  68.688  1.00  0.00    -0.354 C  
BRANCH  18  19
HETATM   19  C   UNL     1     -12.034  14.503  69.879  1.00  0.00    -0.382 C  
BRANCH  19  20
HETATM   20  C   UNL     1     -12.561  13.663  71.040  1.00  0.00    -0.441 C  
BRANCH  20  21
HETATM   21  C   UNL     1     -12.489  12.180  70.706  1.00  0.00    -0.362 C  
BRANCH  21  22
HETATM   22  C   UNL     1     -13.254  11.343  71.724  1.00  0.00    -0.472 C  
BRANCH  22  23
HETATM   23  C   UNL     1     -12.736   9.913  71.728  1.00  0.00    -0.428 C  
BRANCH  23  24
HETATM   24  O   UNL     1     -13.836   9.035  71.522  1.00  0.00    -0.380 OA 
BRANCH  24  25
HETATM   25  C   UNL     1     -13.454   7.672  71.691  1.00  0.00    -0.358 C  
BRANCH  25  26
HETATM   26  C   UNL     1     -12.017   7.624  72.195  1.00  0.00    -0.344 C  
BRANCH  26  27
HETATM   27  C   UNL     1     -11.329   6.327  71.767  1.00  0.00    -0.346 C  
BRANCH  27  28
HETATM   28  C   UNL     1     -10.008   6.112  72.503  1.00  0.00    -0.188 C  
BRANCH  28  29
HETATM   29  C   UNL     1      -9.770   4.635  72.710  1.00  0.00    -0.176 A  
HETATM   30  C   UNL     1      -9.261   4.163  73.925  1.00  0.00    -0.096 A  
HETATM   31  C   UNL     1      -8.966   2.809  74.087  1.00  0.00    -0.081 A  
HETATM   32  C   UNL     1      -9.174   1.919  73.036  1.00  0.00    -0.089 A  
HETATM   33  C   UNL     1      -9.684   2.379  71.823  1.00  0.00    -0.220 A  
HETATM   34  C   UNL     1      -9.981   3.732  71.658  1.00  0.00    -0.211 A  
ENDBRANCH  28  29
ENDBRANCH  27  28
ENDBRANCH  26  27
ENDBRANCH  25  26
ENDBRANCH  24  25
ENDBRANCH  23  24
ENDBRANCH  22  23
ENDBRANCH  21  22
ENDBRANCH  20  21
ENDBRANCH  19  20
ENDBRANCH  18  19
ENDBRANCH  16  18
ENDBRANCH  15  16
ENDBRANCH  12  15
ENDBRANCH  10  12
ENDBRANCH   2   4
TORSDOF 16
ENDMDL
MODEL      326
REMARK 921   NORMALIZED FREE ENERGY PREDICTED BY IDOCK:   -3.89 KCAL/MOL
REMARK 922        TOTAL FREE ENERGY PREDICTED BY IDOCK:   -9.88 KCAL/MOL
REMARK 923 INTER-LIGAND FREE ENERGY PREDICTED BY IDOCK:   -8.46 KCAL/MOL
REMARK 924 INTRA-LIGAND FREE ENERGY PREDICTED BY IDOCK:   -1.42 KCAL/MOL
REMARK 927      BINDING AFFINITY PREDICTED BY RF-SCORE:    0.00 PKD
ROOT
HETATM    1  O   UNL     1     -11.663   6.470  67.463  1.00  0.00    -0.596 OA 
HETATM    2  C   UNL     1     -10.720   5.689  66.728  1.00  0.00    -0.284 C  
HETATM    3  H   UNL     1     -12.543   6.308  67.144  1.00  0.00     0.000 HD 
ENDROOT
BRANCH   2   4
HETATM    4  C   UNL     1      -9.324   5.946  67.233  1.00  0.00    -0.113 A  
HETATM    5  C   UNL     1      -8.960   5.774  68.574  1.00  0.00    -0.112 A  
HETATM    6  O   UNL     1      -9.873   5.422  69.529  1.00  0.00    -0.162 OA 
HETATM    7  C   UNL     1      -7.655   5.983  69.004  1.00  0.00    -0.091 A  
HETATM    8  C   UNL     1      -6.685   6.396  68.095  1.00  0.00    -0.068 A  
HETATM    9  H   UNL     1      -9.627   5.305  70.439  1.00  0.00     0.000 HD 
HETATM   10  C   UNL     1      -7.007   6.585  66.742  1.00  0.00    -0.067 A  
HETATM   11  C   UNL     1      -8.325   6.333  66.322  1.00  0.00    -0.122 A  
BRANCH  10  12
HETATM   12  C   UNL     1      -5.977   7.078  65.743  1.00  0.00    -0.036 C  
HETATM   13  O   UNL     1      -6.458   6.891  64.403  1.00  0.00    -0.035 OA 
HETATM   14  H   UNL     1      -5.813   7.200  63.778  1.00  0.00     0.000 HD 
BRANCH  12  15
HETATM   15  C   UNL     1      -5.633   8.569  65.948  1.00  0.00    -0.045 C  
BRANCH  15  16
HETATM   16  N   UNL     1      -6.547   9.436  65.186  1.00  0.00    -0.077 NA 
HETATM   17  H   UNL     1      -7.015   8.930  64.435  1.00  0.00     0.000 HD 
BRANCH  16  18
HETATM   18  C   UNL     1      -7.498  10.077  66.089  1.00  0.00    -0.109 C  
BRANCH  18  19
HETATM   19  C   UNL     1      -8.542  10.844  65.288  1.00  0.00    -0.103 C  
BRANCH  19  20
HETATM   20  C   UNL     1      -9.574   9.880  64.707  1.00  0.00    -0.339 C  
BRANCH  20  21
HETATM   21  C   UNL     1     -10.265  10.496  63.499  1.00  0.00    -0.073 C  
BRANCH  21  22
HETATM   22  C   UNL     1     -10.466  11.996  63.677  1.00  0.00    -0.494 C  
BRANCH  22  23
HETATM   23  C   UNL     1     -11.945  12.317  63.822  1.00  0.00    -0.519 C  
BRANCH  23  24
HETATM   24  O   UNL     1     -12.083  13.396  64.739  1.00  0.00    -0.371 OA 
BRANCH  24  25
HETATM   25  C   UNL     1     -12.153  12.930  66.084  1.00  0.00    -0.393 C  
BRANCH  25  26
HETATM   26  C   UNL     1     -11.943  14.111  67.024  1.00  0.00    -0.471 C  
BRANCH  26  27
HETATM   27  C   UNL     1     -11.674  13.635  68.452  1.00  0.00    -0.393 C  
BRANCH  27  28
HETATM   28  C   UNL     1     -11.137  14.758  69.337  1.00  0.00    -0.302 C  
BRANCH  28  29
HETATM   29  C   UNL     1     -11.840  14.741  70.673  1.00  0.00    -0.364 A  
HETATM   30  C   UNL     1     -11.560  15.719  71.634  1.00  0.00    -0.537 A  
HETATM   31  C   UNL     1     -12.151  15.655  72.896  1.00  0.00    -0.583 A  
HETATM   32  C   UNL     1     -13.022  14.614  73.208  1.00  0.00    -0.569 A  
HETATM   33  C   UNL     1     -13.310  13.637  72.257  1.00  0.00    -0.622 A  
HETATM   34  C   UNL     1     -12.722  13.698  70.993  1.00  0.00    -0.408 A  
ENDBRANCH  28  29
ENDBRANCH  27  28
ENDBRANCH  26  27
ENDBRANCH  25  26
ENDBRANCH  24  25
ENDBRANCH  23  24
ENDBRANCH  22  23
ENDBRANCH  21  22
ENDBRANCH  20  21
ENDBRANCH  19  20
ENDBRANCH  18  19
ENDBRANCH  16  18
ENDBRANCH  15  16
ENDBRANCH  12  15
ENDBRANCH  10  12
ENDBRANCH   2   4
TORSDOF 16
ENDMDL
MODEL      327
REMARK 921   NORMALIZED FREE ENERGY PREDICTED BY IDOCK:   -3.88 KCAL/MOL
REMARK 922        TOTAL FREE ENERGY PREDICTED BY IDOCK:   -9.86 KCAL/MOL
REMARK 923 INTER-LIGAND FREE ENERGY PREDICTED BY IDOCK:   -8.19 KCAL/MOL
REMARK 924 INTRA-LIGAND FREE ENERGY PREDICTED BY IDOCK:   -1.67 KCAL/MOL
REMARK 927      BINDING AFFINITY PREDICTED BY RF-SCORE:    0.00 PKD
ROOT
HETATM    1  O   UNL     1     -11.658  16.514  71.011  1.00  0.00    -0.598 OA 
HETATM    2  C   UNL     1     -12.006  15.562  70.005  1.00  0.00    -0.364 C  
HETATM    3  H   UNL     1     -11.414  17.340  70.611  1.00  0.00     0.000 HD 
ENDROOT
BRANCH   2   4
HETATM    4  C   UNL     1     -12.393  14.252  70.640  1.00  0.00    -0.431 A  
HETATM    5  C   UNL     1     -13.202  14.171  71.779  1.00  0.00    -0.373 A  
HETATM    6  O   UNL     1     -13.642  15.289  72.431  1.00  0.00    -0.401 OA 
HETATM    7  C   UNL     1     -13.573  12.946  72.321  1.00  0.00    -0.611 A  
HETATM    8  C   UNL     1     -13.116  11.765  71.739  1.00  0.00    -0.480 A  
HETATM    9  H   UNL     1     -14.190  15.235  73.205  1.00  0.00     0.000 HD 
HETATM   10  C   UNL     1     -12.299  11.801  70.598  1.00  0.00    -0.421 A  
HETATM   11  C   UNL     1     -11.966  13.050  70.046  1.00  0.00    -0.383 A  
BRANCH  10  12
HETATM   12  C   UNL     1     -11.754  10.529  69.975  1.00  0.00    -0.312 C  
HETATM   13  O   UNL     1     -12.159  10.439  68.600  1.00  0.00    -0.751 OA 
HETATM   14  H   UNL     1     -11.817   9.643  68.210  1.00  0.00     0.000 HD 
BRANCH  12  15
HETATM   15  C   UNL     1     -10.213  10.459  70.048  1.00  0.00    -0.081 C  
BRANCH  15  16
HETATM   16  N   UNL     1      -9.766   9.199  70.666  1.00  0.00    -0.235 NA 
HETATM   17  H   UNL     1     -10.072   8.384  70.135  1.00  0.00     0.000 HD 
BRANCH  16  18
HETATM   18  C   UNL     1      -8.319   9.219  70.852  1.00  0.00    -0.145 C  
BRANCH  18  19
HETATM   19  C   UNL     1      -7.704   7.941  70.296  1.00  0.00    -0.088 C  
BRANCH  19  20
HETATM   20  C   UNL     1      -6.453   8.268  69.484  1.00  0.00    -0.037 C  
BRANCH  20  21
HETATM   21  C   UNL     1      -6.609   7.801  68.044  1.00  0.00    -0.056 C  
BRANCH  21  22
HETATM   22  C   UNL     1      -7.027   8.946  67.129  1.00  0.00    -0.075 C  
BRANCH  22  23
HETATM   23  C   UNL     1      -8.543   9.025  67.042  1.00  0.00    -0.116 C  
BRANCH  23  24
HETATM   24  O   UNL     1      -9.003   7.957  66.224  1.00  0.00    -0.156 OA 
BRANCH  24  25
HETATM   25  C   UNL     1     -10.334   7.576  66.564  1.00  0.00    -0.043 C  
BRANCH  25  26
HETATM   26  C   UNL     1     -10.447   7.490  68.080  1.00  0.00    -0.233 C  
BRANCH  26  27
HETATM   27  C   UNL     1     -10.966   6.118  68.515  1.00  0.00    -0.404 C  
BRANCH  27  28
HETATM   28  C   UNL     1     -10.335   5.658  69.828  1.00  0.00    -0.352 C  
BRANCH  28  29
HETATM   29  C   UNL     1      -9.794   4.256  69.675  1.00  0.00    -0.244 A  
HETATM   30  C   UNL     1      -9.401   3.522  70.799  1.00  0.00    -0.227 A  
HETATM   31  C   UNL     1      -8.827   2.259  70.650  1.00  0.00    -0.133 A  
HETATM   32  C   UNL     1      -8.639   1.723  69.378  1.00  0.00    -0.095 A  
HETATM   33  C   UNL     1      -9.031   2.446  68.252  1.00  0.00    -0.187 A  
HETATM   34  C   UNL     1      -9.606   3.708  68.398  1.00  0.00    -0.164 A  
ENDBRANCH  28  29
ENDBRANCH  27  28
ENDBRANCH  26  27
ENDBRANCH  25  26
ENDBRANCH  24  25
ENDBRANCH  23  24
ENDBRANCH  22  23
ENDBRANCH  21  22
ENDBRANCH  20  21
ENDBRANCH  19  20
ENDBRANCH  18  19
ENDBRANCH  16  18
ENDBRANCH  15  16
ENDBRANCH  12  15
ENDBRANCH  10  12
ENDBRANCH   2   4
TORSDOF 16
ENDMDL
MODEL      328
REMARK 921   NORMALIZED FREE ENERGY PREDICTED BY IDOCK:   -3.88 KCAL/MOL
REMARK 922        TOTAL FREE ENERGY PREDICTED BY IDOCK:   -9.86 KCAL/MOL
REMARK 923 INTER-LIGAND FREE ENERGY PREDICTED BY IDOCK:   -8.97 KCAL/MOL
REMARK 924 INTRA-LIGAND FREE ENERGY PREDICTED BY IDOCK:   -0.89 KCAL/MOL
REMARK 927      BINDING AFFINITY PREDICTED BY RF-SCORE:    0.00 PKD
ROOT
HETATM    1  O   UNL     1      -8.229  15.805  69.471  1.00  0.00    -0.239 OA 
HETATM    2  C   UNL     1      -7.833  16.964  68.737  1.00  0.00    -0.250 C  
HETATM    3  H   UNL     1      -7.586  15.605  70.142  1.00  0.00     0.000 HD 
ENDROOT
BRANCH   2   4
HETATM    4  C   UNL     1      -8.852  17.281  67.674  1.00  0.00    -0.220 A  
HETATM    5  C   UNL     1      -9.163  18.590  67.288  1.00  0.00    -0.276 A  
HETATM    6  O   UNL     1      -8.604  19.675  67.904  1.00  0.00    -0.306 OA 
HETATM    7  C   UNL     1     -10.082  18.849  66.278  1.00  0.00    -0.460 A  
HETATM    8  C   UNL     1     -10.730  17.793  65.643  1.00  0.00    -0.064 A  
HETATM    9  H   UNL     1      -8.815  20.563  67.643  1.00  0.00     0.000 HD 
HETATM   10  C   UNL     1     -10.451  16.464  66.002  1.00  0.00    -0.333 A  
HETATM   11  C   UNL     1      -9.492  16.224  67.002  1.00  0.00    -0.237 A  
BRANCH  10  12
HETATM   12  C   UNL     1     -11.179  15.300  65.356  1.00  0.00    -0.307 C  
HETATM   13  O   UNL     1     -10.407  14.780  64.262  1.00  0.00    -0.392 OA 
HETATM   14  H   UNL     1     -10.862  14.051  63.858  1.00  0.00     0.000 HD 
BRANCH  12  15
HETATM   15  C   UNL     1     -11.458  14.159  66.358  1.00  0.00    -0.354 C  
BRANCH  15  16
HETATM   16  N   UNL     1     -12.194  14.652  67.534  1.00  0.00    -0.571 NA 
HETATM   17  H   UNL     1     -13.204  14.615  67.396  1.00  0.00     0.000 HD 
BRANCH  16  18
HETATM   18  C   UNL     1     -11.779  13.920  68.727  1.00  0.00    -0.357 C  
BRANCH  18  19
HETATM   19  C   UNL     1     -12.084  14.739  69.975  1.00  0.00    -0.380 C  
BRANCH  19  20
HETATM   20  C   UNL     1     -12.582  13.828  71.094  1.00  0.00    -0.452 C  
BRANCH  20  21
HETATM   21  C   UNL     1     -12.447  12.365  70.697  1.00  0.00    -0.320 C  
BRANCH  21  22
HETATM   22  C   UNL     1     -13.210  11.456  71.653  1.00  0.00    -0.413 C  
BRANCH  22  23
HETATM   23  C   UNL     1     -12.561  10.081  71.705  1.00  0.00    -0.409 C  
BRANCH  23  24
HETATM   24  O   UNL     1     -13.552   9.105  71.408  1.00  0.00    -0.356 OA 
BRANCH  24  25
HETATM   25  C   UNL     1     -13.058   7.783  71.610  1.00  0.00    -0.345 C  
BRANCH  25  26
HETATM   26  C   UNL     1     -11.763   7.618  70.825  1.00  0.00    -0.260 C  
BRANCH  26  27
HETATM   27  C   UNL     1     -11.313   6.156  70.812  1.00  0.00    -0.364 C  
BRANCH  27  28
HETATM   28  C   UNL     1      -9.854   6.012  70.384  1.00  0.00    -0.222 C  
BRANCH  28  29
HETATM   29  C   UNL     1      -9.730   6.237  68.895  1.00  0.00    -0.144 A  
HETATM   30  C   UNL     1     -10.633   5.638  68.011  1.00  0.00    -0.260 A  
HETATM   31  C   UNL     1     -10.470   5.781  66.633  1.00  0.00    -0.330 A  
HETATM   32  C   UNL     1      -9.402   6.522  66.129  1.00  0.00    -0.101 A  
HETATM   33  C   UNL     1      -8.499   7.126  67.003  1.00  0.00    -0.122 A  
HETATM   34  C   UNL     1      -8.661   6.985  68.382  1.00  0.00    -0.126 A  
ENDBRANCH  28  29
ENDBRANCH  27  28
ENDBRANCH  26  27
ENDBRANCH  25  26
ENDBRANCH  24  25
ENDBRANCH  23  24
ENDBRANCH  22  23
ENDBRANCH  21  22
ENDBRANCH  20  21
ENDBRANCH  19  20
ENDBRANCH  18  19
ENDBRANCH  16  18
ENDBRANCH  15  16
ENDBRANCH  12  15
ENDBRANCH  10  12
ENDBRANCH   2   4
TORSDOF 16
ENDMDL
MODEL      329
REMARK 921   NORMALIZED FREE ENERGY PREDICTED BY IDOCK:   -3.87 KCAL/MOL
REMARK 922        TOTAL FREE ENERGY PREDICTED BY IDOCK:   -9.84 KCAL/MOL
REMARK 923 INTER-LIGAND FREE ENERGY PREDICTED BY IDOCK:   -8.95 KCAL/MOL
REMARK 924 INTRA-LIGAND FREE ENERGY PREDICTED BY IDOCK:   -0.89 KCAL/MOL
REMARK 927      BINDING AFFINITY PREDICTED BY RF-SCORE:    0.00 PKD
ROOT
HETATM    1  O   UNL     1     -10.992  17.607  64.887  1.00  0.00    -0.886 OA 
HETATM    2  C   UNL     1     -10.181  16.761  65.703  1.00  0.00    -0.236 C  
HETATM    3  H   UNL     1     -10.645  18.492  64.886  1.00  0.00     0.000 HD 
ENDROOT
BRANCH   2   4
HETATM    4  C   UNL     1     -10.730  15.359  65.706  1.00  0.00    -0.360 A  
HETATM    5  C   UNL     1     -11.615  14.890  64.728  1.00  0.00    -0.410 A  
HETATM    6  O   UNL     1     -12.091  15.703  63.737  1.00  0.00    -1.013 OA 
HETATM    7  C   UNL     1     -12.076  13.578  64.735  1.00  0.00    -0.442 A  
HETATM    8  C   UNL     1     -11.675  12.709  65.746  1.00  0.00    -0.466 A  
HETATM    9  H   UNL     1     -12.692  15.385  63.074  1.00  0.00     0.000 HD 
HETATM   10  C   UNL     1     -10.791  13.139  66.749  1.00  0.00    -0.289 A  
HETATM   11  C   UNL     1     -10.309  14.459  66.702  1.00  0.00    -0.275 A  
BRANCH  10  12
HETATM   12  C   UNL     1     -10.376  12.223  67.885  1.00  0.00    -0.208 C  
HETATM   13  O   UNL     1      -9.705  12.976  68.908  1.00  0.00    -0.410 OA 
HETATM   14  H   UNL     1      -9.445  12.403  69.619  1.00  0.00     0.000 HD 
BRANCH  12  15
HETATM   15  C   UNL     1     -11.581  11.490  68.513  1.00  0.00    -0.313 C  
BRANCH  15  16
HETATM   16  N   UNL     1     -11.331  10.042  68.612  1.00  0.00    -0.494 NA 
HETATM   17  H   UNL     1     -10.796   9.692  67.817  1.00  0.00     0.000 HD 
BRANCH  16  18
HETATM   18  C   UNL     1     -10.686   9.730  69.883  1.00  0.00    -0.268 C  
BRANCH  18  19
HETATM   19  C   UNL     1     -11.713   9.190  70.871  1.00  0.00    -0.341 C  
BRANCH  19  20
HETATM   20  C   UNL     1     -11.237   7.860  71.451  1.00  0.00    -0.280 C  
BRANCH  20  21
HETATM   21  C   UNL     1     -10.887   8.011  72.924  1.00  0.00    -0.399 C  
BRANCH  21  22
HETATM   22  C   UNL     1      -9.928   6.919  73.382  1.00  0.00    -0.265 C  
BRANCH  22  23
HETATM   23  C   UNL     1      -9.059   6.457  72.223  1.00  0.00    -0.139 C  
BRANCH  23  24
HETATM   24  O   UNL     1      -8.900   5.047  72.314  1.00  0.00    -0.127 OA 
BRANCH  24  25
HETATM   25  C   UNL     1      -7.676   4.621  71.720  1.00  0.00    -0.096 C  
BRANCH  25  26
HETATM   26  C   UNL     1      -7.891   3.257  71.078  1.00  0.00    -0.050 C  
BRANCH  26  27
HETATM   27  C   UNL     1      -9.330   3.104  70.582  1.00  0.00    -0.225 C  
BRANCH  27  28
HETATM   28  C   UNL     1      -9.426   2.149  69.394  1.00  0.00    -0.119 C  
BRANCH  28  29
HETATM   29  C   UNL     1      -9.256   2.915  68.104  1.00  0.00    -0.248 A  
HETATM   30  C   UNL     1      -9.915   4.135  67.912  1.00  0.00    -0.021 A  
HETATM   31  C   UNL     1      -9.821   4.801  66.690  1.00  0.00    -0.233 A  
HETATM   32  C   UNL     1      -9.071   4.253  65.651  1.00  0.00    -0.136 A  
HETATM   33  C   UNL     1      -8.409   3.040  65.834  1.00  0.00    -0.098 A  
HETATM   34  C   UNL     1      -8.500   2.372  67.055  1.00  0.00    -0.105 A  
ENDBRANCH  28  29
ENDBRANCH  27  28
ENDBRANCH  26  27
ENDBRANCH  25  26
ENDBRANCH  24  25
ENDBRANCH  23  24
ENDBRANCH  22  23
ENDBRANCH  21  22
ENDBRANCH  20  21
ENDBRANCH  19  20
ENDBRANCH  18  19
ENDBRANCH  16  18
ENDBRANCH  15  16
ENDBRANCH  12  15
ENDBRANCH  10  12
ENDBRANCH   2   4
TORSDOF 16
ENDMDL
MODEL      330
REMARK 921   NORMALIZED FREE ENERGY PREDICTED BY IDOCK:   -3.86 KCAL/MOL
REMARK 922        TOTAL FREE ENERGY PREDICTED BY IDOCK:   -9.83 KCAL/MOL
REMARK 923 INTER-LIGAND FREE ENERGY PREDICTED BY IDOCK:   -8.77 KCAL/MOL
REMARK 924 INTRA-LIGAND FREE ENERGY PREDICTED BY IDOCK:   -1.06 KCAL/MOL
REMARK 927      BINDING AFFINITY PREDICTED BY RF-SCORE:    0.00 PKD
ROOT
HETATM    1  O   UNL     1      -8.462  20.521  68.529  1.00  0.00     0.258 OA 
HETATM    2  C   UNL     1      -8.583  19.513  67.524  1.00  0.00    -0.307 C  
HETATM    3  H   UNL     1      -8.887  21.322  68.243  1.00  0.00     0.000 HD 
ENDROOT
BRANCH   2   4
HETATM    4  C   UNL     1      -7.910  18.244  67.977  1.00  0.00    -0.274 A  
HETATM    5  C   UNL     1      -6.790  18.237  68.817  1.00  0.00    -0.260 A  
HETATM    6  O   UNL     1      -6.193  19.396  69.230  1.00  0.00    -0.262 OA 
HETATM    7  C   UNL     1      -6.213  17.049  69.248  1.00  0.00    -0.222 A  
HETATM    8  C   UNL     1      -6.737  15.831  68.823  1.00  0.00    -0.119 A  
HETATM    9  H   UNL     1      -5.433  19.392  69.800  1.00  0.00     0.000 HD 
HETATM   10  C   UNL     1      -7.856  15.791  67.977  1.00  0.00    -0.138 A  
HETATM   11  C   UNL     1      -8.446  17.005  67.582  1.00  0.00    -0.210 A  
BRANCH  10  12
HETATM   12  C   UNL     1      -8.416  14.477  67.465  1.00  0.00    -0.190 C  
HETATM   13  O   UNL     1      -7.353  13.532  67.263  1.00  0.00    -0.311 OA 
HETATM   14  H   UNL     1      -7.703  12.709  66.943  1.00  0.00     0.000 HD 
BRANCH  12  15
HETATM   15  C   UNL     1      -9.451  13.866  68.434  1.00  0.00    -0.211 C  
BRANCH  15  16
HETATM   16  N   UNL     1     -10.050  14.900  69.294  1.00  0.00    -0.305 NA 
HETATM   17  H   UNL     1      -9.823  15.841  68.974  1.00  0.00     0.000 HD 
BRANCH  16  18
HETATM   18  C   UNL     1     -11.491  14.691  69.398  1.00  0.00    -0.296 C  
BRANCH  18  19
HETATM   19  C   UNL     1     -12.087  15.658  70.413  1.00  0.00    -0.425 C  
BRANCH  19  20
HETATM   20  C   UNL     1     -13.309  15.034  71.082  1.00  0.00    -0.510 C  
BRANCH  20  21
HETATM   21  C   UNL     1     -12.948  14.478  72.452  1.00  0.00    -0.469 C  
BRANCH  21  22
HETATM   22  C   UNL     1     -13.353  13.015  72.584  1.00  0.00    -0.285 C  
BRANCH  22  23
HETATM   23  C   UNL     1     -12.865  12.221  71.382  1.00  0.00    -0.271 C  
BRANCH  23  24
HETATM   24  O   UNL     1     -12.985  10.836  71.681  1.00  0.00    -0.430 OA 
BRANCH  24  25
HETATM   25  C   UNL     1     -12.566  10.028  70.583  1.00  0.00    -0.220 C  
BRANCH  25  26
HETATM   26  C   UNL     1     -11.570  10.820  69.744  1.00  0.00    -0.393 C  
BRANCH  26  27
HETATM   27  C   UNL     1     -11.776  10.552  68.252  1.00  0.00    -0.051 C  
BRANCH  27  28
HETATM   28  C   UNL     1     -10.578  11.008  67.420  1.00  0.00    -0.276 C  
BRANCH  28  29
HETATM   29  C   UNL     1     -11.057  11.707  66.170  1.00  0.00    -0.335 A  
HETATM   30  C   UNL     1     -12.099  12.638  66.235  1.00  0.00    -0.358 A  
HETATM   31  C   UNL     1     -12.594  13.223  65.069  1.00  0.00    -0.483 A  
HETATM   32  C   UNL     1     -12.053  12.881  63.831  1.00  0.00    -0.553 A  
HETATM   33  C   UNL     1     -11.012  11.957  63.757  1.00  0.00    -0.494 A  
HETATM   34  C   UNL     1     -10.515  11.370  64.922  1.00  0.00    -0.363 A  
ENDBRANCH  28  29
ENDBRANCH  27  28
ENDBRANCH  26  27
ENDBRANCH  25  26
ENDBRANCH  24  25
ENDBRANCH  23  24
ENDBRANCH  22  23
ENDBRANCH  21  22
ENDBRANCH  20  21
ENDBRANCH  19  20
ENDBRANCH  18  19
ENDBRANCH  16  18
ENDBRANCH  15  16
ENDBRANCH  12  15
ENDBRANCH  10  12
ENDBRANCH   2   4
TORSDOF 16
ENDMDL
MODEL      331
REMARK 921   NORMALIZED FREE ENERGY PREDICTED BY IDOCK:   -3.86 KCAL/MOL
REMARK 922        TOTAL FREE ENERGY PREDICTED BY IDOCK:   -9.82 KCAL/MOL
REMARK 923 INTER-LIGAND FREE ENERGY PREDICTED BY IDOCK:   -9.24 KCAL/MOL
REMARK 924 INTRA-LIGAND FREE ENERGY PREDICTED BY IDOCK:   -0.59 KCAL/MOL
REMARK 927      BINDING AFFINITY PREDICTED BY RF-SCORE:    0.00 PKD
ROOT
HETATM    1  O   UNL     1      -5.984   3.755  65.538  1.00  0.00    -0.022 OA 
HETATM    2  C   UNL     1      -6.302   4.919  66.301  1.00  0.00    -0.036 C  
HETATM    3  H   UNL     1      -5.041   3.666  65.452  1.00  0.00     0.000 HD 
ENDROOT
BRANCH   2   4
HETATM    4  C   UNL     1      -7.795   5.061  66.436  1.00  0.00    -0.099 A  
HETATM    5  C   UNL     1      -8.700   4.308  65.679  1.00  0.00    -0.120 A  
HETATM    6  O   UNL     1      -8.280   3.435  64.713  1.00  0.00    -0.089 OA 
HETATM    7  C   UNL     1     -10.073   4.433  65.852  1.00  0.00    -0.262 A  
HETATM    8  C   UNL     1     -10.573   5.342  66.781  1.00  0.00    -0.339 A  
HETATM    9  H   UNL     1      -8.893   2.925  64.198  1.00  0.00     0.000 HD 
HETATM   10  C   UNL     1      -9.702   6.121  67.560  1.00  0.00    -0.126 A  
HETATM   11  C   UNL     1      -8.316   5.951  67.393  1.00  0.00    -0.105 A  
BRANCH  10  12
HETATM   12  C   UNL     1     -10.224   7.149  68.545  1.00  0.00    -0.175 C  
HETATM   13  O   UNL     1     -11.278   7.919  67.944  1.00  0.00    -0.375 OA 
HETATM   14  H   UNL     1     -11.605   8.563  68.561  1.00  0.00     0.000 HD 
BRANCH  12  15
HETATM   15  C   UNL     1     -10.756   6.499  69.840  1.00  0.00    -0.257 C  
BRANCH  15  16
HETATM   16  N   UNL     1     -12.105   6.990  70.167  1.00  0.00    -0.623 NA 
HETATM   17  H   UNL     1     -12.776   6.228  70.262  1.00  0.00     0.000 HD 
BRANCH  16  18
HETATM   18  C   UNL     1     -12.057   7.827  71.362  1.00  0.00    -0.311 C  
BRANCH  18  19
HETATM   19  C   UNL     1     -13.428   8.437  71.627  1.00  0.00    -0.363 C  
BRANCH  19  20
HETATM   20  C   UNL     1     -13.280   9.762  72.373  1.00  0.00    -0.363 C  
BRANCH  20  21
HETATM   21  C   UNL     1     -12.883  10.875  71.415  1.00  0.00    -0.554 C  
BRANCH  21  22
HETATM   22  C   UNL     1     -13.151  12.249  72.017  1.00  0.00    -0.461 C  
BRANCH  22  23
HETATM   23  C   UNL     1     -12.657  13.342  71.081  1.00  0.00    -0.325 C  
BRANCH  23  24
HETATM   24  O   UNL     1     -13.209  14.582  71.507  1.00  0.00    -0.325 OA 
BRANCH  24  25
HETATM   25  C   UNL     1     -12.593  15.682  70.841  1.00  0.00    -0.449 C  
BRANCH  25  26
HETATM   26  C   UNL     1     -11.959  15.181  69.550  1.00  0.00    -0.351 C  
BRANCH  26  27
HETATM   27  C   UNL     1     -10.712  15.995  69.199  1.00  0.00    -0.272 C  
BRANCH  27  28
HETATM   28  C   UNL     1     -10.702  16.422  67.733  1.00  0.00    -0.328 C  
BRANCH  28  29
HETATM   29  C   UNL     1     -10.060  17.782  67.598  1.00  0.00    -0.342 A  
HETATM   30  C   UNL     1     -10.443  18.647  66.567  1.00  0.00    -0.465 A  
HETATM   31  C   UNL     1      -9.793  19.869  66.396  1.00  0.00    -0.572 A  
HETATM   32  C   UNL     1      -8.754  20.234  67.249  1.00  0.00    -0.441 A  
HETATM   33  C   UNL     1      -8.367  19.379  68.281  1.00  0.00    -0.379 A  
HETATM   34  C   UNL     1      -9.016  18.157  68.455  1.00  0.00    -0.309 A  
ENDBRANCH  28  29
ENDBRANCH  27  28
ENDBRANCH  26  27
ENDBRANCH  25  26
ENDBRANCH  24  25
ENDBRANCH  23  24
ENDBRANCH  22  23
ENDBRANCH  21  22
ENDBRANCH  20  21
ENDBRANCH  19  20
ENDBRANCH  18  19
ENDBRANCH  16  18
ENDBRANCH  15  16
ENDBRANCH  12  15
ENDBRANCH  10  12
ENDBRANCH   2   4
TORSDOF 16
ENDMDL
MODEL      332
REMARK 921   NORMALIZED FREE ENERGY PREDICTED BY IDOCK:   -3.86 KCAL/MOL
REMARK 922        TOTAL FREE ENERGY PREDICTED BY IDOCK:   -9.81 KCAL/MOL
REMARK 923 INTER-LIGAND FREE ENERGY PREDICTED BY IDOCK:   -8.87 KCAL/MOL
REMARK 924 INTRA-LIGAND FREE ENERGY PREDICTED BY IDOCK:   -0.94 KCAL/MOL
REMARK 927      BINDING AFFINITY PREDICTED BY RF-SCORE:    0.00 PKD
ROOT
HETATM    1  O   UNL     1      -8.229  15.770  69.453  1.00  0.00    -0.238 OA 
HETATM    2  C   UNL     1      -7.881  16.906  68.661  1.00  0.00    -0.244 C  
HETATM    3  H   UNL     1      -7.591  15.646  70.147  1.00  0.00     0.000 HD 
ENDROOT
BRANCH   2   4
HETATM    4  C   UNL     1      -8.892  17.104  67.562  1.00  0.00    -0.218 A  
HETATM    5  C   UNL     1      -9.294  18.370  67.119  1.00  0.00    -0.271 A  
HETATM    6  O   UNL     1      -8.836  19.516  67.707  1.00  0.00    -0.304 OA 
HETATM    7  C   UNL     1     -10.201  18.520  66.077  1.00  0.00    -0.371 A  
HETATM    8  C   UNL     1     -10.749  17.394  65.468  1.00  0.00    -0.081 A  
HETATM    9  H   UNL     1      -9.109  20.376  67.407  1.00  0.00     0.000 HD 
HETATM   10  C   UNL     1     -10.377  16.105  65.884  1.00  0.00    -0.384 A  
HETATM   11  C   UNL     1      -9.431  15.976  66.915  1.00  0.00    -0.242 A  
BRANCH  10  12
HETATM   12  C   UNL     1     -10.995  14.865  65.265  1.00  0.00    -0.380 C  
HETATM   13  O   UNL     1     -10.142  14.352  64.230  1.00  0.00    -0.532 OA 
HETATM   14  H   UNL     1     -10.529  13.575  63.842  1.00  0.00     0.000 HD 
BRANCH  12  15
HETATM   15  C   UNL     1     -11.240  13.753  66.308  1.00  0.00    -0.306 C  
BRANCH  15  16
HETATM   16  N   UNL     1     -12.049  14.248  67.434  1.00  0.00    -0.567 NA 
HETATM   17  H   UNL     1     -13.049  14.153  67.256  1.00  0.00     0.000 HD 
BRANCH  16  18
HETATM   18  C   UNL     1     -11.648  13.582  68.669  1.00  0.00    -0.330 C  
BRANCH  18  19
HETATM   19  C   UNL     1     -11.963  14.471  69.867  1.00  0.00    -0.382 C  
BRANCH  19  20
HETATM   20  C   UNL     1     -12.475  13.625  71.030  1.00  0.00    -0.456 C  
BRANCH  20  21
HETATM   21  C   UNL     1     -12.402  12.143  70.690  1.00  0.00    -0.385 C  
BRANCH  21  22
HETATM   22  C   UNL     1     -13.152  11.300  71.715  1.00  0.00    -0.527 C  
BRANCH  22  23
HETATM   23  C   UNL     1     -12.630   9.871  71.706  1.00  0.00    -0.414 C  
BRANCH  23  24
HETATM   24  O   UNL     1     -13.730   8.992  71.514  1.00  0.00    -0.372 OA 
BRANCH  24  25
HETATM   25  C   UNL     1     -13.342   7.629  71.669  1.00  0.00    -0.350 C  
BRANCH  25  26
HETATM   26  C   UNL     1     -11.896   7.582  72.147  1.00  0.00    -0.338 C  
BRANCH  26  27
HETATM   27  C   UNL     1     -11.210   6.292  71.697  1.00  0.00    -0.337 C  
BRANCH  27  28
HETATM   28  C   UNL     1      -9.920   6.030  72.472  1.00  0.00    -0.195 C  
BRANCH  28  29
HETATM   29  C   UNL     1      -8.815   6.914  71.945  1.00  0.00    -0.126 A  
HETATM   30  C   UNL     1      -7.845   7.428  72.812  1.00  0.00    -0.108 A  
HETATM   31  C   UNL     1      -6.873   8.309  72.338  1.00  0.00    -0.100 A  
HETATM   32  C   UNL     1      -6.865   8.684  70.996  1.00  0.00    -0.066 A  
HETATM   33  C   UNL     1      -7.825   8.174  70.123  1.00  0.00    -0.098 A  
HETATM   34  C   UNL     1      -8.798   7.292  70.595  1.00  0.00    -0.148 A  
ENDBRANCH  28  29
ENDBRANCH  27  28
ENDBRANCH  26  27
ENDBRANCH  25  26
ENDBRANCH  24  25
ENDBRANCH  23  24
ENDBRANCH  22  23
ENDBRANCH  21  22
ENDBRANCH  20  21
ENDBRANCH  19  20
ENDBRANCH  18  19
ENDBRANCH  16  18
ENDBRANCH  15  16
ENDBRANCH  12  15
ENDBRANCH  10  12
ENDBRANCH   2   4
TORSDOF 16
ENDMDL
MODEL      333
REMARK 921   NORMALIZED FREE ENERGY PREDICTED BY IDOCK:   -3.84 KCAL/MOL
REMARK 922        TOTAL FREE ENERGY PREDICTED BY IDOCK:   -9.77 KCAL/MOL
REMARK 923 INTER-LIGAND FREE ENERGY PREDICTED BY IDOCK:   -7.91 KCAL/MOL
REMARK 924 INTRA-LIGAND FREE ENERGY PREDICTED BY IDOCK:   -1.86 KCAL/MOL
REMARK 927      BINDING AFFINITY PREDICTED BY RF-SCORE:    0.00 PKD
ROOT
HETATM    1  O   UNL     1     -12.498  11.623  63.063  1.00  0.00    -0.972 OA 
HETATM    2  C   UNL     1     -11.234  12.206  63.382  1.00  0.00    -0.414 C  
HETATM    3  H   UNL     1     -12.544  11.427  62.134  1.00  0.00     0.000 HD 
ENDROOT
BRANCH   2   4
HETATM    4  C   UNL     1     -11.161  12.517  64.854  1.00  0.00    -0.344 A  
HETATM    5  C   UNL     1     -12.030  13.417  65.483  1.00  0.00    -0.398 A  
HETATM    6  O   UNL     1     -12.965  14.125  64.781  1.00  0.00    -0.674 OA 
HETATM    7  C   UNL     1     -11.962  13.655  66.851  1.00  0.00    -0.454 A  
HETATM    8  C   UNL     1     -10.998  13.008  67.619  1.00  0.00    -0.277 A  
HETATM    9  H   UNL     1     -13.555  14.736  65.207  1.00  0.00     0.000 HD 
HETATM   10  C   UNL     1     -10.104  12.101  67.029  1.00  0.00    -0.219 A  
HETATM   11  C   UNL     1     -10.213  11.848  65.650  1.00  0.00    -0.280 A  
BRANCH  10  12
HETATM   12  C   UNL     1      -9.017  11.420  67.839  1.00  0.00    -0.153 C  
HETATM   13  O   UNL     1      -9.386  11.380  69.226  1.00  0.00    -0.399 OA 
HETATM   14  H   UNL     1      -8.705  10.953  69.733  1.00  0.00     0.000 HD 
BRANCH  12  15
HETATM   15  C   UNL     1      -8.742   9.981  67.352  1.00  0.00    -0.125 C  
BRANCH  15  16
HETATM   16  N   UNL     1      -7.324   9.800  66.997  1.00  0.00    -0.091 NA 
HETATM   17  H   UNL     1      -6.788  10.660  67.117  1.00  0.00     0.000 HD 
BRANCH  16  18
HETATM   18  C   UNL     1      -6.755   8.691  67.757  1.00  0.00    -0.066 C  
BRANCH  18  19
HETATM   19  C   UNL     1      -7.699   8.293  68.885  1.00  0.00    -0.102 C  
BRANCH  19  20
HETATM   20  C   UNL     1      -8.131   6.837  68.720  1.00  0.00    -0.120 C  
BRANCH  20  21
HETATM   21  C   UNL     1      -7.691   6.296  67.368  1.00  0.00    -0.097 C  
BRANCH  21  22
HETATM   22  C   UNL     1      -6.988   4.951  67.509  1.00  0.00    -0.061 C  
BRANCH  22  23
HETATM   23  C   UNL     1      -7.992   3.864  67.861  1.00  0.00    -0.085 C  
BRANCH  23  24
HETATM   24  O   UNL     1      -7.930   3.631  69.262  1.00  0.00    -0.054 OA 
BRANCH  24  25
HETATM   25  C   UNL     1      -9.232   3.488  69.826  1.00  0.00    -0.149 C  
BRANCH  25  26
HETATM   26  C   UNL     1      -9.101   3.376  71.340  1.00  0.00    -0.177 C  
BRANCH  26  27
HETATM   27  C   UNL     1      -9.692   4.605  72.033  1.00  0.00    -0.225 C  
BRANCH  27  28
HETATM   28  C   UNL     1     -10.930   5.130  71.308  1.00  0.00     0.016 C  
BRANCH  28  29
HETATM   29  C   UNL     1     -11.056   6.620  71.519  1.00  0.00    -0.297 A  
HETATM   30  C   UNL     1     -12.309   7.240  71.463  1.00  0.00    -0.397 A  
HETATM   31  C   UNL     1     -12.415   8.626  71.578  1.00  0.00    -0.364 A  
HETATM   32  C   UNL     1     -11.270   9.402  71.745  1.00  0.00    -0.359 A  
HETATM   33  C   UNL     1     -10.017   8.793  71.806  1.00  0.00    -0.396 A  
HETATM   34  C   UNL     1      -9.909   7.407  71.692  1.00  0.00    -0.181 A  
ENDBRANCH  28  29
ENDBRANCH  27  28
ENDBRANCH  26  27
ENDBRANCH  25  26
ENDBRANCH  24  25
ENDBRANCH  23  24
ENDBRANCH  22  23
ENDBRANCH  21  22
ENDBRANCH  20  21
ENDBRANCH  19  20
ENDBRANCH  18  19
ENDBRANCH  16  18
ENDBRANCH  15  16
ENDBRANCH  12  15
ENDBRANCH  10  12
ENDBRANCH   2   4
TORSDOF 16
ENDMDL
MODEL      334
REMARK 921   NORMALIZED FREE ENERGY PREDICTED BY IDOCK:   -3.83 KCAL/MOL
REMARK 922        TOTAL FREE ENERGY PREDICTED BY IDOCK:   -9.76 KCAL/MOL
REMARK 923 INTER-LIGAND FREE ENERGY PREDICTED BY IDOCK:   -6.36 KCAL/MOL
REMARK 924 INTRA-LIGAND FREE ENERGY PREDICTED BY IDOCK:   -3.39 KCAL/MOL
REMARK 927      BINDING AFFINITY PREDICTED BY RF-SCORE:    0.00 PKD
ROOT
HETATM    1  O   UNL     1     -12.401  12.524  65.826  1.00  0.00    -0.627 OA 
HETATM    2  C   UNL     1     -11.891  12.368  67.150  1.00  0.00    -0.291 C  
HETATM    3  H   UNL     1     -13.329  12.726  65.853  1.00  0.00     0.000 HD 
ENDROOT
BRANCH   2   4
HETATM    4  C   UNL     1     -10.420  12.046  67.107  1.00  0.00    -0.244 A  
HETATM    5  C   UNL     1      -9.508  12.537  68.049  1.00  0.00    -0.209 A  
HETATM    6  O   UNL     1      -9.890  13.399  69.039  1.00  0.00    -0.413 OA 
HETATM    7  C   UNL     1      -8.162  12.193  68.005  1.00  0.00    -0.158 A  
HETATM    8  C   UNL     1      -7.694  11.361  66.991  1.00  0.00    -0.154 A  
HETATM    9  H   UNL     1      -9.271  13.733  69.678  1.00  0.00     0.000 HD 
HETATM   10  C   UNL     1      -8.573  10.850  66.023  1.00  0.00    -0.179 A  
HETATM   11  C   UNL     1      -9.936  11.182  66.108  1.00  0.00    -0.273 A  
BRANCH  10  12
HETATM   12  C   UNL     1      -8.077   9.979  64.884  1.00  0.00    -0.154 C  
HETATM   13  O   UNL     1      -6.717  10.312  64.563  1.00  0.00    -0.186 OA 
HETATM   14  H   UNL     1      -6.406   9.766  63.850  1.00  0.00     0.000 HD 
BRANCH  12  15
HETATM   15  C   UNL     1      -8.157   8.475  65.221  1.00  0.00    -0.138 C  
BRANCH  15  16
HETATM   16  N   UNL     1      -7.573   8.193  66.543  1.00  0.00    -0.091 NA 
HETATM   17  H   UNL     1      -8.196   7.634  67.125  1.00  0.00     0.000 HD 
BRANCH  16  18
HETATM   18  C   UNL     1      -6.262   7.570  66.389  1.00  0.00    -0.044 C  
BRANCH  18  19
HETATM   19  C   UNL     1      -5.987   6.636  67.561  1.00  0.00    -0.020 C  
BRANCH  19  20
HETATM   20  C   UNL     1      -7.153   6.669  68.546  1.00  0.00    -0.083 C  
BRANCH  20  21
HETATM   21  C   UNL     1      -7.488   5.266  69.029  1.00  0.00    -0.070 C  
BRANCH  21  22
HETATM   22  C   UNL     1      -7.326   4.240  67.914  1.00  0.00    -0.068 C  
BRANCH  22  23
HETATM   23  C   UNL     1      -8.602   3.429  67.752  1.00  0.00    -0.101 C  
BRANCH  23  24
HETATM   24  O   UNL     1      -8.968   3.436  66.378  1.00  0.00    -0.132 OA 
BRANCH  24  25
HETATM   25  C   UNL     1      -9.168   4.763  65.898  1.00  0.00    -0.149 C  
BRANCH  25  26
HETATM   26  C   UNL     1     -10.616   5.162  66.151  1.00  0.00    -0.293 C  
BRANCH  26  27
HETATM   27  C   UNL     1     -10.695   6.416  67.024  1.00  0.00    -0.434 C  
BRANCH  27  28
HETATM   28  C   UNL     1     -11.158   6.095  68.444  1.00  0.00    -0.343 C  
BRANCH  28  29
HETATM   29  C   UNL     1     -10.675   7.164  69.396  1.00  0.00    -0.246 A  
HETATM   30  C   UNL     1     -10.269   8.413  68.912  1.00  0.00    -0.223 A  
HETATM   31  C   UNL     1      -9.748   9.370  69.783  1.00  0.00    -0.215 A  
HETATM   32  C   UNL     1      -9.626   9.086  71.141  1.00  0.00    -0.356 A  
HETATM   33  C   UNL     1     -10.031   7.846  71.633  1.00  0.00    -0.227 A  
HETATM   34  C   UNL     1     -10.553   6.887  70.765  1.00  0.00    -0.245 A  
ENDBRANCH  28  29
ENDBRANCH  27  28
ENDBRANCH  26  27
ENDBRANCH  25  26
ENDBRANCH  24  25
ENDBRANCH  23  24
ENDBRANCH  22  23
ENDBRANCH  21  22
ENDBRANCH  20  21
ENDBRANCH  19  20
ENDBRANCH  18  19
ENDBRANCH  16  18
ENDBRANCH  15  16
ENDBRANCH  12  15
ENDBRANCH  10  12
ENDBRANCH   2   4
TORSDOF 16
ENDMDL
MODEL      335
REMARK 921   NORMALIZED FREE ENERGY PREDICTED BY IDOCK:   -3.82 KCAL/MOL
REMARK 922        TOTAL FREE ENERGY PREDICTED BY IDOCK:   -9.75 KCAL/MOL
REMARK 923 INTER-LIGAND FREE ENERGY PREDICTED BY IDOCK:   -8.03 KCAL/MOL
REMARK 924 INTRA-LIGAND FREE ENERGY PREDICTED BY IDOCK:   -1.71 KCAL/MOL
REMARK 927      BINDING AFFINITY PREDICTED BY RF-SCORE:    0.00 PKD
ROOT
HETATM    1  O   UNL     1     -12.759   5.802  72.657  1.00  0.00    -0.473 OA 
HETATM    2  C   UNL     1     -11.920   6.677  71.903  1.00  0.00    -0.341 C  
HETATM    3  H   UNL     1     -13.360   6.306  73.195  1.00  0.00     0.000 HD 
ENDROOT
BRANCH   2   4
HETATM    4  C   UNL     1     -10.968   5.879  71.051  1.00  0.00    -0.335 A  
HETATM    5  C   UNL     1     -10.163   4.857  71.568  1.00  0.00    -0.194 A  
HETATM    6  O   UNL     1     -10.144   4.560  72.902  1.00  0.00    -0.146 OA 
HETATM    7  C   UNL     1      -9.321   4.113  70.749  1.00  0.00    -0.223 A  
HETATM    8  C   UNL     1      -9.250   4.397  69.388  1.00  0.00    -0.200 A  
HETATM    9  H   UNL     1      -9.598   3.867  73.253  1.00  0.00     0.000 HD 
HETATM   10  C   UNL     1     -10.037   5.417  68.829  1.00  0.00    -0.255 A  
HETATM   11  C   UNL     1     -10.908   6.133  69.668  1.00  0.00    -0.424 A  
BRANCH  10  12
HETATM   12  C   UNL     1      -9.942   5.773  67.357  1.00  0.00    -0.150 C  
HETATM   13  O   UNL     1     -11.245   5.737  66.755  1.00  0.00    -0.540 OA 
HETATM   14  H   UNL     1     -11.186   5.961  65.833  1.00  0.00     0.000 HD 
BRANCH  12  15
HETATM   15  C   UNL     1      -9.326   7.171  67.134  1.00  0.00    -0.140 C  
BRANCH  15  16
HETATM   16  N   UNL     1     -10.189   8.003  66.279  1.00  0.00    -0.450 NA 
HETATM   17  H   UNL     1     -11.152   8.024  66.614  1.00  0.00     0.000 HD 
BRANCH  16  18
HETATM   18  C   UNL     1      -9.625   9.343  66.152  1.00  0.00    -0.247 C  
BRANCH  18  19
HETATM   19  C   UNL     1      -8.106   9.266  66.075  1.00  0.00    -0.110 C  
BRANCH  19  20
HETATM   20  C   UNL     1      -7.486  10.564  66.586  1.00  0.00    -0.120 C  
BRANCH  20  21
HETATM   21  C   UNL     1      -8.040  10.921  67.958  1.00  0.00    -0.119 C  
BRANCH  21  22
HETATM   22  C   UNL     1      -8.348  12.410  68.063  1.00  0.00    -0.170 C  
BRANCH  22  23
HETATM   23  C   UNL     1      -8.976  12.913  66.773  1.00  0.00    -0.179 C  
BRANCH  23  24
HETATM   24  O   UNL     1     -10.387  12.948  66.944  1.00  0.00    -0.240 OA 
BRANCH  24  25
HETATM   25  C   UNL     1     -10.940  14.172  66.467  1.00  0.00    -0.309 C  
BRANCH  25  26
HETATM   26  C   UNL     1     -11.881  14.731  67.527  1.00  0.00    -0.326 C  
BRANCH  26  27
HETATM   27  C   UNL     1     -11.247  14.657  68.917  1.00  0.00    -0.285 C  
BRANCH  27  28
HETATM   28  C   UNL     1     -11.144  16.033  69.572  1.00  0.00    -0.333 C  
BRANCH  28  29
HETATM   29  C   UNL     1     -10.007  16.812  68.955  1.00  0.00    -0.271 A  
HETATM   30  C   UNL     1      -8.764  16.206  68.746  1.00  0.00    -0.240 A  
HETATM   31  C   UNL     1      -7.692  16.949  68.251  1.00  0.00    -0.205 A  
HETATM   32  C   UNL     1      -7.854  18.302  67.964  1.00  0.00    -0.274 A  
HETATM   33  C   UNL     1      -9.090  18.915  68.166  1.00  0.00    -0.351 A  
HETATM   34  C   UNL     1     -10.164  18.174  68.660  1.00  0.00    -0.382 A  
ENDBRANCH  28  29
ENDBRANCH  27  28
ENDBRANCH  26  27
ENDBRANCH  25  26
ENDBRANCH  24  25
ENDBRANCH  23  24
ENDBRANCH  22  23
ENDBRANCH  21  22
ENDBRANCH  20  21
ENDBRANCH  19  20
ENDBRANCH  18  19
ENDBRANCH  16  18
ENDBRANCH  15  16
ENDBRANCH  12  15
ENDBRANCH  10  12
ENDBRANCH   2   4
TORSDOF 16
ENDMDL
MODEL      336
REMARK 921   NORMALIZED FREE ENERGY PREDICTED BY IDOCK:   -3.79 KCAL/MOL
REMARK 922        TOTAL FREE ENERGY PREDICTED BY IDOCK:   -9.68 KCAL/MOL
REMARK 923 INTER-LIGAND FREE ENERGY PREDICTED BY IDOCK:   -8.10 KCAL/MOL
REMARK 924 INTRA-LIGAND FREE ENERGY PREDICTED BY IDOCK:   -1.58 KCAL/MOL
REMARK 927      BINDING AFFINITY PREDICTED BY RF-SCORE:    0.00 PKD
ROOT
HETATM    1  O   UNL     1     -10.983  17.848  65.426  1.00  0.00    -0.447 OA 
HETATM    2  C   UNL     1      -9.882  16.942  65.346  1.00  0.00     0.307 C  
HETATM    3  H   UNL     1     -10.667  18.741  65.508  1.00  0.00     0.000 HD 
ENDROOT
BRANCH   2   4
HETATM    4  C   UNL     1     -10.381  15.527  65.216  1.00  0.00    -0.416 A  
HETATM    5  C   UNL     1     -11.464  15.177  64.401  1.00  0.00    -0.235 A  
HETATM    6  O   UNL     1     -12.183  16.116  63.716  1.00  0.00    -1.281 OA 
HETATM    7  C   UNL     1     -11.879  13.856  64.272  1.00  0.00    -0.441 A  
HETATM    8  C   UNL     1     -11.225  12.853  64.984  1.00  0.00    -0.324 A  
HETATM    9  H   UNL     1     -12.919  15.879  63.163  1.00  0.00     0.000 HD 
HETATM   10  C   UNL     1     -10.137  13.161  65.816  1.00  0.00    -0.290 A  
HETATM   11  C   UNL     1      -9.712  14.498  65.903  1.00  0.00    -0.324 A  
BRANCH  10  12
HETATM   12  C   UNL     1      -9.439  12.091  66.635  1.00  0.00    -0.217 C  
HETATM   13  O   UNL     1      -8.936  11.058  65.773  1.00  0.00    -0.189 OA 
HETATM   14  H   UNL     1      -8.499  10.388  66.286  1.00  0.00     0.000 HD 
BRANCH  12  15
HETATM   15  C   UNL     1      -8.271  12.662  67.466  1.00  0.00    -0.178 C  
BRANCH  15  16
HETATM   16  N   UNL     1      -8.339  12.206  68.865  1.00  0.00    -0.362 NA 
HETATM   17  H   UNL     1      -9.221  12.465  69.308  1.00  0.00     0.000 HD 
BRANCH  16  18
HETATM   18  C   UNL     1      -8.093  10.769  68.936  1.00  0.00    -0.145 C  
BRANCH  18  19
HETATM   19  C   UNL     1      -6.916  10.486  69.861  1.00  0.00    -0.151 C  
BRANCH  19  20
HETATM   20  C   UNL     1      -7.197   9.247  70.708  1.00  0.00    -0.126 C  
BRANCH  20  21
HETATM   21  C   UNL     1      -6.131   8.186  70.478  1.00  0.00    -0.032 C  
BRANCH  21  22
HETATM   22  C   UNL     1      -6.418   6.925  71.284  1.00  0.00    -0.042 C  
BRANCH  22  23
HETATM   23  C   UNL     1      -7.911   6.635  71.299  1.00  0.00    -0.102 C  
BRANCH  23  24
HETATM   24  O   UNL     1      -8.382   6.773  72.634  1.00  0.00    -0.111 OA 
BRANCH  24  25
HETATM   25  C   UNL     1      -9.305   5.740  72.969  1.00  0.00    -0.143 C  
BRANCH  25  26
HETATM   26  C   UNL     1     -10.525   6.368  73.631  1.00  0.00    -0.311 C  
BRANCH  26  27
HETATM   27  C   UNL     1     -10.777   7.777  73.092  1.00  0.00    -0.414 C  
BRANCH  27  28
HETATM   28  C   UNL     1     -11.944   7.812  72.107  1.00  0.00    -0.362 C  
BRANCH  28  29
HETATM   29  C   UNL     1     -11.436   7.615  70.699  1.00  0.00    -0.276 A  
HETATM   30  C   UNL     1     -10.951   8.701  69.963  1.00  0.00    -0.208 A  
HETATM   31  C   UNL     1     -10.556   8.532  68.635  1.00  0.00    -0.154 A  
HETATM   32  C   UNL     1     -10.647   7.279  68.034  1.00  0.00    -0.247 A  
HETATM   33  C   UNL     1     -11.125   6.189  68.761  1.00  0.00    -0.398 A  
HETATM   34  C   UNL     1     -11.519   6.355  70.089  1.00  0.00    -0.484 A  
ENDBRANCH  28  29
ENDBRANCH  27  28
ENDBRANCH  26  27
ENDBRANCH  25  26
ENDBRANCH  24  25
ENDBRANCH  23  24
ENDBRANCH  22  23
ENDBRANCH  21  22
ENDBRANCH  20  21
ENDBRANCH  19  20
ENDBRANCH  18  19
ENDBRANCH  16  18
ENDBRANCH  15  16
ENDBRANCH  12  15
ENDBRANCH  10  12
ENDBRANCH   2   4
TORSDOF 16
ENDMDL
MODEL      337
REMARK 921   NORMALIZED FREE ENERGY PREDICTED BY IDOCK:   -3.79 KCAL/MOL
REMARK 922        TOTAL FREE ENERGY PREDICTED BY IDOCK:   -9.67 KCAL/MOL
REMARK 923 INTER-LIGAND FREE ENERGY PREDICTED BY IDOCK:   -8.35 KCAL/MOL
REMARK 924 INTRA-LIGAND FREE ENERGY PREDICTED BY IDOCK:   -1.32 KCAL/MOL
REMARK 927      BINDING AFFINITY PREDICTED BY RF-SCORE:    0.00 PKD
ROOT
HETATM    1  O   UNL     1      -6.265  17.468  69.455  1.00  0.00    -0.238 OA 
HETATM    2  C   UNL     1      -6.920  16.201  69.519  1.00  0.00    -0.186 C  
HETATM    3  H   UNL     1      -5.611  17.535  70.142  1.00  0.00     0.000 HD 
ENDROOT
BRANCH   2   4
HETATM    4  C   UNL     1      -7.957  16.095  68.432  1.00  0.00    -0.162 A  
HETATM    5  C   UNL     1      -7.638  16.161  67.071  1.00  0.00    -0.225 A  
HETATM    6  O   UNL     1      -6.360  16.391  66.641  1.00  0.00    -0.291 OA 
HETATM    7  C   UNL     1      -8.612  16.023  66.089  1.00  0.00    -0.315 A  
HETATM    8  C   UNL     1      -9.943  15.839  66.456  1.00  0.00    -0.283 A  
HETATM    9  H   UNL     1      -6.143  16.436  65.717  1.00  0.00     0.000 HD 
HETATM   10  C   UNL     1     -10.308  15.772  67.810  1.00  0.00    -0.275 A  
HETATM   11  C   UNL     1      -9.301  15.877  68.786  1.00  0.00    -0.220 A  
BRANCH  10  12
HETATM   12  C   UNL     1     -11.757  15.617  68.233  1.00  0.00    -0.242 C  
HETATM   13  O   UNL     1     -12.265  14.346  67.801  1.00  0.00    -0.599 OA 
HETATM   14  H   UNL     1     -13.173  14.249  68.066  1.00  0.00     0.000 HD 
BRANCH  12  15
HETATM   15  C   UNL     1     -11.934  15.734  69.762  1.00  0.00    -0.322 C  
BRANCH  15  16
HETATM   16  N   UNL     1     -13.102  14.966  70.223  1.00  0.00    -0.625 NA 
HETATM   17  H   UNL     1     -13.516  14.412  69.472  1.00  0.00     0.000 HD 
BRANCH  16  18
HETATM   18  C   UNL     1     -12.739  14.143  71.372  1.00  0.00    -0.364 C  
BRANCH  18  19
HETATM   19  C   UNL     1     -12.580  12.689  70.944  1.00  0.00    -0.338 C  
BRANCH  19  20
HETATM   20  C   UNL     1     -13.284  11.768  71.938  1.00  0.00    -0.468 C  
BRANCH  20  21
HETATM   21  C   UNL     1     -12.769  10.342  71.805  1.00  0.00    -0.535 C  
BRANCH  21  22
HETATM   22  C   UNL     1     -11.919  10.171  70.552  1.00  0.00    -0.400 C  
BRANCH  22  23
HETATM   23  C   UNL     1     -10.635   9.426  70.883  1.00  0.00    -0.320 C  
BRANCH  23  24
HETATM   24  O   UNL     1     -10.966   8.082  71.207  1.00  0.00    -0.230 OA 
BRANCH  24  25
HETATM   25  C   UNL     1     -11.193   7.304  70.034  1.00  0.00    -0.209 C  
BRANCH  25  26
HETATM   26  C   UNL     1     -10.075   7.582  69.037  1.00  0.00    -0.192 C  
BRANCH  26  27
HETATM   27  C   UNL     1     -10.558   7.376  67.600  1.00  0.00    -0.309 C  
BRANCH  27  28
HETATM   28  C   UNL     1      -9.430   6.917  66.679  1.00  0.00    -0.209 C  
BRANCH  28  29
HETATM   29  C   UNL     1      -8.950   5.547  67.097  1.00  0.00    -0.112 A  
HETATM   30  C   UNL     1      -7.620   5.351  67.485  1.00  0.00    -0.088 A  
HETATM   31  C   UNL     1      -7.158   4.071  67.793  1.00  0.00    -0.059 A  
HETATM   32  C   UNL     1      -8.020   2.980  67.714  1.00  0.00    -0.074 A  
HETATM   33  C   UNL     1      -9.348   3.166  67.333  1.00  0.00    -0.232 A  
HETATM   34  C   UNL     1      -9.813   4.445  67.024  1.00  0.00    -0.227 A  
ENDBRANCH  28  29
ENDBRANCH  27  28
ENDBRANCH  26  27
ENDBRANCH  25  26
ENDBRANCH  24  25
ENDBRANCH  23  24
ENDBRANCH  22  23
ENDBRANCH  21  22
ENDBRANCH  20  21
ENDBRANCH  19  20
ENDBRANCH  18  19
ENDBRANCH  16  18
ENDBRANCH  15  16
ENDBRANCH  12  15
ENDBRANCH  10  12
ENDBRANCH   2   4
TORSDOF 16
ENDMDL
MODEL      338
REMARK 921   NORMALIZED FREE ENERGY PREDICTED BY IDOCK:   -3.77 KCAL/MOL
REMARK 922        TOTAL FREE ENERGY PREDICTED BY IDOCK:   -9.65 KCAL/MOL
REMARK 923 INTER-LIGAND FREE ENERGY PREDICTED BY IDOCK:   -7.48 KCAL/MOL
REMARK 924 INTRA-LIGAND FREE ENERGY PREDICTED BY IDOCK:   -2.17 KCAL/MOL
REMARK 927      BINDING AFFINITY PREDICTED BY RF-SCORE:    0.00 PKD
ROOT
HETATM    1  O   UNL     1     -13.413   6.347  72.223  1.00  0.00    -0.486 OA 
HETATM    2  C   UNL     1     -12.169   6.394  71.523  1.00  0.00    -0.174 C  
HETATM    3  H   UNL     1     -13.637   5.448  72.435  1.00  0.00     0.000 HD 
ENDROOT
BRANCH   2   4
HETATM    4  C   UNL     1     -11.814   7.818  71.188  1.00  0.00    -0.311 A  
HETATM    5  C   UNL     1     -12.754   8.855  71.194  1.00  0.00    -0.159 A  
HETATM    6  O   UNL     1     -14.078   8.626  71.445  1.00  0.00    -0.523 OA 
HETATM    7  C   UNL     1     -12.389  10.168  70.916  1.00  0.00    -0.461 A  
HETATM    8  C   UNL     1     -11.066  10.466  70.599  1.00  0.00    -0.283 A  
HETATM    9  H   UNL     1     -14.716   9.330  71.449  1.00  0.00     0.000 HD 
HETATM   10  C   UNL     1     -10.091   9.455  70.577  1.00  0.00    -0.335 A  
HETATM   11  C   UNL     1     -10.476   8.141  70.897  1.00  0.00    -0.229 A  
BRANCH  10  12
HETATM   12  C   UNL     1      -8.654   9.749  70.190  1.00  0.00    -0.181 C  
HETATM   13  O   UNL     1      -7.924   8.523  70.032  1.00  0.00    -0.101 OA 
HETATM   14  H   UNL     1      -7.023   8.707  69.790  1.00  0.00     0.000 HD 
BRANCH  12  15
HETATM   15  C   UNL     1      -8.556  10.562  68.881  1.00  0.00    -0.153 C  
BRANCH  15  16
HETATM   16  N   UNL     1      -8.141  11.949  69.145  1.00  0.00    -0.344 NA 
HETATM   17  H   UNL     1      -7.891  12.093  70.124  1.00  0.00     0.000 HD 
BRANCH  16  18
HETATM   18  C   UNL     1      -7.058  12.328  68.243  1.00  0.00    -0.093 C  
BRANCH  18  19
HETATM   19  C   UNL     1      -6.528  13.707  68.614  1.00  0.00    -0.094 C  
BRANCH  19  20
HETATM   20  C   UNL     1      -7.052  14.754  67.634  1.00  0.00    -0.206 C  
BRANCH  20  21
HETATM   21  C   UNL     1      -7.975  15.737  68.341  1.00  0.00    -0.141 C  
BRANCH  21  22
HETATM   22  C   UNL     1      -9.391  15.672  67.781  1.00  0.00    -0.202 C  
BRANCH  22  23
HETATM   23  C   UNL     1      -9.500  14.563  66.746  1.00  0.00    -0.269 C  
BRANCH  23  24
HETATM   24  O   UNL     1     -10.337  13.540  67.270  1.00  0.00    -0.240 OA 
BRANCH  24  25
HETATM   25  C   UNL     1     -11.570  13.460  66.558  1.00  0.00    -0.357 C  
BRANCH  25  26
HETATM   26  C   UNL     1     -11.628  12.125  65.827  1.00  0.00    -0.414 C  
BRANCH  26  27
HETATM   27  C   UNL     1     -10.535  11.178  66.325  1.00  0.00    -0.312 C  
BRANCH  27  28
HETATM   28  C   UNL     1     -10.223  10.081  65.309  1.00  0.00    -0.196 C  
BRANCH  28  29
HETATM   29  C   UNL     1      -9.657   8.872  66.016  1.00  0.00    -0.320 A  
HETATM   30  C   UNL     1      -8.326   8.491  65.812  1.00  0.00    -0.144 A  
HETATM   31  C   UNL     1      -7.829   7.329  66.402  1.00  0.00    -0.106 A  
HETATM   32  C   UNL     1      -8.657   6.539  67.196  1.00  0.00    -0.111 A  
HETATM   33  C   UNL     1      -9.983   6.913  67.408  1.00  0.00    -0.212 A  
HETATM   34  C   UNL     1     -10.483   8.075  66.820  1.00  0.00    -0.319 A  
ENDBRANCH  28  29
ENDBRANCH  27  28
ENDBRANCH  26  27
ENDBRANCH  25  26
ENDBRANCH  24  25
ENDBRANCH  23  24
ENDBRANCH  22  23
ENDBRANCH  21  22
ENDBRANCH  20  21
ENDBRANCH  19  20
ENDBRANCH  18  19
ENDBRANCH  16  18
ENDBRANCH  15  16
ENDBRANCH  12  15
ENDBRANCH  10  12
ENDBRANCH   2   4
TORSDOF 16
ENDMDL
MODEL      339
REMARK 921   NORMALIZED FREE ENERGY PREDICTED BY IDOCK:   -3.76 KCAL/MOL
REMARK 922        TOTAL FREE ENERGY PREDICTED BY IDOCK:   -9.63 KCAL/MOL
REMARK 923 INTER-LIGAND FREE ENERGY PREDICTED BY IDOCK:   -8.64 KCAL/MOL
REMARK 924 INTRA-LIGAND FREE ENERGY PREDICTED BY IDOCK:   -0.98 KCAL/MOL
REMARK 927      BINDING AFFINITY PREDICTED BY RF-SCORE:    0.00 PKD
ROOT
HETATM    1  O   UNL     1      -6.775  15.091  69.458  1.00  0.00    -0.139 OA 
HETATM    2  C   UNL     1      -6.323  16.439  69.592  1.00  0.00    -0.211 C  
HETATM    3  H   UNL     1      -6.205  14.505  69.943  1.00  0.00     0.000 HD 
ENDROOT
BRANCH   2   4
HETATM    4  C   UNL     1      -7.225  17.369  68.823  1.00  0.00    -0.249 A  
HETATM    5  C   UNL     1      -6.988  18.745  68.723  1.00  0.00    -0.304 A  
HETATM    6  O   UNL     1      -5.950  19.346  69.378  1.00  0.00    -0.241 OA 
HETATM    7  C   UNL     1      -7.818  19.572  67.975  1.00  0.00    -0.340 A  
HETATM    8  C   UNL     1      -8.926  19.035  67.324  1.00  0.00    -0.308 A  
HETATM    9  H   UNL     1      -5.789  20.280  69.311  1.00  0.00     0.000 HD 
HETATM   10  C   UNL     1      -9.203  17.660  67.401  1.00  0.00    -0.247 A  
HETATM   11  C   UNL     1      -8.331  16.837  68.134  1.00  0.00    -0.201 A  
BRANCH  10  12
HETATM   12  C   UNL     1     -10.430  17.062  66.739  1.00  0.00    -0.257 C  
HETATM   13  O   UNL     1     -10.107  16.616  65.412  1.00  0.00    -0.578 OA 
HETATM   14  H   UNL     1     -10.875  16.240  64.997  1.00  0.00     0.000 HD 
BRANCH  12  15
HETATM   15  C   UNL     1     -11.004  15.874  67.540  1.00  0.00    -0.280 C  
BRANCH  15  16
HETATM   16  N   UNL     1     -11.749  16.339  68.722  1.00  0.00    -0.247 NA 
HETATM   17  H   UNL     1     -12.611  16.820  68.466  1.00  0.00     0.000 HD 
BRANCH  16  18
HETATM   18  C   UNL     1     -11.994  15.223  69.630  1.00  0.00    -0.338 C  
BRANCH  18  19
HETATM   19  C   UNL     1     -12.053  15.723  71.068  1.00  0.00    -0.464 C  
BRANCH  19  20
HETATM   20  C   UNL     1     -12.503  14.599  71.999  1.00  0.00    -0.407 C  
BRANCH  20  21
HETATM   21  C   UNL     1     -13.262  13.532  71.224  1.00  0.00    -0.290 C  
BRANCH  21  22
HETATM   22  C   UNL     1     -13.365  12.235  72.018  1.00  0.00    -0.491 C  
BRANCH  22  23
HETATM   23  C   UNL     1     -12.976  11.051  71.148  1.00  0.00    -0.324 C  
BRANCH  23  24
HETATM   24  O   UNL     1     -12.715   9.938  71.994  1.00  0.00    -0.392 OA 
BRANCH  24  25
HETATM   25  C   UNL     1     -11.484   9.303  71.655  1.00  0.00    -0.398 C  
BRANCH  25  26
HETATM   26  C   UNL     1     -10.950   9.922  70.370  1.00  0.00    -0.379 C  
BRANCH  26  27
HETATM   27  C   UNL     1     -10.449   8.844  69.408  1.00  0.00    -0.228 C  
BRANCH  27  28
HETATM   28  C   UNL     1      -9.184   8.161  69.924  1.00  0.00    -0.151 C  
BRANCH  28  29
HETATM   29  C   UNL     1      -9.408   6.670  70.022  1.00  0.00    -0.158 A  
HETATM   30  C   UNL     1      -9.940   6.109  71.187  1.00  0.00    -0.218 A  
HETATM   31  C   UNL     1     -10.071   4.725  71.306  1.00  0.00    -0.258 A  
HETATM   32  C   UNL     1      -9.669   3.893  70.263  1.00  0.00    -0.245 A  
HETATM   33  C   UNL     1      -9.141   4.444  69.096  1.00  0.00    -0.181 A  
HETATM   34  C   UNL     1      -9.009   5.827  68.974  1.00  0.00    -0.117 A  
ENDBRANCH  28  29
ENDBRANCH  27  28
ENDBRANCH  26  27
ENDBRANCH  25  26
ENDBRANCH  24  25
ENDBRANCH  23  24
ENDBRANCH  22  23
ENDBRANCH  21  22
ENDBRANCH  20  21
ENDBRANCH  19  20
ENDBRANCH  18  19
ENDBRANCH  16  18
ENDBRANCH  15  16
ENDBRANCH  12  15
ENDBRANCH  10  12
ENDBRANCH   2   4
TORSDOF 16
ENDMDL
MODEL      340
REMARK 921   NORMALIZED FREE ENERGY PREDICTED BY IDOCK:   -3.76 KCAL/MOL
REMARK 922        TOTAL FREE ENERGY PREDICTED BY IDOCK:   -9.62 KCAL/MOL
REMARK 923 INTER-LIGAND FREE ENERGY PREDICTED BY IDOCK:   -7.61 KCAL/MOL
REMARK 924 INTRA-LIGAND FREE ENERGY PREDICTED BY IDOCK:   -2.01 KCAL/MOL
REMARK 927      BINDING AFFINITY PREDICTED BY RF-SCORE:    0.00 PKD
ROOT
HETATM    1  O   UNL     1     -12.243  13.386  71.521  1.00  0.00    -0.254 OA 
HETATM    2  C   UNL     1     -12.239  13.206  70.104  1.00  0.00    -0.290 C  
HETATM    3  H   UNL     1     -12.744  12.694  71.938  1.00  0.00     0.000 HD 
ENDROOT
BRANCH   2   4
HETATM    4  C   UNL     1     -11.446  14.303  69.443  1.00  0.00    -0.337 A  
HETATM    5  C   UNL     1     -11.663  15.660  69.708  1.00  0.00    -0.357 A  
HETATM    6  O   UNL     1     -12.661  16.081  70.541  1.00  0.00    -0.520 OA 
HETATM    7  C   UNL     1     -10.890  16.649  69.110  1.00  0.00    -0.315 A  
HETATM    8  C   UNL     1      -9.889  16.295  68.208  1.00  0.00    -0.227 A  
HETATM    9  H   UNL     1     -12.809  17.002  70.721  1.00  0.00     0.000 HD 
HETATM   10  C   UNL     1      -9.640  14.945  67.911  1.00  0.00    -0.205 A  
HETATM   11  C   UNL     1     -10.410  13.960  68.555  1.00  0.00    -0.244 A  
BRANCH  10  12
HETATM   12  C   UNL     1      -8.586  14.539  66.898  1.00  0.00    -0.179 C  
HETATM   13  O   UNL     1      -7.740  15.657  66.590  1.00  0.00    -0.219 OA 
HETATM   14  H   UNL     1      -7.079  15.402  65.956  1.00  0.00     0.000 HD 
BRANCH  12  15
HETATM   15  C   UNL     1      -7.711  13.372  67.404  1.00  0.00    -0.137 C  
BRANCH  15  16
HETATM   16  N   UNL     1      -7.763  12.227  66.480  1.00  0.00    -0.364 NA 
HETATM   17  H   UNL     1      -6.832  11.924  66.194  1.00  0.00     0.000 HD 
BRANCH  16  18
HETATM   18  C   UNL     1      -8.534  11.140  67.073  1.00  0.00    -0.146 C  
BRANCH  18  19
HETATM   19  C   UNL     1      -8.319  11.108  68.581  1.00  0.00    -0.154 C  
BRANCH  19  20
HETATM   20  C   UNL     1      -7.190  10.141  68.932  1.00  0.00    -0.079 C  
BRANCH  20  21
HETATM   21  C   UNL     1      -6.769   9.340  67.709  1.00  0.00    -0.068 C  
BRANCH  21  22
HETATM   22  C   UNL     1      -7.050   7.854  67.893  1.00  0.00    -0.086 C  
BRANCH  22  23
HETATM   23  C   UNL     1      -8.424   7.503  67.342  1.00  0.00    -0.115 C  
BRANCH  23  24
HETATM   24  O   UNL     1      -9.301   7.273  68.437  1.00  0.00    -0.143 OA 
BRANCH  24  25
HETATM   25  C   UNL     1      -9.268   5.910  68.854  1.00  0.00    -0.119 C  
BRANCH  25  26
HETATM   26  C   UNL     1     -10.588   5.573  69.536  1.00  0.00    -0.366 C  
BRANCH  26  27
HETATM   27  C   UNL     1     -10.376   5.262  71.018  1.00  0.00    -0.298 C  
BRANCH  27  28
HETATM   28  C   UNL     1      -9.881   6.482  71.793  1.00  0.00    -0.178 C  
BRANCH  28  29
HETATM   29  C   UNL     1     -10.879   7.609  71.668  1.00  0.00    -0.260 A  
HETATM   30  C   UNL     1     -10.490   8.843  71.137  1.00  0.00    -0.336 A  
HETATM   31  C   UNL     1     -11.391   9.908  71.097  1.00  0.00    -0.443 A  
HETATM   32  C   UNL     1     -12.684   9.747  71.591  1.00  0.00    -0.517 A  
HETATM   33  C   UNL     1     -13.082   8.520  72.119  1.00  0.00    -0.393 A  
HETATM   34  C   UNL     1     -12.183   7.453  72.159  1.00  0.00    -0.266 A  
ENDBRANCH  28  29
ENDBRANCH  27  28
ENDBRANCH  26  27
ENDBRANCH  25  26
ENDBRANCH  24  25
ENDBRANCH  23  24
ENDBRANCH  22  23
ENDBRANCH  21  22
ENDBRANCH  20  21
ENDBRANCH  19  20
ENDBRANCH  18  19
ENDBRANCH  16  18
ENDBRANCH  15  16
ENDBRANCH  12  15
ENDBRANCH  10  12
ENDBRANCH   2   4
TORSDOF 16
ENDMDL
MODEL      341
REMARK 921   NORMALIZED FREE ENERGY PREDICTED BY IDOCK:   -3.74 KCAL/MOL
REMARK 922        TOTAL FREE ENERGY PREDICTED BY IDOCK:   -9.59 KCAL/MOL
REMARK 923 INTER-LIGAND FREE ENERGY PREDICTED BY IDOCK:   -8.05 KCAL/MOL
REMARK 924 INTRA-LIGAND FREE ENERGY PREDICTED BY IDOCK:   -1.54 KCAL/MOL
REMARK 927      BINDING AFFINITY PREDICTED BY RF-SCORE:    0.00 PKD
ROOT
HETATM    1  O   UNL     1     -12.162  16.287  71.895  1.00  0.00    -0.566 OA 
HETATM    2  C   UNL     1     -12.601  15.685  70.676  1.00  0.00    -0.414 C  
HETATM    3  H   UNL     1     -12.156  17.233  71.811  1.00  0.00     0.000 HD 
ENDROOT
BRANCH   2   4
HETATM    4  C   UNL     1     -12.610  14.185  70.810  1.00  0.00    -0.432 A  
HETATM    5  C   UNL     1     -13.263  13.521  71.854  1.00  0.00    -0.422 A  
HETATM    6  O   UNL     1     -13.885  14.202  72.863  1.00  0.00    -0.639 OA 
HETATM    7  C   UNL     1     -13.286  12.133  71.930  1.00  0.00    -0.474 A  
HETATM    8  C   UNL     1     -12.626  11.376  70.964  1.00  0.00    -0.487 A  
HETATM    9  H   UNL     1     -14.329  13.751  73.572  1.00  0.00     0.000 HD 
HETATM   10  C   UNL     1     -11.955  12.002  69.902  1.00  0.00    -0.391 A  
HETATM   11  C   UNL     1     -11.975  13.406  69.825  1.00  0.00    -0.396 A  
BRANCH  10  12
HETATM   12  C   UNL     1     -11.192  11.199  68.865  1.00  0.00    -0.256 C  
HETATM   13  O   UNL     1     -12.032  10.934  67.730  1.00  0.00    -0.691 OA 
HETATM   14  H   UNL     1     -11.554  10.431  67.080  1.00  0.00     0.000 HD 
BRANCH  12  15
HETATM   15  C   UNL     1      -9.918  11.926  68.385  1.00  0.00    -0.203 C  
BRANCH  15  16
HETATM   16  N   UNL     1      -8.717  11.386  69.043  1.00  0.00    -0.375 NA 
HETATM   17  H   UNL     1      -8.654  11.673  70.020  1.00  0.00     0.000 HD 
BRANCH  16  18
HETATM   18  C   UNL     1      -8.675   9.934  68.896  1.00  0.00    -0.140 C  
BRANCH  18  19
HETATM   19  C   UNL     1      -7.545   9.356  69.739  1.00  0.00    -0.095 C  
BRANCH  19  20
HETATM   20  C   UNL     1      -8.031   8.123  70.497  1.00  0.00    -0.095 C  
BRANCH  20  21
HETATM   21  C   UNL     1      -9.550   8.043  70.476  1.00  0.00    -0.170 C  
BRANCH  21  22
HETATM   22  C   UNL     1     -10.032   6.598  70.443  1.00  0.00    -0.193 C  
BRANCH  22  23
HETATM   23  C   UNL     1     -11.104   6.421  69.379  1.00  0.00    -0.387 C  
BRANCH  23  24
HETATM   24  O   UNL     1     -10.563   5.640  68.321  1.00  0.00    -0.212 OA 
BRANCH  24  25
HETATM   25  C   UNL     1      -9.227   5.233  68.605  1.00  0.00    -0.116 C  
BRANCH  25  26
HETATM   26  C   UNL     1      -8.298   5.834  67.557  1.00  0.00    -0.104 C  
BRANCH  26  27
HETATM   27  C   UNL     1      -9.063   6.172  66.276  1.00  0.00    -0.165 C  
BRANCH  27  28
HETATM   28  C   UNL     1      -8.232   5.894  65.025  1.00  0.00    -0.138 C  
BRANCH  28  29
HETATM   29  C   UNL     1      -8.579   4.533  64.469  1.00  0.00    -0.140 A  
HETATM   30  C   UNL     1      -9.558   3.745  65.084  1.00  0.00    -0.177 A  
HETATM   31  C   UNL     1      -9.820   2.457  64.618  1.00  0.00     0.068 A  
HETATM   32  C   UNL     1      -9.104   1.946  63.538  1.00  0.00    -0.090 A  
HETATM   33  C   UNL     1      -8.129   2.724  62.916  1.00  0.00    -0.073 A  
HETATM   34  C   UNL     1      -7.865   4.013  63.380  1.00  0.00    -0.078 A  
ENDBRANCH  28  29
ENDBRANCH  27  28
ENDBRANCH  26  27
ENDBRANCH  25  26
ENDBRANCH  24  25
ENDBRANCH  23  24
ENDBRANCH  22  23
ENDBRANCH  21  22
ENDBRANCH  20  21
ENDBRANCH  19  20
ENDBRANCH  18  19
ENDBRANCH  16  18
ENDBRANCH  15  16
ENDBRANCH  12  15
ENDBRANCH  10  12
ENDBRANCH   2   4
TORSDOF 16
ENDMDL
MODEL      342
REMARK 921   NORMALIZED FREE ENERGY PREDICTED BY IDOCK:   -3.74 KCAL/MOL
REMARK 922        TOTAL FREE ENERGY PREDICTED BY IDOCK:   -9.59 KCAL/MOL
REMARK 923 INTER-LIGAND FREE ENERGY PREDICTED BY IDOCK:   -7.28 KCAL/MOL
REMARK 924 INTRA-LIGAND FREE ENERGY PREDICTED BY IDOCK:   -2.30 KCAL/MOL
REMARK 927      BINDING AFFINITY PREDICTED BY RF-SCORE:    0.00 PKD
ROOT
HETATM    1  O   UNL     1      -7.986   8.483  73.145  1.00  0.00    -0.354 OA 
HETATM    2  C   UNL     1      -7.574   8.499  71.778  1.00  0.00    -0.114 C  
HETATM    3  H   UNL     1      -8.140   9.369  73.452  1.00  0.00     0.000 HD 
ENDROOT
BRANCH   2   4
HETATM    4  C   UNL     1      -7.330   7.094  71.292  1.00  0.00    -0.079 A  
HETATM    5  C   UNL     1      -6.727   6.111  72.085  1.00  0.00    -0.068 A  
HETATM    6  O   UNL     1      -6.259   6.386  73.340  1.00  0.00    -0.061 OA 
HETATM    7  C   UNL     1      -6.549   4.813  71.622  1.00  0.00    -0.034 A  
HETATM    8  C   UNL     1      -6.954   4.477  70.332  1.00  0.00    -0.041 A  
HETATM    9  H   UNL     1      -5.849   5.719  73.878  1.00  0.00     0.000 HD 
HETATM   10  C   UNL     1      -7.559   5.433  69.501  1.00  0.00    -0.070 A  
HETATM   11  C   UNL     1      -7.762   6.730  70.003  1.00  0.00    -0.102 A  
BRANCH  10  12
HETATM   12  C   UNL     1      -7.967   5.100  68.078  1.00  0.00    -0.091 C  
HETATM   13  O   UNL     1      -7.073   4.123  67.524  1.00  0.00    -0.061 OA 
HETATM   14  H   UNL     1      -7.328   3.915  66.632  1.00  0.00     0.000 HD 
BRANCH  12  15
HETATM   15  C   UNL     1      -9.411   4.561  67.996  1.00  0.00    -0.148 C  
BRANCH  15  16
HETATM   16  N   UNL     1     -10.227   5.365  67.070  1.00  0.00    -0.207 NA 
HETATM   17  H   UNL     1     -10.867   4.787  66.526  1.00  0.00     0.000 HD 
BRANCH  16  18
HETATM   18  C   UNL     1     -10.929   6.414  67.803  1.00  0.00    -0.332 C  
BRANCH  18  19
HETATM   19  C   UNL     1     -10.774   7.747  67.082  1.00  0.00    -0.337 C  
BRANCH  19  20
HETATM   20  C   UNL     1      -9.796   8.644  67.837  1.00  0.00    -0.211 C  
BRANCH  20  21
HETATM   21  C   UNL     1      -9.233   9.719  66.917  1.00  0.00    -0.174 C  
BRANCH  21  22
HETATM   22  C   UNL     1      -9.144   9.228  65.477  1.00  0.00    -0.275 C  
BRANCH  22  23
HETATM   23  C   UNL     1      -9.556  10.333  64.517  1.00  0.00    -0.316 C  
BRANCH  23  24
HETATM   24  O   UNL     1     -10.708  10.980  65.043  1.00  0.00    -0.274 OA 
BRANCH  24  25
HETATM   25  C   UNL     1     -10.677  12.383  64.794  1.00  0.00    -0.298 C  
BRANCH  25  26
HETATM   26  C   UNL     1     -11.467  13.093  65.886  1.00  0.00    -0.366 C  
BRANCH  26  27
HETATM   27  C   UNL     1     -11.665  12.183  67.100  1.00  0.00    -0.372 C  
BRANCH  27  28
HETATM   28  C   UNL     1     -10.982  12.740  68.348  1.00  0.00    -0.281 C  
BRANCH  28  29
HETATM   29  C   UNL     1     -11.771  12.360  69.578  1.00  0.00    -0.388 A  
HETATM   30  C   UNL     1     -12.366  13.347  70.371  1.00  0.00    -0.382 A  
HETATM   31  C   UNL     1     -13.026  13.000  71.550  1.00  0.00    -0.398 A  
HETATM   32  C   UNL     1     -13.092  11.666  71.947  1.00  0.00    -0.490 A  
HETATM   33  C   UNL     1     -12.504  10.675  71.162  1.00  0.00    -0.523 A  
HETATM   34  C   UNL     1     -11.845  11.019  69.982  1.00  0.00    -0.435 A  
ENDBRANCH  28  29
ENDBRANCH  27  28
ENDBRANCH  26  27
ENDBRANCH  25  26
ENDBRANCH  24  25
ENDBRANCH  23  24
ENDBRANCH  22  23
ENDBRANCH  21  22
ENDBRANCH  20  21
ENDBRANCH  19  20
ENDBRANCH  18  19
ENDBRANCH  16  18
ENDBRANCH  15  16
ENDBRANCH  12  15
ENDBRANCH  10  12
ENDBRANCH   2   4
TORSDOF 16
ENDMDL
MODEL      343
REMARK 921   NORMALIZED FREE ENERGY PREDICTED BY IDOCK:   -3.73 KCAL/MOL
REMARK 922        TOTAL FREE ENERGY PREDICTED BY IDOCK:   -9.57 KCAL/MOL
REMARK 923 INTER-LIGAND FREE ENERGY PREDICTED BY IDOCK:   -7.61 KCAL/MOL
REMARK 924 INTRA-LIGAND FREE ENERGY PREDICTED BY IDOCK:   -1.96 KCAL/MOL
REMARK 927      BINDING AFFINITY PREDICTED BY RF-SCORE:    0.00 PKD
ROOT
HETATM    1  O   UNL     1     -12.855  14.194  72.523  1.00  0.00    -0.369 OA 
HETATM    2  C   UNL     1     -13.743  13.117  72.223  1.00  0.00    -0.551 C  
HETATM    3  H   UNL     1     -13.312  14.870  73.009  1.00  0.00     0.000 HD 
ENDROOT
BRANCH   2   4
HETATM    4  C   UNL     1     -13.019  12.044  71.452  1.00  0.00    -0.362 A  
HETATM    5  C   UNL     1     -12.203  12.323  70.349  1.00  0.00    -0.288 A  
HETATM    6  O   UNL     1     -12.064  13.592  69.859  1.00  0.00    -0.329 OA 
HETATM    7  C   UNL     1     -11.518  11.315  69.680  1.00  0.00    -0.380 A  
HETATM    8  C   UNL     1     -11.656   9.993  70.093  1.00  0.00    -0.320 A  
HETATM    9  H   UNL     1     -11.511  13.781  69.110  1.00  0.00     0.000 HD 
HETATM   10  C   UNL     1     -12.467   9.668  71.192  1.00  0.00    -0.421 A  
HETATM   11  C   UNL     1     -13.123  10.707  71.876  1.00  0.00    -0.563 A  
BRANCH  10  12
HETATM   12  C   UNL     1     -12.668   8.229  71.630  1.00  0.00    -0.327 C  
HETATM   13  O   UNL     1     -12.473   7.342  70.518  1.00  0.00    -0.580 OA 
HETATM   14  H   UNL     1     -12.599   6.441  70.792  1.00  0.00     0.000 HD 
BRANCH  12  15
HETATM   15  C   UNL     1     -11.705   7.826  72.767  1.00  0.00    -0.258 C  
BRANCH  15  16
HETATM   16  N   UNL     1     -10.990   6.580  72.442  1.00  0.00    -0.236 NA 
HETATM   17  H   UNL     1     -10.229   6.737  71.782  1.00  0.00     0.000 HD 
BRANCH  16  18
HETATM   18  C   UNL     1     -10.527   5.935  73.667  1.00  0.00    -0.265 C  
BRANCH  18  19
HETATM   19  C   UNL     1      -9.011   6.043  73.773  1.00  0.00    -0.127 C  
BRANCH  19  20
HETATM   20  C   UNL     1      -8.395   4.659  73.965  1.00  0.00    -0.103 C  
BRANCH  20  21
HETATM   21  C   UNL     1      -8.177   3.977  72.622  1.00  0.00    -0.095 C  
BRANCH  21  22
HETATM   22  C   UNL     1      -9.000   2.700  72.506  1.00  0.00    -0.108 C  
BRANCH  22  23
HETATM   23  C   UNL     1      -9.413   2.467  71.061  1.00  0.00    -0.149 C  
BRANCH  23  24
HETATM   24  O   UNL     1      -8.482   1.570  70.467  1.00  0.00    -0.041 OA 
BRANCH  24  25
HETATM   25  C   UNL     1      -7.853   2.152  69.327  1.00  0.00    -0.042 C  
BRANCH  25  26
HETATM   26  C   UNL     1      -8.652   3.375  68.897  1.00  0.00    -0.120 C  
BRANCH  26  27
HETATM   27  C   UNL     1      -9.009   3.302  67.411  1.00  0.00    -0.176 C  
BRANCH  27  28
HETATM   28  C   UNL     1      -8.292   4.379  66.598  1.00  0.00    -0.105 C  
BRANCH  28  29
HETATM   29  C   UNL     1      -8.922   5.726  66.860  1.00  0.00    -0.114 A  
HETATM   30  C   UNL     1     -10.303   5.902  66.715  1.00  0.00    -0.302 A  
HETATM   31  C   UNL     1     -10.872   7.165  66.878  1.00  0.00    -0.307 A  
HETATM   32  C   UNL     1     -10.067   8.260  67.184  1.00  0.00    -0.334 A  
HETATM   33  C   UNL     1      -8.691   8.094  67.333  1.00  0.00    -0.124 A  
HETATM   34  C   UNL     1      -8.119   6.832  67.171  1.00  0.00    -0.117 A  
ENDBRANCH  28  29
ENDBRANCH  27  28
ENDBRANCH  26  27
ENDBRANCH  25  26
ENDBRANCH  24  25
ENDBRANCH  23  24
ENDBRANCH  22  23
ENDBRANCH  21  22
ENDBRANCH  20  21
ENDBRANCH  19  20
ENDBRANCH  18  19
ENDBRANCH  16  18
ENDBRANCH  15  16
ENDBRANCH  12  15
ENDBRANCH  10  12
ENDBRANCH   2   4
TORSDOF 16
ENDMDL
MODEL      344
REMARK 921   NORMALIZED FREE ENERGY PREDICTED BY IDOCK:   -3.73 KCAL/MOL
REMARK 922        TOTAL FREE ENERGY PREDICTED BY IDOCK:   -9.56 KCAL/MOL
REMARK 923 INTER-LIGAND FREE ENERGY PREDICTED BY IDOCK:   -8.33 KCAL/MOL
REMARK 924 INTRA-LIGAND FREE ENERGY PREDICTED BY IDOCK:   -1.23 KCAL/MOL
REMARK 927      BINDING AFFINITY PREDICTED BY RF-SCORE:    0.00 PKD
ROOT
HETATM    1  O   UNL     1      -9.348  15.218  69.628  1.00  0.00    -0.372 OA 
HETATM    2  C   UNL     1     -10.619  15.769  69.278  1.00  0.00    -0.244 C  
HETATM    3  H   UNL     1      -9.276  15.135  70.573  1.00  0.00     0.000 HD 
ENDROOT
BRANCH   2   4
HETATM    4  C   UNL     1     -10.734  15.901  67.782  1.00  0.00    -0.320 A  
HETATM    5  C   UNL     1     -10.302  17.036  67.086  1.00  0.00    -0.305 A  
HETATM    6  O   UNL     1      -9.803  18.132  67.733  1.00  0.00    -0.289 OA 
HETATM    7  C   UNL     1     -10.387  17.113  65.700  1.00  0.00    -0.198 A  
HETATM    8  C   UNL     1     -10.934  16.054  64.980  1.00  0.00    -0.393 A  
HETATM    9  H   UNL     1      -9.510  18.902  67.261  1.00  0.00     0.000 HD 
HETATM   10  C   UNL     1     -11.383  14.899  65.639  1.00  0.00    -0.325 A  
HETATM   11  C   UNL     1     -11.254  14.827  67.037  1.00  0.00    -0.347 A  
BRANCH  10  12
HETATM   12  C   UNL     1     -12.024  13.752  64.879  1.00  0.00    -0.390 C  
HETATM   13  O   UNL     1     -12.422  14.189  63.570  1.00  0.00    -1.076 OA 
HETATM   14  H   UNL     1     -12.823  13.471  63.093  1.00  0.00     0.000 HD 
BRANCH  12  15
HETATM   15  C   UNL     1     -11.074  12.544  64.736  1.00  0.00    -0.301 C  
BRANCH  15  16
HETATM   16  N   UNL     1     -11.257  11.589  65.842  1.00  0.00    -0.233 NA 
HETATM   17  H   UNL     1     -11.925  10.855  65.606  1.00  0.00     0.000 HD 
BRANCH  16  18
HETATM   18  C   UNL     1      -9.966  11.043  66.250  1.00  0.00    -0.224 C  
BRANCH  18  19
HETATM   19  C   UNL     1      -9.850  11.061  67.769  1.00  0.00    -0.190 C  
BRANCH  19  20
HETATM   20  C   UNL     1     -11.056  11.768  68.383  1.00  0.00    -0.286 C  
BRANCH  20  21
HETATM   21  C   UNL     1     -11.698  10.901  69.456  1.00  0.00    -0.400 C  
BRANCH  21  22
HETATM   22  C   UNL     1     -10.675  10.447  70.490  1.00  0.00    -0.096 C  
BRANCH  22  23
HETATM   23  C   UNL     1     -11.255   9.338  71.355  1.00  0.00    -0.362 C  
BRANCH  23  24
HETATM   24  O   UNL     1     -10.544   8.137  71.082  1.00  0.00    -0.201 OA 
BRANCH  24  25
HETATM   25  C   UNL     1     -10.931   7.090  71.969  1.00  0.00    -0.232 C  
BRANCH  25  26
HETATM   26  C   UNL     1     -10.446   5.762  71.401  1.00  0.00    -0.296 C  
BRANCH  26  27
HETATM   27  C   UNL     1     -10.651   5.705  69.887  1.00  0.00    -0.399 C  
BRANCH  27  28
HETATM   28  C   UNL     1     -10.150   4.391  69.291  1.00  0.00    -0.021 C  
BRANCH  28  29
HETATM   29  C   UNL     1      -9.759   4.597  67.847  1.00  0.00    -0.198 A  
HETATM   30  C   UNL     1     -10.045   5.804  67.201  1.00  0.00    -0.216 A  
HETATM   31  C   UNL     1      -9.756   5.963  65.846  1.00  0.00     0.060 A  
HETATM   32  C   UNL     1      -9.184   4.917  65.126  1.00  0.00    -0.128 A  
HETATM   33  C   UNL     1      -8.892   3.711  65.762  1.00  0.00    -0.127 A  
HETATM   34  C   UNL     1      -9.179   3.549  67.117  1.00  0.00    -0.217 A  
ENDBRANCH  28  29
ENDBRANCH  27  28
ENDBRANCH  26  27
ENDBRANCH  25  26
ENDBRANCH  24  25
ENDBRANCH  23  24
ENDBRANCH  22  23
ENDBRANCH  21  22
ENDBRANCH  20  21
ENDBRANCH  19  20
ENDBRANCH  18  19
ENDBRANCH  16  18
ENDBRANCH  15  16
ENDBRANCH  12  15
ENDBRANCH  10  12
ENDBRANCH   2   4
TORSDOF 16
ENDMDL
MODEL      345
REMARK 921   NORMALIZED FREE ENERGY PREDICTED BY IDOCK:   -3.71 KCAL/MOL
REMARK 922        TOTAL FREE ENERGY PREDICTED BY IDOCK:   -9.52 KCAL/MOL
REMARK 923 INTER-LIGAND FREE ENERGY PREDICTED BY IDOCK:   -7.69 KCAL/MOL
REMARK 924 INTRA-LIGAND FREE ENERGY PREDICTED BY IDOCK:   -1.83 KCAL/MOL
REMARK 927      BINDING AFFINITY PREDICTED BY RF-SCORE:    0.00 PKD
ROOT
HETATM    1  O   UNL     1      -9.871  19.342  68.933  1.00  0.00    -0.424 OA 
HETATM    2  C   UNL     1     -10.209  18.991  67.591  1.00  0.00    -0.400 C  
HETATM    3  H   UNL     1      -9.643  20.263  68.984  1.00  0.00     0.000 HD 
ENDROOT
BRANCH   2   4
HETATM    4  C   UNL     1     -10.570  17.531  67.510  1.00  0.00    -0.333 A  
HETATM    5  C   UNL     1     -10.830  16.751  68.643  1.00  0.00    -0.336 A  
HETATM    6  O   UNL     1     -10.708  17.254  69.908  1.00  0.00    -0.307 OA 
HETATM    7  C   UNL     1     -11.198  15.414  68.535  1.00  0.00    -0.321 A  
HETATM    8  C   UNL     1     -11.290  14.821  67.279  1.00  0.00    -0.366 A  
HETATM    9  H   UNL     1     -10.883  16.725  70.677  1.00  0.00     0.000 HD 
HETATM   10  C   UNL     1     -11.034  15.566  66.116  1.00  0.00    -0.247 A  
HETATM   11  C   UNL     1     -10.699  16.925  66.247  1.00  0.00    -0.096 A  
BRANCH  10  12
HETATM   12  C   UNL     1     -11.085  14.929  64.740  1.00  0.00    -0.383 C  
HETATM   13  O   UNL     1      -9.829  14.300  64.441  1.00  0.00    -0.581 OA 
HETATM   14  H   UNL     1      -9.860  13.900  63.579  1.00  0.00     0.000 HD 
BRANCH  12  15
HETATM   15  C   UNL     1     -12.210  13.879  64.624  1.00  0.00    -0.419 C  
BRANCH  15  16
HETATM   16  N   UNL     1     -11.989  12.756  65.551  1.00  0.00    -0.425 NA 
HETATM   17  H   UNL     1     -12.836  12.512  66.064  1.00  0.00     0.000 HD 
BRANCH  16  18
HETATM   18  C   UNL     1     -11.438  11.613  64.831  1.00  0.00    -0.136 C  
BRANCH  18  19
HETATM   19  C   UNL     1     -10.509  10.821  65.741  1.00  0.00    -0.256 C  
BRANCH  19  20
HETATM   20  C   UNL     1      -9.782  11.761  66.700  1.00  0.00    -0.219 C  
BRANCH  20  21
HETATM   21  C   UNL     1      -9.989  11.323  68.143  1.00  0.00    -0.191 C  
BRANCH  21  22
HETATM   22  C   UNL     1     -10.688   9.971  68.219  1.00  0.00    -0.280 C  
BRANCH  22  23
HETATM   23  C   UNL     1     -10.117   9.144  69.360  1.00  0.00    -0.197 C  
BRANCH  23  24
HETATM   24  O   UNL     1     -10.903   7.968  69.501  1.00  0.00    -0.218 OA 
BRANCH  24  25
HETATM   25  C   UNL     1     -10.183   6.808  69.090  1.00  0.00    -0.181 C  
BRANCH  25  26
HETATM   26  C   UNL     1     -10.688   6.378  67.718  1.00  0.00    -0.377 C  
BRANCH  26  27
HETATM   27  C   UNL     1      -9.570   6.447  66.676  1.00  0.00    -0.194 C  
BRANCH  27  28
HETATM   28  C   UNL     1      -8.348   7.199  67.198  1.00  0.00    -0.118 C  
BRANCH  28  29
HETATM   29  C   UNL     1      -7.919   8.243  66.195  1.00  0.00    -0.100 A  
HETATM   30  C   UNL     1      -8.329   8.154  64.861  1.00  0.00    -0.133 A  
HETATM   31  C   UNL     1      -7.867   9.074  63.919  1.00  0.00    -0.133 A  
HETATM   32  C   UNL     1      -6.992  10.087  64.304  1.00  0.00    -0.128 A  
HETATM   33  C   UNL     1      -6.580  10.186  65.632  1.00  0.00    -0.112 A  
HETATM   34  C   UNL     1      -7.041   9.268  66.576  1.00  0.00    -0.085 A  
ENDBRANCH  28  29
ENDBRANCH  27  28
ENDBRANCH  26  27
ENDBRANCH  25  26
ENDBRANCH  24  25
ENDBRANCH  23  24
ENDBRANCH  22  23
ENDBRANCH  21  22
ENDBRANCH  20  21
ENDBRANCH  19  20
ENDBRANCH  18  19
ENDBRANCH  16  18
ENDBRANCH  15  16
ENDBRANCH  12  15
ENDBRANCH  10  12
ENDBRANCH   2   4
TORSDOF 16
ENDMDL
MODEL      346
REMARK 921   NORMALIZED FREE ENERGY PREDICTED BY IDOCK:   -3.70 KCAL/MOL
REMARK 922        TOTAL FREE ENERGY PREDICTED BY IDOCK:   -9.51 KCAL/MOL
REMARK 923 INTER-LIGAND FREE ENERGY PREDICTED BY IDOCK:   -7.82 KCAL/MOL
REMARK 924 INTRA-LIGAND FREE ENERGY PREDICTED BY IDOCK:   -1.69 KCAL/MOL
REMARK 927      BINDING AFFINITY PREDICTED BY RF-SCORE:    0.00 PKD
ROOT
HETATM    1  O   UNL     1     -12.886  14.363  72.650  1.00  0.00    -0.388 OA 
HETATM    2  C   UNL     1     -13.854  13.352  72.365  1.00  0.00    -0.564 C  
HETATM    3  H   UNL     1     -13.282  15.063  73.156  1.00  0.00     0.000 HD 
ENDROOT
BRANCH   2   4
HETATM    4  C   UNL     1     -13.227  12.242  71.563  1.00  0.00    -0.268 A  
HETATM    5  C   UNL     1     -12.510  12.472  70.383  1.00  0.00    -0.138 A  
HETATM    6  O   UNL     1     -12.388  13.724  69.846  1.00  0.00    -0.322 OA 
HETATM    7  C   UNL     1     -11.910  11.431  69.684  1.00  0.00    -0.431 A  
HETATM    8  C   UNL     1     -12.040  10.123  70.144  1.00  0.00    -0.224 A  
HETATM    9  H   UNL     1     -11.902  13.880  69.045  1.00  0.00     0.000 HD 
HETATM   10  C   UNL     1     -12.754   9.847  71.321  1.00  0.00    -0.482 A  
HETATM   11  C   UNL     1     -13.321  10.920  72.032  1.00  0.00    -0.394 A  
BRANCH  10  12
HETATM   12  C   UNL     1     -12.946   8.426  71.817  1.00  0.00    -0.344 C  
HETATM   13  O   UNL     1     -13.154   7.540  70.706  1.00  0.00    -0.579 OA 
HETATM   14  H   UNL     1     -13.273   6.649  71.016  1.00  0.00     0.000 HD 
BRANCH  12  15
HETATM   15  C   UNL     1     -11.737   7.926  72.637  1.00  0.00    -0.341 C  
BRANCH  15  16
HETATM   16  N   UNL     1     -11.368   6.552  72.258  1.00  0.00    -0.270 NA 
HETATM   17  H   UNL     1     -10.811   6.528  71.404  1.00  0.00     0.000 HD 
BRANCH  16  18
HETATM   18  C   UNL     1     -10.693   5.890  73.369  1.00  0.00    -0.267 C  
BRANCH  18  19
HETATM   19  C   UNL     1      -9.190   5.854  73.121  1.00  0.00    -0.133 C  
BRANCH  19  20
HETATM   20  C   UNL     1      -8.818   4.608  72.320  1.00  0.00    -0.133 C  
BRANCH  20  21
HETATM   21  C   UNL     1      -8.577   4.960  70.859  1.00  0.00    -0.128 C  
BRANCH  21  22
HETATM   22  C   UNL     1      -9.557   4.237  69.944  1.00  0.00    -0.279 C  
BRANCH  22  23
HETATM   23  C   UNL     1     -10.205   5.220  68.981  1.00  0.00    -0.199 C  
BRANCH  23  24
HETATM   24  O   UNL     1      -9.894   4.819  67.652  1.00  0.00    -0.164 OA 
BRANCH  24  25
HETATM   25  C   UNL     1      -9.463   5.925  66.862  1.00  0.00    -0.135 C  
BRANCH  25  26
HETATM   26  C   UNL     1      -9.530   7.189  67.709  1.00  0.00    -0.136 C  
BRANCH  26  27
HETATM   27  C   UNL     1     -10.494   8.208  67.099  1.00  0.00    -0.396 C  
BRANCH  27  28
HETATM   28  C   UNL     1      -9.781   9.176  66.157  1.00  0.00    -0.357 C  
BRANCH  28  29
HETATM   29  C   UNL     1      -8.881  10.094  66.949  1.00  0.00    -0.142 A  
HETATM   30  C   UNL     1      -8.786   9.967  68.339  1.00  0.00    -0.117 A  
HETATM   31  C   UNL     1      -8.016  10.867  69.077  1.00  0.00    -0.131 A  
HETATM   32  C   UNL     1      -7.339  11.900  68.433  1.00  0.00    -0.095 A  
HETATM   33  C   UNL     1      -7.425  12.032  67.047  1.00  0.00    -0.106 A  
HETATM   34  C   UNL     1      -8.193  11.134  66.307  1.00  0.00    -0.153 A  
ENDBRANCH  28  29
ENDBRANCH  27  28
ENDBRANCH  26  27
ENDBRANCH  25  26
ENDBRANCH  24  25
ENDBRANCH  23  24
ENDBRANCH  22  23
ENDBRANCH  21  22
ENDBRANCH  20  21
ENDBRANCH  19  20
ENDBRANCH  18  19
ENDBRANCH  16  18
ENDBRANCH  15  16
ENDBRANCH  12  15
ENDBRANCH  10  12
ENDBRANCH   2   4
TORSDOF 16
ENDMDL
MODEL      347
REMARK 921   NORMALIZED FREE ENERGY PREDICTED BY IDOCK:   -3.70 KCAL/MOL
REMARK 922        TOTAL FREE ENERGY PREDICTED BY IDOCK:   -9.50 KCAL/MOL
REMARK 923 INTER-LIGAND FREE ENERGY PREDICTED BY IDOCK:   -8.30 KCAL/MOL
REMARK 924 INTRA-LIGAND FREE ENERGY PREDICTED BY IDOCK:   -1.20 KCAL/MOL
REMARK 927      BINDING AFFINITY PREDICTED BY RF-SCORE:    0.00 PKD
ROOT
HETATM    1  O   UNL     1     -10.731  16.507  67.987  1.00  0.00    -0.321 OA 
HETATM    2  C   UNL     1     -11.282  16.612  69.301  1.00  0.00    -0.123 C  
HETATM    3  H   UNL     1     -10.458  17.363  67.677  1.00  0.00     0.000 HD 
ENDROOT
BRANCH   2   4
HETATM    4  C   UNL     1     -11.715  15.256  69.794  1.00  0.00    -0.347 A  
HETATM    5  C   UNL     1     -12.367  15.067  71.018  1.00  0.00    -0.332 A  
HETATM    6  O   UNL     1     -12.597  16.104  71.879  1.00  0.00    -0.515 OA 
HETATM    7  C   UNL     1     -12.788  13.808  71.429  1.00  0.00    -0.449 A  
HETATM    8  C   UNL     1     -12.539  12.698  70.625  1.00  0.00    -0.241 A  
HETATM    9  H   UNL     1     -13.040  15.976  72.710  1.00  0.00     0.000 HD 
HETATM   10  C   UNL     1     -11.884  12.842  69.392  1.00  0.00    -0.359 A  
HETATM   11  C   UNL     1     -11.499  14.130  68.979  1.00  0.00    -0.322 A  
BRANCH  10  12
HETATM   12  C   UNL     1     -11.562  11.641  68.522  1.00  0.00    -0.317 C  
HETATM   13  O   UNL     1     -12.610  10.665  68.620  1.00  0.00    -0.645 OA 
HETATM   14  H   UNL     1     -12.409   9.913  68.074  1.00  0.00     0.000 HD 
BRANCH  12  15
HETATM   15  C   UNL     1     -11.376  12.029  67.039  1.00  0.00    -0.336 C  
BRANCH  15  16
HETATM   16  N   UNL     1      -9.955  12.002  66.655  1.00  0.00    -0.198 NA 
HETATM   17  H   UNL     1      -9.352  11.757  67.441  1.00  0.00     0.000 HD 
BRANCH  16  18
HETATM   18  C   UNL     1      -9.760  11.109  65.517  1.00  0.00    -0.228 C  
BRANCH  18  19
HETATM   19  C   UNL     1      -9.217   9.767  65.993  1.00  0.00    -0.226 C  
BRANCH  19  20
HETATM   20  C   UNL     1      -7.882   9.469  65.315  1.00  0.00    -0.111 C  
BRANCH  20  21
HETATM   21  C   UNL     1      -7.769   7.989  64.979  1.00  0.00    -0.112 C  
BRANCH  21  22
HETATM   22  C   UNL     1      -8.901   7.187  65.610  1.00  0.00    -0.043 C  
BRANCH  22  23
HETATM   23  C   UNL     1      -8.422   5.789  65.969  1.00  0.00    -0.135 C  
BRANCH  23  24
HETATM   24  O   UNL     1      -9.324   5.236  66.919  1.00  0.00    -0.121 OA 
BRANCH  24  25
HETATM   25  C   UNL     1     -10.370   6.149  67.238  1.00  0.00    -0.219 C  
BRANCH  25  26
HETATM   26  C   UNL     1     -10.595   6.132  68.745  1.00  0.00    -0.330 C  
BRANCH  26  27
HETATM   27  C   UNL     1      -9.501   5.333  69.453  1.00  0.00    -0.190 C  
BRANCH  27  28
HETATM   28  C   UNL     1      -9.258   5.833  70.876  1.00  0.00    -0.174 C  
BRANCH  28  29
HETATM   29  C   UNL     1     -10.159   7.010  71.168  1.00  0.00    -0.197 A  
HETATM   30  C   UNL     1     -11.487   6.806  71.556  1.00  0.00    -0.329 A  
HETATM   31  C   UNL     1     -12.340   7.893  71.747  1.00  0.00    -0.352 A  
HETATM   32  C   UNL     1     -11.873   9.190  71.548  1.00  0.00    -0.428 A  
HETATM   33  C   UNL     1     -10.550   9.404  71.165  1.00  0.00    -0.403 A  
HETATM   34  C   UNL     1      -9.695   8.318  70.974  1.00  0.00    -0.201 A  
ENDBRANCH  28  29
ENDBRANCH  27  28
ENDBRANCH  26  27
ENDBRANCH  25  26
ENDBRANCH  24  25
ENDBRANCH  23  24
ENDBRANCH  22  23
ENDBRANCH  21  22
ENDBRANCH  20  21
ENDBRANCH  19  20
ENDBRANCH  18  19
ENDBRANCH  16  18
ENDBRANCH  15  16
ENDBRANCH  12  15
ENDBRANCH  10  12
ENDBRANCH   2   4
TORSDOF 16
ENDMDL
MODEL      348
REMARK 921   NORMALIZED FREE ENERGY PREDICTED BY IDOCK:   -3.69 KCAL/MOL
REMARK 922        TOTAL FREE ENERGY PREDICTED BY IDOCK:   -9.49 KCAL/MOL
REMARK 923 INTER-LIGAND FREE ENERGY PREDICTED BY IDOCK:   -8.54 KCAL/MOL
REMARK 924 INTRA-LIGAND FREE ENERGY PREDICTED BY IDOCK:   -0.94 KCAL/MOL
REMARK 927      BINDING AFFINITY PREDICTED BY RF-SCORE:    0.00 PKD
ROOT
HETATM    1  O   UNL     1     -10.784   4.144  63.196  1.00  0.00    -0.402 OA 
HETATM    2  C   UNL     1     -10.055   3.248  64.036  1.00  0.00    -0.188 C  
HETATM    3  H   UNL     1     -11.075   3.695  62.411  1.00  0.00     0.000 HD 
ENDROOT
BRANCH   2   4
HETATM    4  C   UNL     1      -9.593   3.960  65.281  1.00  0.00    -0.185 A  
HETATM    5  C   UNL     1      -8.433   3.598  65.974  1.00  0.00    -0.111 A  
HETATM    6  O   UNL     1      -7.673   2.525  65.599  1.00  0.00    -0.075 OA 
HETATM    7  C   UNL     1      -8.012   4.298  67.099  1.00  0.00    -0.097 A  
HETATM    8  C   UNL     1      -8.767   5.370  67.570  1.00  0.00    -0.107 A  
HETATM    9  H   UNL     1      -6.886   2.279  66.070  1.00  0.00     0.000 HD 
HETATM   10  C   UNL     1      -9.940   5.764  66.907  1.00  0.00    -0.200 A  
HETATM   11  C   UNL     1     -10.327   5.064  65.750  1.00  0.00    -0.158 A  
BRANCH  10  12
HETATM   12  C   UNL     1     -10.801   6.899  67.428  1.00  0.00    -0.326 C  
HETATM   13  O   UNL     1     -11.346   6.557  68.712  1.00  0.00    -0.547 OA 
HETATM   14  H   UNL     1     -11.885   7.268  69.039  1.00  0.00     0.000 HD 
BRANCH  12  15
HETATM   15  C   UNL     1     -10.012   8.219  67.555  1.00  0.00    -0.193 C  
BRANCH  15  16
HETATM   16  N   UNL     1     -10.346   9.147  66.463  1.00  0.00    -0.241 NA 
HETATM   17  H   UNL     1     -11.311   9.038  66.151  1.00  0.00     0.000 HD 
BRANCH  16  18
HETATM   18  C   UNL     1     -10.054  10.520  66.864  1.00  0.00    -0.216 C  
BRANCH  18  19
HETATM   19  C   UNL     1     -11.347  11.253  67.198  1.00  0.00    -0.295 C  
BRANCH  19  20
HETATM   20  C   UNL     1     -11.183  12.751  66.950  1.00  0.00    -0.339 C  
BRANCH  20  21
HETATM   21  C   UNL     1     -12.018  13.192  65.757  1.00  0.00    -0.473 C  
BRANCH  21  22
HETATM   22  C   UNL     1     -11.636  14.594  65.298  1.00  0.00    -0.354 C  
BRANCH  22  23
HETATM   23  C   UNL     1     -10.151  14.837  65.521  1.00  0.00    -0.380 C  
BRANCH  23  24
HETATM   24  O   UNL     1      -9.948  16.231  65.718  1.00  0.00    -0.350 OA 
BRANCH  24  25
HETATM   25  C   UNL     1      -9.826  16.550  67.102  1.00  0.00    -0.255 C  
BRANCH  25  26
HETATM   26  C   UNL     1     -10.517  17.882  67.362  1.00  0.00    -0.390 C  
BRANCH  26  27
HETATM   27  C   UNL     1     -10.102  18.927  66.324  1.00  0.00    -0.460 C  
BRANCH  27  28
HETATM   28  C   UNL     1      -9.462  20.153  66.973  1.00  0.00    -0.541 C  
BRANCH  28  29
HETATM   29  C   UNL     1      -7.964  20.111  66.785  1.00  0.00    -0.343 A  
HETATM   30  C   UNL     1      -7.125  20.866  67.611  1.00  0.00    -0.339 A  
HETATM   31  C   UNL     1      -5.749  20.889  67.385  1.00  0.00    -0.301 A  
HETATM   32  C   UNL     1      -5.202  20.161  66.330  1.00  0.00    -0.174 A  
HETATM   33  C   UNL     1      -6.030  19.402  65.504  1.00  0.00    -0.226 A  
HETATM   34  C   UNL     1      -7.406  19.377  65.729  1.00  0.00    -0.279 A  
ENDBRANCH  28  29
ENDBRANCH  27  28
ENDBRANCH  26  27
ENDBRANCH  25  26
ENDBRANCH  24  25
ENDBRANCH  23  24
ENDBRANCH  22  23
ENDBRANCH  21  22
ENDBRANCH  20  21
ENDBRANCH  19  20
ENDBRANCH  18  19
ENDBRANCH  16  18
ENDBRANCH  15  16
ENDBRANCH  12  15
ENDBRANCH  10  12
ENDBRANCH   2   4
TORSDOF 16
ENDMDL
MODEL      349
REMARK 921   NORMALIZED FREE ENERGY PREDICTED BY IDOCK:   -3.69 KCAL/MOL
REMARK 922        TOTAL FREE ENERGY PREDICTED BY IDOCK:   -9.48 KCAL/MOL
REMARK 923 INTER-LIGAND FREE ENERGY PREDICTED BY IDOCK:   -7.07 KCAL/MOL
REMARK 924 INTRA-LIGAND FREE ENERGY PREDICTED BY IDOCK:   -2.41 KCAL/MOL
REMARK 927      BINDING AFFINITY PREDICTED BY RF-SCORE:    0.00 PKD
ROOT
HETATM    1  O   UNL     1     -10.716  18.586  68.249  1.00  0.00    -0.313 OA 
HETATM    2  C   UNL     1     -10.043  17.330  68.154  1.00  0.00    -0.325 C  
HETATM    3  H   UNL     1     -10.413  19.064  69.013  1.00  0.00     0.000 HD 
ENDROOT
BRANCH   2   4
HETATM    4  C   UNL     1     -10.524  16.573  66.944  1.00  0.00    -0.282 A  
HETATM    5  C   UNL     1     -10.722  17.182  65.699  1.00  0.00    -0.136 A  
HETATM    6  O   UNL     1     -10.553  18.526  65.519  1.00  0.00    -0.621 OA 
HETATM    7  C   UNL     1     -11.131  16.449  64.590  1.00  0.00    -0.202 A  
HETATM    8  C   UNL     1     -11.373  15.084  64.713  1.00  0.00    -0.409 A  
HETATM    9  H   UNL     1     -10.689  18.940  64.675  1.00  0.00     0.000 HD 
HETATM   10  C   UNL     1     -11.191  14.434  65.944  1.00  0.00    -0.324 A  
HETATM   11  C   UNL     1     -10.743  15.187  67.044  1.00  0.00    -0.307 A  
BRANCH  10  12
HETATM   12  C   UNL     1     -11.493  12.957  66.113  1.00  0.00    -0.348 C  
HETATM   13  O   UNL     1     -12.285  12.745  67.292  1.00  0.00    -0.387 OA 
HETATM   14  H   UNL     1     -12.474  11.820  67.397  1.00  0.00     0.000 HD 
BRANCH  12  15
HETATM   15  C   UNL     1     -12.241  12.372  64.896  1.00  0.00    -0.418 C  
BRANCH  15  16
HETATM   16  N   UNL     1     -11.410  11.389  64.181  1.00  0.00    -0.325 NA 
HETATM   17  H   UNL     1     -11.152  11.713  63.249  1.00  0.00     0.000 HD 
BRANCH  16  18
HETATM   18  C   UNL     1     -10.241  11.044  64.984  1.00  0.00    -0.299 C  
BRANCH  18  19
HETATM   19  C   UNL     1      -9.359  10.060  64.225  1.00  0.00    -0.345 C  
BRANCH  19  20
HETATM   20  C   UNL     1      -8.524   9.238  65.204  1.00  0.00    -0.173 C  
BRANCH  20  21
HETATM   21  C   UNL     1      -8.357   7.811  64.702  1.00  0.00    -0.026 C  
BRANCH  21  22
HETATM   22  C   UNL     1      -8.118   6.840  65.853  1.00  0.00    -0.123 C  
BRANCH  22  23
HETATM   23  C   UNL     1      -7.072   7.398  66.805  1.00  0.00    -0.079 C  
BRANCH  23  24
HETATM   24  O   UNL     1      -7.436   7.040  68.132  1.00  0.00    -0.094 OA 
BRANCH  24  25
HETATM   25  C   UNL     1      -8.822   6.719  68.224  1.00  0.00    -0.125 C  
BRANCH  25  26
HETATM   26  C   UNL     1      -9.200   6.589  69.694  1.00  0.00    -0.143 C  
BRANCH  26  27
HETATM   27  C   UNL     1      -9.296   7.963  70.359  1.00  0.00    -0.159 C  
BRANCH  27  28
HETATM   28  C   UNL     1      -9.939   8.999  69.440  1.00  0.00    -0.191 C  
BRANCH  28  29
HETATM   29  C   UNL     1      -8.990  10.154  69.224  1.00  0.00    -0.193 A  
HETATM   30  C   UNL     1      -9.403  11.287  68.515  1.00  0.00    -0.182 A  
HETATM   31  C   UNL     1      -8.501  12.318  68.247  1.00  0.00    -0.173 A  
HETATM   32  C   UNL     1      -7.181  12.222  68.682  1.00  0.00    -0.105 A  
HETATM   33  C   UNL     1      -6.761  11.098  69.392  1.00  0.00    -0.120 A  
HETATM   34  C   UNL     1      -7.661  10.066  69.662  1.00  0.00    -0.147 A  
ENDBRANCH  28  29
ENDBRANCH  27  28
ENDBRANCH  26  27
ENDBRANCH  25  26
ENDBRANCH  24  25
ENDBRANCH  23  24
ENDBRANCH  22  23
ENDBRANCH  21  22
ENDBRANCH  20  21
ENDBRANCH  19  20
ENDBRANCH  18  19
ENDBRANCH  16  18
ENDBRANCH  15  16
ENDBRANCH  12  15
ENDBRANCH  10  12
ENDBRANCH   2   4
TORSDOF 16
ENDMDL
MODEL      350
REMARK 921   NORMALIZED FREE ENERGY PREDICTED BY IDOCK:   -3.68 KCAL/MOL
REMARK 922        TOTAL FREE ENERGY PREDICTED BY IDOCK:   -9.48 KCAL/MOL
REMARK 923 INTER-LIGAND FREE ENERGY PREDICTED BY IDOCK:   -8.44 KCAL/MOL
REMARK 924 INTRA-LIGAND FREE ENERGY PREDICTED BY IDOCK:   -1.03 KCAL/MOL
REMARK 927      BINDING AFFINITY PREDICTED BY RF-SCORE:    0.00 PKD
ROOT
HETATM    1  O   UNL     1      -9.823   3.929  72.482  1.00  0.00    -0.141 OA 
HETATM    2  C   UNL     1      -8.924   4.798  73.172  1.00  0.00    -0.114 C  
HETATM    3  H   UNL     1      -9.803   3.061  72.870  1.00  0.00     0.000 HD 
ENDROOT
BRANCH   2   4
HETATM    4  C   UNL     1      -8.955   6.173  72.558  1.00  0.00    -0.134 A  
HETATM    5  C   UNL     1      -8.089   7.199  72.953  1.00  0.00    -0.105 A  
HETATM    6  O   UNL     1      -7.196   7.035  73.975  1.00  0.00    -0.090 OA 
HETATM    7  C   UNL     1      -8.117   8.448  72.342  1.00  0.00    -0.185 A  
HETATM    8  C   UNL     1      -9.038   8.702  71.329  1.00  0.00    -0.272 A  
HETATM    9  H   UNL     1      -6.608   7.731  74.244  1.00  0.00     0.000 HD 
HETATM   10  C   UNL     1      -9.928   7.702  70.905  1.00  0.00    -0.183 A  
HETATM   11  C   UNL     1      -9.858   6.436  71.513  1.00  0.00    -0.186 A  
BRANCH  10  12
HETATM   12  C   UNL     1     -10.970   7.972  69.836  1.00  0.00    -0.172 C  
HETATM   13  O   UNL     1     -12.289   7.862  70.393  1.00  0.00    -0.426 OA 
HETATM   14  H   UNL     1     -12.942   8.031  69.723  1.00  0.00     0.000 HD 
BRANCH  12  15
HETATM   15  C   UNL     1     -10.808   9.370  69.203  1.00  0.00    -0.155 C  
BRANCH  15  16
HETATM   16  N   UNL     1     -10.799   9.291  67.733  1.00  0.00    -0.480 NA 
HETATM   17  H   UNL     1     -11.429   9.973  67.310  1.00  0.00     0.000 HD 
BRANCH  16  18
HETATM   18  C   UNL     1      -9.434   9.424  67.233  1.00  0.00    -0.133 C  
BRANCH  18  19
HETATM   19  C   UNL     1      -9.318  10.663  66.354  1.00  0.00    -0.195 C  
BRANCH  19  20
HETATM   20  C   UNL     1      -8.983  10.262  64.919  1.00  0.00    -0.231 C  
BRANCH  20  21
HETATM   21  C   UNL     1     -10.137  10.593  63.985  1.00  0.00    -0.378 C  
BRANCH  21  22
HETATM   22  C   UNL     1     -11.115  11.567  64.631  1.00  0.00    -0.317 C  
BRANCH  22  23
HETATM   23  C   UNL     1     -11.857  12.358  63.564  1.00  0.00    -0.521 C  
BRANCH  23  24
HETATM   24  O   UNL     1     -11.989  13.701  64.011  1.00  0.00    -0.437 OA 
BRANCH  24  25
HETATM   25  C   UNL     1     -10.905  14.077  64.859  1.00  0.00    -0.410 C  
BRANCH  25  26
HETATM   26  C   UNL     1     -11.457  14.863  66.041  1.00  0.00    -0.275 C  
BRANCH  26  27
HETATM   27  C   UNL     1     -10.327  15.493  66.857  1.00  0.00    -0.290 C  
BRANCH  27  28
HETATM   28  C   UNL     1     -10.812  16.685  67.679  1.00  0.00    -0.258 C  
BRANCH  28  29
HETATM   29  C   UNL     1      -9.949  17.891  67.394  1.00  0.00    -0.325 A  
HETATM   30  C   UNL     1     -10.481  19.182  67.490  1.00  0.00    -0.549 A  
HETATM   31  C   UNL     1      -9.706  20.290  67.148  1.00  0.00    -0.592 A  
HETATM   32  C   UNL     1      -8.396  20.117  66.705  1.00  0.00    -0.356 A  
HETATM   33  C   UNL     1      -7.856  18.835  66.609  1.00  0.00    -0.275 A  
HETATM   34  C   UNL     1      -8.629  17.725  66.951  1.00  0.00    -0.260 A  
ENDBRANCH  28  29
ENDBRANCH  27  28
ENDBRANCH  26  27
ENDBRANCH  25  26
ENDBRANCH  24  25
ENDBRANCH  23  24
ENDBRANCH  22  23
ENDBRANCH  21  22
ENDBRANCH  20  21
ENDBRANCH  19  20
ENDBRANCH  18  19
ENDBRANCH  16  18
ENDBRANCH  15  16
ENDBRANCH  12  15
ENDBRANCH  10  12
ENDBRANCH   2   4
TORSDOF 16
ENDMDL
MODEL      351
REMARK 921   NORMALIZED FREE ENERGY PREDICTED BY IDOCK:   -3.67 KCAL/MOL
REMARK 922        TOTAL FREE ENERGY PREDICTED BY IDOCK:   -9.45 KCAL/MOL
REMARK 923 INTER-LIGAND FREE ENERGY PREDICTED BY IDOCK:   -7.33 KCAL/MOL
REMARK 924 INTRA-LIGAND FREE ENERGY PREDICTED BY IDOCK:   -2.13 KCAL/MOL
REMARK 927      BINDING AFFINITY PREDICTED BY RF-SCORE:    0.00 PKD
ROOT
HETATM    1  O   UNL     1      -9.989   5.157  65.457  1.00  0.00    -0.354 OA 
HETATM    2  C   UNL     1     -10.808   5.359  66.610  1.00  0.00    -0.141 C  
HETATM    3  H   UNL     1     -10.479   4.702  64.782  1.00  0.00     0.000 HD 
ENDROOT
BRANCH   2   4
HETATM    4  C   UNL     1     -10.031   6.080  67.680  1.00  0.00    -0.154 A  
HETATM    5  C   UNL     1     -10.121   7.462  67.881  1.00  0.00    -0.178 A  
HETATM    6  O   UNL     1     -10.877   8.261  67.068  1.00  0.00    -0.413 OA 
HETATM    7  C   UNL     1      -9.420   8.095  68.901  1.00  0.00    -0.151 A  
HETATM    8  C   UNL     1      -8.589   7.350  69.735  1.00  0.00    -0.140 A  
HETATM    9  H   UNL     1     -10.937   9.199  67.203  1.00  0.00     0.000 HD 
HETATM   10  C   UNL     1      -8.467   5.962  69.566  1.00  0.00    -0.114 A  
HETATM   11  C   UNL     1      -9.212   5.338  68.550  1.00  0.00    -0.138 A  
BRANCH  10  12
HETATM   12  C   UNL     1      -7.532   5.138  70.433  1.00  0.00    -0.067 C  
HETATM   13  O   UNL     1      -6.187   5.626  70.311  1.00  0.00    -0.024 OA 
HETATM   14  H   UNL     1      -5.602   5.110  70.854  1.00  0.00     0.000 HD 
BRANCH  12  15
HETATM   15  C   UNL     1      -7.942   5.165  71.921  1.00  0.00    -0.112 C  
BRANCH  15  16
HETATM   16  N   UNL     1      -9.306   4.645  72.108  1.00  0.00    -0.134 NA 
HETATM   17  H   UNL     1      -9.316   3.631  72.219  1.00  0.00     0.000 HD 
BRANCH  16  18
HETATM   18  C   UNL     1      -9.952   5.323  73.226  1.00  0.00    -0.165 C  
BRANCH  18  19
HETATM   19  C   UNL     1     -10.570   6.634  72.756  1.00  0.00    -0.260 C  
BRANCH  19  20
HETATM   20  C   UNL     1     -11.678   6.361  71.741  1.00  0.00    -0.376 C  
BRANCH  20  21
HETATM   21  C   UNL     1     -12.118   7.651  71.065  1.00  0.00    -0.282 C  
BRANCH  21  22
HETATM   22  C   UNL     1     -12.021   8.839  72.015  1.00  0.00    -0.446 C  
BRANCH  22  23
HETATM   23  C   UNL     1     -11.470  10.055  71.287  1.00  0.00    -0.314 C  
BRANCH  23  24
HETATM   24  O   UNL     1     -12.465  10.529  70.388  1.00  0.00    -0.309 OA 
BRANCH  24  25
HETATM   25  C   UNL     1     -12.258  11.900  70.058  1.00  0.00    -0.217 C  
BRANCH  25  26
HETATM   26  C   UNL     1     -11.064  12.004  69.117  1.00  0.00    -0.272 C  
BRANCH  26  27
HETATM   27  C   UNL     1     -11.401  11.434  67.738  1.00  0.00    -0.354 C  
BRANCH  27  28
HETATM   28  C   UNL     1     -11.849  12.523  66.765  1.00  0.00    -0.416 C  
BRANCH  28  29
HETATM   29  C   UNL     1     -11.068  13.791  67.016  1.00  0.00    -0.313 A  
HETATM   30  C   UNL     1     -11.670  14.880  67.654  1.00  0.00    -0.329 A  
HETATM   31  C   UNL     1     -10.973  16.078  67.812  1.00  0.00    -0.307 A  
HETATM   32  C   UNL     1      -9.670  16.196  67.332  1.00  0.00    -0.233 A  
HETATM   33  C   UNL     1      -9.060  15.114  66.698  1.00  0.00    -0.310 A  
HETATM   34  C   UNL     1      -9.755  13.915  66.539  1.00  0.00    -0.303 A  
ENDBRANCH  28  29
ENDBRANCH  27  28
ENDBRANCH  26  27
ENDBRANCH  25  26
ENDBRANCH  24  25
ENDBRANCH  23  24
ENDBRANCH  22  23
ENDBRANCH  21  22
ENDBRANCH  20  21
ENDBRANCH  19  20
ENDBRANCH  18  19
ENDBRANCH  16  18
ENDBRANCH  15  16
ENDBRANCH  12  15
ENDBRANCH  10  12
ENDBRANCH   2   4
TORSDOF 16
ENDMDL
MODEL      352
REMARK 921   NORMALIZED FREE ENERGY PREDICTED BY IDOCK:   -3.66 KCAL/MOL
REMARK 922        TOTAL FREE ENERGY PREDICTED BY IDOCK:   -9.43 KCAL/MOL
REMARK 923 INTER-LIGAND FREE ENERGY PREDICTED BY IDOCK:   -7.80 KCAL/MOL
REMARK 924 INTRA-LIGAND FREE ENERGY PREDICTED BY IDOCK:   -1.63 KCAL/MOL
REMARK 927      BINDING AFFINITY PREDICTED BY RF-SCORE:    0.00 PKD
ROOT
HETATM    1  O   UNL     1      -6.006  17.350  69.193  1.00  0.00    -0.186 OA 
HETATM    2  C   UNL     1      -6.822  16.200  69.414  1.00  0.00    -0.214 C  
HETATM    3  H   UNL     1      -5.313  17.390  69.842  1.00  0.00     0.000 HD 
ENDROOT
BRANCH   2   4
HETATM    4  C   UNL     1      -7.921  16.136  68.385  1.00  0.00    -0.162 A  
HETATM    5  C   UNL     1      -7.678  16.228  67.010  1.00  0.00    -0.214 A  
HETATM    6  O   UNL     1      -6.423  16.448  66.513  1.00  0.00    -0.255 OA 
HETATM    7  C   UNL     1      -8.708  16.129  66.082  1.00  0.00    -0.358 A  
HETATM    8  C   UNL     1     -10.019  15.958  66.520  1.00  0.00    -0.286 A  
HETATM    9  H   UNL     1      -6.257  16.511  65.580  1.00  0.00     0.000 HD 
HETATM   10  C   UNL     1     -10.308  15.865  67.890  1.00  0.00    -0.269 A  
HETATM   11  C   UNL     1      -9.247  15.932  68.809  1.00  0.00    -0.218 A  
BRANCH  10  12
HETATM   12  C   UNL     1     -11.734  15.725  68.391  1.00  0.00    -0.271 C  
HETATM   13  O   UNL     1     -12.329  14.531  67.859  1.00  0.00    -0.615 OA 
HETATM   14  H   UNL     1     -13.222  14.443  68.172  1.00  0.00     0.000 HD 
BRANCH  12  15
HETATM   15  C   UNL     1     -11.809  15.676  69.932  1.00  0.00    -0.360 C  
BRANCH  15  16
HETATM   16  N   UNL     1     -12.991  14.925  70.385  1.00  0.00    -0.590 NA 
HETATM   17  H   UNL     1     -13.451  14.438  69.616  1.00  0.00     0.000 HD 
BRANCH  16  18
HETATM   18  C   UNL     1     -12.623  14.015  71.465  1.00  0.00    -0.349 C  
BRANCH  18  19
HETATM   19  C   UNL     1     -12.501  12.593  70.931  1.00  0.00    -0.368 C  
BRANCH  19  20
HETATM   20  C   UNL     1     -13.160  11.610  71.896  1.00  0.00    -0.490 C  
BRANCH  20  21
HETATM   21  C   UNL     1     -12.638  10.199  71.665  1.00  0.00    -0.533 C  
BRANCH  21  22
HETATM   22  C   UNL     1     -11.738  10.132  70.437  1.00  0.00    -0.390 C  
BRANCH  22  23
HETATM   23  C   UNL     1     -10.411   9.478  70.789  1.00  0.00    -0.314 C  
BRANCH  23  24
HETATM   24  O   UNL     1     -10.235   8.341  69.954  1.00  0.00    -0.193 OA 
BRANCH  24  25
HETATM   25  C   UNL     1      -9.259   8.582  68.943  1.00  0.00    -0.146 C  
BRANCH  25  26
HETATM   26  C   UNL     1      -8.147   9.442  69.531  1.00  0.00    -0.114 C  
BRANCH  26  27
HETATM   27  C   UNL     1      -7.626  10.445  68.501  1.00  0.00    -0.095 C  
BRANCH  27  28
HETATM   28  C   UNL     1      -6.564   9.831  67.591  1.00  0.00    -0.068 C  
BRANCH  28  29
HETATM   29  C   UNL     1      -7.177   9.463  66.260  1.00  0.00    -0.092 A  
HETATM   30  C   UNL     1      -7.015   8.176  65.737  1.00  0.00    -0.064 A  
HETATM   31  C   UNL     1      -7.512   7.862  64.472  1.00  0.00    -0.099 A  
HETATM   32  C   UNL     1      -8.172   8.832  63.721  1.00  0.00    -0.163 A  
HETATM   33  C   UNL     1      -8.342  10.117  64.235  1.00  0.00    -0.171 A  
HETATM   34  C   UNL     1      -7.846  10.433  65.500  1.00  0.00    -0.152 A  
ENDBRANCH  28  29
ENDBRANCH  27  28
ENDBRANCH  26  27
ENDBRANCH  25  26
ENDBRANCH  24  25
ENDBRANCH  23  24
ENDBRANCH  22  23
ENDBRANCH  21  22
ENDBRANCH  20  21
ENDBRANCH  19  20
ENDBRANCH  18  19
ENDBRANCH  16  18
ENDBRANCH  15  16
ENDBRANCH  12  15
ENDBRANCH  10  12
ENDBRANCH   2   4
TORSDOF 16
ENDMDL
MODEL      353
REMARK 921   NORMALIZED FREE ENERGY PREDICTED BY IDOCK:   -3.65 KCAL/MOL
REMARK 922        TOTAL FREE ENERGY PREDICTED BY IDOCK:   -9.42 KCAL/MOL
REMARK 923 INTER-LIGAND FREE ENERGY PREDICTED BY IDOCK:   -8.27 KCAL/MOL
REMARK 924 INTRA-LIGAND FREE ENERGY PREDICTED BY IDOCK:   -1.15 KCAL/MOL
REMARK 927      BINDING AFFINITY PREDICTED BY RF-SCORE:    0.00 PKD
ROOT
HETATM    1  O   UNL     1      -9.347  15.237  69.630  1.00  0.00    -0.372 OA 
HETATM    2  C   UNL     1     -10.602  15.821  69.277  1.00  0.00    -0.244 C  
HETATM    3  H   UNL     1      -9.282  15.144  70.574  1.00  0.00     0.000 HD 
ENDROOT
BRANCH   2   4
HETATM    4  C   UNL     1     -10.705  15.968  67.782  1.00  0.00    -0.323 A  
HETATM    5  C   UNL     1     -10.222  17.089  67.095  1.00  0.00    -0.306 A  
HETATM    6  O   UNL     1      -9.681  18.158  67.753  1.00  0.00    -0.278 OA 
HETATM    7  C   UNL     1     -10.298  17.180  65.710  1.00  0.00    -0.253 A  
HETATM    8  C   UNL     1     -10.887  16.150  64.980  1.00  0.00    -0.380 A  
HETATM    9  H   UNL     1      -9.353  18.919  67.288  1.00  0.00     0.000 HD 
HETATM   10  C   UNL     1     -11.387  15.010  65.629  1.00  0.00    -0.297 A  
HETATM   11  C   UNL     1     -11.268  14.923  67.027  1.00  0.00    -0.344 A  
BRANCH  10  12
HETATM   12  C   UNL     1     -12.073  13.898  64.858  1.00  0.00    -0.414 C  
HETATM   13  O   UNL     1     -12.390  14.340  63.529  1.00  0.00    -1.080 OA 
HETATM   14  H   UNL     1     -12.819  13.643  63.046  1.00  0.00     0.000 HD 
BRANCH  12  15
HETATM   15  C   UNL     1     -11.201  12.627  64.767  1.00  0.00    -0.302 C  
BRANCH  15  16
HETATM   16  N   UNL     1     -11.513  11.688  65.857  1.00  0.00    -0.294 NA 
HETATM   17  H   UNL     1     -12.189  10.981  65.570  1.00  0.00     0.000 HD 
BRANCH  16  18
HETATM   18  C   UNL     1     -10.284  11.092  66.372  1.00  0.00    -0.236 C  
BRANCH  18  19
HETATM   19  C   UNL     1     -10.289  11.118  67.895  1.00  0.00    -0.211 C  
BRANCH  19  20
HETATM   20  C   UNL     1     -11.505  11.889  68.405  1.00  0.00    -0.357 C  
BRANCH  20  21
HETATM   21  C   UNL     1     -12.281  11.060  69.418  1.00  0.00    -0.329 C  
BRANCH  21  22
HETATM   22  C   UNL     1     -11.380  10.576  70.548  1.00  0.00    -0.400 C  
BRANCH  22  23
HETATM   23  C   UNL     1     -12.084   9.499  71.360  1.00  0.00    -0.378 C  
BRANCH  23  24
HETATM   24  O   UNL     1     -11.104   8.588  71.842  1.00  0.00    -0.279 OA 
BRANCH  24  25
HETATM   25  C   UNL     1     -11.674   7.634  72.735  1.00  0.00    -0.223 C  
BRANCH  25  26
HETATM   26  C   UNL     1     -10.684   6.493  72.931  1.00  0.00    -0.280 C  
BRANCH  26  27
HETATM   27  C   UNL     1     -10.003   6.125  71.612  1.00  0.00    -0.203 C  
BRANCH  27  28
HETATM   28  C   UNL     1      -8.991   4.994  71.788  1.00  0.00    -0.149 C  
BRANCH  28  29
HETATM   29  C   UNL     1      -7.921   5.092  70.727  1.00  0.00    -0.087 A  
HETATM   30  C   UNL     1      -6.878   4.160  70.684  1.00  0.00    -0.033 A  
HETATM   31  C   UNL     1      -5.848   4.299  69.754  1.00  0.00    -0.018 A  
HETATM   32  C   UNL     1      -5.850   5.370  68.863  1.00  0.00    -0.019 A  
HETATM   33  C   UNL     1      -6.887   6.301  68.896  1.00  0.00    -0.066 A  
HETATM   34  C   UNL     1      -7.919   6.165  69.824  1.00  0.00    -0.110 A  
ENDBRANCH  28  29
ENDBRANCH  27  28
ENDBRANCH  26  27
ENDBRANCH  25  26
ENDBRANCH  24  25
ENDBRANCH  23  24
ENDBRANCH  22  23
ENDBRANCH  21  22
ENDBRANCH  20  21
ENDBRANCH  19  20
ENDBRANCH  18  19
ENDBRANCH  16  18
ENDBRANCH  15  16
ENDBRANCH  12  15
ENDBRANCH  10  12
ENDBRANCH   2   4
TORSDOF 16
ENDMDL
MODEL      354
REMARK 921   NORMALIZED FREE ENERGY PREDICTED BY IDOCK:   -3.64 KCAL/MOL
REMARK 922        TOTAL FREE ENERGY PREDICTED BY IDOCK:   -9.38 KCAL/MOL
REMARK 923 INTER-LIGAND FREE ENERGY PREDICTED BY IDOCK:   -8.27 KCAL/MOL
REMARK 924 INTRA-LIGAND FREE ENERGY PREDICTED BY IDOCK:   -1.11 KCAL/MOL
REMARK 927      BINDING AFFINITY PREDICTED BY RF-SCORE:    0.00 PKD
ROOT
HETATM    1  O   UNL     1     -11.071  16.390  68.880  1.00  0.00    -0.325 OA 
HETATM    2  C   UNL     1     -11.572  16.132  70.193  1.00  0.00    -0.243 C  
HETATM    3  H   UNL     1     -10.865  17.312  68.783  1.00  0.00     0.000 HD 
ENDROOT
BRANCH   2   4
HETATM    4  C   UNL     1     -11.899  14.670  70.347  1.00  0.00    -0.365 A  
HETATM    5  C   UNL     1     -12.631  14.167  71.429  1.00  0.00    -0.368 A  
HETATM    6  O   UNL     1     -13.043  14.970  72.456  1.00  0.00    -0.329 OA 
HETATM    7  C   UNL     1     -12.950  12.817  71.525  1.00  0.00    -0.388 A  
HETATM    8  C   UNL     1     -12.517  11.932  70.541  1.00  0.00    -0.301 A  
HETATM    9  H   UNL     1     -13.539  14.629  73.191  1.00  0.00     0.000 HD 
HETATM   10  C   UNL     1     -11.776  12.393  69.441  1.00  0.00    -0.384 A  
HETATM   11  C   UNL     1     -11.496  13.768  69.345  1.00  0.00    -0.341 A  
BRANCH  10  12
HETATM   12  C   UNL     1     -11.256  11.440  68.381  1.00  0.00    -0.263 C  
HETATM   13  O   UNL     1     -11.925  10.174  68.484  1.00  0.00    -0.635 OA 
HETATM   14  H   UNL     1     -11.599   9.577  67.820  1.00  0.00     0.000 HD 
BRANCH  12  15
HETATM   15  C   UNL     1     -11.448  11.994  66.953  1.00  0.00    -0.337 C  
BRANCH  15  16
HETATM   16  N   UNL     1     -10.181  11.987  66.204  1.00  0.00    -0.220 NA 
HETATM   17  H   UNL     1      -9.374  11.898  66.820  1.00  0.00     0.000 HD 
BRANCH  16  18
HETATM   18  C   UNL     1     -10.208  10.944  65.183  1.00  0.00    -0.297 C  
BRANCH  18  19
HETATM   19  C   UNL     1      -9.820   9.604  65.796  1.00  0.00    -0.373 C  
BRANCH  19  20
HETATM   20  C   UNL     1      -8.501   9.115  65.202  1.00  0.00    -0.182 C  
BRANCH  20  21
HETATM   21  C   UNL     1      -8.322   7.624  65.445  1.00  0.00    -0.134 C  
BRANCH  21  22
HETATM   22  C   UNL     1      -9.565   7.010  66.080  1.00  0.00    -0.006 C  
BRANCH  22  23
HETATM   23  C   UNL     1      -9.271   5.597  66.558  1.00  0.00    -0.144 C  
BRANCH  23  24
HETATM   24  O   UNL     1     -10.256   5.233  67.517  1.00  0.00    -0.183 OA 
BRANCH  24  25
HETATM   25  C   UNL     1     -11.084   6.341  67.860  1.00  0.00    -0.258 C  
BRANCH  25  26
HETATM   26  C   UNL     1     -11.216   6.405  69.376  1.00  0.00    -0.459 C  
BRANCH  26  27
HETATM   27  C   UNL     1     -10.458   5.255  70.041  1.00  0.00    -0.351 C  
BRANCH  27  28
HETATM   28  C   UNL     1      -9.956   5.632  71.433  1.00  0.00    -0.237 C  
BRANCH  28  29
HETATM   29  C   UNL     1      -9.912   4.406  72.314  1.00  0.00    -0.239 A  
HETATM   30  C   UNL     1      -9.114   3.312  71.965  1.00  0.00    -0.155 A  
HETATM   31  C   UNL     1      -9.137   2.149  72.737  1.00  0.00    -0.099 A  
HETATM   32  C   UNL     1      -9.958   2.072  73.859  1.00  0.00    -0.139 A  
HETATM   33  C   UNL     1     -10.754   3.159  74.217  1.00  0.00    -0.209 A  
HETATM   34  C   UNL     1     -10.733   4.323  73.448  1.00  0.00    -0.310 A  
ENDBRANCH  28  29
ENDBRANCH  27  28
ENDBRANCH  26  27
ENDBRANCH  25  26
ENDBRANCH  24  25
ENDBRANCH  23  24
ENDBRANCH  22  23
ENDBRANCH  21  22
ENDBRANCH  20  21
ENDBRANCH  19  20
ENDBRANCH  18  19
ENDBRANCH  16  18
ENDBRANCH  15  16
ENDBRANCH  12  15
ENDBRANCH  10  12
ENDBRANCH   2   4
TORSDOF 16
ENDMDL
MODEL      355
REMARK 921   NORMALIZED FREE ENERGY PREDICTED BY IDOCK:   -3.64 KCAL/MOL
REMARK 922        TOTAL FREE ENERGY PREDICTED BY IDOCK:   -9.38 KCAL/MOL
REMARK 923 INTER-LIGAND FREE ENERGY PREDICTED BY IDOCK:   -7.60 KCAL/MOL
REMARK 924 INTRA-LIGAND FREE ENERGY PREDICTED BY IDOCK:   -1.78 KCAL/MOL
REMARK 927      BINDING AFFINITY PREDICTED BY RF-SCORE:    0.00 PKD
ROOT
HETATM    1  O   UNL     1     -10.276   3.465  72.789  1.00  0.00    -0.156 OA 
HETATM    2  C   UNL     1      -9.196   4.151  73.422  1.00  0.00    -0.101 C  
HETATM    3  H   UNL     1     -10.201   2.529  72.934  1.00  0.00     0.000 HD 
ENDROOT
BRANCH   2   4
HETATM    4  C   UNL     1      -9.316   5.635  73.191  1.00  0.00    -0.139 A  
HETATM    5  C   UNL     1      -8.300   6.538  73.525  1.00  0.00    -0.118 A  
HETATM    6  O   UNL     1      -7.151   6.133  74.146  1.00  0.00    -0.086 OA 
HETATM    7  C   UNL     1      -8.424   7.898  73.265  1.00  0.00    -0.261 A  
HETATM    8  C   UNL     1      -9.590   8.388  72.683  1.00  0.00    -0.337 A  
HETATM    9  H   UNL     1      -6.461   6.746  74.372  1.00  0.00     0.000 HD 
HETATM   10  C   UNL     1     -10.636   7.518  72.336  1.00  0.00    -0.299 A  
HETATM   11  C   UNL     1     -10.474   6.142  72.575  1.00  0.00    -0.228 A  
BRANCH  10  12
HETATM   12  C   UNL     1     -11.933   8.035  71.743  1.00  0.00    -0.301 C  
HETATM   13  O   UNL     1     -12.958   8.069  72.749  1.00  0.00    -0.540 OA 
HETATM   14  H   UNL     1     -13.770   8.393  72.378  1.00  0.00     0.000 HD 
BRANCH  12  15
HETATM   15  C   UNL     1     -11.777   9.447  71.140  1.00  0.00    -0.345 C  
BRANCH  15  16
HETATM   16  N   UNL     1     -11.640   9.389  69.675  1.00  0.00    -0.429 NA 
HETATM   17  H   UNL     1     -12.542   9.467  69.205  1.00  0.00     0.000 HD 
BRANCH  16  18
HETATM   18  C   UNL     1     -10.696  10.404  69.219  1.00  0.00    -0.237 C  
BRANCH  18  19
HETATM   19  C   UNL     1      -9.569   9.752  68.428  1.00  0.00    -0.157 C  
BRANCH  19  20
HETATM   20  C   UNL     1      -8.283  10.561  68.577  1.00  0.00    -0.123 C  
BRANCH  20  21
HETATM   21  C   UNL     1      -7.298  10.213  67.471  1.00  0.00    -0.089 C  
BRANCH  21  22
HETATM   22  C   UNL     1      -7.904   9.233  66.473  1.00  0.00    -0.100 C  
BRANCH  22  23
HETATM   23  C   UNL     1      -6.910   8.925  65.364  1.00  0.00    -0.072 C  
BRANCH  23  24
HETATM   24  O   UNL     1      -7.608   8.294  64.298  1.00  0.00    -0.107 OA 
BRANCH  24  25
HETATM   25  C   UNL     1      -7.528   9.059  63.098  1.00  0.00    -0.098 C  
BRANCH  25  26
HETATM   26  C   UNL     1      -8.914   9.594  62.763  1.00  0.00    -0.264 C  
BRANCH  26  27
HETATM   27  C   UNL     1      -9.177  10.921  63.477  1.00  0.00    -0.258 C  
BRANCH  27  28
HETATM   28  C   UNL     1     -10.634  11.361  63.346  1.00  0.00    -0.435 C  
BRANCH  28  29
HETATM   29  C   UNL     1     -10.985  12.316  64.463  1.00  0.00    -0.358 A  
HETATM   30  C   UNL     1     -10.250  12.315  65.653  1.00  0.00    -0.287 A  
HETATM   31  C   UNL     1     -10.625  13.141  66.713  1.00  0.00    -0.267 A  
HETATM   32  C   UNL     1     -11.738  13.971  66.592  1.00  0.00    -0.420 A  
HETATM   33  C   UNL     1     -12.475  13.981  65.408  1.00  0.00    -0.520 A  
HETATM   34  C   UNL     1     -12.101  13.157  64.346  1.00  0.00    -0.471 A  
ENDBRANCH  28  29
ENDBRANCH  27  28
ENDBRANCH  26  27
ENDBRANCH  25  26
ENDBRANCH  24  25
ENDBRANCH  23  24
ENDBRANCH  22  23
ENDBRANCH  21  22
ENDBRANCH  20  21
ENDBRANCH  19  20
ENDBRANCH  18  19
ENDBRANCH  16  18
ENDBRANCH  15  16
ENDBRANCH  12  15
ENDBRANCH  10  12
ENDBRANCH   2   4
TORSDOF 16
ENDMDL
MODEL      356
REMARK 921   NORMALIZED FREE ENERGY PREDICTED BY IDOCK:   -3.63 KCAL/MOL
REMARK 922        TOTAL FREE ENERGY PREDICTED BY IDOCK:   -9.36 KCAL/MOL
REMARK 923 INTER-LIGAND FREE ENERGY PREDICTED BY IDOCK:   -8.69 KCAL/MOL
REMARK 924 INTRA-LIGAND FREE ENERGY PREDICTED BY IDOCK:   -0.68 KCAL/MOL
REMARK 927      BINDING AFFINITY PREDICTED BY RF-SCORE:    0.00 PKD
ROOT
HETATM    1  O   UNL     1      -5.760   2.975  65.268  1.00  0.00    -0.016 OA 
HETATM    2  C   UNL     1      -6.213   3.922  66.237  1.00  0.00    -0.032 C  
HETATM    3  H   UNL     1      -4.825   2.830  65.364  1.00  0.00     0.000 HD 
ENDROOT
BRANCH   2   4
HETATM    4  C   UNL     1      -7.693   4.153  66.086  1.00  0.00    -0.090 A  
HETATM    5  C   UNL     1      -8.479   3.456  65.160  1.00  0.00    -0.099 A  
HETATM    6  O   UNL     1      -7.934   2.560  64.283  1.00  0.00    -0.076 OA 
HETATM    7  C   UNL     1      -9.850   3.665  65.069  1.00  0.00    -0.146 A  
HETATM    8  C   UNL     1     -10.464   4.602  65.896  1.00  0.00    -0.305 A  
HETATM    9  H   UNL     1      -8.466   2.088  63.654  1.00  0.00     0.000 HD 
HETATM   10  C   UNL     1      -9.713   5.326  66.836  1.00  0.00    -0.170 A  
HETATM   11  C   UNL     1      -8.334   5.074  66.935  1.00  0.00    -0.107 A  
BRANCH  10  12
HETATM   12  C   UNL     1     -10.353   6.384  67.715  1.00  0.00    -0.193 C  
HETATM   13  O   UNL     1     -11.611   6.796  67.156  1.00  0.00    -0.725 OA 
HETATM   14  H   UNL     1     -12.012   7.459  67.707  1.00  0.00     0.000 HD 
BRANCH  12  15
HETATM   15  C   UNL     1     -10.586   5.883  69.156  1.00  0.00    -0.299 C  
BRANCH  15  16
HETATM   16  N   UNL     1     -11.863   6.381  69.694  1.00  0.00    -0.523 NA 
HETATM   17  H   UNL     1     -12.605   5.686  69.621  1.00  0.00     0.000 HD 
BRANCH  16  18
HETATM   18  C   UNL     1     -11.682   6.846  71.065  1.00  0.00    -0.345 C  
BRANCH  18  19
HETATM   19  C   UNL     1     -12.924   7.594  71.532  1.00  0.00    -0.378 C  
BRANCH  19  20
HETATM   20  C   UNL     1     -12.555   9.012  71.961  1.00  0.00    -0.464 C  
BRANCH  20  21
HETATM   21  C   UNL     1     -11.459   9.576  71.068  1.00  0.00    -0.420 C  
BRANCH  21  22
HETATM   22  C   UNL     1     -11.991  10.683  70.166  1.00  0.00    -0.417 C  
BRANCH  22  23
HETATM   23  C   UNL     1     -11.289  10.649  68.817  1.00  0.00    -0.277 C  
BRANCH  23  24
HETATM   24  O   UNL     1     -12.130  11.276  67.857  1.00  0.00    -0.634 OA 
BRANCH  24  25
HETATM   25  C   UNL     1     -11.749  12.633  67.638  1.00  0.00    -0.361 C  
BRANCH  25  26
HETATM   26  C   UNL     1     -11.050  12.734  66.288  1.00  0.00    -0.321 C  
BRANCH  26  27
HETATM   27  C   UNL     1     -10.981  14.187  65.814  1.00  0.00    -0.301 C  
BRANCH  27  28
HETATM   28  C   UNL     1     -11.217  15.172  66.957  1.00  0.00    -0.308 C  
BRANCH  28  29
HETATM   29  C   UNL     1      -9.964  15.979  67.207  1.00  0.00    -0.242 A  
HETATM   30  C   UNL     1      -9.696  16.495  68.479  1.00  0.00    -0.239 A  
HETATM   31  C   UNL     1      -8.581  17.307  68.689  1.00  0.00    -0.265 A  
HETATM   32  C   UNL     1      -7.729  17.612  67.629  1.00  0.00    -0.211 A  
HETATM   33  C   UNL     1      -7.987  17.099  66.358  1.00  0.00    -0.346 A  
HETATM   34  C   UNL     1      -9.101  16.286  66.146  1.00  0.00    -0.377 A  
ENDBRANCH  28  29
ENDBRANCH  27  28
ENDBRANCH  26  27
ENDBRANCH  25  26
ENDBRANCH  24  25
ENDBRANCH  23  24
ENDBRANCH  22  23
ENDBRANCH  21  22
ENDBRANCH  20  21
ENDBRANCH  19  20
ENDBRANCH  18  19
ENDBRANCH  16  18
ENDBRANCH  15  16
ENDBRANCH  12  15
ENDBRANCH  10  12
ENDBRANCH   2   4
TORSDOF 16
ENDMDL
MODEL      357
REMARK 921   NORMALIZED FREE ENERGY PREDICTED BY IDOCK:   -3.60 KCAL/MOL
REMARK 922        TOTAL FREE ENERGY PREDICTED BY IDOCK:   -9.31 KCAL/MOL
REMARK 923 INTER-LIGAND FREE ENERGY PREDICTED BY IDOCK:   -7.09 KCAL/MOL
REMARK 924 INTRA-LIGAND FREE ENERGY PREDICTED BY IDOCK:   -2.22 KCAL/MOL
REMARK 927      BINDING AFFINITY PREDICTED BY RF-SCORE:    0.00 PKD
ROOT
HETATM    1  O   UNL     1     -10.650  18.222  66.882  1.00  0.00    -0.379 OA 
HETATM    2  C   UNL     1      -9.630  17.253  66.633  1.00  0.00    -0.276 C  
HETATM    3  H   UNL     1     -10.260  19.053  67.126  1.00  0.00     0.000 HD 
ENDROOT
BRANCH   2   4
HETATM    4  C   UNL     1     -10.248  15.935  66.248  1.00  0.00    -0.324 A  
HETATM    5  C   UNL     1     -10.907  15.734  65.029  1.00  0.00    -0.443 A  
HETATM    6  O   UNL     1     -11.089  16.750  64.132  1.00  0.00    -1.346 OA 
HETATM    7  C   UNL     1     -11.434  14.494  64.685  1.00  0.00    -0.389 A  
HETATM    8  C   UNL     1     -11.332  13.428  65.574  1.00  0.00    -0.310 A  
HETATM    9  H   UNL     1     -11.536  16.614  63.305  1.00  0.00     0.000 HD 
HETATM   10  C   UNL     1     -10.683  13.586  66.809  1.00  0.00    -0.278 A  
HETATM   11  C   UNL     1     -10.125  14.839  67.121  1.00  0.00    -0.240 A  
BRANCH  10  12
HETATM   12  C   UNL     1     -10.600  12.451  67.812  1.00  0.00    -0.217 C  
HETATM   13  O   UNL     1      -9.888  12.877  68.984  1.00  0.00    -0.406 OA 
HETATM   14  H   UNL     1      -9.836  12.166  69.612  1.00  0.00     0.000 HD 
BRANCH  12  15
HETATM   15  C   UNL     1     -11.995  11.941  68.233  1.00  0.00    -0.167 C  
BRANCH  15  16
HETATM   16  N   UNL     1     -12.003  10.477  68.389  1.00  0.00    -0.788 NA 
HETATM   17  H   UNL     1     -11.074  10.075  68.264  1.00  0.00     0.000 HD 
BRANCH  16  18
HETATM   18  C   UNL     1     -12.587  10.113  69.676  1.00  0.00     0.435 C  
BRANCH  18  19
HETATM   19  C   UNL     1     -11.903   8.868  70.226  1.00  0.00     0.116 C  
BRANCH  19  20
HETATM   20  C   UNL     1     -10.629   9.254  70.975  1.00  0.00    -0.386 C  
BRANCH  20  21
HETATM   21  C   UNL     1     -10.578   8.573  72.335  1.00  0.00    -0.368 C  
BRANCH  21  22
HETATM   22  C   UNL     1      -9.317   7.732  72.489  1.00  0.00    -0.234 C  
BRANCH  22  23
HETATM   23  C   UNL     1      -9.208   6.729  71.351  1.00  0.00    -0.153 C  
BRANCH  23  24
HETATM   24  O   UNL     1      -7.870   6.252  71.298  1.00  0.00    -0.104 OA 
BRANCH  24  25
HETATM   25  C   UNL     1      -6.960   7.292  70.945  1.00  0.00    -0.056 C  
BRANCH  25  26
HETATM   26  C   UNL     1      -7.318   7.806  69.556  1.00  0.00    -0.088 C  
BRANCH  26  27
HETATM   27  C   UNL     1      -6.660   9.160  69.286  1.00  0.00    -0.049 C  
BRANCH  27  28
HETATM   28  C   UNL     1      -7.603  10.118  68.560  1.00  0.00    -0.088 C  
BRANCH  28  29
HETATM   29  C   UNL     1      -7.049  11.523  68.613  1.00  0.00    -0.098 A  
HETATM   30  C   UNL     1      -6.620  12.069  69.828  1.00  0.00     0.001 A  
HETATM   31  C   UNL     1      -6.185  13.393  69.889  1.00  0.00    -0.102 A  
HETATM   32  C   UNL     1      -6.178  14.181  68.739  1.00  0.00    -0.086 A  
HETATM   33  C   UNL     1      -6.601  13.643  67.524  1.00  0.00    -0.122 A  
HETATM   34  C   UNL     1      -7.036  12.320  67.460  1.00  0.00    -0.142 A  
ENDBRANCH  28  29
ENDBRANCH  27  28
ENDBRANCH  26  27
ENDBRANCH  25  26
ENDBRANCH  24  25
ENDBRANCH  23  24
ENDBRANCH  22  23
ENDBRANCH  21  22
ENDBRANCH  20  21
ENDBRANCH  19  20
ENDBRANCH  18  19
ENDBRANCH  16  18
ENDBRANCH  15  16
ENDBRANCH  12  15
ENDBRANCH  10  12
ENDBRANCH   2   4
TORSDOF 16
ENDMDL
MODEL      358
REMARK 921   NORMALIZED FREE ENERGY PREDICTED BY IDOCK:   -3.59 KCAL/MOL
REMARK 922        TOTAL FREE ENERGY PREDICTED BY IDOCK:   -9.30 KCAL/MOL
REMARK 923 INTER-LIGAND FREE ENERGY PREDICTED BY IDOCK:   -6.97 KCAL/MOL
REMARK 924 INTRA-LIGAND FREE ENERGY PREDICTED BY IDOCK:   -2.33 KCAL/MOL
REMARK 927      BINDING AFFINITY PREDICTED BY RF-SCORE:    0.00 PKD
ROOT
HETATM    1  O   UNL     1      -8.564  11.481  62.569  1.00  0.00    -0.595 OA 
HETATM    2  C   UNL     1      -9.065  10.736  63.680  1.00  0.00    -0.212 C  
HETATM    3  H   UNL     1      -9.281  11.772  62.019  1.00  0.00     0.000 HD 
ENDROOT
BRANCH   2   4
HETATM    4  C   UNL     1      -7.928  10.274  64.553  1.00  0.00    -0.133 A  
HETATM    5  C   UNL     1      -6.917   9.423  64.093  1.00  0.00    -0.099 A  
HETATM    6  O   UNL     1      -6.934   8.901  62.830  1.00  0.00    -0.094 OA 
HETATM    7  C   UNL     1      -5.859   9.044  64.912  1.00  0.00    -0.063 A  
HETATM    8  C   UNL     1      -5.806   9.495  66.228  1.00  0.00    -0.058 A  
HETATM    9  H   UNL     1      -6.248   8.322  62.518  1.00  0.00     0.000 HD 
HETATM   10  C   UNL     1      -6.802  10.347  66.732  1.00  0.00    -0.091 A  
HETATM   11  C   UNL     1      -7.843  10.747  65.875  1.00  0.00    -0.131 A  
BRANCH  10  12
HETATM   12  C   UNL     1      -6.789  10.815  68.175  1.00  0.00    -0.068 C  
HETATM   13  O   UNL     1      -5.896  11.930  68.325  1.00  0.00    -0.049 OA 
HETATM   14  H   UNL     1      -5.888  12.223  69.229  1.00  0.00     0.000 HD 
BRANCH  12  15
HETATM   15  C   UNL     1      -8.192  11.228  68.668  1.00  0.00    -0.146 C  
BRANCH  15  16
HETATM   16  N   UNL     1      -8.290  12.687  68.836  1.00  0.00    -0.341 NA 
HETATM   17  H   UNL     1      -7.511  13.175  68.394  1.00  0.00     0.000 HD 
BRANCH  16  18
HETATM   18  C   UNL     1      -9.581  13.162  68.347  1.00  0.00    -0.186 C  
BRANCH  18  19
HETATM   19  C   UNL     1     -10.560  12.000  68.243  1.00  0.00    -0.233 C  
BRANCH  19  20
HETATM   20  C   UNL     1     -11.864  12.466  67.600  1.00  0.00    -0.363 C  
BRANCH  20  21
HETATM   21  C   UNL     1     -11.758  12.431  66.082  1.00  0.00    -0.460 C  
BRANCH  21  22
HETATM   22  C   UNL     1     -12.594  13.531  65.440  1.00  0.00    -0.531 C  
BRANCH  22  23
HETATM   23  C   UNL     1     -11.823  14.187  64.305  1.00  0.00    -0.397 C  
BRANCH  23  24
HETATM   24  O   UNL     1     -11.761  15.586  64.554  1.00  0.00    -0.382 OA 
BRANCH  24  25
HETATM   25  C   UNL     1     -10.550  15.944  65.215  1.00  0.00    -0.419 C  
BRANCH  25  26
HETATM   26  C   UNL     1     -10.863  16.272  66.669  1.00  0.00    -0.115 C  
BRANCH  26  27
HETATM   27  C   UNL     1     -10.338  17.659  67.044  1.00  0.00    -0.330 C  
BRANCH  27  28
HETATM   28  C   UNL     1      -9.509  17.628  68.327  1.00  0.00    -0.295 C  
BRANCH  28  29
HETATM   29  C   UNL     1      -8.091  17.216  68.014  1.00  0.00    -0.210 A  
HETATM   30  C   UNL     1      -7.512  17.549  66.784  1.00  0.00    -0.254 A  
HETATM   31  C   UNL     1      -6.231  17.098  66.464  1.00  0.00    -0.248 A  
HETATM   32  C   UNL     1      -5.521  16.311  67.369  1.00  0.00    -0.148 A  
HETATM   33  C   UNL     1      -6.088  15.978  68.598  1.00  0.00    -0.108 A  
HETATM   34  C   UNL     1      -7.369  16.427  68.921  1.00  0.00    -0.214 A  
ENDBRANCH  28  29
ENDBRANCH  27  28
ENDBRANCH  26  27
ENDBRANCH  25  26
ENDBRANCH  24  25
ENDBRANCH  23  24
ENDBRANCH  22  23
ENDBRANCH  21  22
ENDBRANCH  20  21
ENDBRANCH  19  20
ENDBRANCH  18  19
ENDBRANCH  16  18
ENDBRANCH  15  16
ENDBRANCH  12  15
ENDBRANCH  10  12
ENDBRANCH   2   4
TORSDOF 16
ENDMDL
MODEL      359
REMARK 921   NORMALIZED FREE ENERGY PREDICTED BY IDOCK:   -3.59 KCAL/MOL
REMARK 922        TOTAL FREE ENERGY PREDICTED BY IDOCK:   -9.29 KCAL/MOL
REMARK 923 INTER-LIGAND FREE ENERGY PREDICTED BY IDOCK:   -7.18 KCAL/MOL
REMARK 924 INTRA-LIGAND FREE ENERGY PREDICTED BY IDOCK:   -2.11 KCAL/MOL
REMARK 927      BINDING AFFINITY PREDICTED BY RF-SCORE:    0.00 PKD
ROOT
HETATM    1  O   UNL     1      -9.870   5.195  65.300  1.00  0.00    -0.365 OA 
HETATM    2  C   UNL     1     -11.033   5.413  66.101  1.00  0.00     0.074 C  
HETATM    3  H   UNL     1     -10.086   4.652  64.551  1.00  0.00     0.000 HD 
ENDROOT
BRANCH   2   4
HETATM    4  C   UNL     1     -10.691   6.274  67.290  1.00  0.00    -0.424 A  
HETATM    5  C   UNL     1     -10.108   7.540  67.166  1.00  0.00    -0.247 A  
HETATM    6  O   UNL     1      -9.748   8.052  65.951  1.00  0.00    -0.445 OA 
HETATM    7  C   UNL     1      -9.838   8.327  68.280  1.00  0.00    -0.192 A  
HETATM    8  C   UNL     1     -10.130   7.845  69.554  1.00  0.00    -0.195 A  
HETATM    9  H   UNL     1      -9.351   8.911  65.866  1.00  0.00     0.000 HD 
HETATM   10  C   UNL     1     -10.712   6.579  69.724  1.00  0.00    -0.322 A  
HETATM   11  C   UNL     1     -11.009   5.815  68.581  1.00  0.00    -0.198 A  
BRANCH  10  12
HETATM   12  C   UNL     1     -10.995   6.016  71.104  1.00  0.00    -0.278 C  
HETATM   13  O   UNL     1      -9.792   5.480  71.676  1.00  0.00    -0.165 OA 
HETATM   14  H   UNL     1      -9.970   5.128  72.540  1.00  0.00     0.000 HD 
BRANCH  12  15
HETATM   15  C   UNL     1     -11.572   7.082  72.061  1.00  0.00    -0.285 C  
BRANCH  15  16
HETATM   16  N   UNL     1     -12.853   7.608  71.562  1.00  0.00    -0.343 NA 
HETATM   17  H   UNL     1     -13.592   6.905  71.588  1.00  0.00     0.000 HD 
BRANCH  16  18
HETATM   18  C   UNL     1     -13.220   8.814  72.298  1.00  0.00    -0.412 C  
BRANCH  18  19
HETATM   19  C   UNL     1     -12.296   9.962  71.913  1.00  0.00    -0.390 C  
BRANCH  19  20
HETATM   20  C   UNL     1     -12.516  10.348  70.452  1.00  0.00    -0.348 C  
BRANCH  20  21
HETATM   21  C   UNL     1     -11.757  11.623  70.113  1.00  0.00    -0.381 C  
BRANCH  21  22
HETATM   22  C   UNL     1     -12.677  12.838  70.125  1.00  0.00     0.162 C  
BRANCH  22  23
HETATM   23  C   UNL     1     -11.920  14.079  69.678  1.00  0.00    -0.339 C  
BRANCH  23  24
HETATM   24  O   UNL     1     -12.122  14.249  68.281  1.00  0.00    -0.322 OA 
BRANCH  24  25
HETATM   25  C   UNL     1     -11.422  15.389  67.788  1.00  0.00    -0.278 C  
BRANCH  25  26
HETATM   26  C   UNL     1     -10.331  14.919  66.834  1.00  0.00    -0.264 C  
BRANCH  26  27
HETATM   27  C   UNL     1      -8.958  15.429  67.276  1.00  0.00    -0.213 C  
BRANCH  27  28
HETATM   28  C   UNL     1      -8.429  14.664  68.488  1.00  0.00    -0.161 C  
BRANCH  28  29
HETATM   29  C   UNL     1      -7.774  13.379  68.040  1.00  0.00    -0.147 A  
HETATM   30  C   UNL     1      -6.398  13.333  67.794  1.00  0.00    -0.161 A  
HETATM   31  C   UNL     1      -5.809  12.168  67.303  1.00  0.00    -0.146 A  
HETATM   32  C   UNL     1      -6.590  11.043  67.052  1.00  0.00    -0.100 A  
HETATM   33  C   UNL     1      -7.962  11.078  67.297  1.00  0.00    -0.126 A  
HETATM   34  C   UNL     1      -8.554  12.241  67.789  1.00  0.00    -0.170 A  
ENDBRANCH  28  29
ENDBRANCH  27  28
ENDBRANCH  26  27
ENDBRANCH  25  26
ENDBRANCH  24  25
ENDBRANCH  23  24
ENDBRANCH  22  23
ENDBRANCH  21  22
ENDBRANCH  20  21
ENDBRANCH  19  20
ENDBRANCH  18  19
ENDBRANCH  16  18
ENDBRANCH  15  16
ENDBRANCH  12  15
ENDBRANCH  10  12
ENDBRANCH   2   4
TORSDOF 16
ENDMDL
MODEL      360
REMARK 921   NORMALIZED FREE ENERGY PREDICTED BY IDOCK:   -3.59 KCAL/MOL
REMARK 922        TOTAL FREE ENERGY PREDICTED BY IDOCK:   -9.29 KCAL/MOL
REMARK 923 INTER-LIGAND FREE ENERGY PREDICTED BY IDOCK:   -7.53 KCAL/MOL
REMARK 924 INTRA-LIGAND FREE ENERGY PREDICTED BY IDOCK:   -1.76 KCAL/MOL
REMARK 927      BINDING AFFINITY PREDICTED BY RF-SCORE:    0.00 PKD
ROOT
HETATM    1  O   UNL     1      -5.680  14.765  68.637  1.00  0.00    -0.085 OA 
HETATM    2  C   UNL     1      -6.670  13.985  69.309  1.00  0.00    -0.120 C  
HETATM    3  H   UNL     1      -4.945  14.933  69.217  1.00  0.00     0.000 HD 
ENDROOT
BRANCH   2   4
HETATM    4  C   UNL     1      -7.834  13.719  68.391  1.00  0.00    -0.143 A  
HETATM    5  C   UNL     1      -7.718  12.965  67.218  1.00  0.00    -0.117 A  
HETATM    6  O   UNL     1      -6.514  12.473  66.795  1.00  0.00    -0.468 OA 
HETATM    7  C   UNL     1      -8.818  12.705  66.410  1.00  0.00     0.008 A  
HETATM    8  C   UNL     1     -10.066  13.221  66.752  1.00  0.00    -0.258 A  
HETATM    9  H   UNL     1      -6.435  11.961  65.998  1.00  0.00     0.000 HD 
HETATM   10  C   UNL     1     -10.227  13.986  67.918  1.00  0.00    -0.240 A  
HETATM   11  C   UNL     1      -9.107  14.207  68.740  1.00  0.00    -0.071 A  
BRANCH  10  12
HETATM   12  C   UNL     1     -11.566  14.596  68.287  1.00  0.00    -0.326 C  
HETATM   13  O   UNL     1     -12.525  14.346  67.247  1.00  0.00    -0.601 OA 
HETATM   14  H   UNL     1     -13.365  14.728  67.478  1.00  0.00     0.000 HD 
BRANCH  12  15
HETATM   15  C   UNL     1     -12.114  14.039  69.618  1.00  0.00    -0.355 C  
BRANCH  15  16
HETATM   16  N   UNL     1     -11.793  14.934  70.742  1.00  0.00    -0.293 NA 
HETATM   17  H   UNL     1     -11.890  15.917  70.487  1.00  0.00     0.000 HD 
BRANCH  16  18
HETATM   18  C   UNL     1     -12.605  14.589  71.905  1.00  0.00    -0.341 C  
BRANCH  18  19
HETATM   19  C   UNL     1     -13.758  13.686  71.487  1.00  0.00    -0.231 C  
BRANCH  19  20
HETATM   20  C   UNL     1     -13.858  12.488  72.429  1.00  0.00    -0.171 C  
BRANCH  20  21
HETATM   21  C   UNL     1     -13.011  11.331  71.919  1.00  0.00    -0.471 C  
BRANCH  21  22
HETATM   22  C   UNL     1     -13.670   9.988  72.209  1.00  0.00    -0.197 C  
BRANCH  22  23
HETATM   23  C   UNL     1     -12.613   8.918  72.434  1.00  0.00    -0.353 C  
BRANCH  23  24
HETATM   24  O   UNL     1     -12.666   7.999  71.351  1.00  0.00    -0.316 OA 
BRANCH  24  25
HETATM   25  C   UNL     1     -11.421   7.327  71.176  1.00  0.00    -0.283 C  
BRANCH  25  26
HETATM   26  C   UNL     1     -11.618   6.174  70.200  1.00  0.00    -0.260 C  
BRANCH  26  27
HETATM   27  C   UNL     1     -10.302   5.803  69.515  1.00  0.00    -0.333 C  
BRANCH  27  28
HETATM   28  C   UNL     1      -9.288   6.944  69.571  1.00  0.00    -0.147 C  
BRANCH  28  29
HETATM   29  C   UNL     1      -9.356   7.754  68.298  1.00  0.00    -0.143 A  
HETATM   30  C   UNL     1     -10.246   8.828  68.189  1.00  0.00    -0.250 A  
HETATM   31  C   UNL     1     -10.365   9.525  66.986  1.00  0.00    -0.319 A  
HETATM   32  C   UNL     1      -9.599   9.151  65.884  1.00  0.00    -0.343 A  
HETATM   33  C   UNL     1      -8.706   8.085  65.984  1.00  0.00    -0.183 A  
HETATM   34  C   UNL     1      -8.585   7.387  67.186  1.00  0.00    -0.118 A  
ENDBRANCH  28  29
ENDBRANCH  27  28
ENDBRANCH  26  27
ENDBRANCH  25  26
ENDBRANCH  24  25
ENDBRANCH  23  24
ENDBRANCH  22  23
ENDBRANCH  21  22
ENDBRANCH  20  21
ENDBRANCH  19  20
ENDBRANCH  18  19
ENDBRANCH  16  18
ENDBRANCH  15  16
ENDBRANCH  12  15
ENDBRANCH  10  12
ENDBRANCH   2   4
TORSDOF 16
ENDMDL
MODEL      361
REMARK 921   NORMALIZED FREE ENERGY PREDICTED BY IDOCK:   -3.58 KCAL/MOL
REMARK 922        TOTAL FREE ENERGY PREDICTED BY IDOCK:   -9.27 KCAL/MOL
REMARK 923 INTER-LIGAND FREE ENERGY PREDICTED BY IDOCK:   -8.03 KCAL/MOL
REMARK 924 INTRA-LIGAND FREE ENERGY PREDICTED BY IDOCK:   -1.24 KCAL/MOL
REMARK 927      BINDING AFFINITY PREDICTED BY RF-SCORE:    0.00 PKD
ROOT
HETATM    1  O   UNL     1      -7.417   8.879  72.781  1.00  0.00    -0.354 OA 
HETATM    2  C   UNL     1      -8.597   8.138  73.096  1.00  0.00    -0.233 C  
HETATM    3  H   UNL     1      -7.347   9.640  73.346  1.00  0.00     0.000 HD 
ENDROOT
BRANCH   2   4
HETATM    4  C   UNL     1      -8.708   6.932  72.200  1.00  0.00    -0.131 A  
HETATM    5  C   UNL     1      -7.822   5.851  72.271  1.00  0.00    -0.103 A  
HETATM    6  O   UNL     1      -6.752   5.852  73.122  1.00  0.00    -0.071 OA 
HETATM    7  C   UNL     1      -7.973   4.735  71.457  1.00  0.00    -0.102 A  
HETATM    8  C   UNL     1      -9.011   4.690  70.529  1.00  0.00    -0.155 A  
HETATM    9  H   UNL     1      -6.150   5.118  73.170  1.00  0.00     0.000 HD 
HETATM   10  C   UNL     1      -9.920   5.754  70.422  1.00  0.00    -0.257 A  
HETATM   11  C   UNL     1      -9.770   6.858  71.280  1.00  0.00    -0.175 A  
BRANCH  10  12
HETATM   12  C   UNL     1     -11.030   5.746  69.388  1.00  0.00    -0.282 C  
HETATM   13  O   UNL     1     -12.012   6.743  69.709  1.00  0.00    -0.654 OA 
HETATM   14  H   UNL     1     -12.708   6.739  69.062  1.00  0.00     0.000 HD 
BRANCH  12  15
HETATM   15  C   UNL     1     -10.501   6.007  67.961  1.00  0.00    -0.233 C  
BRANCH  15  16
HETATM   16  N   UNL     1      -9.953   7.369  67.837  1.00  0.00    -0.158 NA 
HETATM   17  H   UNL     1      -8.953   7.361  67.638  1.00  0.00     0.000 HD 
BRANCH  16  18
HETATM   18  C   UNL     1     -10.704   8.121  66.837  1.00  0.00    -0.116 C  
BRANCH  18  19
HETATM   19  C   UNL     1      -9.753   8.961  65.994  1.00  0.00    -0.308 C  
BRANCH  19  20
HETATM   20  C   UNL     1      -9.807  10.422  66.436  1.00  0.00    -0.266 C  
BRANCH  20  21
HETATM   21  C   UNL     1     -11.149  10.738  67.081  1.00  0.00    -0.297 C  
BRANCH  21  22
HETATM   22  C   UNL     1     -11.815  11.939  66.420  1.00  0.00    -0.115 C  
BRANCH  22  23
HETATM   23  C   UNL     1     -11.883  13.107  67.391  1.00  0.00    -0.361 C  
BRANCH  23  24
HETATM   24  O   UNL     1     -10.643  13.189  68.083  1.00  0.00    -0.231 OA 
BRANCH  24  25
HETATM   25  C   UNL     1     -10.107  14.509  68.039  1.00  0.00    -0.226 C  
BRANCH  25  26
HETATM   26  C   UNL     1      -9.051  14.573  66.942  1.00  0.00    -0.274 C  
BRANCH  26  27
HETATM   27  C   UNL     1      -9.554  15.379  65.743  1.00  0.00    -0.368 C  
BRANCH  27  28
HETATM   28  C   UNL     1     -10.570  16.443  66.155  1.00  0.00    -0.259 C  
BRANCH  28  29
HETATM   29  C   UNL     1      -9.866  17.756  66.405  1.00  0.00    -0.328 A  
HETATM   30  C   UNL     1     -10.604  18.927  66.607  1.00  0.00    -0.469 A  
HETATM   31  C   UNL     1      -9.953  20.152  66.757  1.00  0.00    -0.604 A  
HETATM   32  C   UNL     1      -8.562  20.215  66.704  1.00  0.00    -0.352 A  
HETATM   33  C   UNL     1      -7.818  19.052  66.506  1.00  0.00    -0.279 A  
HETATM   34  C   UNL     1      -8.467  17.826  66.356  1.00  0.00    -0.270 A  
ENDBRANCH  28  29
ENDBRANCH  27  28
ENDBRANCH  26  27
ENDBRANCH  25  26
ENDBRANCH  24  25
ENDBRANCH  23  24
ENDBRANCH  22  23
ENDBRANCH  21  22
ENDBRANCH  20  21
ENDBRANCH  19  20
ENDBRANCH  18  19
ENDBRANCH  16  18
ENDBRANCH  15  16
ENDBRANCH  12  15
ENDBRANCH  10  12
ENDBRANCH   2   4
TORSDOF 16
ENDMDL
MODEL      362
REMARK 921   NORMALIZED FREE ENERGY PREDICTED BY IDOCK:   -3.56 KCAL/MOL
REMARK 922        TOTAL FREE ENERGY PREDICTED BY IDOCK:   -9.24 KCAL/MOL
REMARK 923 INTER-LIGAND FREE ENERGY PREDICTED BY IDOCK:   -7.07 KCAL/MOL
REMARK 924 INTRA-LIGAND FREE ENERGY PREDICTED BY IDOCK:   -2.17 KCAL/MOL
REMARK 927      BINDING AFFINITY PREDICTED BY RF-SCORE:    0.00 PKD
ROOT
HETATM    1  O   UNL     1      -9.620  10.059  67.182  1.00  0.00    -0.158 OA 
HETATM    2  C   UNL     1     -10.654  10.971  67.557  1.00  0.00    -0.227 C  
HETATM    3  H   UNL     1      -9.838   9.180  67.470  1.00  0.00     0.000 HD 
ENDROOT
BRANCH   2   4
HETATM    4  C   UNL     1     -10.309  12.364  67.101  1.00  0.00    -0.232 A  
HETATM    5  C   UNL     1     -11.193  13.162  66.366  1.00  0.00    -0.300 A  
HETATM    6  O   UNL     1     -12.412  12.697  65.956  1.00  0.00    -0.555 OA 
HETATM    7  C   UNL     1     -10.861  14.459  65.991  1.00  0.00    -0.309 A  
HETATM    8  C   UNL     1      -9.614  14.978  66.328  1.00  0.00    -0.335 A  
HETATM    9  H   UNL     1     -13.012  13.238  65.456  1.00  0.00     0.000 HD 
HETATM   10  C   UNL     1      -8.695  14.211  67.062  1.00  0.00    -0.222 A  
HETATM   11  C   UNL     1      -9.066  12.915  67.461  1.00  0.00    -0.191 A  
BRANCH  10  12
HETATM   12  C   UNL     1      -7.314  14.741  67.401  1.00  0.00    -0.185 C  
HETATM   13  O   UNL     1      -7.251  16.153  67.149  1.00  0.00    -0.179 OA 
HETATM   14  H   UNL     1      -6.386  16.485  67.362  1.00  0.00     0.000 HD 
BRANCH  12  15
HETATM   15  C   UNL     1      -6.934  14.478  68.874  1.00  0.00    -0.110 C  
BRANCH  15  16
HETATM   16  N   UNL     1      -5.816  13.525  68.974  1.00  0.00    -0.075 NA 
HETATM   17  H   UNL     1      -4.937  13.990  69.203  1.00  0.00     0.000 HD 
BRANCH  16  18
HETATM   18  C   UNL     1      -6.140  12.470  69.928  1.00  0.00    -0.130 C  
BRANCH  18  19
HETATM   19  C   UNL     1      -6.001  11.105  69.265  1.00  0.00    -0.048 C  
BRANCH  19  20
HETATM   20  C   UNL     1      -7.236  10.253  69.549  1.00  0.00    -0.122 C  
BRANCH  20  21
HETATM   21  C   UNL     1      -6.897   8.772  69.465  1.00  0.00    -0.048 C  
BRANCH  21  22
HETATM   22  C   UNL     1      -6.664   8.334  68.024  1.00  0.00    -0.065 C  
BRANCH  22  23
HETATM   23  C   UNL     1      -7.340   6.997  67.763  1.00  0.00    -0.097 C  
BRANCH  23  24
HETATM   24  O   UNL     1      -8.718   7.233  67.503  1.00  0.00    -0.121 OA 
BRANCH  24  25
HETATM   25  C   UNL     1      -9.545   6.282  68.169  1.00  0.00    -0.115 C  
BRANCH  25  26
HETATM   26  C   UNL     1     -10.335   6.997  69.258  1.00  0.00    -0.210 C  
BRANCH  26  27
HETATM   27  C   UNL     1      -9.742   6.717  70.640  1.00  0.00    -0.180 C  
BRANCH  27  28
HETATM   28  C   UNL     1     -10.808   6.274  71.640  1.00  0.00    -0.298 C  
BRANCH  28  29
HETATM   29  C   UNL     1     -11.931   7.283  71.675  1.00  0.00    -0.341 A  
HETATM   30  C   UNL     1     -11.670   8.623  71.983  1.00  0.00    -0.439 A  
HETATM   31  C   UNL     1     -12.718   9.537  72.094  1.00  0.00    -0.442 A  
HETATM   32  C   UNL     1     -14.033   9.119  71.902  1.00  0.00    -0.405 A  
HETATM   33  C   UNL     1     -14.303   7.787  71.592  1.00  0.00    -0.607 A  
HETATM   34  C   UNL     1     -13.257   6.870  71.479  1.00  0.00    -0.322 A  
ENDBRANCH  28  29
ENDBRANCH  27  28
ENDBRANCH  26  27
ENDBRANCH  25  26
ENDBRANCH  24  25
ENDBRANCH  23  24
ENDBRANCH  22  23
ENDBRANCH  21  22
ENDBRANCH  20  21
ENDBRANCH  19  20
ENDBRANCH  18  19
ENDBRANCH  16  18
ENDBRANCH  15  16
ENDBRANCH  12  15
ENDBRANCH  10  12
ENDBRANCH   2   4
TORSDOF 16
ENDMDL
MODEL      363
REMARK 921   NORMALIZED FREE ENERGY PREDICTED BY IDOCK:   -3.56 KCAL/MOL
REMARK 922        TOTAL FREE ENERGY PREDICTED BY IDOCK:   -9.23 KCAL/MOL
REMARK 923 INTER-LIGAND FREE ENERGY PREDICTED BY IDOCK:   -7.93 KCAL/MOL
REMARK 924 INTRA-LIGAND FREE ENERGY PREDICTED BY IDOCK:   -1.30 KCAL/MOL
REMARK 927      BINDING AFFINITY PREDICTED BY RF-SCORE:    0.00 PKD
ROOT
HETATM    1  O   UNL     1      -8.322   5.522  63.743  1.00  0.00    -0.154 OA 
HETATM    2  C   UNL     1      -8.952   4.792  64.796  1.00  0.00    -0.146 C  
HETATM    3  H   UNL     1      -8.588   5.176  62.899  1.00  0.00     0.000 HD 
ENDROOT
BRANCH   2   4
HETATM    4  C   UNL     1      -8.530   5.340  66.134  1.00  0.00    -0.117 A  
HETATM    5  C   UNL     1      -7.201   5.330  66.572  1.00  0.00    -0.077 A  
HETATM    6  O   UNL     1      -6.203   4.759  65.833  1.00  0.00    -0.030 OA 
HETATM    7  C   UNL     1      -6.836   5.878  67.797  1.00  0.00    -0.060 A  
HETATM    8  C   UNL     1      -7.809   6.429  68.626  1.00  0.00    -0.102 A  
HETATM    9  H   UNL     1      -5.300   4.752  66.130  1.00  0.00     0.000 HD 
HETATM   10  C   UNL     1      -9.156   6.456  68.228  1.00  0.00    -0.114 A  
HETATM   11  C   UNL     1      -9.497   5.929  66.969  1.00  0.00    -0.134 A  
BRANCH  10  12
HETATM   12  C   UNL     1     -10.239   7.010  69.134  1.00  0.00    -0.187 C  
HETATM   13  O   UNL     1     -11.510   6.434  68.795  1.00  0.00    -0.572 OA 
HETATM   14  H   UNL     1     -12.188   6.781  69.362  1.00  0.00     0.000 HD 
BRANCH  12  15
HETATM   15  C   UNL     1      -9.948   6.737  70.625  1.00  0.00    -0.187 C  
BRANCH  15  16
HETATM   16  N   UNL     1     -10.973   7.347  71.488  1.00  0.00    -0.229 NA 
HETATM   17  H   UNL     1     -11.073   6.849  72.373  1.00  0.00     0.000 HD 
BRANCH  16  18
HETATM   18  C   UNL     1     -10.682   8.763  71.688  1.00  0.00    -0.327 C  
BRANCH  18  19
HETATM   19  C   UNL     1     -11.874   9.607  71.255  1.00  0.00    -0.460 C  
BRANCH  19  20
HETATM   20  C   UNL     1     -11.416  10.729  70.326  1.00  0.00    -0.406 C  
BRANCH  20  21
HETATM   21  C   UNL     1     -12.476  11.817  70.235  1.00  0.00    -0.237 C  
BRANCH  21  22
HETATM   22  C   UNL     1     -11.891  13.121  69.703  1.00  0.00    -0.390 C  
BRANCH  22  23
HETATM   23  C   UNL     1     -10.802  12.833  68.682  1.00  0.00    -0.253 C  
BRANCH  23  24
HETATM   24  O   UNL     1     -11.415  12.635  67.414  1.00  0.00    -0.296 OA 
BRANCH  24  25
HETATM   25  C   UNL     1     -10.967  13.598  66.463  1.00  0.00    -0.295 C  
BRANCH  25  26
HETATM   26  C   UNL     1     -12.170  14.382  65.955  1.00  0.00    -0.354 C  
BRANCH  26  27
HETATM   27  C   UNL     1     -11.736  15.705  65.323  1.00  0.00     0.207 C  
BRANCH  27  28
HETATM   28  C   UNL     1     -10.281  16.041  65.644  1.00  0.00    -0.412 C  
BRANCH  28  29
HETATM   29  C   UNL     1     -10.217  17.266  66.525  1.00  0.00    -0.325 A  
HETATM   30  C   UNL     1      -9.938  17.144  67.890  1.00  0.00    -0.292 A  
HETATM   31  C   UNL     1      -9.959  18.268  68.716  1.00  0.00    -0.391 A  
HETATM   32  C   UNL     1     -10.263  19.520  68.185  1.00  0.00    -0.556 A  
HETATM   33  C   UNL     1     -10.540  19.652  66.825  1.00  0.00    -0.602 A  
HETATM   34  C   UNL     1     -10.518  18.530  65.996  1.00  0.00    -0.433 A  
ENDBRANCH  28  29
ENDBRANCH  27  28
ENDBRANCH  26  27
ENDBRANCH  25  26
ENDBRANCH  24  25
ENDBRANCH  23  24
ENDBRANCH  22  23
ENDBRANCH  21  22
ENDBRANCH  20  21
ENDBRANCH  19  20
ENDBRANCH  18  19
ENDBRANCH  16  18
ENDBRANCH  15  16
ENDBRANCH  12  15
ENDBRANCH  10  12
ENDBRANCH   2   4
TORSDOF 16
ENDMDL
MODEL      364
REMARK 921   NORMALIZED FREE ENERGY PREDICTED BY IDOCK:   -3.56 KCAL/MOL
REMARK 922        TOTAL FREE ENERGY PREDICTED BY IDOCK:   -9.23 KCAL/MOL
REMARK 923 INTER-LIGAND FREE ENERGY PREDICTED BY IDOCK:   -7.51 KCAL/MOL
REMARK 924 INTRA-LIGAND FREE ENERGY PREDICTED BY IDOCK:   -1.72 KCAL/MOL
REMARK 927      BINDING AFFINITY PREDICTED BY RF-SCORE:    0.00 PKD
ROOT
HETATM    1  O   UNL     1     -10.098   4.987  65.248  1.00  0.00    -0.386 OA 
HETATM    2  C   UNL     1     -10.879   5.207  66.423  1.00  0.00    -0.103 C  
HETATM    3  H   UNL     1     -10.618   4.544  64.587  1.00  0.00     0.000 HD 
ENDROOT
BRANCH   2   4
HETATM    4  C   UNL     1     -10.055   5.908  67.471  1.00  0.00    -0.197 A  
HETATM    5  C   UNL     1      -9.550   7.202  67.298  1.00  0.00    -0.143 A  
HETATM    6  O   UNL     1      -9.720   7.891  66.129  1.00  0.00    -0.414 OA 
HETATM    7  C   UNL     1      -8.824   7.838  68.298  1.00  0.00    -0.129 A  
HETATM    8  C   UNL     1      -8.568   7.175  69.495  1.00  0.00    -0.134 A  
HETATM    9  H   UNL     1      -9.377   8.769  66.011  1.00  0.00     0.000 HD 
HETATM   10  C   UNL     1      -9.052   5.875  69.710  1.00  0.00    -0.147 A  
HETATM   11  C   UNL     1      -9.814   5.264  68.698  1.00  0.00    -0.216 A  
BRANCH  10  12
HETATM   12  C   UNL     1      -8.746   5.116  70.988  1.00  0.00    -0.128 C  
HETATM   13  O   UNL     1      -7.353   4.768  71.034  1.00  0.00    -0.056 OA 
HETATM   14  H   UNL     1      -7.161   4.293  71.835  1.00  0.00     0.000 HD 
BRANCH  12  15
HETATM   15  C   UNL     1      -9.100   5.932  72.250  1.00  0.00    -0.141 C  
BRANCH  15  16
HETATM   16  N   UNL     1     -10.554   6.130  72.365  1.00  0.00    -0.203 NA 
HETATM   17  H   UNL     1     -11.024   5.303  72.733  1.00  0.00     0.000 HD 
BRANCH  16  18
HETATM   18  C   UNL     1     -10.836   7.319  73.163  1.00  0.00    -0.357 C  
BRANCH  18  19
HETATM   19  C   UNL     1     -10.651   8.572  72.316  1.00  0.00    -0.408 C  
BRANCH  19  20
HETATM   20  C   UNL     1     -11.611   8.552  71.128  1.00  0.00    -0.325 C  
BRANCH  20  21
HETATM   21  C   UNL     1     -11.461   9.817  70.296  1.00  0.00    -0.317 C  
BRANCH  21  22
HETATM   22  C   UNL     1     -12.537  10.841  70.639  1.00  0.00    -0.446 C  
BRANCH  22  23
HETATM   23  C   UNL     1     -11.992  12.252  70.483  1.00  0.00    -0.205 C  
BRANCH  23  24
HETATM   24  O   UNL     1     -11.977  12.578  69.099  1.00  0.00    -0.287 OA 
BRANCH  24  25
HETATM   25  C   UNL     1     -11.555  13.923  68.885  1.00  0.00    -0.316 C  
BRANCH  25  26
HETATM   26  C   UNL     1     -10.043  13.938  68.699  1.00  0.00    -0.203 C  
BRANCH  26  27
HETATM   27  C   UNL     1      -9.643  13.228  67.404  1.00  0.00    -0.223 C  
BRANCH  27  28
HETATM   28  C   UNL     1      -9.816  14.128  66.182  1.00  0.00    -0.326 C  
BRANCH  28  29
HETATM   29  C   UNL     1      -9.509  15.561  66.551  1.00  0.00    -0.299 A  
HETATM   30  C   UNL     1     -10.511  16.535  66.503  1.00  0.00    -0.270 A  
HETATM   31  C   UNL     1     -10.208  17.871  66.765  1.00  0.00    -0.360 A  
HETATM   32  C   UNL     1      -8.901  18.243  67.074  1.00  0.00    -0.267 A  
HETATM   33  C   UNL     1      -7.896  17.278  67.127  1.00  0.00    -0.223 A  
HETATM   34  C   UNL     1      -8.197  15.941  66.866  1.00  0.00    -0.283 A  
ENDBRANCH  28  29
ENDBRANCH  27  28
ENDBRANCH  26  27
ENDBRANCH  25  26
ENDBRANCH  24  25
ENDBRANCH  23  24
ENDBRANCH  22  23
ENDBRANCH  21  22
ENDBRANCH  20  21
ENDBRANCH  19  20
ENDBRANCH  18  19
ENDBRANCH  16  18
ENDBRANCH  15  16
ENDBRANCH  12  15
ENDBRANCH  10  12
ENDBRANCH   2   4
TORSDOF 16
ENDMDL
MODEL      365
REMARK 921   NORMALIZED FREE ENERGY PREDICTED BY IDOCK:   -3.56 KCAL/MOL
REMARK 922        TOTAL FREE ENERGY PREDICTED BY IDOCK:   -9.23 KCAL/MOL
REMARK 923 INTER-LIGAND FREE ENERGY PREDICTED BY IDOCK:   -7.20 KCAL/MOL
REMARK 924 INTRA-LIGAND FREE ENERGY PREDICTED BY IDOCK:   -2.02 KCAL/MOL
REMARK 927      BINDING AFFINITY PREDICTED BY RF-SCORE:    0.00 PKD
ROOT
HETATM    1  O   UNL     1      -9.999   3.439  67.077  1.00  0.00    -0.320 OA 
HETATM    2  C   UNL     1      -9.287   3.089  68.264  1.00  0.00    -0.195 C  
HETATM    3  H   UNL     1     -10.107   2.675  66.522  1.00  0.00     0.000 HD 
ENDROOT
BRANCH   2   4
HETATM    4  C   UNL     1      -9.116   4.299  69.144  1.00  0.00    -0.185 A  
HETATM    5  C   UNL     1      -8.100   5.242  68.948  1.00  0.00    -0.086 A  
HETATM    6  O   UNL     1      -7.151   5.087  67.976  1.00  0.00    -0.060 OA 
HETATM    7  C   UNL     1      -7.990   6.369  69.755  1.00  0.00    -0.119 A  
HETATM    8  C   UNL     1      -8.890   6.563  70.799  1.00  0.00    -0.144 A  
HETATM    9  H   UNL     1      -6.461   5.726  67.843  1.00  0.00     0.000 HD 
HETATM   10  C   UNL     1      -9.922   5.641  71.034  1.00  0.00    -0.248 A  
HETATM   11  C   UNL     1     -10.037   4.527  70.184  1.00  0.00    -0.220 A  
BRANCH  10  12
HETATM   12  C   UNL     1     -10.887   5.809  72.193  1.00  0.00    -0.244 C  
HETATM   13  O   UNL     1     -10.728   4.731  73.128  1.00  0.00    -0.201 OA 
HETATM   14  H   UNL     1     -11.331   4.836  73.855  1.00  0.00     0.000 HD 
BRANCH  12  15
HETATM   15  C   UNL     1     -10.681   7.148  72.933  1.00  0.00    -0.302 C  
BRANCH  15  16
HETATM   16  N   UNL     1     -11.912   7.955  72.926  1.00  0.00    -0.619 NA 
HETATM   17  H   UNL     1     -12.055   8.441  73.811  1.00  0.00     0.000 HD 
BRANCH  16  18
HETATM   18  C   UNL     1     -11.902   8.875  71.793  1.00  0.00    -0.358 C  
BRANCH  18  19
HETATM   19  C   UNL     1     -10.467   9.199  71.396  1.00  0.00    -0.414 C  
BRANCH  19  20
HETATM   20  C   UNL     1     -10.452  10.103  70.166  1.00  0.00    -0.311 C  
BRANCH  20  21
HETATM   21  C   UNL     1     -11.775  10.016  69.419  1.00  0.00    -0.012 C  
BRANCH  21  22
HETATM   22  C   UNL     1     -12.120  11.337  68.741  1.00  0.00    -0.258 C  
BRANCH  22  23
HETATM   23  C   UNL     1     -11.658  12.506  69.598  1.00  0.00    -0.253 C  
BRANCH  23  24
HETATM   24  O   UNL     1     -11.638  13.675  68.788  1.00  0.00    -0.276 OA 
BRANCH  24  25
HETATM   25  C   UNL     1     -10.427  13.771  68.042  1.00  0.00    -0.244 C  
BRANCH  25  26
HETATM   26  C   UNL     1     -10.738  13.537  66.569  1.00  0.00    -0.287 C  
BRANCH  26  27
HETATM   27  C   UNL     1      -9.764  12.529  65.956  1.00  0.00    -0.247 C  
BRANCH  27  28
HETATM   28  C   UNL     1     -10.487  11.316  65.375  1.00  0.00    -0.326 C  
BRANCH  28  29
HETATM   29  C   UNL     1      -9.742  10.052  65.735  1.00  0.00    -0.321 A  
HETATM   30  C   UNL     1      -8.527   9.746  65.112  1.00  0.00    -0.157 A  
HETATM   31  C   UNL     1      -7.880   8.540  65.386  1.00  0.00    -0.107 A  
HETATM   32  C   UNL     1      -8.444   7.633  66.280  1.00  0.00    -0.140 A  
HETATM   33  C   UNL     1      -9.652   7.931  66.908  1.00  0.00    -0.263 A  
HETATM   34  C   UNL     1     -10.301   9.136  66.636  1.00  0.00    -0.289 A  
ENDBRANCH  28  29
ENDBRANCH  27  28
ENDBRANCH  26  27
ENDBRANCH  25  26
ENDBRANCH  24  25
ENDBRANCH  23  24
ENDBRANCH  22  23
ENDBRANCH  21  22
ENDBRANCH  20  21
ENDBRANCH  19  20
ENDBRANCH  18  19
ENDBRANCH  16  18
ENDBRANCH  15  16
ENDBRANCH  12  15
ENDBRANCH  10  12
ENDBRANCH   2   4
TORSDOF 16
ENDMDL
MODEL      366
REMARK 921   NORMALIZED FREE ENERGY PREDICTED BY IDOCK:   -3.54 KCAL/MOL
REMARK 922        TOTAL FREE ENERGY PREDICTED BY IDOCK:   -9.21 KCAL/MOL
REMARK 923 INTER-LIGAND FREE ENERGY PREDICTED BY IDOCK:   -7.10 KCAL/MOL
REMARK 924 INTRA-LIGAND FREE ENERGY PREDICTED BY IDOCK:   -2.10 KCAL/MOL
REMARK 927      BINDING AFFINITY PREDICTED BY RF-SCORE:    0.00 PKD
ROOT
HETATM    1  O   UNL     1      -7.829  14.298  66.927  1.00  0.00    -0.353 OA 
HETATM    2  C   UNL     1      -8.505  15.530  66.674  1.00  0.00    -0.279 C  
HETATM    3  H   UNL     1      -7.039  14.454  67.431  1.00  0.00     0.000 HD 
ENDROOT
BRANCH   2   4
HETATM    4  C   UNL     1      -9.758  15.283  65.875  1.00  0.00    -0.390 A  
HETATM    5  C   UNL     1     -10.527  16.318  65.331  1.00  0.00    -0.343 A  
HETATM    6  O   UNL     1     -10.222  17.633  65.549  1.00  0.00    -0.600 OA 
HETATM    7  C   UNL     1     -11.658  16.057  64.566  1.00  0.00    -0.205 A  
HETATM    8  C   UNL     1     -12.058  14.741  64.348  1.00  0.00    -0.457 A  
HETATM    9  H   UNL     1     -10.744  18.336  65.181  1.00  0.00     0.000 HD 
HETATM   10  C   UNL     1     -11.318  13.673  64.879  1.00  0.00    -0.353 A  
HETATM   11  C   UNL     1     -10.157  13.958  65.619  1.00  0.00    -0.332 A  
BRANCH  10  12
HETATM   12  C   UNL     1     -11.760  12.233  64.692  1.00  0.00    -0.356 C  
HETATM   13  O   UNL     1     -13.194  12.154  64.690  1.00  0.00    -0.659 OA 
HETATM   14  H   UNL     1     -13.471  11.252  64.573  1.00  0.00     0.000 HD 
BRANCH  12  15
HETATM   15  C   UNL     1     -11.223  11.623  63.380  1.00  0.00    -0.310 C  
BRANCH  15  16
HETATM   16  N   UNL     1      -9.751  11.647  63.344  1.00  0.00    -0.467 NA 
HETATM   17  H   UNL     1      -9.375  12.526  63.698  1.00  0.00     0.000 HD 
BRANCH  16  18
HETATM   18  C   UNL     1      -9.215  10.495  64.062  1.00  0.00    -0.253 C  
BRANCH  18  19
HETATM   19  C   UNL     1      -7.728  10.342  63.766  1.00  0.00    -0.100 C  
BRANCH  19  20
HETATM   20  C   UNL     1      -7.221   9.002  64.295  1.00  0.00    -0.091 C  
BRANCH  20  21
HETATM   21  C   UNL     1      -8.101   7.862  63.802  1.00  0.00    -0.079 C  
BRANCH  21  22
HETATM   22  C   UNL     1      -7.304   6.573  63.640  1.00  0.00    -0.067 C  
BRANCH  22  23
HETATM   23  C   UNL     1      -7.816   5.783  62.446  1.00  0.00    -0.081 C  
BRANCH  23  24
HETATM   24  O   UNL     1      -7.813   4.402  62.786  1.00  0.00    -0.063 OA 
BRANCH  24  25
HETATM   25  C   UNL     1      -8.842   4.094  63.724  1.00  0.00    -0.124 C  
BRANCH  25  26
HETATM   26  C   UNL     1      -8.254   3.227  64.830  1.00  0.00    -0.090 C  
BRANCH  26  27
HETATM   27  C   UNL     1      -8.844   3.600  66.191  1.00  0.00    -0.127 C  
BRANCH  27  28
HETATM   28  C   UNL     1      -9.654   4.894  66.128  1.00  0.00    -0.183 C  
BRANCH  28  29
HETATM   29  C   UNL     1      -8.922   5.995  66.858  1.00  0.00    -0.117 A  
HETATM   30  C   UNL     1      -7.674   5.750  67.441  1.00  0.00    -0.097 A  
HETATM   31  C   UNL     1      -7.037   6.745  68.184  1.00  0.00    -0.086 A  
HETATM   32  C   UNL     1      -7.643   7.988  68.351  1.00  0.00    -0.108 A  
HETATM   33  C   UNL     1      -8.885   8.243  67.770  1.00  0.00    -0.137 A  
HETATM   34  C   UNL     1      -9.524   7.250  67.026  1.00  0.00    -0.196 A  
ENDBRANCH  28  29
ENDBRANCH  27  28
ENDBRANCH  26  27
ENDBRANCH  25  26
ENDBRANCH  24  25
ENDBRANCH  23  24
ENDBRANCH  22  23
ENDBRANCH  21  22
ENDBRANCH  20  21
ENDBRANCH  19  20
ENDBRANCH  18  19
ENDBRANCH  16  18
ENDBRANCH  15  16
ENDBRANCH  12  15
ENDBRANCH  10  12
ENDBRANCH   2   4
TORSDOF 16
ENDMDL
MODEL      367
REMARK 921   NORMALIZED FREE ENERGY PREDICTED BY IDOCK:   -3.54 KCAL/MOL
REMARK 922        TOTAL FREE ENERGY PREDICTED BY IDOCK:   -9.19 KCAL/MOL
REMARK 923 INTER-LIGAND FREE ENERGY PREDICTED BY IDOCK:   -8.14 KCAL/MOL
REMARK 924 INTRA-LIGAND FREE ENERGY PREDICTED BY IDOCK:   -1.05 KCAL/MOL
REMARK 927      BINDING AFFINITY PREDICTED BY RF-SCORE:    0.00 PKD
ROOT
HETATM    1  O   UNL     1      -5.300  17.288  65.885  1.00  0.00    -0.311 OA 
HETATM    2  C   UNL     1      -6.167  18.423  65.859  1.00  0.00    -0.229 C  
HETATM    3  H   UNL     1      -4.421  17.541  65.630  1.00  0.00     0.000 HD 
ENDROOT
BRANCH   2   4
HETATM    4  C   UNL     1      -7.562  18.022  66.264  1.00  0.00    -0.306 A  
HETATM    5  C   UNL     1      -8.648  18.904  66.218  1.00  0.00    -0.257 A  
HETATM    6  O   UNL     1      -8.496  20.215  65.861  1.00  0.00    -0.537 OA 
HETATM    7  C   UNL     1      -9.931  18.494  66.563  1.00  0.00    -0.401 A  
HETATM    8  C   UNL     1     -10.149  17.186  66.987  1.00  0.00    -0.297 A  
HETATM    9  H   UNL     1      -9.233  20.814  65.831  1.00  0.00     0.000 HD 
HETATM   10  C   UNL     1      -9.087  16.269  67.052  1.00  0.00    -0.226 A  
HETATM   11  C   UNL     1      -7.804  16.695  66.664  1.00  0.00    -0.316 A  
BRANCH  10  12
HETATM   12  C   UNL     1      -9.294  14.853  67.554  1.00  0.00    -0.193 C  
HETATM   13  O   UNL     1      -9.622  14.867  68.952  1.00  0.00    -0.208 OA 
HETATM   14  H   UNL     1      -9.752  13.980  69.267  1.00  0.00     0.000 HD 
BRANCH  12  15
HETATM   15  C   UNL     1     -10.412  14.118  66.785  1.00  0.00    -0.277 C  
BRANCH  15  16
HETATM   16  N   UNL     1     -10.000  13.817  65.404  1.00  0.00    -0.507 NA 
HETATM   17  H   UNL     1      -9.371  13.016  65.359  1.00  0.00     0.000 HD 
BRANCH  16  18
HETATM   18  C   UNL     1     -11.176  13.637  64.558  1.00  0.00    -0.382 C  
BRANCH  18  19
HETATM   19  C   UNL     1     -10.936  12.508  63.564  1.00  0.00    -0.472 C  
BRANCH  19  20
HETATM   20  C   UNL     1     -10.947  11.161  64.284  1.00  0.00    -0.276 C  
BRANCH  20  21
HETATM   21  C   UNL     1      -9.758  10.314  63.855  1.00  0.00    -0.325 C  
BRANCH  21  22
HETATM   22  C   UNL     1      -8.983   9.792  65.059  1.00  0.00    -0.247 C  
BRANCH  22  23
HETATM   23  C   UNL     1      -9.902   9.662  66.263  1.00  0.00    -0.256 C  
BRANCH  23  24
HETATM   24  O   UNL     1      -9.601   8.442  66.928  1.00  0.00    -0.170 OA 
BRANCH  24  25
HETATM   25  C   UNL     1      -8.335   8.503  67.581  1.00  0.00    -0.129 C  
BRANCH  25  26
HETATM   26  C   UNL     1      -8.293   7.438  68.669  1.00  0.00    -0.129 C  
BRANCH  26  27
HETATM   27  C   UNL     1      -9.694   6.901  68.966  1.00  0.00    -0.150 C  
BRANCH  27  28
HETATM   28  C   UNL     1      -9.960   6.800  70.467  1.00  0.00    -0.197 C  
BRANCH  28  29
HETATM   29  C   UNL     1      -9.929   5.353  70.899  1.00  0.00    -0.265 A  
HETATM   30  C   UNL     1      -9.577   4.350  69.990  1.00  0.00    -0.273 A  
HETATM   31  C   UNL     1      -9.627   3.008  70.367  1.00  0.00    -0.170 A  
HETATM   32  C   UNL     1     -10.031   2.659  71.654  1.00  0.00    -0.159 A  
HETATM   33  C   UNL     1     -10.380   3.652  72.569  1.00  0.00    -0.199 A  
HETATM   34  C   UNL     1     -10.331   4.995  72.194  1.00  0.00    -0.276 A  
ENDBRANCH  28  29
ENDBRANCH  27  28
ENDBRANCH  26  27
ENDBRANCH  25  26
ENDBRANCH  24  25
ENDBRANCH  23  24
ENDBRANCH  22  23
ENDBRANCH  21  22
ENDBRANCH  20  21
ENDBRANCH  19  20
ENDBRANCH  18  19
ENDBRANCH  16  18
ENDBRANCH  15  16
ENDBRANCH  12  15
ENDBRANCH  10  12
ENDBRANCH   2   4
TORSDOF 16
ENDMDL
MODEL      368
REMARK 921   NORMALIZED FREE ENERGY PREDICTED BY IDOCK:   -3.54 KCAL/MOL
REMARK 922        TOTAL FREE ENERGY PREDICTED BY IDOCK:   -9.19 KCAL/MOL
REMARK 923 INTER-LIGAND FREE ENERGY PREDICTED BY IDOCK:   -7.71 KCAL/MOL
REMARK 924 INTRA-LIGAND FREE ENERGY PREDICTED BY IDOCK:   -1.48 KCAL/MOL
REMARK 927      BINDING AFFINITY PREDICTED BY RF-SCORE:    0.00 PKD
ROOT
HETATM    1  O   UNL     1     -10.715  18.586  68.249  1.00  0.00    -0.313 OA 
HETATM    2  C   UNL     1     -10.041  17.331  68.154  1.00  0.00    -0.325 C  
HETATM    3  H   UNL     1     -10.413  19.064  69.013  1.00  0.00     0.000 HD 
ENDROOT
BRANCH   2   4
HETATM    4  C   UNL     1     -10.520  16.573  66.943  1.00  0.00    -0.282 A  
HETATM    5  C   UNL     1     -10.723  17.182  65.699  1.00  0.00    -0.136 A  
HETATM    6  O   UNL     1     -10.559  18.528  65.520  1.00  0.00    -0.621 OA 
HETATM    7  C   UNL     1     -11.131  16.449  64.590  1.00  0.00    -0.202 A  
HETATM    8  C   UNL     1     -11.368  15.083  64.713  1.00  0.00    -0.409 A  
HETATM    9  H   UNL     1     -10.697  18.941  64.676  1.00  0.00     0.000 HD 
HETATM   10  C   UNL     1     -11.181  14.433  65.944  1.00  0.00    -0.324 A  
HETATM   11  C   UNL     1     -10.734  15.187  67.043  1.00  0.00    -0.307 A  
BRANCH  10  12
HETATM   12  C   UNL     1     -11.478  12.954  66.111  1.00  0.00    -0.348 C  
HETATM   13  O   UNL     1     -12.266  12.739  67.292  1.00  0.00    -0.387 OA 
HETATM   14  H   UNL     1     -12.452  11.813  67.397  1.00  0.00     0.000 HD 
BRANCH  12  15
HETATM   15  C   UNL     1     -12.228  12.368  64.896  1.00  0.00    -0.418 C  
BRANCH  15  16
HETATM   16  N   UNL     1     -11.394  11.390  64.177  1.00  0.00    -0.325 NA 
HETATM   17  H   UNL     1     -11.141  11.716  63.245  1.00  0.00     0.000 HD 
BRANCH  16  18
HETATM   18  C   UNL     1     -10.221  11.049  64.975  1.00  0.00    -0.299 C  
BRANCH  18  19
HETATM   19  C   UNL     1      -9.337  10.071  64.212  1.00  0.00    -0.345 C  
BRANCH  19  20
HETATM   20  C   UNL     1      -8.493   9.253  65.187  1.00  0.00    -0.173 C  
BRANCH  20  21
HETATM   21  C   UNL     1      -8.322   7.827  64.684  1.00  0.00    -0.026 C  
BRANCH  21  22
HETATM   22  C   UNL     1      -8.070   6.857  65.833  1.00  0.00    -0.119 C  
BRANCH  22  23
HETATM   23  C   UNL     1      -7.021   7.420  66.779  1.00  0.00    -0.077 C  
BRANCH  23  24
HETATM   24  O   UNL     1      -7.375   7.059  68.108  1.00  0.00    -0.091 OA 
BRANCH  24  25
HETATM   25  C   UNL     1      -8.759   6.732  68.208  1.00  0.00    -0.123 C  
BRANCH  25  26
HETATM   26  C   UNL     1      -9.126   6.598  69.681  1.00  0.00    -0.142 C  
BRANCH  26  27
HETATM   27  C   UNL     1      -9.222   7.970  70.350  1.00  0.00    -0.155 C  
BRANCH  27  28
HETATM   28  C   UNL     1     -10.206   7.969  71.517  1.00  0.00    -0.243 C  
BRANCH  28  29
HETATM   29  C   UNL     1     -11.288   8.996  71.279  1.00  0.00    -0.389 A  
HETATM   30  C   UNL     1     -12.239   9.266  72.269  1.00  0.00    -0.305 A  
HETATM   31  C   UNL     1     -13.284  10.155  72.018  1.00  0.00    -0.534 A  
HETATM   32  C   UNL     1     -13.388  10.777  70.775  1.00  0.00     0.075 A  
HETATM   33  C   UNL     1     -12.443  10.517  69.784  1.00  0.00    -0.133 A  
HETATM   34  C   UNL     1     -11.397   9.629  70.033  1.00  0.00    -0.239 A  
ENDBRANCH  28  29
ENDBRANCH  27  28
ENDBRANCH  26  27
ENDBRANCH  25  26
ENDBRANCH  24  25
ENDBRANCH  23  24
ENDBRANCH  22  23
ENDBRANCH  21  22
ENDBRANCH  20  21
ENDBRANCH  19  20
ENDBRANCH  18  19
ENDBRANCH  16  18
ENDBRANCH  15  16
ENDBRANCH  12  15
ENDBRANCH  10  12
ENDBRANCH   2   4
TORSDOF 16
ENDMDL
MODEL      369
REMARK 921   NORMALIZED FREE ENERGY PREDICTED BY IDOCK:   -3.53 KCAL/MOL
REMARK 922        TOTAL FREE ENERGY PREDICTED BY IDOCK:   -9.19 KCAL/MOL
REMARK 923 INTER-LIGAND FREE ENERGY PREDICTED BY IDOCK:   -8.21 KCAL/MOL
REMARK 924 INTRA-LIGAND FREE ENERGY PREDICTED BY IDOCK:   -0.98 KCAL/MOL
REMARK 927      BINDING AFFINITY PREDICTED BY RF-SCORE:    0.00 PKD
ROOT
HETATM    1  O   UNL     1      -7.391  10.619  67.260  1.00  0.00    -0.088 OA 
HETATM    2  C   UNL     1      -8.252   9.680  66.615  1.00  0.00    -0.120 C  
HETATM    3  H   UNL     1      -7.231  10.355  68.159  1.00  0.00     0.000 HD 
ENDROOT
BRANCH   2   4
HETATM    4  C   UNL     1      -8.505  10.098  65.190  1.00  0.00    -0.167 A  
HETATM    5  C   UNL     1      -7.643   9.765  64.138  1.00  0.00    -0.134 A  
HETATM    6  O   UNL     1      -6.474   9.089  64.351  1.00  0.00    -0.074 OA 
HETATM    7  C   UNL     1      -7.922  10.134  62.827  1.00  0.00    -0.150 A  
HETATM    8  C   UNL     1      -9.069  10.871  62.545  1.00  0.00    -0.361 A  
HETATM    9  H   UNL     1      -5.889   8.863  63.637  1.00  0.00     0.000 HD 
HETATM   10  C   UNL     1      -9.959  11.230  63.570  1.00  0.00    -0.417 A  
HETATM   11  C   UNL     1      -9.675  10.816  64.884  1.00  0.00    -0.330 A  
BRANCH  10  12
HETATM   12  C   UNL     1     -11.190  12.072  63.292  1.00  0.00    -0.318 C  
HETATM   13  O   UNL     1     -12.367  11.248  63.315  1.00  0.00    -0.693 OA 
HETATM   14  H   UNL     1     -13.138  11.775  63.141  1.00  0.00     0.000 HD 
BRANCH  12  15
HETATM   15  C   UNL     1     -11.359  13.214  64.316  1.00  0.00    -0.388 C  
BRANCH  15  16
HETATM   16  N   UNL     1     -12.773  13.395  64.684  1.00  0.00    -0.671 NA 
HETATM   17  H   UNL     1     -13.262  12.504  64.772  1.00  0.00     0.000 HD 
BRANCH  16  18
HETATM   18  C   UNL     1     -12.876  14.197  65.899  1.00  0.00    -0.257 C  
BRANCH  18  19
HETATM   19  C   UNL     1     -11.592  14.084  66.710  1.00  0.00    -0.406 C  
BRANCH  19  20
HETATM   20  C   UNL     1     -11.399  12.649  67.196  1.00  0.00    -0.373 C  
BRANCH  20  21
HETATM   21  C   UNL     1     -10.200  12.553  68.127  1.00  0.00    -0.231 C  
BRANCH  21  22
HETATM   22  C   UNL     1     -10.448  11.558  69.254  1.00  0.00    -0.066 C  
BRANCH  22  23
HETATM   23  C   UNL     1     -11.803  11.814  69.896  1.00  0.00    -0.348 C  
BRANCH  23  24
HETATM   24  O   UNL     1     -11.997  10.859  70.932  1.00  0.00    -0.328 OA 
BRANCH  24  25
HETATM   25  C   UNL     1     -13.178  10.090  70.716  1.00  0.00    -0.208 C  
BRANCH  25  26
HETATM   26  C   UNL     1     -13.125   8.851  71.602  1.00  0.00    -0.405 C  
BRANCH  26  27
HETATM   27  C   UNL     1     -11.765   8.727  72.290  1.00  0.00    -0.398 C  
BRANCH  27  28
HETATM   28  C   UNL     1     -10.752   7.981  71.423  1.00  0.00    -0.270 C  
BRANCH  28  29
HETATM   29  C   UNL     1      -9.580   7.539  72.267  1.00  0.00    -0.197 A  
HETATM   30  C   UNL     1      -9.009   6.275  72.079  1.00  0.00    -0.142 A  
HETATM   31  C   UNL     1      -7.980   5.836  72.912  1.00  0.00    -0.108 A  
HETATM   32  C   UNL     1      -7.517   6.655  73.940  1.00  0.00    -0.082 A  
HETATM   33  C   UNL     1      -8.077   7.917  74.133  1.00  0.00    -0.290 A  
HETATM   34  C   UNL     1      -9.106   8.359  73.300  1.00  0.00    -0.185 A  
ENDBRANCH  28  29
ENDBRANCH  27  28
ENDBRANCH  26  27
ENDBRANCH  25  26
ENDBRANCH  24  25
ENDBRANCH  23  24
ENDBRANCH  22  23
ENDBRANCH  21  22
ENDBRANCH  20  21
ENDBRANCH  19  20
ENDBRANCH  18  19
ENDBRANCH  16  18
ENDBRANCH  15  16
ENDBRANCH  12  15
ENDBRANCH  10  12
ENDBRANCH   2   4
TORSDOF 16
ENDMDL
MODEL      370
REMARK 921   NORMALIZED FREE ENERGY PREDICTED BY IDOCK:   -3.50 KCAL/MOL
REMARK 922        TOTAL FREE ENERGY PREDICTED BY IDOCK:   -9.12 KCAL/MOL
REMARK 923 INTER-LIGAND FREE ENERGY PREDICTED BY IDOCK:   -7.70 KCAL/MOL
REMARK 924 INTRA-LIGAND FREE ENERGY PREDICTED BY IDOCK:   -1.41 KCAL/MOL
REMARK 927      BINDING AFFINITY PREDICTED BY RF-SCORE:    0.00 PKD
ROOT
HETATM    1  O   UNL     1     -13.844   7.963  72.393  1.00  0.00    -0.531 OA 
HETATM    2  C   UNL     1     -12.717   8.794  72.109  1.00  0.00    -0.400 C  
HETATM    3  H   UNL     1     -14.625   8.494  72.497  1.00  0.00     0.000 HD 
ENDROOT
BRANCH   2   4
HETATM    4  C   UNL     1     -11.479   7.953  71.944  1.00  0.00    -0.328 A  
HETATM    5  C   UNL     1     -11.351   6.979  70.948  1.00  0.00    -0.295 A  
HETATM    6  O   UNL     1     -12.377   6.682  70.094  1.00  0.00    -0.561 OA 
HETATM    7  C   UNL     1     -10.181   6.244  70.797  1.00  0.00    -0.238 A  
HETATM    8  C   UNL     1      -9.113   6.456  71.666  1.00  0.00    -0.144 A  
HETATM    9  H   UNL     1     -12.291   6.021  69.417  1.00  0.00     0.000 HD 
HETATM   10  C   UNL     1      -9.201   7.420  72.682  1.00  0.00    -0.185 A  
HETATM   11  C   UNL     1     -10.380   8.177  72.794  1.00  0.00    -0.384 A  
BRANCH  10  12
HETATM   12  C   UNL     1      -8.068   7.636  73.668  1.00  0.00    -0.157 C  
HETATM   13  O   UNL     1      -7.814   6.427  74.401  1.00  0.00    -0.104 OA 
HETATM   14  H   UNL     1      -7.104   6.562  75.019  1.00  0.00     0.000 HD 
BRANCH  12  15
HETATM   15  C   UNL     1      -6.764   8.081  72.971  1.00  0.00    -0.090 C  
BRANCH  15  16
HETATM   16  N   UNL     1      -6.987   9.276  72.140  1.00  0.00    -0.282 NA 
HETATM   17  H   UNL     1      -6.912  10.137  72.682  1.00  0.00     0.000 HD 
BRANCH  16  18
HETATM   18  C   UNL     1      -6.078   9.268  70.998  1.00  0.00    -0.068 C  
BRANCH  18  19
HETATM   19  C   UNL     1      -6.215  10.566  70.212  1.00  0.00    -0.130 C  
BRANCH  19  20
HETATM   20  C   UNL     1      -5.623  10.401  68.815  1.00  0.00    -0.041 C  
BRANCH  20  21
HETATM   21  C   UNL     1      -5.947  11.609  67.948  1.00  0.00    -0.047 C  
BRANCH  21  22
HETATM   22  C   UNL     1      -6.685  11.201  66.678  1.00  0.00    -0.137 C  
BRANCH  22  23
HETATM   23  C   UNL     1      -8.183  11.148  66.933  1.00  0.00    -0.149 C  
BRANCH  23  24
HETATM   24  O   UNL     1      -8.518  12.170  67.864  1.00  0.00    -0.145 OA 
BRANCH  24  25
HETATM   25  C   UNL     1      -9.545  13.019  67.358  1.00  0.00    -0.211 C  
BRANCH  25  26
HETATM   26  C   UNL     1      -8.953  14.396  67.085  1.00  0.00    -0.245 C  
BRANCH  26  27
HETATM   27  C   UNL     1      -9.268  15.365  68.226  1.00  0.00    -0.188 C  
BRANCH  27  28
HETATM   28  C   UNL     1      -8.238  16.489  68.322  1.00  0.00    -0.185 C  
BRANCH  28  29
HETATM   29  C   UNL     1      -8.836  17.778  67.811  1.00  0.00    -0.249 A  
HETATM   30  C   UNL     1      -8.274  18.431  66.708  1.00  0.00    -0.267 A  
HETATM   31  C   UNL     1      -8.777  19.663  66.288  1.00  0.00    -0.401 A  
HETATM   32  C   UNL     1      -9.842  20.251  66.966  1.00  0.00    -0.607 A  
HETATM   33  C   UNL     1     -10.411  19.606  68.064  1.00  0.00    -0.537 A  
HETATM   34  C   UNL     1      -9.910  18.374  68.486  1.00  0.00    -0.402 A  
ENDBRANCH  28  29
ENDBRANCH  27  28
ENDBRANCH  26  27
ENDBRANCH  25  26
ENDBRANCH  24  25
ENDBRANCH  23  24
ENDBRANCH  22  23
ENDBRANCH  21  22
ENDBRANCH  20  21
ENDBRANCH  19  20
ENDBRANCH  18  19
ENDBRANCH  16  18
ENDBRANCH  15  16
ENDBRANCH  12  15
ENDBRANCH  10  12
ENDBRANCH   2   4
TORSDOF 16
ENDMDL
MODEL      371
REMARK 921   NORMALIZED FREE ENERGY PREDICTED BY IDOCK:   -3.50 KCAL/MOL
REMARK 922        TOTAL FREE ENERGY PREDICTED BY IDOCK:   -9.12 KCAL/MOL
REMARK 923 INTER-LIGAND FREE ENERGY PREDICTED BY IDOCK:   -7.89 KCAL/MOL
REMARK 924 INTRA-LIGAND FREE ENERGY PREDICTED BY IDOCK:   -1.23 KCAL/MOL
REMARK 927      BINDING AFFINITY PREDICTED BY RF-SCORE:    0.00 PKD
ROOT
HETATM    1  O   UNL     1      -8.335   5.364  67.742  1.00  0.00    -0.100 OA 
HETATM    2  C   UNL     1      -8.863   5.182  66.427  1.00  0.00    -0.120 C  
HETATM    3  H   UNL     1      -8.663   4.689  68.324  1.00  0.00     0.000 HD 
ENDROOT
BRANCH   2   4
HETATM    4  C   UNL     1      -8.344   6.253  65.504  1.00  0.00    -0.147 A  
HETATM    5  C   UNL     1      -8.035   6.011  64.161  1.00  0.00    -0.119 A  
HETATM    6  O   UNL     1      -8.125   4.760  63.615  1.00  0.00    -0.089 OA 
HETATM    7  C   UNL     1      -7.592   7.028  63.323  1.00  0.00    -0.108 A  
HETATM    8  C   UNL     1      -7.425   8.316  63.827  1.00  0.00    -0.121 A  
HETATM    9  H   UNL     1      -7.915   4.596  62.703  1.00  0.00     0.000 HD 
HETATM   10  C   UNL     1      -7.719   8.601  65.169  1.00  0.00    -0.101 A  
HETATM   11  C   UNL     1      -8.200   7.565  65.989  1.00  0.00    -0.130 A  
BRANCH  10  12
HETATM   12  C   UNL     1      -7.502   9.986  65.750  1.00  0.00    -0.121 C  
HETATM   13  O   UNL     1      -8.239  10.960  64.994  1.00  0.00    -0.355 OA 
HETATM   14  H   UNL     1      -8.103  11.828  65.358  1.00  0.00     0.000 HD 
BRANCH  12  15
HETATM   15  C   UNL     1      -7.932  10.072  67.230  1.00  0.00    -0.106 C  
BRANCH  15  16
HETATM   16  N   UNL     1      -8.691  11.306  67.494  1.00  0.00    -0.136 NA 
HETATM   17  H   UNL     1      -9.541  11.124  68.027  1.00  0.00     0.000 HD 
BRANCH  16  18
HETATM   18  C   UNL     1      -7.835  12.290  68.149  1.00  0.00    -0.148 C  
BRANCH  18  19
HETATM   19  C   UNL     1      -8.041  13.662  67.519  1.00  0.00    -0.190 C  
BRANCH  19  20
HETATM   20  C   UNL     1      -7.841  14.757  68.564  1.00  0.00    -0.130 C  
BRANCH  20  21
HETATM   21  C   UNL     1      -8.990  15.754  68.525  1.00  0.00    -0.194 C  
BRANCH  21  22
HETATM   22  C   UNL     1     -10.259  15.165  69.130  1.00  0.00    -0.249 C  
BRANCH  22  23
HETATM   23  C   UNL     1     -11.363  16.210  69.161  1.00  0.00    -0.323 C  
BRANCH  23  24
HETATM   24  O   UNL     1     -12.398  15.744  70.018  1.00  0.00    -0.354 OA 
BRANCH  24  25
HETATM   25  C   UNL     1     -12.121  16.047  71.383  1.00  0.00    -0.424 C  
BRANCH  25  26
HETATM   26  C   UNL     1     -13.357  15.732  72.217  1.00  0.00    -0.513 C  
BRANCH  26  27
HETATM   27  C   UNL     1     -14.053  14.468  71.709  1.00  0.00    -0.578 C  
BRANCH  27  28
HETATM   28  C   UNL     1     -13.723  13.250  72.569  1.00  0.00    -0.613 C  
BRANCH  28  29
HETATM   29  C   UNL     1     -12.942  12.244  71.757  1.00  0.00    -0.431 A  
HETATM   30  C   UNL     1     -12.175  12.659  70.662  1.00  0.00    -0.373 A  
HETATM   31  C   UNL     1     -11.520  11.721  69.865  1.00  0.00    -0.285 A  
HETATM   32  C   UNL     1     -11.627  10.362  70.154  1.00  0.00    -0.392 A  
HETATM   33  C   UNL     1     -12.386   9.939  71.245  1.00  0.00    -0.478 A  
HETATM   34  C   UNL     1     -13.042  10.875  72.044  1.00  0.00    -0.462 A  
ENDBRANCH  28  29
ENDBRANCH  27  28
ENDBRANCH  26  27
ENDBRANCH  25  26
ENDBRANCH  24  25
ENDBRANCH  23  24
ENDBRANCH  22  23
ENDBRANCH  21  22
ENDBRANCH  20  21
ENDBRANCH  19  20
ENDBRANCH  18  19
ENDBRANCH  16  18
ENDBRANCH  15  16
ENDBRANCH  12  15
ENDBRANCH  10  12
ENDBRANCH   2   4
TORSDOF 16
ENDMDL
MODEL      372
REMARK 921   NORMALIZED FREE ENERGY PREDICTED BY IDOCK:   -3.50 KCAL/MOL
REMARK 922        TOTAL FREE ENERGY PREDICTED BY IDOCK:   -9.12 KCAL/MOL
REMARK 923 INTER-LIGAND FREE ENERGY PREDICTED BY IDOCK:   -7.65 KCAL/MOL
REMARK 924 INTRA-LIGAND FREE ENERGY PREDICTED BY IDOCK:   -1.46 KCAL/MOL
REMARK 927      BINDING AFFINITY PREDICTED BY RF-SCORE:    0.00 PKD
ROOT
HETATM    1  O   UNL     1     -10.435  12.496  65.387  1.00  0.00    -0.270 OA 
HETATM    2  C   UNL     1     -10.954  13.627  64.686  1.00  0.00    -0.396 C  
HETATM    3  H   UNL     1     -10.567  11.705  64.877  1.00  0.00     0.000 HD 
ENDROOT
BRANCH   2   4
HETATM    4  C   UNL     1     -10.744  14.881  65.494  1.00  0.00    -0.369 A  
HETATM    5  C   UNL     1     -11.070  16.155  65.015  1.00  0.00    -0.294 A  
HETATM    6  O   UNL     1     -11.543  16.348  63.746  1.00  0.00    -1.605 OA 
HETATM    7  C   UNL     1     -10.900  17.291  65.798  1.00  0.00    -0.023 A  
HETATM    8  C   UNL     1     -10.372  17.173  67.081  1.00  0.00    -0.307 A  
HETATM    9  H   UNL     1     -11.764  17.213  63.421  1.00  0.00     0.000 HD 
HETATM   10  C   UNL     1     -10.028  15.915  67.600  1.00  0.00    -0.237 A  
HETATM   11  C   UNL     1     -10.242  14.776  66.804  1.00  0.00    -0.266 A  
BRANCH  10  12
HETATM   12  C   UNL     1      -9.409  15.769  68.978  1.00  0.00    -0.244 C  
HETATM   13  O   UNL     1      -9.493  14.403  69.415  1.00  0.00    -0.405 OA 
HETATM   14  H   UNL     1      -9.105  14.311  70.278  1.00  0.00     0.000 HD 
BRANCH  12  15
HETATM   15  C   UNL     1      -7.931  16.212  69.004  1.00  0.00    -0.236 C  
BRANCH  15  16
HETATM   16  N   UNL     1      -7.030  15.056  69.142  1.00  0.00    -0.127 NA 
HETATM   17  H   UNL     1      -7.542  14.194  69.329  1.00  0.00     0.000 HD 
BRANCH  16  18
HETATM   18  C   UNL     1      -6.178  14.941  67.963  1.00  0.00    -0.153 C  
BRANCH  18  19
HETATM   19  C   UNL     1      -5.809  13.482  67.725  1.00  0.00    -0.120 C  
BRANCH  19  20
HETATM   20  C   UNL     1      -7.069  12.619  67.690  1.00  0.00    -0.139 C  
BRANCH  20  21
HETATM   21  C   UNL     1      -7.178  11.776  68.953  1.00  0.00    -0.107 C  
BRANCH  21  22
HETATM   22  C   UNL     1      -7.375  10.302  68.623  1.00  0.00    -0.083 C  
BRANCH  22  23
HETATM   23  C   UNL     1      -8.425  10.139  67.535  1.00  0.00    -0.118 C  
BRANCH  23  24
HETATM   24  O   UNL     1      -8.293   8.839  66.973  1.00  0.00    -0.102 OA 
BRANCH  24  25
HETATM   25  C   UNL     1      -9.537   8.142  66.974  1.00  0.00    -0.196 C  
BRANCH  25  26
HETATM   26  C   UNL     1      -9.678   7.394  68.294  1.00  0.00    -0.159 C  
BRANCH  26  27
HETATM   27  C   UNL     1     -10.862   7.928  69.103  1.00  0.00    -0.054 C  
BRANCH  27  28
HETATM   28  C   UNL     1     -11.345   6.919  70.142  1.00  0.00    -0.364 C  
BRANCH  28  29
HETATM   29  C   UNL     1     -10.349   6.831  71.275  1.00  0.00    -0.225 A  
HETATM   30  C   UNL     1      -9.851   5.590  71.685  1.00  0.00    -0.221 A  
HETATM   31  C   UNL     1      -8.994   5.503  72.782  1.00  0.00    -0.121 A  
HETATM   32  C   UNL     1      -8.633   6.654  73.479  1.00  0.00    -0.135 A  
HETATM   33  C   UNL     1      -9.122   7.896  73.076  1.00  0.00    -0.300 A  
HETATM   34  C   UNL     1      -9.978   7.986  71.978  1.00  0.00    -0.275 A  
ENDBRANCH  28  29
ENDBRANCH  27  28
ENDBRANCH  26  27
ENDBRANCH  25  26
ENDBRANCH  24  25
ENDBRANCH  23  24
ENDBRANCH  22  23
ENDBRANCH  21  22
ENDBRANCH  20  21
ENDBRANCH  19  20
ENDBRANCH  18  19
ENDBRANCH  16  18
ENDBRANCH  15  16
ENDBRANCH  12  15
ENDBRANCH  10  12
ENDBRANCH   2   4
TORSDOF 16
ENDMDL
MODEL      373
REMARK 921   NORMALIZED FREE ENERGY PREDICTED BY IDOCK:   -3.49 KCAL/MOL
REMARK 922        TOTAL FREE ENERGY PREDICTED BY IDOCK:   -9.09 KCAL/MOL
REMARK 923 INTER-LIGAND FREE ENERGY PREDICTED BY IDOCK:   -7.48 KCAL/MOL
REMARK 924 INTRA-LIGAND FREE ENERGY PREDICTED BY IDOCK:   -1.62 KCAL/MOL
REMARK 927      BINDING AFFINITY PREDICTED BY RF-SCORE:    0.00 PKD
ROOT
HETATM    1  O   UNL     1     -10.463  20.215  68.590  1.00  0.00    -0.455 OA 
HETATM    2  C   UNL     1      -9.866  18.929  68.764  1.00  0.00    -0.404 C  
HETATM    3  H   UNL     1     -10.241  20.781  69.321  1.00  0.00     0.000 HD 
ENDROOT
BRANCH   2   4
HETATM    4  C   UNL     1     -10.219  18.032  67.607  1.00  0.00    -0.376 A  
HETATM    5  C   UNL     1     -10.303  18.493  66.288  1.00  0.00    -0.427 A  
HETATM    6  O   UNL     1     -10.131  19.812  65.974  1.00  0.00    -0.450 OA 
HETATM    7  C   UNL     1     -10.594  17.632  65.235  1.00  0.00     0.171 A  
HETATM    8  C   UNL     1     -10.833  16.284  65.489  1.00  0.00    -0.254 A  
HETATM    9  H   UNL     1     -10.188  20.126  65.079  1.00  0.00     0.000 HD 
HETATM   10  C   UNL     1     -10.763  15.780  66.798  1.00  0.00    -0.293 A  
HETATM   11  C   UNL     1     -10.432  16.661  67.842  1.00  0.00    -0.322 A  
BRANCH  10  12
HETATM   12  C   UNL     1     -11.064  14.325  67.103  1.00  0.00    -0.311 C  
HETATM   13  O   UNL     1     -12.474  14.145  67.309  1.00  0.00    -0.569 OA 
HETATM   14  H   UNL     1     -12.663  13.233  67.500  1.00  0.00     0.000 HD 
BRANCH  12  15
HETATM   15  C   UNL     1     -10.600  13.383  65.971  1.00  0.00    -0.287 C  
BRANCH  15  16
HETATM   16  N   UNL     1      -9.261  12.837  66.248  1.00  0.00    -0.416 NA 
HETATM   17  H   UNL     1      -8.526  13.382  65.798  1.00  0.00     0.000 HD 
BRANCH  16  18
HETATM   18  C   UNL     1      -9.054  12.724  67.688  1.00  0.00    -0.193 C  
BRANCH  18  19
HETATM   19  C   UNL     1      -7.592  12.983  68.028  1.00  0.00    -0.139 C  
BRANCH  19  20
HETATM   20  C   UNL     1      -6.851  11.660  68.209  1.00  0.00    -0.067 C  
BRANCH  20  21
HETATM   21  C   UNL     1      -5.579  11.638  67.375  1.00  0.00    -0.086 C  
BRANCH  21  22
HETATM   22  C   UNL     1      -5.362  10.276  66.726  1.00  0.00    -0.041 C  
BRANCH  22  23
HETATM   23  C   UNL     1      -6.639   9.452  66.788  1.00  0.00    -0.068 C  
BRANCH  23  24
HETATM   24  O   UNL     1      -7.109   9.250  65.462  1.00  0.00    -0.083 OA 
BRANCH  24  25
HETATM   25  C   UNL     1      -8.321   9.962  65.224  1.00  0.00    -0.149 C  
BRANCH  25  26
HETATM   26  C   UNL     1      -9.490   8.992  65.340  1.00  0.00    -0.163 C  
BRANCH  26  27
HETATM   27  C   UNL     1     -10.138   9.076  66.723  1.00  0.00    -0.344 C  
BRANCH  27  28
HETATM   28  C   UNL     1     -10.613   7.710  67.215  1.00  0.00    -0.388 C  
BRANCH  28  29
HETATM   29  C   UNL     1     -10.336   7.571  68.693  1.00  0.00    -0.218 A  
HETATM   30  C   UNL     1      -9.290   8.285  69.288  1.00  0.00    -0.155 A  
HETATM   31  C   UNL     1      -8.984   8.094  70.635  1.00  0.00    -0.153 A  
HETATM   32  C   UNL     1      -9.718   7.186  71.396  1.00  0.00    -0.170 A  
HETATM   33  C   UNL     1     -10.765   6.473  70.813  1.00  0.00    -0.290 A  
HETATM   34  C   UNL     1     -11.073   6.662  69.466  1.00  0.00    -0.378 A  
ENDBRANCH  28  29
ENDBRANCH  27  28
ENDBRANCH  26  27
ENDBRANCH  25  26
ENDBRANCH  24  25
ENDBRANCH  23  24
ENDBRANCH  22  23
ENDBRANCH  21  22
ENDBRANCH  20  21
ENDBRANCH  19  20
ENDBRANCH  18  19
ENDBRANCH  16  18
ENDBRANCH  15  16
ENDBRANCH  12  15
ENDBRANCH  10  12
ENDBRANCH   2   4
TORSDOF 16
ENDMDL
MODEL      374
REMARK 921   NORMALIZED FREE ENERGY PREDICTED BY IDOCK:   -3.47 KCAL/MOL
REMARK 922        TOTAL FREE ENERGY PREDICTED BY IDOCK:   -9.07 KCAL/MOL
REMARK 923 INTER-LIGAND FREE ENERGY PREDICTED BY IDOCK:   -7.83 KCAL/MOL
REMARK 924 INTRA-LIGAND FREE ENERGY PREDICTED BY IDOCK:   -1.24 KCAL/MOL
REMARK 927      BINDING AFFINITY PREDICTED BY RF-SCORE:    0.00 PKD
ROOT
HETATM    1  O   UNL     1      -6.616   4.353  63.481  1.00  0.00    -0.033 OA 
HETATM    2  C   UNL     1      -7.553   3.553  64.202  1.00  0.00    -0.075 C  
HETATM    3  H   UNL     1      -6.074   3.803  62.926  1.00  0.00     0.000 HD 
ENDROOT
BRANCH   2   4
HETATM    4  C   UNL     1      -8.412   4.423  65.082  1.00  0.00    -0.123 A  
HETATM    5  C   UNL     1      -9.483   3.921  65.831  1.00  0.00    -0.181 A  
HETATM    6  O   UNL     1      -9.859   2.609  65.760  1.00  0.00    -0.348 OA 
HETATM    7  C   UNL     1     -10.234   4.743  66.664  1.00  0.00    -0.274 A  
HETATM    8  C   UNL     1      -9.940   6.101  66.745  1.00  0.00    -0.218 A  
HETATM    9  H   UNL     1     -10.586   2.268  66.268  1.00  0.00     0.000 HD 
HETATM   10  C   UNL     1      -8.877   6.647  66.007  1.00  0.00    -0.151 A  
HETATM   11  C   UNL     1      -8.107   5.791  65.199  1.00  0.00    -0.133 A  
BRANCH  10  12
HETATM   12  C   UNL     1      -8.567   8.132  66.045  1.00  0.00    -0.147 C  
HETATM   13  O   UNL     1      -7.558   8.401  67.031  1.00  0.00    -0.090 OA 
HETATM   14  H   UNL     1      -7.364   9.331  67.054  1.00  0.00     0.000 HD 
BRANCH  12  15
HETATM   15  C   UNL     1      -8.085   8.662  64.678  1.00  0.00    -0.156 C  
BRANCH  15  16
HETATM   16  N   UNL     1      -8.996   9.694  64.155  1.00  0.00    -0.275 NA 
HETATM   17  H   UNL     1      -9.889   9.300  63.858  1.00  0.00     0.000 HD 
BRANCH  16  18
HETATM   18  C   UNL     1      -9.168  10.756  65.142  1.00  0.00    -0.209 C  
BRANCH  18  19
HETATM   19  C   UNL     1     -10.598  11.281  65.099  1.00  0.00    -0.343 C  
BRANCH  19  20
HETATM   20  C   UNL     1     -11.104  11.316  63.659  1.00  0.00    -0.300 C  
BRANCH  20  21
HETATM   21  C   UNL     1     -12.256  12.300  63.518  1.00  0.00    -0.669 C  
BRANCH  21  22
HETATM   22  C   UNL     1     -12.390  13.181  64.754  1.00  0.00    -0.477 C  
BRANCH  22  23
HETATM   23  C   UNL     1     -12.199  14.643  64.384  1.00  0.00    -0.452 C  
BRANCH  23  24
HETATM   24  O   UNL     1     -11.509  15.290  65.446  1.00  0.00    -0.293 OA 
BRANCH  24  25
HETATM   25  C   UNL     1     -10.203  14.746  65.625  1.00  0.00    -0.358 C  
BRANCH  25  26
HETATM   26  C   UNL     1     -10.024  14.373  67.091  1.00  0.00    -0.253 C  
BRANCH  26  27
HETATM   27  C   UNL     1     -10.538  15.485  68.007  1.00  0.00    -0.270 C  
BRANCH  27  28
HETATM   28  C   UNL     1      -9.498  15.895  69.047  1.00  0.00    -0.247 C  
BRANCH  28  29
HETATM   29  C   UNL     1      -8.804  17.163  68.608  1.00  0.00    -0.266 A  
HETATM   30  C   UNL     1      -7.446  17.358  68.880  1.00  0.00    -0.235 A  
HETATM   31  C   UNL     1      -6.826  18.563  68.546  1.00  0.00    -0.278 A  
HETATM   32  C   UNL     1      -7.560  19.581  67.940  1.00  0.00    -0.324 A  
HETATM   33  C   UNL     1      -8.913  19.394  67.662  1.00  0.00    -0.357 A  
HETATM   34  C   UNL     1      -9.535  18.191  67.995  1.00  0.00    -0.290 A  
ENDBRANCH  28  29
ENDBRANCH  27  28
ENDBRANCH  26  27
ENDBRANCH  25  26
ENDBRANCH  24  25
ENDBRANCH  23  24
ENDBRANCH  22  23
ENDBRANCH  21  22
ENDBRANCH  20  21
ENDBRANCH  19  20
ENDBRANCH  18  19
ENDBRANCH  16  18
ENDBRANCH  15  16
ENDBRANCH  12  15
ENDBRANCH  10  12
ENDBRANCH   2   4
TORSDOF 16
ENDMDL
MODEL      375
REMARK 921   NORMALIZED FREE ENERGY PREDICTED BY IDOCK:   -3.46 KCAL/MOL
REMARK 922        TOTAL FREE ENERGY PREDICTED BY IDOCK:   -9.04 KCAL/MOL
REMARK 923 INTER-LIGAND FREE ENERGY PREDICTED BY IDOCK:   -6.87 KCAL/MOL
REMARK 924 INTRA-LIGAND FREE ENERGY PREDICTED BY IDOCK:   -2.16 KCAL/MOL
REMARK 927      BINDING AFFINITY PREDICTED BY RF-SCORE:    0.00 PKD
ROOT
HETATM    1  O   UNL     1     -12.180  10.076  71.382  1.00  0.00    -0.362 OA 
HETATM    2  C   UNL     1     -11.510   9.770  70.158  1.00  0.00    -0.216 C  
HETATM    3  H   UNL     1     -13.110  10.196  71.225  1.00  0.00     0.000 HD 
ENDROOT
BRANCH   2   4
HETATM    4  C   UNL     1     -10.037   9.579  70.405  1.00  0.00    -0.329 A  
HETATM    5  C   UNL     1      -9.539   8.812  71.465  1.00  0.00    -0.284 A  
HETATM    6  O   UNL     1     -10.367   8.235  72.388  1.00  0.00    -0.284 OA 
HETATM    7  C   UNL     1      -8.174   8.623  71.646  1.00  0.00    -0.199 A  
HETATM    8  C   UNL     1      -7.270   9.225  70.774  1.00  0.00    -0.126 A  
HETATM    9  H   UNL     1     -10.029   7.715  73.107  1.00  0.00     0.000 HD 
HETATM   10  C   UNL     1      -7.726  10.007  69.701  1.00  0.00    -0.158 A  
HETATM   11  C   UNL     1      -9.112  10.155  69.515  1.00  0.00    -0.213 A  
BRANCH  10  12
HETATM   12  C   UNL     1      -6.759  10.709  68.766  1.00  0.00    -0.055 C  
HETATM   13  O   UNL     1      -5.625   9.868  68.505  1.00  0.00    -0.039 OA 
HETATM   14  H   UNL     1      -5.019  10.308  67.919  1.00  0.00     0.000 HD 
BRANCH  12  15
HETATM   15  C   UNL     1      -7.419  11.091  67.423  1.00  0.00    -0.106 C  
BRANCH  15  16
HETATM   16  N   UNL     1      -7.743  12.526  67.378  1.00  0.00    -0.161 NA 
HETATM   17  H   UNL     1      -8.428  12.785  68.089  1.00  0.00     0.000 HD 
BRANCH  16  18
HETATM   18  C   UNL     1      -6.523  13.320  67.481  1.00  0.00    -0.134 C  
BRANCH  18  19
HETATM   19  C   UNL     1      -6.767  14.544  68.353  1.00  0.00    -0.105 C  
BRANCH  19  20
HETATM   20  C   UNL     1      -6.011  15.748  67.796  1.00  0.00    -0.170 C  
BRANCH  20  21
HETATM   21  C   UNL     1      -5.432  16.589  68.924  1.00  0.00    -0.126 C  
BRANCH  21  22
HETATM   22  C   UNL     1      -5.624  18.078  68.664  1.00  0.00    -0.175 C  
BRANCH  22  23
HETATM   23  C   UNL     1      -7.087  18.459  68.829  1.00  0.00    -0.283 C  
BRANCH  23  24
HETATM   24  O   UNL     1      -7.598  18.840  67.558  1.00  0.00    -0.227 OA 
BRANCH  24  25
HETATM   25  C   UNL     1      -9.023  18.825  67.543  1.00  0.00    -0.274 C  
BRANCH  25  26
HETATM   26  C   UNL     1      -9.493  17.966  66.376  1.00  0.00    -0.278 C  
BRANCH  26  27
HETATM   27  C   UNL     1     -10.496  16.909  66.842  1.00  0.00    -0.271 C  
BRANCH  27  28
HETATM   28  C   UNL     1      -9.808  15.741  67.546  1.00  0.00    -0.229 C  
BRANCH  28  29
HETATM   29  C   UNL     1     -10.735  15.145  68.579  1.00  0.00    -0.240 A  
HETATM   30  C   UNL     1     -10.931  13.761  68.640  1.00  0.00    -0.287 A  
HETATM   31  C   UNL     1     -11.849  13.219  69.541  1.00  0.00    -0.388 A  
HETATM   32  C   UNL     1     -12.578  14.056  70.383  1.00  0.00    -0.374 A  
HETATM   33  C   UNL     1     -12.387  15.436  70.331  1.00  0.00    -0.443 A  
HETATM   34  C   UNL     1     -11.470  15.980  69.432  1.00  0.00    -0.336 A  
ENDBRANCH  28  29
ENDBRANCH  27  28
ENDBRANCH  26  27
ENDBRANCH  25  26
ENDBRANCH  24  25
ENDBRANCH  23  24
ENDBRANCH  22  23
ENDBRANCH  21  22
ENDBRANCH  20  21
ENDBRANCH  19  20
ENDBRANCH  18  19
ENDBRANCH  16  18
ENDBRANCH  15  16
ENDBRANCH  12  15
ENDBRANCH  10  12
ENDBRANCH   2   4
TORSDOF 16
ENDMDL
MODEL      376
REMARK 921   NORMALIZED FREE ENERGY PREDICTED BY IDOCK:   -3.46 KCAL/MOL
REMARK 922        TOTAL FREE ENERGY PREDICTED BY IDOCK:   -9.03 KCAL/MOL
REMARK 923 INTER-LIGAND FREE ENERGY PREDICTED BY IDOCK:   -8.11 KCAL/MOL
REMARK 924 INTRA-LIGAND FREE ENERGY PREDICTED BY IDOCK:   -0.93 KCAL/MOL
REMARK 927      BINDING AFFINITY PREDICTED BY RF-SCORE:    0.00 PKD
ROOT
HETATM    1  O   UNL     1     -11.141  18.009  65.116  1.00  0.00    -0.543 OA 
HETATM    2  C   UNL     1     -10.298  17.116  65.845  1.00  0.00    -0.284 C  
HETATM    3  H   UNL     1     -10.764  18.882  65.106  1.00  0.00     0.000 HD 
ENDROOT
BRANCH   2   4
HETATM    4  C   UNL     1     -10.895  15.734  65.861  1.00  0.00    -0.272 A  
HETATM    5  C   UNL     1     -11.671  15.230  64.810  1.00  0.00    -0.276 A  
HETATM    6  O   UNL     1     -11.991  15.994  63.722  1.00  0.00    -1.339 OA 
HETATM    7  C   UNL     1     -12.178  13.936  64.837  1.00  0.00    -0.445 A  
HETATM    8  C   UNL     1     -11.936  13.121  65.940  1.00  0.00    -0.479 A  
HETATM    9  H   UNL     1     -12.518  15.653  63.008  1.00  0.00     0.000 HD 
HETATM   10  C   UNL     1     -11.166  13.587  67.018  1.00  0.00    -0.330 A  
HETATM   11  C   UNL     1     -10.633  14.886  66.953  1.00  0.00    -0.300 A  
BRANCH  10  12
HETATM   12  C   UNL     1     -10.928  12.732  68.248  1.00  0.00    -0.252 C  
HETATM   13  O   UNL     1     -10.262  13.501  69.263  1.00  0.00    -0.428 OA 
HETATM   14  H   UNL     1     -10.113  12.966  70.034  1.00  0.00     0.000 HD 
BRANCH  12  15
HETATM   15  C   UNL     1     -12.242  12.168  68.830  1.00  0.00     0.028 C  
BRANCH  15  16
HETATM   16  N   UNL     1     -12.220  10.696  68.866  1.00  0.00    -0.793 NA 
HETATM   17  H   UNL     1     -11.890  10.298  67.987  1.00  0.00     0.000 HD 
BRANCH  16  18
HETATM   18  C   UNL     1     -11.432  10.235  70.005  1.00  0.00    -0.296 C  
BRANCH  18  19
HETATM   19  C   UNL     1     -12.309   9.430  70.956  1.00  0.00    -0.332 C  
BRANCH  19  20
HETATM   20  C   UNL     1     -11.609   8.131  71.347  1.00  0.00    -0.314 C  
BRANCH  20  21
HETATM   21  C   UNL     1     -11.239   8.144  72.824  1.00  0.00    -0.407 C  
BRANCH  21  22
HETATM   22  C   UNL     1     -10.083   7.196  73.116  1.00  0.00    -0.292 C  
BRANCH  22  23
HETATM   23  C   UNL     1      -9.203   7.039  71.886  1.00  0.00    -0.140 C  
BRANCH  23  24
HETATM   24  O   UNL     1      -8.828   5.672  71.773  1.00  0.00    -0.135 OA 
BRANCH  24  25
HETATM   25  C   UNL     1      -7.418   5.531  71.610  1.00  0.00    -0.093 C  
BRANCH  25  26
HETATM   26  C   UNL     1      -7.148   4.370  70.660  1.00  0.00    -0.041 C  
BRANCH  26  27
HETATM   27  C   UNL     1      -7.810   4.608  69.302  1.00  0.00    -0.063 C  
BRANCH  27  28
HETATM   28  C   UNL     1      -7.225   3.705  68.217  1.00  0.00    -0.051 C  
BRANCH  28  29
HETATM   29  C   UNL     1      -6.766   4.541  67.045  1.00  0.00    -0.051 A  
HETATM   30  C   UNL     1      -5.864   4.018  66.112  1.00  0.00    -0.023 A  
HETATM   31  C   UNL     1      -5.380   4.817  65.077  1.00  0.00    -0.013 A  
HETATM   32  C   UNL     1      -5.791   6.144  64.968  1.00  0.00    -0.025 A  
HETATM   33  C   UNL     1      -6.693   6.673  65.890  1.00  0.00    -0.048 A  
HETATM   34  C   UNL     1      -7.179   5.875  66.927  1.00  0.00    -0.071 A  
ENDBRANCH  28  29
ENDBRANCH  27  28
ENDBRANCH  26  27
ENDBRANCH  25  26
ENDBRANCH  24  25
ENDBRANCH  23  24
ENDBRANCH  22  23
ENDBRANCH  21  22
ENDBRANCH  20  21
ENDBRANCH  19  20
ENDBRANCH  18  19
ENDBRANCH  16  18
ENDBRANCH  15  16
ENDBRANCH  12  15
ENDBRANCH  10  12
ENDBRANCH   2   4
TORSDOF 16
ENDMDL
MODEL      377
REMARK 921   NORMALIZED FREE ENERGY PREDICTED BY IDOCK:   -3.45 KCAL/MOL
REMARK 922        TOTAL FREE ENERGY PREDICTED BY IDOCK:   -9.02 KCAL/MOL
REMARK 923 INTER-LIGAND FREE ENERGY PREDICTED BY IDOCK:   -7.22 KCAL/MOL
REMARK 924 INTRA-LIGAND FREE ENERGY PREDICTED BY IDOCK:   -1.80 KCAL/MOL
REMARK 927      BINDING AFFINITY PREDICTED BY RF-SCORE:    0.00 PKD
ROOT
HETATM    1  O   UNL     1      -9.256   9.336  63.743  1.00  0.00    -0.421 OA 
HETATM    2  C   UNL     1      -9.346   9.268  65.167  1.00  0.00    -0.171 C  
HETATM    3  H   UNL     1      -8.669   8.663  63.418  1.00  0.00     0.000 HD 
ENDROOT
BRANCH   2   4
HETATM    4  C   UNL     1     -10.276  10.335  65.682  1.00  0.00    -0.301 A  
HETATM    5  C   UNL     1     -10.933  10.237  66.914  1.00  0.00    -0.070 A  
HETATM    6  O   UNL     1     -10.821   9.127  67.704  1.00  0.00    -0.447 OA 
HETATM    7  C   UNL     1     -11.757  11.255  67.380  1.00  0.00    -0.114 A  
HETATM    8  C   UNL     1     -11.960  12.393  66.601  1.00  0.00    -0.300 A  
HETATM    9  H   UNL     1     -11.268   9.060  68.540  1.00  0.00     0.000 HD 
HETATM   10  C   UNL     1     -11.323  12.530  65.358  1.00  0.00    -0.363 A  
HETATM   11  C   UNL     1     -10.466  11.504  64.922  1.00  0.00    -0.345 A  
BRANCH  10  12
HETATM   12  C   UNL     1     -11.565  13.739  64.473  1.00  0.00    -0.392 C  
HETATM   13  O   UNL     1     -12.821  14.351  64.806  1.00  0.00    -0.647 OA 
HETATM   14  H   UNL     1     -12.972  15.109  64.252  1.00  0.00     0.000 HD 
BRANCH  12  15
HETATM   15  C   UNL     1     -10.444  14.792  64.606  1.00  0.00    -0.141 C  
BRANCH  15  16
HETATM   16  N   UNL     1     -10.990  16.159  64.564  1.00  0.00    -0.927 NA 
HETATM   17  H   UNL     1     -11.945  16.178  64.208  1.00  0.00     0.000 HD 
BRANCH  16  18
HETATM   18  C   UNL     1     -10.885  16.780  65.881  1.00  0.00    -0.053 C  
BRANCH  18  19
HETATM   19  C   UNL     1      -9.625  17.633  65.957  1.00  0.00    -0.123 C  
BRANCH  19  20
HETATM   20  C   UNL     1      -8.651  17.043  66.975  1.00  0.00    -0.232 C  
BRANCH  20  21
HETATM   21  C   UNL     1      -9.395  16.223  68.019  1.00  0.00    -0.214 C  
BRANCH  21  22
HETATM   22  C   UNL     1      -8.936  14.770  68.016  1.00  0.00    -0.174 C  
BRANCH  22  23
HETATM   23  C   UNL     1      -7.503  14.668  68.513  1.00  0.00    -0.120 C  
BRANCH  23  24
HETATM   24  O   UNL     1      -6.855  13.619  67.804  1.00  0.00    -0.138 OA 
BRANCH  24  25
HETATM   25  C   UNL     1      -7.794  12.671  67.303  1.00  0.00    -0.155 C  
BRANCH  25  26
HETATM   26  C   UNL     1      -8.164  11.708  68.423  1.00  0.00    -0.155 C  
BRANCH  26  27
HETATM   27  C   UNL     1      -7.009  10.755  68.733  1.00  0.00    -0.075 C  
BRANCH  27  28
HETATM   28  C   UNL     1      -7.343   9.312  68.361  1.00  0.00    -0.077 C  
BRANCH  28  29
HETATM   29  C   UNL     1      -7.982   8.613  69.537  1.00  0.00    -0.097 A  
HETATM   30  C   UNL     1      -8.356   7.268  69.444  1.00  0.00    -0.133 A  
HETATM   31  C   UNL     1      -9.019   6.647  70.503  1.00  0.00    -0.152 A  
HETATM   32  C   UNL     1      -9.316   7.365  71.659  1.00  0.00    -0.162 A  
HETATM   33  C   UNL     1      -8.944   8.705  71.763  1.00  0.00    -0.307 A  
HETATM   34  C   UNL     1      -8.280   9.329  70.706  1.00  0.00    -0.210 A  
ENDBRANCH  28  29
ENDBRANCH  27  28
ENDBRANCH  26  27
ENDBRANCH  25  26
ENDBRANCH  24  25
ENDBRANCH  23  24
ENDBRANCH  22  23
ENDBRANCH  21  22
ENDBRANCH  20  21
ENDBRANCH  19  20
ENDBRANCH  18  19
ENDBRANCH  16  18
ENDBRANCH  15  16
ENDBRANCH  12  15
ENDBRANCH  10  12
ENDBRANCH   2   4
TORSDOF 16
ENDMDL
MODEL      378
REMARK 921   NORMALIZED FREE ENERGY PREDICTED BY IDOCK:   -3.43 KCAL/MOL
REMARK 922        TOTAL FREE ENERGY PREDICTED BY IDOCK:   -8.98 KCAL/MOL
REMARK 923 INTER-LIGAND FREE ENERGY PREDICTED BY IDOCK:   -7.59 KCAL/MOL
REMARK 924 INTRA-LIGAND FREE ENERGY PREDICTED BY IDOCK:   -1.39 KCAL/MOL
REMARK 927      BINDING AFFINITY PREDICTED BY RF-SCORE:    0.00 PKD
ROOT
HETATM    1  O   UNL     1     -11.607   4.598  65.100  1.00  0.00    -1.107 OA 
HETATM    2  C   UNL     1     -10.704   5.099  66.087  1.00  0.00    -0.185 C  
HETATM    3  H   UNL     1     -12.504   4.787  65.350  1.00  0.00     0.000 HD 
ENDROOT
BRANCH   2   4
HETATM    4  C   UNL     1      -9.282   4.801  65.691  1.00  0.00    -0.152 A  
HETATM    5  C   UNL     1      -8.825   3.505  65.427  1.00  0.00    -0.126 A  
HETATM    6  O   UNL     1      -9.632   2.412  65.576  1.00  0.00    -0.356 OA 
HETATM    7  C   UNL     1      -7.515   3.264  65.027  1.00  0.00    -0.073 A  
HETATM    8  C   UNL     1      -6.623   4.326  64.906  1.00  0.00    -0.044 A  
HETATM    9  H   UNL     1      -9.322   1.532  65.397  1.00  0.00     0.000 HD 
HETATM   10  C   UNL     1      -7.038   5.642  65.166  1.00  0.00    -0.064 A  
HETATM   11  C   UNL     1      -8.376   5.866  65.534  1.00  0.00    -0.145 A  
BRANCH  10  12
HETATM   12  C   UNL     1      -6.071   6.808  65.085  1.00  0.00    -0.035 C  
HETATM   13  O   UNL     1      -6.201   7.471  63.817  1.00  0.00    -0.051 OA 
HETATM   14  H   UNL     1      -5.595   8.201  63.767  1.00  0.00     0.000 HD 
BRANCH  12  15
HETATM   15  C   UNL     1      -6.302   7.837  66.213  1.00  0.00    -0.046 C  
BRANCH  15  16
HETATM   16  N   UNL     1      -6.683   9.150  65.666  1.00  0.00    -0.072 NA 
HETATM   17  H   UNL     1      -7.694   9.288  65.674  1.00  0.00     0.000 HD 
BRANCH  16  18
HETATM   18  C   UNL     1      -5.981  10.212  66.380  1.00  0.00    -0.064 C  
BRANCH  18  19
HETATM   19  C   UNL     1      -6.969  11.284  66.823  1.00  0.00    -0.141 C  
BRANCH  19  20
HETATM   20  C   UNL     1      -8.351  11.003  66.238  1.00  0.00    -0.166 C  
BRANCH  20  21
HETATM   21  C   UNL     1      -9.439  11.324  67.251  1.00  0.00    -0.184 C  
BRANCH  21  22
HETATM   22  C   UNL     1     -10.811  11.396  66.591  1.00  0.00    -0.339 C  
BRANCH  22  23
HETATM   23  C   UNL     1     -11.727  12.320  67.377  1.00  0.00    -0.335 C  
BRANCH  23  24
HETATM   24  O   UNL     1     -12.189  13.344  66.505  1.00  0.00    -0.399 OA 
BRANCH  24  25
HETATM   25  C   UNL     1     -11.881  14.640  67.013  1.00  0.00    -0.337 C  
BRANCH  25  26
HETATM   26  C   UNL     1     -11.261  14.490  68.396  1.00  0.00    -0.290 C  
BRANCH  26  27
HETATM   27  C   UNL     1     -10.416  15.714  68.754  1.00  0.00    -0.225 C  
BRANCH  27  28
HETATM   28  C   UNL     1      -9.410  16.054  67.656  1.00  0.00    -0.214 C  
BRANCH  28  29
HETATM   29  C   UNL     1      -9.470  17.530  67.343  1.00  0.00    -0.255 A  
HETATM   30  C   UNL     1     -10.645  18.255  67.569  1.00  0.00    -0.432 A  
HETATM   31  C   UNL     1     -10.725  19.599  67.204  1.00  0.00    -0.587 A  
HETATM   32  C   UNL     1      -9.633  20.227  66.609  1.00  0.00    -0.522 A  
HETATM   33  C   UNL     1      -8.457  19.514  66.382  1.00  0.00    -0.373 A  
HETATM   34  C   UNL     1      -8.374  18.170  66.747  1.00  0.00    -0.270 A  
ENDBRANCH  28  29
ENDBRANCH  27  28
ENDBRANCH  26  27
ENDBRANCH  25  26
ENDBRANCH  24  25
ENDBRANCH  23  24
ENDBRANCH  22  23
ENDBRANCH  21  22
ENDBRANCH  20  21
ENDBRANCH  19  20
ENDBRANCH  18  19
ENDBRANCH  16  18
ENDBRANCH  15  16
ENDBRANCH  12  15
ENDBRANCH  10  12
ENDBRANCH   2   4
TORSDOF 16
ENDMDL
MODEL      379
REMARK 921   NORMALIZED FREE ENERGY PREDICTED BY IDOCK:   -3.41 KCAL/MOL
REMARK 922        TOTAL FREE ENERGY PREDICTED BY IDOCK:   -8.95 KCAL/MOL
REMARK 923 INTER-LIGAND FREE ENERGY PREDICTED BY IDOCK:   -7.48 KCAL/MOL
REMARK 924 INTRA-LIGAND FREE ENERGY PREDICTED BY IDOCK:   -1.47 KCAL/MOL
REMARK 927      BINDING AFFINITY PREDICTED BY RF-SCORE:    0.00 PKD
ROOT
HETATM    1  O   UNL     1      -6.305   2.695  65.222  1.00  0.00    -0.023 OA 
HETATM    2  C   UNL     1      -6.511   4.102  65.359  1.00  0.00    -0.036 C  
HETATM    3  H   UNL     1      -5.382   2.510  65.090  1.00  0.00     0.000 HD 
ENDROOT
BRANCH   2   4
HETATM    4  C   UNL     1      -7.973   4.396  65.569  1.00  0.00    -0.094 A  
HETATM    5  C   UNL     1      -8.980   3.843  64.768  1.00  0.00    -0.131 A  
HETATM    6  O   UNL     1      -8.691   3.046  63.695  1.00  0.00    -0.089 OA 
HETATM    7  C   UNL     1     -10.324   4.103  65.009  1.00  0.00    -0.209 A  
HETATM    8  C   UNL     1     -10.689   4.950  66.053  1.00  0.00    -0.247 A  
HETATM    9  H   UNL     1      -9.374   2.672  63.151  1.00  0.00     0.000 HD 
HETATM   10  C   UNL     1      -9.711   5.529  66.878  1.00  0.00    -0.163 A  
HETATM   11  C   UNL     1      -8.360   5.223  66.639  1.00  0.00    -0.108 A  
BRANCH  10  12
HETATM   12  C   UNL     1     -10.083   6.489  67.993  1.00  0.00    -0.150 C  
HETATM   13  O   UNL     1     -11.493   6.421  68.253  1.00  0.00    -0.522 OA 
HETATM   14  H   UNL     1     -11.727   7.023  68.951  1.00  0.00     0.000 HD 
BRANCH  12  15
HETATM   15  C   UNL     1      -9.318   6.191  69.300  1.00  0.00    -0.134 C  
BRANCH  15  16
HETATM   16  N   UNL     1      -9.774   7.062  70.395  1.00  0.00    -0.176 NA 
HETATM   17  H   UNL     1     -10.136   6.527  71.184  1.00  0.00     0.000 HD 
BRANCH  16  18
HETATM   18  C   UNL     1      -8.701   7.967  70.795  1.00  0.00    -0.138 C  
BRANCH  18  19
HETATM   19  C   UNL     1      -8.976   9.369  70.265  1.00  0.00    -0.277 C  
BRANCH  19  20
HETATM   20  C   UNL     1      -8.062   9.672  69.079  1.00  0.00    -0.103 C  
BRANCH  20  21
HETATM   21  C   UNL     1      -8.882   9.983  67.835  1.00  0.00    -0.125 C  
BRANCH  21  22
HETATM   22  C   UNL     1      -9.819  11.163  68.066  1.00  0.00    -0.185 C  
BRANCH  22  23
HETATM   23  C   UNL     1     -11.263  10.741  67.844  1.00  0.00    -0.318 C  
BRANCH  23  24
HETATM   24  O   UNL     1     -11.972  11.842  67.289  1.00  0.00    -0.618 OA 
BRANCH  24  25
HETATM   25  C   UNL     1     -11.305  12.367  66.144  1.00  0.00    -0.352 C  
BRANCH  25  26
HETATM   26  C   UNL     1     -12.255  13.305  65.410  1.00  0.00    -0.501 C  
BRANCH  26  27
HETATM   27  C   UNL     1     -11.568  14.629  65.073  1.00  0.00    -0.385 C  
BRANCH  27  28
HETATM   28  C   UNL     1     -10.277  14.820  65.867  1.00  0.00    -0.331 C  
BRANCH  28  29
HETATM   29  C   UNL     1     -10.229  16.216  66.442  1.00  0.00    -0.315 A  
HETATM   30  C   UNL     1     -10.027  16.410  67.813  1.00  0.00    -0.248 A  
HETATM   31  C   UNL     1     -10.063  17.695  68.354  1.00  0.00    -0.368 A  
HETATM   32  C   UNL     1     -10.304  18.794  67.531  1.00  0.00    -0.471 A  
HETATM   33  C   UNL     1     -10.502  18.610  66.163  1.00  0.00    -0.473 A  
HETATM   34  C   UNL     1     -10.466  17.326  65.619  1.00  0.00    -0.191 A  
ENDBRANCH  28  29
ENDBRANCH  27  28
ENDBRANCH  26  27
ENDBRANCH  25  26
ENDBRANCH  24  25
ENDBRANCH  23  24
ENDBRANCH  22  23
ENDBRANCH  21  22
ENDBRANCH  20  21
ENDBRANCH  19  20
ENDBRANCH  18  19
ENDBRANCH  16  18
ENDBRANCH  15  16
ENDBRANCH  12  15
ENDBRANCH  10  12
ENDBRANCH   2   4
TORSDOF 16
ENDMDL
MODEL      380
REMARK 921   NORMALIZED FREE ENERGY PREDICTED BY IDOCK:   -3.41 KCAL/MOL
REMARK 922        TOTAL FREE ENERGY PREDICTED BY IDOCK:   -8.95 KCAL/MOL
REMARK 923 INTER-LIGAND FREE ENERGY PREDICTED BY IDOCK:   -7.24 KCAL/MOL
REMARK 924 INTRA-LIGAND FREE ENERGY PREDICTED BY IDOCK:   -1.71 KCAL/MOL
REMARK 927      BINDING AFFINITY PREDICTED BY RF-SCORE:    0.00 PKD
ROOT
HETATM    1  O   UNL     1     -10.429  10.861  66.227  1.00  0.00    -0.252 OA 
HETATM    2  C   UNL     1     -11.345  11.793  66.804  1.00  0.00    -0.320 C  
HETATM    3  H   UNL     1     -10.449  10.041  66.706  1.00  0.00     0.000 HD 
ENDROOT
BRANCH   2   4
HETATM    4  C   UNL     1     -11.313  13.093  66.045  1.00  0.00    -0.337 A  
HETATM    5  C   UNL     1     -12.251  13.417  65.057  1.00  0.00    -0.424 A  
HETATM    6  O   UNL     1     -13.224  12.538  64.672  1.00  0.00    -0.848 OA 
HETATM    7  C   UNL     1     -12.218  14.641  64.399  1.00  0.00    -0.473 A  
HETATM    8  C   UNL     1     -11.221  15.564  64.704  1.00  0.00    -0.381 A  
HETATM    9  H   UNL     1     -13.861  12.757  64.001  1.00  0.00     0.000 HD 
HETATM   10  C   UNL     1     -10.258  15.278  65.685  1.00  0.00    -0.398 A  
HETATM   11  C   UNL     1     -10.332  14.049  66.363  1.00  0.00    -0.289 A  
BRANCH  10  12
HETATM   12  C   UNL     1      -9.137  16.250  66.000  1.00  0.00    -0.297 C  
HETATM   13  O   UNL     1      -9.517  17.583  65.624  1.00  0.00    -0.498 OA 
HETATM   14  H   UNL     1      -8.815  18.192  65.822  1.00  0.00     0.000 HD 
BRANCH  12  15
HETATM   15  C   UNL     1      -8.761  16.241  67.498  1.00  0.00    -0.181 C  
BRANCH  15  16
HETATM   16  N   UNL     1      -7.380  15.771  67.697  1.00  0.00    -0.148 NA 
HETATM   17  H   UNL     1      -6.784  16.496  68.097  1.00  0.00     0.000 HD 
BRANCH  16  18
HETATM   18  C   UNL     1      -7.377  14.555  68.504  1.00  0.00    -0.120 C  
BRANCH  18  19
HETATM   19  C   UNL     1      -7.083  13.346  67.625  1.00  0.00    -0.168 C  
BRANCH  19  20
HETATM   20  C   UNL     1      -7.798  12.112  68.170  1.00  0.00    -0.147 C  
BRANCH  20  21
HETATM   21  C   UNL     1      -6.991  10.853  67.885  1.00  0.00    -0.073 C  
BRANCH  21  22
HETATM   22  C   UNL     1      -6.969  10.531  66.396  1.00  0.00    -0.124 C  
BRANCH  22  23
HETATM   23  C   UNL     1      -7.206   9.045  66.174  1.00  0.00    -0.090 C  
BRANCH  23  24
HETATM   24  O   UNL     1      -8.580   8.768  66.417  1.00  0.00    -0.119 OA 
BRANCH  24  25
HETATM   25  C   UNL     1      -8.841   7.367  66.387  1.00  0.00    -0.156 C  
BRANCH  25  26
HETATM   26  C   UNL     1      -9.585   6.979  67.659  1.00  0.00    -0.151 C  
BRANCH  26  27
HETATM   27  C   UNL     1      -9.441   5.483  67.945  1.00  0.00    -0.128 C  
BRANCH  27  28
HETATM   28  C   UNL     1      -8.381   5.205  69.009  1.00  0.00    -0.087 C  
BRANCH  28  29
HETATM   29  C   UNL     1      -8.765   3.982  69.809  1.00  0.00    -0.120 A  
HETATM   30  C   UNL     1      -8.961   2.752  69.172  1.00  0.00    -0.171 A  
HETATM   31  C   UNL     1      -9.394   1.644  69.900  1.00  0.00    -0.165 A  
HETATM   32  C   UNL     1      -9.636   1.757  71.268  1.00  0.00    -0.210 A  
HETATM   33  C   UNL     1      -9.439   2.978  71.912  1.00  0.00    -0.207 A  
HETATM   34  C   UNL     1      -9.006   4.088  71.186  1.00  0.00    -0.161 A  
ENDBRANCH  28  29
ENDBRANCH  27  28
ENDBRANCH  26  27
ENDBRANCH  25  26
ENDBRANCH  24  25
ENDBRANCH  23  24
ENDBRANCH  22  23
ENDBRANCH  21  22
ENDBRANCH  20  21
ENDBRANCH  19  20
ENDBRANCH  18  19
ENDBRANCH  16  18
ENDBRANCH  15  16
ENDBRANCH  12  15
ENDBRANCH  10  12
ENDBRANCH   2   4
TORSDOF 16
ENDMDL
MODEL      381
REMARK 921   NORMALIZED FREE ENERGY PREDICTED BY IDOCK:   -3.39 KCAL/MOL
REMARK 922        TOTAL FREE ENERGY PREDICTED BY IDOCK:   -8.92 KCAL/MOL
REMARK 923 INTER-LIGAND FREE ENERGY PREDICTED BY IDOCK:   -8.79 KCAL/MOL
REMARK 924 INTRA-LIGAND FREE ENERGY PREDICTED BY IDOCK:   -0.13 KCAL/MOL
REMARK 927      BINDING AFFINITY PREDICTED BY RF-SCORE:    0.00 PKD
ROOT
HETATM    1  O   UNL     1      -6.595  20.992  67.592  1.00  0.00    -0.332 OA 
HETATM    2  C   UNL     1      -6.716  19.573  67.698  1.00  0.00    -0.219 C  
HETATM    3  H   UNL     1      -5.751  21.275  67.923  1.00  0.00     0.000 HD 
ENDROOT
BRANCH   2   4
HETATM    4  C   UNL     1      -8.054  19.124  67.173  1.00  0.00    -0.281 A  
HETATM    5  C   UNL     1      -9.145  19.991  67.037  1.00  0.00    -0.360 A  
HETATM    6  O   UNL     1      -9.081  21.297  67.436  1.00  0.00    -0.460 OA 
HETATM    7  C   UNL     1     -10.357  19.555  66.515  1.00  0.00    -0.583 A  
HETATM    8  C   UNL     1     -10.510  18.224  66.138  1.00  0.00    -0.403 A  
HETATM    9  H   UNL     1      -9.821  21.886  67.344  1.00  0.00     0.000 HD 
HETATM   10  C   UNL     1      -9.444  17.319  66.261  1.00  0.00    -0.256 A  
HETATM   11  C   UNL     1      -8.215  17.789  66.758  1.00  0.00    -0.275 A  
BRANCH  10  12
HETATM   12  C   UNL     1      -9.602  15.854  65.900  1.00  0.00    -0.343 C  
HETATM   13  O   UNL     1      -8.567  15.077  66.522  1.00  0.00    -0.391 OA 
HETATM   14  H   UNL     1      -8.666  14.159  66.295  1.00  0.00     0.000 HD 
BRANCH  12  15
HETATM   15  C   UNL     1     -10.975  15.292  66.327  1.00  0.00    -0.300 C  
BRANCH  15  16
HETATM   16  N   UNL     1     -11.212  15.502  67.765  1.00  0.00    -0.317 NA 
HETATM   17  H   UNL     1     -12.186  15.731  67.962  1.00  0.00     0.000 HD 
BRANCH  16  18
HETATM   18  C   UNL     1     -10.760  14.338  68.521  1.00  0.00    -0.255 C  
BRANCH  18  19
HETATM   19  C   UNL     1     -11.805  13.231  68.450  1.00  0.00    -0.395 C  
BRANCH  19  20
HETATM   20  C   UNL     1     -11.167  11.883  68.777  1.00  0.00    -0.314 C  
BRANCH  20  21
HETATM   21  C   UNL     1      -9.787  11.774  68.145  1.00  0.00    -0.190 C  
BRANCH  21  22
HETATM   22  C   UNL     1      -9.267  10.342  68.188  1.00  0.00    -0.137 C  
BRANCH  22  23
HETATM   23  C   UNL     1      -9.354   9.791  69.603  1.00  0.00    -0.219 C  
BRANCH  23  24
HETATM   24  O   UNL     1     -10.460   8.900  69.671  1.00  0.00    -0.208 OA 
BRANCH  24  25
HETATM   25  C   UNL     1     -10.813   8.609  71.021  1.00  0.00    -0.247 C  
BRANCH  25  26
HETATM   26  C   UNL     1      -9.729   7.732  71.634  1.00  0.00    -0.200 C  
BRANCH  26  27
HETATM   27  C   UNL     1      -9.818   6.299  71.105  1.00  0.00    -0.203 C  
BRANCH  27  28
HETATM   28  C   UNL     1     -10.972   6.126  70.119  1.00  0.00    -0.426 C  
BRANCH  28  29
HETATM   29  C   UNL     1     -10.488   5.407  68.882  1.00  0.00    -0.238 A  
HETATM   30  C   UNL     1      -9.557   4.367  68.985  1.00  0.00    -0.244 A  
HETATM   31  C   UNL     1      -9.051   3.759  67.836  1.00  0.00    -0.191 A  
HETATM   32  C   UNL     1      -9.467   4.187  66.578  1.00  0.00    -0.201 A  
HETATM   33  C   UNL     1     -10.397   5.220  66.465  1.00  0.00    -0.332 A  
HETATM   34  C   UNL     1     -10.905   5.830  67.612  1.00  0.00    -0.264 A  
ENDBRANCH  28  29
ENDBRANCH  27  28
ENDBRANCH  26  27
ENDBRANCH  25  26
ENDBRANCH  24  25
ENDBRANCH  23  24
ENDBRANCH  22  23
ENDBRANCH  21  22
ENDBRANCH  20  21
ENDBRANCH  19  20
ENDBRANCH  18  19
ENDBRANCH  16  18
ENDBRANCH  15  16
ENDBRANCH  12  15
ENDBRANCH  10  12
ENDBRANCH   2   4
TORSDOF 16
ENDMDL
MODEL      382
REMARK 921   NORMALIZED FREE ENERGY PREDICTED BY IDOCK:   -3.38 KCAL/MOL
REMARK 922        TOTAL FREE ENERGY PREDICTED BY IDOCK:   -8.89 KCAL/MOL
REMARK 923 INTER-LIGAND FREE ENERGY PREDICTED BY IDOCK:   -5.76 KCAL/MOL
REMARK 924 INTRA-LIGAND FREE ENERGY PREDICTED BY IDOCK:   -3.13 KCAL/MOL
REMARK 927      BINDING AFFINITY PREDICTED BY RF-SCORE:    0.00 PKD
ROOT
HETATM    1  O   UNL     1      -8.290   7.836  74.317  1.00  0.00    -0.212 OA 
HETATM    2  C   UNL     1      -8.749   6.572  73.837  1.00  0.00    -0.130 C  
HETATM    3  H   UNL     1      -7.554   7.715  74.907  1.00  0.00     0.000 HD 
ENDROOT
BRANCH   2   4
HETATM    4  C   UNL     1      -9.914   6.763  72.902  1.00  0.00    -0.193 A  
HETATM    5  C   UNL     1     -11.113   6.052  73.030  1.00  0.00    -0.237 A  
HETATM    6  O   UNL     1     -11.279   5.084  73.982  1.00  0.00    -0.410 OA 
HETATM    7  C   UNL     1     -12.186   6.276  72.175  1.00  0.00    -0.255 A  
HETATM    8  C   UNL     1     -12.068   7.210  71.148  1.00  0.00    -0.397 A  
HETATM    9  H   UNL     1     -12.092   4.601  74.069  1.00  0.00     0.000 HD 
HETATM   10  C   UNL     1     -10.882   7.943  70.981  1.00  0.00    -0.253 A  
HETATM   11  C   UNL     1      -9.823   7.725  71.880  1.00  0.00    -0.217 A  
BRANCH  10  12
HETATM   12  C   UNL     1     -10.716   8.932  69.842  1.00  0.00    -0.227 C  
HETATM   13  O   UNL     1     -11.945   9.641  69.621  1.00  0.00    -0.439 OA 
HETATM   14  H   UNL     1     -11.841  10.261  68.908  1.00  0.00     0.000 HD 
BRANCH  12  15
HETATM   15  C   UNL     1      -9.591   9.953  70.116  1.00  0.00    -0.185 C  
BRANCH  15  16
HETATM   16  N   UNL     1      -8.376   9.625  69.352  1.00  0.00    -0.132 NA 
HETATM   17  H   UNL     1      -8.570   8.984  68.583  1.00  0.00     0.000 HD 
BRANCH  16  18
HETATM   18  C   UNL     1      -7.728  10.850  68.892  1.00  0.00    -0.135 C  
BRANCH  18  19
HETATM   19  C   UNL     1      -8.758  11.781  68.264  1.00  0.00    -0.167 C  
BRANCH  19  20
HETATM   20  C   UNL     1      -8.821  11.557  66.755  1.00  0.00    -0.183 C  
BRANCH  20  21
HETATM   21  C   UNL     1     -10.181  11.007  66.350  1.00  0.00    -0.284 C  
BRANCH  21  22
HETATM   22  C   UNL     1     -10.155   9.488  66.233  1.00  0.00    -0.327 C  
BRANCH  22  23
HETATM   23  C   UNL     1      -8.776   9.015  65.799  1.00  0.00    -0.169 C  
BRANCH  23  24
HETATM   24  O   UNL     1      -8.782   7.593  65.753  1.00  0.00    -0.156 OA 
BRANCH  24  25
HETATM   25  C   UNL     1      -7.460   7.069  65.656  1.00  0.00    -0.085 C  
BRANCH  25  26
HETATM   26  C   UNL     1      -6.593   7.726  66.722  1.00  0.00    -0.058 C  
BRANCH  26  27
HETATM   27  C   UNL     1      -6.496   6.846  67.969  1.00  0.00    -0.050 C  
BRANCH  27  28
HETATM   28  C   UNL     1      -6.910   5.403  67.684  1.00  0.00    -0.060 C  
BRANCH  28  29
HETATM   29  C   UNL     1      -7.801   4.896  68.793  1.00  0.00    -0.077 A  
HETATM   30  C   UNL     1      -7.246   4.302  69.932  1.00  0.00    -0.046 A  
HETATM   31  C   UNL     1      -8.071   3.762  70.918  1.00  0.00    -0.069 A  
HETATM   32  C   UNL     1      -9.456   3.808  70.772  1.00  0.00    -0.236 A  
HETATM   33  C   UNL     1     -10.019   4.400  69.642  1.00  0.00    -0.209 A  
HETATM   34  C   UNL     1      -9.195   4.942  68.655  1.00  0.00    -0.159 A  
ENDBRANCH  28  29
ENDBRANCH  27  28
ENDBRANCH  26  27
ENDBRANCH  25  26
ENDBRANCH  24  25
ENDBRANCH  23  24
ENDBRANCH  22  23
ENDBRANCH  21  22
ENDBRANCH  20  21
ENDBRANCH  19  20
ENDBRANCH  18  19
ENDBRANCH  16  18
ENDBRANCH  15  16
ENDBRANCH  12  15
ENDBRANCH  10  12
ENDBRANCH   2   4
TORSDOF 16
ENDMDL
MODEL      383
REMARK 921   NORMALIZED FREE ENERGY PREDICTED BY IDOCK:   -3.37 KCAL/MOL
REMARK 922        TOTAL FREE ENERGY PREDICTED BY IDOCK:   -8.87 KCAL/MOL
REMARK 923 INTER-LIGAND FREE ENERGY PREDICTED BY IDOCK:   -6.75 KCAL/MOL
REMARK 924 INTRA-LIGAND FREE ENERGY PREDICTED BY IDOCK:   -2.12 KCAL/MOL
REMARK 927      BINDING AFFINITY PREDICTED BY RF-SCORE:    0.00 PKD
ROOT
HETATM    1  O   UNL     1      -8.048   7.835  72.418  1.00  0.00    -0.104 OA 
HETATM    2  C   UNL     1      -7.535   8.824  71.523  1.00  0.00    -0.087 C  
HETATM    3  H   UNL     1      -8.433   8.251  73.181  1.00  0.00     0.000 HD 
ENDROOT
BRANCH   2   4
HETATM    4  C   UNL     1      -6.923   8.165  70.315  1.00  0.00    -0.040 A  
HETATM    5  C   UNL     1      -5.923   7.191  70.408  1.00  0.00    -0.024 A  
HETATM    6  O   UNL     1      -5.388   6.820  71.611  1.00  0.00    -0.027 OA 
HETATM    7  C   UNL     1      -5.403   6.573  69.276  1.00  0.00    -0.013 A  
HETATM    8  C   UNL     1      -5.864   6.941  68.014  1.00  0.00    -0.024 A  
HETATM    9  H   UNL     1      -4.708   6.159  71.674  1.00  0.00     0.000 HD 
HETATM   10  C   UNL     1      -6.864   7.916  67.875  1.00  0.00    -0.072 A  
HETATM   11  C   UNL     1      -7.400   8.502  69.035  1.00  0.00    -0.081 A  
BRANCH  10  12
HETATM   12  C   UNL     1      -7.348   8.364  66.509  1.00  0.00    -0.081 C  
HETATM   13  O   UNL     1      -6.348   8.089  65.515  1.00  0.00    -0.044 OA 
HETATM   14  H   UNL     1      -6.652   8.369  64.659  1.00  0.00     0.000 HD 
BRANCH  12  15
HETATM   15  C   UNL     1      -8.665   7.670  66.100  1.00  0.00    -0.156 C  
BRANCH  15  16
HETATM   16  N   UNL     1      -9.745   8.651  65.903  1.00  0.00    -0.457 NA 
HETATM   17  H   UNL     1     -10.249   8.493  65.030  1.00  0.00     0.000 HD 
BRANCH  16  18
HETATM   18  C   UNL     1     -10.638   8.651  67.057  1.00  0.00    -0.223 C  
BRANCH  18  19
HETATM   19  C   UNL     1     -11.014  10.081  67.425  1.00  0.00    -0.258 C  
BRANCH  19  20
HETATM   20  C   UNL     1     -10.281  10.508  68.696  1.00  0.00    -0.197 C  
BRANCH  20  21
HETATM   21  C   UNL     1      -9.674  11.893  68.526  1.00  0.00    -0.173 C  
BRANCH  21  22
HETATM   22  C   UNL     1      -8.436  11.854  67.639  1.00  0.00    -0.156 C  
BRANCH  22  23
HETATM   23  C   UNL     1      -8.081  13.254  67.164  1.00  0.00    -0.088 C  
BRANCH  23  24
HETATM   24  O   UNL     1      -9.289  13.970  66.936  1.00  0.00    -0.238 OA 
BRANCH  24  25
HETATM   25  C   UNL     1      -9.092  15.377  67.060  1.00  0.00    -0.227 C  
BRANCH  25  26
HETATM   26  C   UNL     1     -10.413  16.024  67.454  1.00  0.00    -0.308 C  
BRANCH  26  27
HETATM   27  C   UNL     1     -11.006  15.351  68.692  1.00  0.00    -0.273 C  
BRANCH  27  28
HETATM   28  C   UNL     1     -10.797  16.187  69.953  1.00  0.00    -0.355 C  
BRANCH  28  29
HETATM   29  C   UNL     1     -11.666  15.660  71.070  1.00  0.00    -0.444 A  
HETATM   30  C   UNL     1     -11.805  16.381  72.260  1.00  0.00    -0.531 A  
HETATM   31  C   UNL     1     -12.542  15.855  73.321  1.00  0.00    -0.640 A  
HETATM   32  C   UNL     1     -13.144  14.604  73.200  1.00  0.00    -0.580 A  
HETATM   33  C   UNL     1     -13.014  13.879  72.017  1.00  0.00    -0.438 A  
HETATM   34  C   UNL     1     -12.278  14.403  70.954  1.00  0.00    -0.413 A  
ENDBRANCH  28  29
ENDBRANCH  27  28
ENDBRANCH  26  27
ENDBRANCH  25  26
ENDBRANCH  24  25
ENDBRANCH  23  24
ENDBRANCH  22  23
ENDBRANCH  21  22
ENDBRANCH  20  21
ENDBRANCH  19  20
ENDBRANCH  18  19
ENDBRANCH  16  18
ENDBRANCH  15  16
ENDBRANCH  12  15
ENDBRANCH  10  12
ENDBRANCH   2   4
TORSDOF 16
ENDMDL
MODEL      384
REMARK 921   NORMALIZED FREE ENERGY PREDICTED BY IDOCK:   -3.37 KCAL/MOL
REMARK 922        TOTAL FREE ENERGY PREDICTED BY IDOCK:   -8.87 KCAL/MOL
REMARK 923 INTER-LIGAND FREE ENERGY PREDICTED BY IDOCK:   -7.05 KCAL/MOL
REMARK 924 INTRA-LIGAND FREE ENERGY PREDICTED BY IDOCK:   -1.82 KCAL/MOL
REMARK 927      BINDING AFFINITY PREDICTED BY RF-SCORE:    0.00 PKD
ROOT
HETATM    1  O   UNL     1      -9.783   9.805  63.784  1.00  0.00    -0.472 OA 
HETATM    2  C   UNL     1      -9.344   9.678  65.137  1.00  0.00    -0.259 C  
HETATM    3  H   UNL     1      -9.228   9.288  63.210  1.00  0.00     0.000 HD 
ENDROOT
BRANCH   2   4
HETATM    4  C   UNL     1     -10.222  10.497  66.047  1.00  0.00    -0.310 A  
HETATM    5  C   UNL     1     -10.629  10.052  67.310  1.00  0.00    -0.257 A  
HETATM    6  O   UNL     1     -10.305   8.807  67.773  1.00  0.00    -0.215 OA 
HETATM    7  C   UNL     1     -11.408  10.845  68.143  1.00  0.00    -0.383 A  
HETATM    8  C   UNL     1     -11.820  12.105  67.714  1.00  0.00    -0.327 A  
HETATM    9  H   UNL     1     -10.582   8.504  68.630  1.00  0.00     0.000 HD 
HETATM   10  C   UNL     1     -11.437  12.589  66.452  1.00  0.00    -0.418 A  
HETATM   11  C   UNL     1     -10.619  11.784  65.641  1.00  0.00    -0.314 A  
BRANCH  10  12
HETATM   12  C   UNL     1     -11.911  13.938  65.946  1.00  0.00    -0.407 C  
HETATM   13  O   UNL     1     -12.635  14.628  66.977  1.00  0.00    -0.431 OA 
HETATM   14  H   UNL     1     -12.931  15.473  66.660  1.00  0.00     0.000 HD 
BRANCH  12  15
HETATM   15  C   UNL     1     -10.741  14.829  65.475  1.00  0.00    -0.357 C  
BRANCH  15  16
HETATM   16  N   UNL     1     -10.636  16.047  66.295  1.00  0.00    -0.304 NA 
HETATM   17  H   UNL     1     -11.532  16.309  66.706  1.00  0.00     0.000 HD 
BRANCH  16  18
HETATM   18  C   UNL     1      -9.597  15.882  67.307  1.00  0.00    -0.217 C  
BRANCH  18  19
HETATM   19  C   UNL     1      -8.262  15.578  66.640  1.00  0.00    -0.244 C  
BRANCH  19  20
HETATM   20  C   UNL     1      -7.467  14.582  67.482  1.00  0.00    -0.216 C  
BRANCH  20  21
HETATM   21  C   UNL     1      -8.396  13.578  68.147  1.00  0.00    -0.167 C  
BRANCH  21  22
HETATM   22  C   UNL     1      -7.817  12.169  68.103  1.00  0.00    -0.147 C  
BRANCH  22  23
HETATM   23  C   UNL     1      -6.885  11.944  69.283  1.00  0.00    -0.080 C  
BRANCH  23  24
HETATM   24  O   UNL     1      -6.739  10.543  69.480  1.00  0.00    -0.063 OA 
BRANCH  24  25
HETATM   25  C   UNL     1      -8.005   9.892  69.549  1.00  0.00    -0.148 C  
BRANCH  25  26
HETATM   26  C   UNL     1      -7.778   8.399  69.747  1.00  0.00    -0.093 C  
BRANCH  26  27
HETATM   27  C   UNL     1      -8.889   7.784  70.600  1.00  0.00    -0.144 C  
BRANCH  27  28
HETATM   28  C   UNL     1      -8.793   6.261  70.652  1.00  0.00    -0.144 C  
BRANCH  28  29
HETATM   29  C   UNL     1      -8.954   5.688  69.263  1.00  0.00    -0.122 A  
HETATM   30  C   UNL     1      -7.839   5.232  68.551  1.00  0.00    -0.083 A  
HETATM   31  C   UNL     1      -7.979   4.779  67.239  1.00  0.00    -0.102 A  
HETATM   32  C   UNL     1      -9.232   4.781  66.629  1.00  0.00    -0.128 A  
HETATM   33  C   UNL     1     -10.349   5.230  67.332  1.00  0.00    -0.237 A  
HETATM   34  C   UNL     1     -10.212   5.683  68.644  1.00  0.00    -0.263 A  
ENDBRANCH  28  29
ENDBRANCH  27  28
ENDBRANCH  26  27
ENDBRANCH  25  26
ENDBRANCH  24  25
ENDBRANCH  23  24
ENDBRANCH  22  23
ENDBRANCH  21  22
ENDBRANCH  20  21
ENDBRANCH  19  20
ENDBRANCH  18  19
ENDBRANCH  16  18
ENDBRANCH  15  16
ENDBRANCH  12  15
ENDBRANCH  10  12
ENDBRANCH   2   4
TORSDOF 16
ENDMDL
MODEL      385
REMARK 921   NORMALIZED FREE ENERGY PREDICTED BY IDOCK:   -3.37 KCAL/MOL
REMARK 922        TOTAL FREE ENERGY PREDICTED BY IDOCK:   -8.86 KCAL/MOL
REMARK 923 INTER-LIGAND FREE ENERGY PREDICTED BY IDOCK:   -7.38 KCAL/MOL
REMARK 924 INTRA-LIGAND FREE ENERGY PREDICTED BY IDOCK:   -1.48 KCAL/MOL
REMARK 927      BINDING AFFINITY PREDICTED BY RF-SCORE:    0.00 PKD
ROOT
HETATM    1  O   UNL     1     -11.404   5.723  66.118  1.00  0.00    -0.711 OA 
HETATM    2  C   UNL     1     -11.076   6.246  67.406  1.00  0.00    -0.287 C  
HETATM    3  H   UNL     1     -12.300   5.945  65.893  1.00  0.00     0.000 HD 
ENDROOT
BRANCH   2   4
HETATM    4  C   UNL     1      -9.656   5.893  67.765  1.00  0.00    -0.118 A  
HETATM    5  C   UNL     1      -9.099   4.636  67.505  1.00  0.00    -0.121 A  
HETATM    6  O   UNL     1      -9.836   3.619  66.964  1.00  0.00    -0.345 OA 
HETATM    7  C   UNL     1      -7.773   4.351  67.814  1.00  0.00    -0.080 A  
HETATM    8  C   UNL     1      -6.979   5.324  68.416  1.00  0.00    -0.061 A  
HETATM    9  H   UNL     1      -9.458   2.765  66.788  1.00  0.00     0.000 HD 
HETATM   10  C   UNL     1      -7.499   6.597  68.698  1.00  0.00    -0.088 A  
HETATM   11  C   UNL     1      -8.831   6.874  68.345  1.00  0.00    -0.123 A  
BRANCH  10  12
HETATM   12  C   UNL     1      -6.666   7.656  69.395  1.00  0.00    -0.040 C  
HETATM   13  O   UNL     1      -5.502   7.964  68.612  1.00  0.00    -0.026 OA 
HETATM   14  H   UNL     1      -4.980   8.627  69.048  1.00  0.00     0.000 HD 
BRANCH  12  15
HETATM   15  C   UNL     1      -7.461   8.956  69.641  1.00  0.00    -0.071 C  
BRANCH  15  16
HETATM   16  N   UNL     1      -7.115   9.988  68.650  1.00  0.00    -0.076 NA 
HETATM   17  H   UNL     1      -7.893  10.194  68.025  1.00  0.00     0.000 HD 
BRANCH  16  18
HETATM   18  C   UNL     1      -6.625  11.186  69.325  1.00  0.00    -0.096 C  
BRANCH  18  19
HETATM   19  C   UNL     1      -7.258  12.428  68.710  1.00  0.00    -0.094 C  
BRANCH  19  20
HETATM   20  C   UNL     1      -8.514  12.047  67.929  1.00  0.00    -0.160 C  
BRANCH  20  21
HETATM   21  C   UNL     1      -9.544  13.166  67.989  1.00  0.00    -0.220 C  
BRANCH  21  22
HETATM   22  C   UNL     1     -10.897  12.652  68.465  1.00  0.00    -0.279 C  
BRANCH  22  23
HETATM   23  C   UNL     1     -12.005  13.159  67.555  1.00  0.00    -0.317 C  
BRANCH  23  24
HETATM   24  O   UNL     1     -12.131  12.261  66.459  1.00  0.00    -0.616 OA 
BRANCH  24  25
HETATM   25  C   UNL     1     -11.684  12.856  65.243  1.00  0.00    -0.364 C  
BRANCH  25  26
HETATM   26  C   UNL     1     -11.985  14.349  65.288  1.00  0.00    -0.382 C  
BRANCH  26  27
HETATM   27  C   UNL     1     -10.696  15.171  65.234  1.00  0.00    -0.422 C  
BRANCH  27  28
HETATM   28  C   UNL     1     -10.977  16.671  65.178  1.00  0.00    -0.160 C  
BRANCH  28  29
HETATM   29  C   UNL     1     -10.505  17.330  66.453  1.00  0.00    -0.263 A  
HETATM   30  C   UNL     1     -10.719  16.713  67.690  1.00  0.00    -0.306 A  
HETATM   31  C   UNL     1     -10.355  17.360  68.871  1.00  0.00    -0.340 A  
HETATM   32  C   UNL     1      -9.778  18.627  68.825  1.00  0.00    -0.407 A  
HETATM   33  C   UNL     1      -9.557  19.248  67.596  1.00  0.00    -0.392 A  
HETATM   34  C   UNL     1      -9.920  18.604  66.413  1.00  0.00    -0.415 A  
ENDBRANCH  28  29
ENDBRANCH  27  28
ENDBRANCH  26  27
ENDBRANCH  25  26
ENDBRANCH  24  25
ENDBRANCH  23  24
ENDBRANCH  22  23
ENDBRANCH  21  22
ENDBRANCH  20  21
ENDBRANCH  19  20
ENDBRANCH  18  19
ENDBRANCH  16  18
ENDBRANCH  15  16
ENDBRANCH  12  15
ENDBRANCH  10  12
ENDBRANCH   2   4
TORSDOF 16
ENDMDL
MODEL      386
REMARK 921   NORMALIZED FREE ENERGY PREDICTED BY IDOCK:   -3.36 KCAL/MOL
REMARK 922        TOTAL FREE ENERGY PREDICTED BY IDOCK:   -8.85 KCAL/MOL
REMARK 923 INTER-LIGAND FREE ENERGY PREDICTED BY IDOCK:   -6.72 KCAL/MOL
REMARK 924 INTRA-LIGAND FREE ENERGY PREDICTED BY IDOCK:   -2.12 KCAL/MOL
REMARK 927      BINDING AFFINITY PREDICTED BY RF-SCORE:    0.00 PKD
ROOT
HETATM    1  O   UNL     1      -8.927   3.477  68.732  1.00  0.00    -0.105 OA 
HETATM    2  C   UNL     1      -9.690   4.075  69.780  1.00  0.00    -0.184 C  
HETATM    3  H   UNL     1      -9.013   2.531  68.762  1.00  0.00     0.000 HD 
ENDROOT
BRANCH   2   4
HETATM    4  C   UNL     1      -9.553   5.575  69.733  1.00  0.00    -0.215 A  
HETATM    5  C   UNL     1      -8.529   6.221  69.032  1.00  0.00    -0.120 A  
HETATM    6  O   UNL     1      -7.541   5.523  68.393  1.00  0.00    -0.082 OA 
HETATM    7  C   UNL     1      -8.450   7.608  68.976  1.00  0.00    -0.132 A  
HETATM    8  C   UNL     1      -9.392   8.382  69.648  1.00  0.00    -0.161 A  
HETATM    9  H   UNL     1      -6.845   5.961  67.918  1.00  0.00     0.000 HD 
HETATM   10  C   UNL     1     -10.434   7.775  70.367  1.00  0.00    -0.221 A  
HETATM   11  C   UNL     1     -10.515   6.371  70.380  1.00  0.00    -0.269 A  
BRANCH  10  12
HETATM   12  C   UNL     1     -11.444   8.598  71.144  1.00  0.00    -0.280 C  
HETATM   13  O   UNL     1     -11.204   8.473  72.554  1.00  0.00    -0.357 OA 
HETATM   14  H   UNL     1     -11.837   8.989  73.041  1.00  0.00     0.000 HD 
BRANCH  12  15
HETATM   15  C   UNL     1     -11.399  10.093  70.759  1.00  0.00    -0.354 C  
BRANCH  15  16
HETATM   16  N   UNL     1     -12.513  10.446  69.865  1.00  0.00    -0.543 NA 
HETATM   17  H   UNL     1     -13.246  10.962  70.353  1.00  0.00     0.000 HD 
BRANCH  16  18
HETATM   18  C   UNL     1     -12.012  11.177  68.705  1.00  0.00    -0.219 C  
BRANCH  18  19
HETATM   19  C   UNL     1     -11.169  12.362  69.158  1.00  0.00    -0.295 C  
BRANCH  19  20
HETATM   20  C   UNL     1     -10.526  13.043  67.952  1.00  0.00    -0.234 C  
BRANCH  20  21
HETATM   21  C   UNL     1     -10.279  12.038  66.835  1.00  0.00    -0.230 C  
BRANCH  21  22
HETATM   22  C   UNL     1      -8.791  11.866  66.560  1.00  0.00    -0.178 C  
BRANCH  22  23
HETATM   23  C   UNL     1      -8.105  11.212  67.750  1.00  0.00    -0.117 C  
BRANCH  23  24
HETATM   24  O   UNL     1      -6.736  11.595  67.745  1.00  0.00    -0.063 OA 
BRANCH  24  25
HETATM   25  C   UNL     1      -6.585  12.989  67.486  1.00  0.00    -0.155 C  
BRANCH  25  26
HETATM   26  C   UNL     1      -6.474  13.726  68.814  1.00  0.00    -0.096 C  
BRANCH  26  27
HETATM   27  C   UNL     1      -6.715  15.225  68.631  1.00  0.00    -0.101 C  
BRANCH  27  28
HETATM   28  C   UNL     1      -8.063  15.661  69.203  1.00  0.00    -0.238 C  
BRANCH  28  29
HETATM   29  C   UNL     1      -8.857  16.394  68.147  1.00  0.00    -0.192 A  
HETATM   30  C   UNL     1      -9.688  17.462  68.501  1.00  0.00    -0.304 A  
HETATM   31  C   UNL     1     -10.481  18.086  67.538  1.00  0.00    -0.408 A  
HETATM   32  C   UNL     1     -10.451  17.646  66.216  1.00  0.00    -0.292 A  
HETATM   33  C   UNL     1      -9.622  16.584  65.853  1.00  0.00    -0.284 A  
HETATM   34  C   UNL     1      -8.828  15.959  66.815  1.00  0.00    -0.294 A  
ENDBRANCH  28  29
ENDBRANCH  27  28
ENDBRANCH  26  27
ENDBRANCH  25  26
ENDBRANCH  24  25
ENDBRANCH  23  24
ENDBRANCH  22  23
ENDBRANCH  21  22
ENDBRANCH  20  21
ENDBRANCH  19  20
ENDBRANCH  18  19
ENDBRANCH  16  18
ENDBRANCH  15  16
ENDBRANCH  12  15
ENDBRANCH  10  12
ENDBRANCH   2   4
TORSDOF 16
ENDMDL
MODEL      387
REMARK 921   NORMALIZED FREE ENERGY PREDICTED BY IDOCK:   -3.35 KCAL/MOL
REMARK 922        TOTAL FREE ENERGY PREDICTED BY IDOCK:   -8.84 KCAL/MOL
REMARK 923 INTER-LIGAND FREE ENERGY PREDICTED BY IDOCK:   -6.63 KCAL/MOL
REMARK 924 INTRA-LIGAND FREE ENERGY PREDICTED BY IDOCK:   -2.21 KCAL/MOL
REMARK 927      BINDING AFFINITY PREDICTED BY RF-SCORE:    0.00 PKD
ROOT
HETATM    1  O   UNL     1      -8.273  11.428  62.333  1.00  0.00    -0.536 OA 
HETATM    2  C   UNL     1      -9.138  10.560  63.067  1.00  0.00    -0.275 C  
HETATM    3  H   UNL     1      -8.665  11.650  61.496  1.00  0.00     0.000 HD 
ENDROOT
BRANCH   2   4
HETATM    4  C   UNL     1      -8.517  10.208  64.394  1.00  0.00    -0.179 A  
HETATM    5  C   UNL     1      -7.176   9.830  64.527  1.00  0.00    -0.128 A  
HETATM    6  O   UNL     1      -6.355   9.693  63.442  1.00  0.00    -0.098 OA 
HETATM    7  C   UNL     1      -6.621   9.547  65.770  1.00  0.00    -0.075 A  
HETATM    8  C   UNL     1      -7.414   9.614  66.913  1.00  0.00    -0.091 A  
HETATM    9  H   UNL     1      -5.445   9.436  63.532  1.00  0.00     0.000 HD 
HETATM   10  C   UNL     1      -8.765   9.985  66.824  1.00  0.00    -0.137 A  
HETATM   11  C   UNL     1      -9.296  10.302  65.561  1.00  0.00    -0.250 A  
BRANCH  10  12
HETATM   12  C   UNL     1      -9.659  10.020  68.050  1.00  0.00    -0.138 C  
HETATM   13  O   UNL     1      -9.156  10.972  69.001  1.00  0.00    -0.301 OA 
HETATM   14  H   UNL     1      -9.715  10.995  69.768  1.00  0.00     0.000 HD 
BRANCH  12  15
HETATM   15  C   UNL     1     -11.117  10.387  67.699  1.00  0.00    -0.293 C  
BRANCH  15  16
HETATM   16  N   UNL     1     -11.588  11.526  68.504  1.00  0.00    -0.290 NA 
HETATM   17  H   UNL     1     -10.893  11.824  69.188  1.00  0.00     0.000 HD 
BRANCH  16  18
HETATM   18  C   UNL     1     -11.999  12.621  67.630  1.00  0.00    -0.247 C  
BRANCH  18  19
HETATM   19  C   UNL     1     -11.781  12.235  66.172  1.00  0.00    -0.440 C  
BRANCH  19  20
HETATM   20  C   UNL     1     -12.627  13.122  65.261  1.00  0.00    -0.531 C  
BRANCH  20  21
HETATM   21  C   UNL     1     -11.755  14.147  64.550  1.00  0.00    -0.426 C  
BRANCH  21  22
HETATM   22  C   UNL     1     -12.010  15.555  65.075  1.00  0.00     0.161 C  
BRANCH  22  23
HETATM   23  C   UNL     1     -11.046  16.540  64.433  1.00  0.00     0.159 C  
BRANCH  23  24
HETATM   24  O   UNL     1     -10.668  17.500  65.412  1.00  0.00    -0.612 OA 
BRANCH  24  25
HETATM   25  C   UNL     1      -9.626  17.007  66.250  1.00  0.00    -0.267 C  
BRANCH  25  26
HETATM   26  C   UNL     1     -10.054  17.157  67.705  1.00  0.00    -0.305 C  
BRANCH  26  27
HETATM   27  C   UNL     1      -8.838  17.297  68.623  1.00  0.00    -0.261 C  
BRANCH  27  28
HETATM   28  C   UNL     1      -7.535  16.956  67.901  1.00  0.00    -0.178 C  
BRANCH  28  29
HETATM   29  C   UNL     1      -7.014  15.623  68.384  1.00  0.00    -0.115 A  
HETATM   30  C   UNL     1      -7.154  14.479  67.592  1.00  0.00    -0.202 A  
HETATM   31  C   UNL     1      -6.745  13.235  68.073  1.00  0.00    -0.127 A  
HETATM   32  C   UNL     1      -6.197  13.125  69.349  1.00  0.00    -0.111 A  
HETATM   33  C   UNL     1      -6.051  14.261  70.145  1.00  0.00    -0.160 A  
HETATM   34  C   UNL     1      -6.458  15.506  69.666  1.00  0.00    -0.173 A  
ENDBRANCH  28  29
ENDBRANCH  27  28
ENDBRANCH  26  27
ENDBRANCH  25  26
ENDBRANCH  24  25
ENDBRANCH  23  24
ENDBRANCH  22  23
ENDBRANCH  21  22
ENDBRANCH  20  21
ENDBRANCH  19  20
ENDBRANCH  18  19
ENDBRANCH  16  18
ENDBRANCH  15  16
ENDBRANCH  12  15
ENDBRANCH  10  12
ENDBRANCH   2   4
TORSDOF 16
ENDMDL
MODEL      388
REMARK 921   NORMALIZED FREE ENERGY PREDICTED BY IDOCK:   -3.35 KCAL/MOL
REMARK 922        TOTAL FREE ENERGY PREDICTED BY IDOCK:   -8.83 KCAL/MOL
REMARK 923 INTER-LIGAND FREE ENERGY PREDICTED BY IDOCK:   -6.85 KCAL/MOL
REMARK 924 INTRA-LIGAND FREE ENERGY PREDICTED BY IDOCK:   -1.98 KCAL/MOL
REMARK 927      BINDING AFFINITY PREDICTED BY RF-SCORE:    0.00 PKD
ROOT
HETATM    1  O   UNL     1      -6.975  14.259  67.182  1.00  0.00    -0.379 OA 
HETATM    2  C   UNL     1      -7.648  15.519  67.172  1.00  0.00    -0.218 C  
HETATM    3  H   UNL     1      -6.184  14.313  67.707  1.00  0.00     0.000 HD 
ENDROOT
BRANCH   2   4
HETATM    4  C   UNL     1      -8.900  15.433  66.339  1.00  0.00    -0.340 A  
HETATM    5  C   UNL     1      -9.558  16.564  65.842  1.00  0.00    -0.248 A  
HETATM    6  O   UNL     1      -9.137  17.831  66.138  1.00  0.00    -0.457 OA 
HETATM    7  C   UNL     1     -10.691  16.452  65.044  1.00  0.00    -0.279 A  
HETATM    8  C   UNL     1     -11.206  15.193  64.747  1.00  0.00    -0.396 A  
HETATM    9  H   UNL     1      -9.584  18.599  65.801  1.00  0.00     0.000 HD 
HETATM   10  C   UNL     1     -10.580  14.033  65.229  1.00  0.00    -0.376 A  
HETATM   11  C   UNL     1      -9.415  14.168  66.003  1.00  0.00    -0.189 A  
BRANCH  10  12
HETATM   12  C   UNL     1     -11.150  12.654  64.955  1.00  0.00    -0.296 C  
HETATM   13  O   UNL     1     -12.577  12.667  65.120  1.00  0.00    -0.594 OA 
HETATM   14  H   UNL     1     -12.934  11.803  64.948  1.00  0.00     0.000 HD 
BRANCH  12  15
HETATM   15  C   UNL     1     -10.816  12.156  63.532  1.00  0.00    -0.458 C  
BRANCH  15  16
HETATM   16  N   UNL     1      -9.364  11.987  63.354  1.00  0.00    -0.650 NA 
HETATM   17  H   UNL     1      -8.841  12.792  63.699  1.00  0.00     0.000 HD 
BRANCH  16  18
HETATM   18  C   UNL     1      -8.925  10.742  63.976  1.00  0.00    -0.155 C  
BRANCH  18  19
HETATM   19  C   UNL     1      -7.418  10.583  63.820  1.00  0.00     0.078 C  
BRANCH  19  20
HETATM   20  C   UNL     1      -6.801  10.098  65.130  1.00  0.00    -0.134 C  
BRANCH  20  21
HETATM   21  C   UNL     1      -7.548   8.883  65.659  1.00  0.00    -0.086 C  
BRANCH  21  22
HETATM   22  C   UNL     1      -6.975   8.413  66.990  1.00  0.00    -0.074 C  
BRANCH  22  23
HETATM   23  C   UNL     1      -5.643   7.711  66.774  1.00  0.00    -0.028 C  
BRANCH  23  24
HETATM   24  O   UNL     1      -5.545   6.637  67.701  1.00  0.00    -0.011 OA 
BRANCH  24  25
HETATM   25  C   UNL     1      -6.140   5.448  67.187  1.00  0.00    -0.030 C  
BRANCH  25  26
HETATM   26  C   UNL     1      -6.808   4.699  68.332  1.00  0.00    -0.051 C  
BRANCH  26  27
HETATM   27  C   UNL     1      -8.165   4.138  67.903  1.00  0.00    -0.093 C  
BRANCH  27  28
HETATM   28  C   UNL     1      -9.297   4.630  68.804  1.00  0.00    -0.197 C  
BRANCH  28  29
HETATM   29  C   UNL     1      -9.711   6.024  68.395  1.00  0.00    -0.142 A  
HETATM   30  C   UNL     1      -9.480   7.110  69.246  1.00  0.00    -0.152 A  
HETATM   31  C   UNL     1      -9.935   8.383  68.902  1.00  0.00    -0.194 A  
HETATM   32  C   UNL     1     -10.626   8.579  67.708  1.00  0.00    -0.242 A  
HETATM   33  C   UNL     1     -10.857   7.503  66.852  1.00  0.00    -0.174 A  
HETATM   34  C   UNL     1     -10.403   6.229  67.193  1.00  0.00    -0.286 A  
ENDBRANCH  28  29
ENDBRANCH  27  28
ENDBRANCH  26  27
ENDBRANCH  25  26
ENDBRANCH  24  25
ENDBRANCH  23  24
ENDBRANCH  22  23
ENDBRANCH  21  22
ENDBRANCH  20  21
ENDBRANCH  19  20
ENDBRANCH  18  19
ENDBRANCH  16  18
ENDBRANCH  15  16
ENDBRANCH  12  15
ENDBRANCH  10  12
ENDBRANCH   2   4
TORSDOF 16
ENDMDL
MODEL      389
REMARK 921   NORMALIZED FREE ENERGY PREDICTED BY IDOCK:   -3.33 KCAL/MOL
REMARK 922        TOTAL FREE ENERGY PREDICTED BY IDOCK:   -8.78 KCAL/MOL
REMARK 923 INTER-LIGAND FREE ENERGY PREDICTED BY IDOCK:   -7.78 KCAL/MOL
REMARK 924 INTRA-LIGAND FREE ENERGY PREDICTED BY IDOCK:   -1.01 KCAL/MOL
REMARK 927      BINDING AFFINITY PREDICTED BY RF-SCORE:    0.00 PKD
ROOT
HETATM    1  O   UNL     1      -9.687   4.720  63.553  1.00  0.00    -0.353 OA 
HETATM    2  C   UNL     1      -9.961   3.584  64.375  1.00  0.00    -0.185 C  
HETATM    3  H   UNL     1      -9.751   4.484  62.635  1.00  0.00     0.000 HD 
ENDROOT
BRANCH   2   4
HETATM    4  C   UNL     1      -9.859   3.958  65.830  1.00  0.00    -0.137 A  
HETATM    5  C   UNL     1      -9.155   3.188  66.763  1.00  0.00    -0.167 A  
HETATM    6  O   UNL     1      -8.564   2.003  66.420  1.00  0.00    -0.101 OA 
HETATM    7  C   UNL     1      -9.047   3.578  68.093  1.00  0.00    -0.200 A  
HETATM    8  C   UNL     1      -9.670   4.746  68.524  1.00  0.00    -0.215 A  
HETATM    9  H   UNL     1      -8.086   1.480  67.053  1.00  0.00     0.000 HD 
HETATM   10  C   UNL     1     -10.390   5.546  67.623  1.00  0.00    -0.256 A  
HETATM   11  C   UNL     1     -10.456   5.152  66.275  1.00  0.00    -0.341 A  
BRANCH  10  12
HETATM   12  C   UNL     1     -11.114   6.799  68.080  1.00  0.00    -0.158 C  
HETATM   13  O   UNL     1     -11.825   6.541  69.300  1.00  0.00    -0.608 OA 
HETATM   14  H   UNL     1     -12.279   7.326  69.587  1.00  0.00     0.000 HD 
BRANCH  12  15
HETATM   15  C   UNL     1     -10.148   7.982  68.304  1.00  0.00    -0.196 C  
BRANCH  15  16
HETATM   16  N   UNL     1     -10.150   8.897  67.151  1.00  0.00    -0.226 NA 
HETATM   17  H   UNL     1     -10.975   8.772  66.565  1.00  0.00     0.000 HD 
BRANCH  16  18
HETATM   18  C   UNL     1     -10.006  10.276  67.605  1.00  0.00    -0.179 C  
BRANCH  18  19
HETATM   19  C   UNL     1     -11.279  11.059  67.308  1.00  0.00    -0.330 C  
BRANCH  19  20
HETATM   20  C   UNL     1     -10.991  12.559  67.321  1.00  0.00    -0.300 C  
BRANCH  20  21
HETATM   21  C   UNL     1      -9.536  12.829  66.968  1.00  0.00    -0.233 C  
BRANCH  21  22
HETATM   22  C   UNL     1      -8.849  13.666  68.041  1.00  0.00    -0.187 C  
BRANCH  22  23
HETATM   23  C   UNL     1      -7.418  13.191  68.246  1.00  0.00    -0.129 C  
BRANCH  23  24
HETATM   24  O   UNL     1      -6.797  14.038  69.204  1.00  0.00    -0.108 OA 
BRANCH  24  25
HETATM   25  C   UNL     1      -7.142  15.405  68.993  1.00  0.00    -0.144 C  
BRANCH  25  26
HETATM   26  C   UNL     1      -6.109  16.035  68.067  1.00  0.00    -0.140 C  
BRANCH  26  27
HETATM   27  C   UNL     1      -6.301  17.550  67.983  1.00  0.00    -0.161 C  
BRANCH  27  28
HETATM   28  C   UNL     1      -7.405  18.040  68.917  1.00  0.00    -0.249 C  
BRANCH  28  29
HETATM   29  C   UNL     1      -8.532  18.640  68.110  1.00  0.00    -0.336 A  
HETATM   30  C   UNL     1      -9.859  18.275  68.365  1.00  0.00    -0.386 A  
HETATM   31  C   UNL     1     -10.891  18.769  67.566  1.00  0.00    -0.396 A  
HETATM   32  C   UNL     1     -10.605  19.628  66.507  1.00  0.00    -0.591 A  
HETATM   33  C   UNL     1      -9.286  20.000  66.248  1.00  0.00    -0.456 A  
HETATM   34  C   UNL     1      -8.252  19.509  67.045  1.00  0.00    -0.308 A  
ENDBRANCH  28  29
ENDBRANCH  27  28
ENDBRANCH  26  27
ENDBRANCH  25  26
ENDBRANCH  24  25
ENDBRANCH  23  24
ENDBRANCH  22  23
ENDBRANCH  21  22
ENDBRANCH  20  21
ENDBRANCH  19  20
ENDBRANCH  18  19
ENDBRANCH  16  18
ENDBRANCH  15  16
ENDBRANCH  12  15
ENDBRANCH  10  12
ENDBRANCH   2   4
TORSDOF 16
ENDMDL
MODEL      390
REMARK 921   NORMALIZED FREE ENERGY PREDICTED BY IDOCK:   -3.32 KCAL/MOL
REMARK 922        TOTAL FREE ENERGY PREDICTED BY IDOCK:   -8.78 KCAL/MOL
REMARK 923 INTER-LIGAND FREE ENERGY PREDICTED BY IDOCK:   -5.98 KCAL/MOL
REMARK 924 INTRA-LIGAND FREE ENERGY PREDICTED BY IDOCK:   -2.79 KCAL/MOL
REMARK 927      BINDING AFFINITY PREDICTED BY RF-SCORE:    0.00 PKD
ROOT
HETATM    1  O   UNL     1     -12.912   6.973  71.052  1.00  0.00    -0.502 OA 
HETATM    2  C   UNL     1     -11.752   6.469  70.390  1.00  0.00    -0.375 C  
HETATM    3  H   UNL     1     -13.591   6.308  71.075  1.00  0.00     0.000 HD 
ENDROOT
BRANCH   2   4
HETATM    4  C   UNL     1     -10.676   7.522  70.352  1.00  0.00    -0.248 A  
HETATM    5  C   UNL     1     -10.957   8.894  70.352  1.00  0.00    -0.244 A  
HETATM    6  O   UNL     1     -12.239   9.366  70.319  1.00  0.00    -0.469 OA 
HETATM    7  C   UNL     1      -9.941   9.843  70.355  1.00  0.00    -0.222 A  
HETATM    8  C   UNL     1      -8.610   9.433  70.334  1.00  0.00    -0.266 A  
HETATM    9  H   UNL     1     -12.431  10.297  70.318  1.00  0.00     0.000 HD 
HETATM   10  C   UNL     1      -8.284   8.067  70.329  1.00  0.00    -0.123 A  
HETATM   11  C   UNL     1      -9.326   7.125  70.363  1.00  0.00    -0.159 A  
BRANCH  10  12
HETATM   12  C   UNL     1      -6.842   7.598  70.261  1.00  0.00    -0.047 C  
HETATM   13  O   UNL     1      -6.700   6.339  70.937  1.00  0.00    -0.054 OA 
HETATM   14  H   UNL     1      -5.797   6.045  70.893  1.00  0.00     0.000 HD 
BRANCH  12  15
HETATM   15  C   UNL     1      -6.347   7.444  68.807  1.00  0.00    -0.036 C  
BRANCH  15  16
HETATM   16  N   UNL     1      -6.946   8.464  67.930  1.00  0.00    -0.076 NA 
HETATM   17  H   UNL     1      -7.630   9.038  68.423  1.00  0.00     0.000 HD 
BRANCH  16  18
HETATM   18  C   UNL     1      -5.899   9.272  67.313  1.00  0.00    -0.046 C  
BRANCH  18  19
HETATM   19  C   UNL     1      -5.731  10.580  68.074  1.00  0.00    -0.040 C  
BRANCH  19  20
HETATM   20  C   UNL     1      -6.400  11.723  67.313  1.00  0.00    -0.132 C  
BRANCH  20  21
HETATM   21  C   UNL     1      -7.508  12.348  68.148  1.00  0.00    -0.118 C  
BRANCH  21  22
HETATM   22  C   UNL     1      -8.775  12.553  67.326  1.00  0.00    -0.193 C  
BRANCH  22  23
HETATM   23  C   UNL     1      -8.938  11.427  66.317  1.00  0.00    -0.200 C  
BRANCH  23  24
HETATM   24  O   UNL     1      -9.478  10.296  66.989  1.00  0.00    -0.159 OA 
BRANCH  24  25
HETATM   25  C   UNL     1      -9.909   9.298  66.066  1.00  0.00    -0.293 C  
BRANCH  25  26
HETATM   26  C   UNL     1     -10.587   8.175  66.840  1.00  0.00    -0.311 C  
BRANCH  26  27
HETATM   27  C   UNL     1      -9.803   6.868  66.709  1.00  0.00    -0.243 C  
BRANCH  27  28
HETATM   28  C   UNL     1     -10.688   5.645  66.943  1.00  0.00    -0.350 C  
BRANCH  28  29
HETATM   29  C   UNL     1     -10.006   4.407  66.410  1.00  0.00    -0.252 A  
HETATM   30  C   UNL     1      -9.305   3.558  67.272  1.00  0.00    -0.239 A  
HETATM   31  C   UNL     1      -8.609   2.460  66.767  1.00  0.00    -0.118 A  
HETATM   32  C   UNL     1      -8.606   2.204  65.397  1.00  0.00    -0.111 A  
HETATM   33  C   UNL     1      -9.305   3.043  64.530  1.00  0.00    -0.145 A  
HETATM   34  C   UNL     1     -10.003   4.142  65.033  1.00  0.00    -0.216 A  
ENDBRANCH  28  29
ENDBRANCH  27  28
ENDBRANCH  26  27
ENDBRANCH  25  26
ENDBRANCH  24  25
ENDBRANCH  23  24
ENDBRANCH  22  23
ENDBRANCH  21  22
ENDBRANCH  20  21
ENDBRANCH  19  20
ENDBRANCH  18  19
ENDBRANCH  16  18
ENDBRANCH  15  16
ENDBRANCH  12  15
ENDBRANCH  10  12
ENDBRANCH   2   4
TORSDOF 16
ENDMDL
MODEL      391
REMARK 921   NORMALIZED FREE ENERGY PREDICTED BY IDOCK:   -3.32 KCAL/MOL
REMARK 922        TOTAL FREE ENERGY PREDICTED BY IDOCK:   -8.77 KCAL/MOL
REMARK 923 INTER-LIGAND FREE ENERGY PREDICTED BY IDOCK:   -7.52 KCAL/MOL
REMARK 924 INTRA-LIGAND FREE ENERGY PREDICTED BY IDOCK:   -1.25 KCAL/MOL
REMARK 927      BINDING AFFINITY PREDICTED BY RF-SCORE:    0.00 PKD
ROOT
HETATM    1  O   UNL     1      -9.369   1.807  69.771  1.00  0.00    -0.103 OA 
HETATM    2  C   UNL     1      -8.185   2.334  70.370  1.00  0.00    -0.041 C  
HETATM    3  H   UNL     1      -9.207   0.932  69.437  1.00  0.00     0.000 HD 
ENDROOT
BRANCH   2   4
HETATM    4  C   UNL     1      -8.442   3.720  70.900  1.00  0.00    -0.099 A  
HETATM    5  C   UNL     1      -7.412   4.612  71.222  1.00  0.00    -0.075 A  
HETATM    6  O   UNL     1      -6.095   4.253  71.136  1.00  0.00    -0.016 OA 
HETATM    7  C   UNL     1      -7.681   5.899  71.674  1.00  0.00    -0.101 A  
HETATM    8  C   UNL     1      -9.000   6.314  71.837  1.00  0.00    -0.139 A  
HETATM    9  H   UNL     1      -5.396   4.858  71.356  1.00  0.00     0.000 HD 
HETATM   10  C   UNL     1     -10.063   5.450  71.529  1.00  0.00    -0.253 A  
HETATM   11  C   UNL     1      -9.769   4.166  71.039  1.00  0.00    -0.260 A  
BRANCH  10  12
HETATM   12  C   UNL     1     -11.507   5.866  71.741  1.00  0.00    -0.198 C  
HETATM   13  O   UNL     1     -11.663   6.467  73.036  1.00  0.00    -0.473 OA 
HETATM   14  H   UNL     1     -12.568   6.727  73.169  1.00  0.00     0.000 HD 
BRANCH  12  15
HETATM   15  C   UNL     1     -11.992   6.861  70.666  1.00  0.00    -0.348 C  
BRANCH  15  16
HETATM   16  N   UNL     1     -11.452   6.519  69.340  1.00  0.00    -0.623 NA 
HETATM   17  H   UNL     1     -12.161   6.108  68.733  1.00  0.00     0.000 HD 
BRANCH  16  18
HETATM   18  C   UNL     1     -10.827   7.691  68.735  1.00  0.00     0.009 C  
BRANCH  18  19
HETATM   19  C   UNL     1      -9.396   7.368  68.325  1.00  0.00    -0.140 C  
BRANCH  19  20
HETATM   20  C   UNL     1      -8.795   8.534  67.544  1.00  0.00    -0.139 C  
BRANCH  20  21
HETATM   21  C   UNL     1      -8.264   9.599  68.493  1.00  0.00    -0.105 C  
BRANCH  21  22
HETATM   22  C   UNL     1      -7.724  10.804  67.732  1.00  0.00    -0.104 C  
BRANCH  22  23
HETATM   23  C   UNL     1      -8.853  11.515  67.001  1.00  0.00    -0.173 C  
BRANCH  23  24
HETATM   24  O   UNL     1      -9.611  12.250  67.953  1.00  0.00    -0.190 OA 
BRANCH  24  25
HETATM   25  C   UNL     1      -8.868  13.349  68.475  1.00  0.00    -0.068 C  
BRANCH  25  26
HETATM   26  C   UNL     1      -9.560  14.645  68.073  1.00  0.00    -0.212 C  
BRANCH  26  27
HETATM   27  C   UNL     1     -10.134  15.363  69.296  1.00  0.00    -0.253 C  
BRANCH  27  28
HETATM   28  C   UNL     1     -11.659  15.445  69.247  1.00  0.00    -0.354 C  
BRANCH  28  29
HETATM   29  C   UNL     1     -12.230  15.234  70.629  1.00  0.00    -0.412 A  
HETATM   30  C   UNL     1     -11.861  16.076  71.684  1.00  0.00    -0.582 A  
HETATM   31  C   UNL     1     -12.326  15.831  72.976  1.00  0.00    -0.586 A  
HETATM   32  C   UNL     1     -13.161  14.743  73.223  1.00  0.00    -0.550 A  
HETATM   33  C   UNL     1     -13.537  13.901  72.178  1.00  0.00    -0.599 A  
HETATM   34  C   UNL     1     -13.073  14.144  70.885  1.00  0.00    -0.338 A  
ENDBRANCH  28  29
ENDBRANCH  27  28
ENDBRANCH  26  27
ENDBRANCH  25  26
ENDBRANCH  24  25
ENDBRANCH  23  24
ENDBRANCH  22  23
ENDBRANCH  21  22
ENDBRANCH  20  21
ENDBRANCH  19  20
ENDBRANCH  18  19
ENDBRANCH  16  18
ENDBRANCH  15  16
ENDBRANCH  12  15
ENDBRANCH  10  12
ENDBRANCH   2   4
TORSDOF 16
ENDMDL
MODEL      392
REMARK 921   NORMALIZED FREE ENERGY PREDICTED BY IDOCK:   -3.30 KCAL/MOL
REMARK 922        TOTAL FREE ENERGY PREDICTED BY IDOCK:   -8.73 KCAL/MOL
REMARK 923 INTER-LIGAND FREE ENERGY PREDICTED BY IDOCK:   -6.40 KCAL/MOL
REMARK 924 INTRA-LIGAND FREE ENERGY PREDICTED BY IDOCK:   -2.33 KCAL/MOL
REMARK 927      BINDING AFFINITY PREDICTED BY RF-SCORE:    0.00 PKD
ROOT
HETATM    1  O   UNL     1      -8.375   5.726  67.164  1.00  0.00    -0.105 OA 
HETATM    2  C   UNL     1      -9.053   6.236  66.015  1.00  0.00    -0.109 C  
HETATM    3  H   UNL     1      -8.878   5.022  67.556  1.00  0.00     0.000 HD 
ENDROOT
BRANCH   2   4
HETATM    4  C   UNL     1      -8.257   7.354  65.394  1.00  0.00    -0.135 A  
HETATM    5  C   UNL     1      -8.074   7.476  64.012  1.00  0.00    -0.041 A  
HETATM    6  O   UNL     1      -8.557   6.544  63.136  1.00  0.00    -0.337 OA 
HETATM    7  C   UNL     1      -7.365   8.540  63.465  1.00  0.00    -0.106 A  
HETATM    8  C   UNL     1      -6.799   9.498  64.302  1.00  0.00    -0.101 A  
HETATM    9  H   UNL     1      -8.432   6.627  62.197  1.00  0.00     0.000 HD 
HETATM   10  C   UNL     1      -6.955   9.411  65.695  1.00  0.00    -0.086 A  
HETATM   11  C   UNL     1      -7.707   8.347  66.224  1.00  0.00    -0.094 A  
BRANCH  10  12
HETATM   12  C   UNL     1      -6.310  10.418  66.628  1.00  0.00    -0.079 C  
HETATM   13  O   UNL     1      -6.142  11.677  65.957  1.00  0.00    -0.473 OA 
HETATM   14  H   UNL     1      -5.738  12.308  66.541  1.00  0.00     0.000 HD 
BRANCH  12  15
HETATM   15  C   UNL     1      -7.140  10.642  67.910  1.00  0.00    -0.086 C  
BRANCH  15  16
HETATM   16  N   UNL     1      -7.357  12.076  68.161  1.00  0.00    -0.086 NA 
HETATM   17  H   UNL     1      -8.348  12.306  68.227  1.00  0.00     0.000 HD 
BRANCH  16  18
HETATM   18  C   UNL     1      -6.619  12.494  69.349  1.00  0.00    -0.073 C  
BRANCH  18  19
HETATM   19  C   UNL     1      -5.724  13.681  69.017  1.00  0.00    -0.075 C  
BRANCH  19  20
HETATM   20  C   UNL     1      -5.864  14.762  70.087  1.00  0.00    -0.138 C  
BRANCH  20  21
HETATM   21  C   UNL     1      -6.064  16.128  69.448  1.00  0.00    -0.160 C  
BRANCH  21  22
HETATM   22  C   UNL     1      -7.041  16.059  68.281  1.00  0.00    -0.122 C  
BRANCH  22  23
HETATM   23  C   UNL     1      -8.113  17.129  68.426  1.00  0.00    -0.255 C  
BRANCH  23  24
HETATM   24  O   UNL     1      -9.311  16.649  67.828  1.00  0.00    -0.219 OA 
BRANCH  24  25
HETATM   25  C   UNL     1      -9.747  15.435  68.437  1.00  0.00    -0.211 C  
BRANCH  25  26
HETATM   26  C   UNL     1     -11.269  15.383  68.391  1.00  0.00    -0.318 C  
BRANCH  26  27
HETATM   27  C   UNL     1     -11.752  14.311  67.413  1.00  0.00    -0.422 C  
BRANCH  27  28
HETATM   28  C   UNL     1     -10.776  13.139  67.323  1.00  0.00    -0.262 C  
BRANCH  28  29
HETATM   29  C   UNL     1     -10.819  12.540  65.937  1.00  0.00    -0.302 A  
HETATM   30  C   UNL     1     -11.558  13.157  64.921  1.00  0.00    -0.356 A  
HETATM   31  C   UNL     1     -11.662  12.560  63.665  1.00  0.00    -0.594 A  
HETATM   32  C   UNL     1     -11.031  11.343  63.415  1.00  0.00    -0.342 A  
HETATM   33  C   UNL     1     -10.289  10.723  64.420  1.00  0.00    -0.405 A  
HETATM   34  C   UNL     1     -10.183  11.318  65.677  1.00  0.00    -0.304 A  
ENDBRANCH  28  29
ENDBRANCH  27  28
ENDBRANCH  26  27
ENDBRANCH  25  26
ENDBRANCH  24  25
ENDBRANCH  23  24
ENDBRANCH  22  23
ENDBRANCH  21  22
ENDBRANCH  20  21
ENDBRANCH  19  20
ENDBRANCH  18  19
ENDBRANCH  16  18
ENDBRANCH  15  16
ENDBRANCH  12  15
ENDBRANCH  10  12
ENDBRANCH   2   4
TORSDOF 16
ENDMDL
MODEL      393
REMARK 921   NORMALIZED FREE ENERGY PREDICTED BY IDOCK:   -3.29 KCAL/MOL
REMARK 922        TOTAL FREE ENERGY PREDICTED BY IDOCK:   -8.72 KCAL/MOL
REMARK 923 INTER-LIGAND FREE ENERGY PREDICTED BY IDOCK:   -5.72 KCAL/MOL
REMARK 924 INTRA-LIGAND FREE ENERGY PREDICTED BY IDOCK:   -3.00 KCAL/MOL
REMARK 927      BINDING AFFINITY PREDICTED BY RF-SCORE:    0.00 PKD
ROOT
HETATM    1  O   UNL     1     -12.512  12.638  65.673  1.00  0.00    -0.622 OA 
HETATM    2  C   UNL     1     -12.020  12.932  66.982  1.00  0.00    -0.325 C  
HETATM    3  H   UNL     1     -13.440  12.836  65.619  1.00  0.00     0.000 HD 
ENDROOT
BRANCH   2   4
HETATM    4  C   UNL     1     -10.549  12.618  67.067  1.00  0.00    -0.255 A  
HETATM    5  C   UNL     1      -9.726  13.119  68.083  1.00  0.00    -0.228 A  
HETATM    6  O   UNL     1     -10.197  13.983  69.032  1.00  0.00    -0.368 OA 
HETATM    7  C   UNL     1      -8.379  12.782  68.157  1.00  0.00    -0.172 A  
HETATM    8  C   UNL     1      -7.820  11.948  67.192  1.00  0.00    -0.168 A  
HETATM    9  H   UNL     1      -9.638  14.323  69.720  1.00  0.00     0.000 HD 
HETATM   10  C   UNL     1      -8.609  11.427  66.154  1.00  0.00    -0.128 A  
HETATM   11  C   UNL     1      -9.977  11.752  66.119  1.00  0.00    -0.254 A  
BRANCH  10  12
HETATM   12  C   UNL     1      -8.011  10.554  65.067  1.00  0.00    -0.079 C  
HETATM   13  O   UNL     1      -6.661  10.960  64.793  1.00  0.00    -0.350 OA 
HETATM   14  H   UNL     1      -6.287  10.413  64.112  1.00  0.00     0.000 HD 
BRANCH  12  15
HETATM   15  C   UNL     1      -8.015   9.059  65.451  1.00  0.00    -0.111 C  
BRANCH  15  16
HETATM   16  N   UNL     1      -7.721   8.876  66.882  1.00  0.00    -0.097 NA 
HETATM   17  H   UNL     1      -8.356   8.210  67.321  1.00  0.00     0.000 HD 
BRANCH  16  18
HETATM   18  C   UNL     1      -6.323   8.497  67.062  1.00  0.00    -0.057 C  
BRANCH  18  19
HETATM   19  C   UNL     1      -6.094   8.004  68.485  1.00  0.00    -0.040 C  
BRANCH  19  20
HETATM   20  C   UNL     1      -7.304   8.332  69.357  1.00  0.00    -0.074 C  
BRANCH  20  21
HETATM   21  C   UNL     1      -6.906   9.248  70.505  1.00  0.00    -0.087 C  
BRANCH  21  22
HETATM   22  C   UNL     1      -6.271   8.466  71.648  1.00  0.00    -0.052 C  
BRANCH  22  23
HETATM   23  C   UNL     1      -7.197   8.449  72.855  1.00  0.00    -0.062 C  
BRANCH  23  24
HETATM   24  O   UNL     1      -7.108   7.170  73.471  1.00  0.00    -0.072 OA 
BRANCH  24  25
HETATM   25  C   UNL     1      -6.881   6.143  72.509  1.00  0.00    -0.070 C  
BRANCH  25  26
HETATM   26  C   UNL     1      -8.098   5.227  72.472  1.00  0.00    -0.103 C  
BRANCH  26  27
HETATM   27  C   UNL     1      -8.911   5.446  71.195  1.00  0.00    -0.146 C  
BRANCH  27  28
HETATM   28  C   UNL     1     -10.296   6.018  71.491  1.00  0.00    -0.261 C  
BRANCH  28  29
HETATM   29  C   UNL     1     -10.469   7.339  70.779  1.00  0.00    -0.224 A  
HETATM   30  C   UNL     1     -10.673   8.515  71.509  1.00  0.00    -0.330 A  
HETATM   31  C   UNL     1     -10.913   9.720  70.849  1.00  0.00    -0.411 A  
HETATM   32  C   UNL     1     -10.954   9.759  69.457  1.00  0.00    -0.256 A  
HETATM   33  C   UNL     1     -10.749   8.592  68.721  1.00  0.00    -0.098 A  
HETATM   34  C   UNL     1     -10.508   7.386  69.379  1.00  0.00    -0.220 A  
ENDBRANCH  28  29
ENDBRANCH  27  28
ENDBRANCH  26  27
ENDBRANCH  25  26
ENDBRANCH  24  25
ENDBRANCH  23  24
ENDBRANCH  22  23
ENDBRANCH  21  22
ENDBRANCH  20  21
ENDBRANCH  19  20
ENDBRANCH  18  19
ENDBRANCH  16  18
ENDBRANCH  15  16
ENDBRANCH  12  15
ENDBRANCH  10  12
ENDBRANCH   2   4
TORSDOF 16
ENDMDL
MODEL      394
REMARK 921   NORMALIZED FREE ENERGY PREDICTED BY IDOCK:   -3.28 KCAL/MOL
REMARK 922        TOTAL FREE ENERGY PREDICTED BY IDOCK:   -8.69 KCAL/MOL
REMARK 923 INTER-LIGAND FREE ENERGY PREDICTED BY IDOCK:   -6.99 KCAL/MOL
REMARK 924 INTRA-LIGAND FREE ENERGY PREDICTED BY IDOCK:   -1.70 KCAL/MOL
REMARK 927      BINDING AFFINITY PREDICTED BY RF-SCORE:    0.00 PKD
ROOT
HETATM    1  O   UNL     1      -6.397   8.040  67.167  1.00  0.00    -0.053 OA 
HETATM    2  C   UNL     1      -6.682   9.410  66.879  1.00  0.00    -0.076 C  
HETATM    3  H   UNL     1      -5.489   7.845  66.967  1.00  0.00     0.000 HD 
ENDROOT
BRANCH   2   4
HETATM    4  C   UNL     1      -8.121   9.720  67.196  1.00  0.00    -0.116 A  
HETATM    5  C   UNL     1      -8.776   9.212  68.324  1.00  0.00    -0.129 A  
HETATM    6  O   UNL     1      -8.162   8.341  69.181  1.00  0.00    -0.118 OA 
HETATM    7  C   UNL     1     -10.094   9.546  68.610  1.00  0.00    -0.198 A  
HETATM    8  C   UNL     1     -10.798  10.386  67.750  1.00  0.00    -0.351 A  
HETATM    9  H   UNL     1      -8.607   7.995  69.946  1.00  0.00     0.000 HD 
HETATM   10  C   UNL     1     -10.181  10.915  66.606  1.00  0.00    -0.282 A  
HETATM   11  C   UNL     1      -8.835  10.593  66.355  1.00  0.00    -0.164 A  
BRANCH  10  12
HETATM   12  C   UNL     1     -10.941  11.796  65.632  1.00  0.00    -0.295 C  
HETATM   13  O   UNL     1     -12.234  12.121  66.166  1.00  0.00    -0.611 OA 
HETATM   14  H   UNL     1     -12.711  12.673  65.556  1.00  0.00     0.000 HD 
BRANCH  12  15
HETATM   15  C   UNL     1     -10.186  13.105  65.316  1.00  0.00    -0.286 C  
BRANCH  15  16
HETATM   16  N   UNL     1     -10.141  13.990  66.492  1.00  0.00    -0.278 NA 
HETATM   17  H   UNL     1      -9.185  14.157  66.807  1.00  0.00     0.000 HD 
BRANCH  16  18
HETATM   18  C   UNL     1     -10.849  15.234  66.209  1.00  0.00    -0.312 C  
BRANCH  18  19
HETATM   19  C   UNL     1     -10.471  16.295  67.235  1.00  0.00    -0.300 C  
BRANCH  19  20
HETATM   20  C   UNL     1     -10.418  17.671  66.576  1.00  0.00    -0.283 C  
BRANCH  20  21
HETATM   21  C   UNL     1     -10.384  18.770  67.628  1.00  0.00    -0.476 C  
BRANCH  21  22
HETATM   22  C   UNL     1      -8.987  18.939  68.213  1.00  0.00    -0.364 C  
BRANCH  22  23
HETATM   23  C   UNL     1      -8.386  20.264  67.772  1.00  0.00    -0.214 C  
BRANCH  23  24
HETATM   24  O   UNL     1      -7.058  20.344  68.274  1.00  0.00    -0.263 OA 
BRANCH  24  25
HETATM   25  C   UNL     1      -6.853  19.434  69.352  1.00  0.00    -0.307 C  
BRANCH  25  26
HETATM   26  C   UNL     1      -5.982  18.283  68.863  1.00  0.00    -0.212 C  
BRANCH  26  27
HETATM   27  C   UNL     1      -6.127  17.061  69.771  1.00  0.00    -0.227 C  
BRANCH  27  28
HETATM   28  C   UNL     1      -6.934  15.948  69.107  1.00  0.00    -0.176 C  
BRANCH  28  29
HETATM   29  C   UNL     1      -6.514  14.607  69.661  1.00  0.00    -0.149 A  
HETATM   30  C   UNL     1      -5.780  14.530  70.849  1.00  0.00    -0.176 A  
HETATM   31  C   UNL     1      -5.324  13.297  71.316  1.00  0.00    -0.193 A  
HETATM   32  C   UNL     1      -5.596  12.134  70.599  1.00  0.00    -0.157 A  
HETATM   33  C   UNL     1      -6.330  12.200  69.415  1.00  0.00    -0.116 A  
HETATM   34  C   UNL     1      -6.788  13.432  68.946  1.00  0.00    -0.111 A  
ENDBRANCH  28  29
ENDBRANCH  27  28
ENDBRANCH  26  27
ENDBRANCH  25  26
ENDBRANCH  24  25
ENDBRANCH  23  24
ENDBRANCH  22  23
ENDBRANCH  21  22
ENDBRANCH  20  21
ENDBRANCH  19  20
ENDBRANCH  18  19
ENDBRANCH  16  18
ENDBRANCH  15  16
ENDBRANCH  12  15
ENDBRANCH  10  12
ENDBRANCH   2   4
TORSDOF 16
ENDMDL
MODEL      395
REMARK 921   NORMALIZED FREE ENERGY PREDICTED BY IDOCK:   -3.26 KCAL/MOL
REMARK 922        TOTAL FREE ENERGY PREDICTED BY IDOCK:   -8.66 KCAL/MOL
REMARK 923 INTER-LIGAND FREE ENERGY PREDICTED BY IDOCK:   -6.63 KCAL/MOL
REMARK 924 INTRA-LIGAND FREE ENERGY PREDICTED BY IDOCK:   -2.04 KCAL/MOL
REMARK 927      BINDING AFFINITY PREDICTED BY RF-SCORE:    0.00 PKD
ROOT
HETATM    1  O   UNL     1      -9.561   1.593  69.477  1.00  0.00    -0.086 OA 
HETATM    2  C   UNL     1      -8.298   2.255  69.555  1.00  0.00    -0.045 C  
HETATM    3  H   UNL     1      -9.491   0.814  68.937  1.00  0.00     0.000 HD 
ENDROOT
BRANCH   2   4
HETATM    4  C   UNL     1      -8.408   3.490  70.410  1.00  0.00    -0.084 A  
HETATM    5  C   UNL     1      -7.292   4.147  70.940  1.00  0.00    -0.041 A  
HETATM    6  O   UNL     1      -6.024   3.667  70.766  1.00  0.00    -0.016 OA 
HETATM    7  C   UNL     1      -7.424   5.307  71.695  1.00  0.00    -0.093 A  
HETATM    8  C   UNL     1      -8.691   5.823  71.957  1.00  0.00    -0.137 A  
HETATM    9  H   UNL     1      -5.266   4.113  71.127  1.00  0.00     0.000 HD 
HETATM   10  C   UNL     1      -9.837   5.192  71.448  1.00  0.00    -0.239 A  
HETATM   11  C   UNL     1      -9.679   4.041  70.656  1.00  0.00    -0.266 A  
BRANCH  10  12
HETATM   12  C   UNL     1     -11.229   5.711  71.758  1.00  0.00    -0.158 C  
HETATM   13  O   UNL     1     -11.429   5.770  73.179  1.00  0.00    -0.475 OA 
HETATM   14  H   UNL     1     -12.301   6.095  73.374  1.00  0.00     0.000 HD 
BRANCH  12  15
HETATM   15  C   UNL     1     -11.477   7.112  71.159  1.00  0.00    -0.290 C  
BRANCH  15  16
HETATM   16  N   UNL     1     -11.828   7.026  69.732  1.00  0.00    -0.590 NA 
HETATM   17  H   UNL     1     -12.681   7.542  69.516  1.00  0.00     0.000 HD 
BRANCH  16  18
HETATM   18  C   UNL     1     -10.702   7.465  68.913  1.00  0.00    -0.130 C  
BRANCH  18  19
HETATM   19  C   UNL     1     -10.355   6.395  67.886  1.00  0.00    -0.234 C  
BRANCH  19  20
HETATM   20  C   UNL     1      -8.911   6.562  67.417  1.00  0.00    -0.110 C  
BRANCH  20  21
HETATM   21  C   UNL     1      -8.051   7.148  68.527  1.00  0.00    -0.125 C  
BRANCH  21  22
HETATM   22  C   UNL     1      -6.994   8.095  67.971  1.00  0.00    -0.077 C  
BRANCH  22  23
HETATM   23  C   UNL     1      -7.646   9.361  67.438  1.00  0.00    -0.095 C  
BRANCH  23  24
HETATM   24  O   UNL     1      -8.480   9.900  68.457  1.00  0.00    -0.108 OA 
BRANCH  24  25
HETATM   25  C   UNL     1      -8.476  11.325  68.432  1.00  0.00    -0.153 C  
BRANCH  25  26
HETATM   26  C   UNL     1      -9.726  11.806  67.706  1.00  0.00    -0.185 C  
BRANCH  26  27
HETATM   27  C   UNL     1     -10.476  12.849  68.536  1.00  0.00    -0.260 C  
BRANCH  27  28
HETATM   28  C   UNL     1     -11.849  13.168  67.948  1.00  0.00    -0.390 C  
BRANCH  28  29
HETATM   29  C   UNL     1     -11.695  14.053  66.733  1.00  0.00    -0.430 A  
HETATM   30  C   UNL     1     -12.129  13.614  65.478  1.00  0.00    -0.440 A  
HETATM   31  C   UNL     1     -11.913  14.398  64.345  1.00  0.00    -0.471 A  
HETATM   32  C   UNL     1     -11.260  15.624  64.457  1.00  0.00    -0.337 A  
HETATM   33  C   UNL     1     -10.827  16.071  65.705  1.00  0.00    -0.273 A  
HETATM   34  C   UNL     1     -11.043  15.289  66.840  1.00  0.00    -0.288 A  
ENDBRANCH  28  29
ENDBRANCH  27  28
ENDBRANCH  26  27
ENDBRANCH  25  26
ENDBRANCH  24  25
ENDBRANCH  23  24
ENDBRANCH  22  23
ENDBRANCH  21  22
ENDBRANCH  20  21
ENDBRANCH  19  20
ENDBRANCH  18  19
ENDBRANCH  16  18
ENDBRANCH  15  16
ENDBRANCH  12  15
ENDBRANCH  10  12
ENDBRANCH   2   4
TORSDOF 16
ENDMDL
MODEL      396
REMARK 921   NORMALIZED FREE ENERGY PREDICTED BY IDOCK:   -3.25 KCAL/MOL
REMARK 922        TOTAL FREE ENERGY PREDICTED BY IDOCK:   -8.63 KCAL/MOL
REMARK 923 INTER-LIGAND FREE ENERGY PREDICTED BY IDOCK:   -5.59 KCAL/MOL
REMARK 924 INTRA-LIGAND FREE ENERGY PREDICTED BY IDOCK:   -3.04 KCAL/MOL
REMARK 927      BINDING AFFINITY PREDICTED BY RF-SCORE:    0.00 PKD
ROOT
HETATM    1  O   UNL     1     -10.297   9.956  64.950  1.00  0.00    -0.241 OA 
HETATM    2  C   UNL     1      -9.028   9.725  64.338  1.00  0.00    -0.245 C  
HETATM    3  H   UNL     1     -10.991   9.581  64.419  1.00  0.00     0.000 HD 
ENDROOT
BRANCH   2   4
HETATM    4  C   UNL     1      -7.929  10.319  65.179  1.00  0.00    -0.147 A  
HETATM    5  C   UNL     1      -6.572  10.079  64.933  1.00  0.00    -0.126 A  
HETATM    6  O   UNL     1      -6.158   9.229  63.945  1.00  0.00    -0.085 OA 
HETATM    7  C   UNL     1      -5.578  10.672  65.704  1.00  0.00    -0.133 A  
HETATM    8  C   UNL     1      -5.929  11.507  66.762  1.00  0.00    -0.139 A  
HETATM    9  H   UNL     1      -5.237   9.066  63.778  1.00  0.00     0.000 HD 
HETATM   10  C   UNL     1      -7.278  11.772  67.046  1.00  0.00    -0.134 A  
HETATM   11  C   UNL     1      -8.265  11.190  66.231  1.00  0.00    -0.153 A  
BRANCH  10  12
HETATM   12  C   UNL     1      -7.684  12.642  68.221  1.00  0.00    -0.135 C  
HETATM   13  O   UNL     1      -7.848  11.837  69.399  1.00  0.00    -0.342 OA 
HETATM   14  H   UNL     1      -8.102  12.381  70.135  1.00  0.00     0.000 HD 
BRANCH  12  15
HETATM   15  C   UNL     1      -6.648  13.749  68.512  1.00  0.00    -0.099 C  
BRANCH  15  16
HETATM   16  N   UNL     1      -6.994  14.999  67.815  1.00  0.00    -0.158 NA 
HETATM   17  H   UNL     1      -7.278  14.832  66.850  1.00  0.00     0.000 HD 
BRANCH  16  18
HETATM   18  C   UNL     1      -8.014  15.725  68.566  1.00  0.00    -0.141 C  
BRANCH  18  19
HETATM   19  C   UNL     1      -9.198  16.046  67.663  1.00  0.00    -0.205 C  
BRANCH  19  20
HETATM   20  C   UNL     1     -10.404  15.195  68.053  1.00  0.00    -0.240 C  
BRANCH  20  21
HETATM   21  C   UNL     1     -11.128  14.689  66.814  1.00  0.00    -0.335 C  
BRANCH  21  22
HETATM   22  C   UNL     1     -11.694  13.291  67.032  1.00  0.00    -0.439 C  
BRANCH  22  23
HETATM   23  C   UNL     1     -11.909  13.034  68.515  1.00  0.00    -0.325 C  
BRANCH  23  24
HETATM   24  O   UNL     1     -10.943  12.085  68.951  1.00  0.00    -0.221 OA 
BRANCH  24  25
HETATM   25  C   UNL     1     -11.559  10.866  69.361  1.00  0.00    -0.316 C  
BRANCH  25  26
HETATM   26  C   UNL     1     -10.618   9.710  69.042  1.00  0.00    -0.237 C  
BRANCH  26  27
HETATM   27  C   UNL     1     -10.857   8.531  69.986  1.00  0.00    -0.225 C  
BRANCH  27  28
HETATM   28  C   UNL     1      -9.556   7.820  70.352  1.00  0.00    -0.175 C  
BRANCH  28  29
HETATM   29  C   UNL     1      -8.743   7.563  69.106  1.00  0.00    -0.136 A  
HETATM   30  C   UNL     1      -9.208   6.681  68.126  1.00  0.00    -0.117 A  
HETATM   31  C   UNL     1      -8.419   6.383  67.014  1.00  0.00    -0.112 A  
HETATM   32  C   UNL     1      -7.159   6.963  66.877  1.00  0.00    -0.075 A  
HETATM   33  C   UNL     1      -6.688   7.846  67.847  1.00  0.00    -0.068 A  
HETATM   34  C   UNL     1      -7.476   8.146  68.959  1.00  0.00    -0.088 A  
ENDBRANCH  28  29
ENDBRANCH  27  28
ENDBRANCH  26  27
ENDBRANCH  25  26
ENDBRANCH  24  25
ENDBRANCH  23  24
ENDBRANCH  22  23
ENDBRANCH  21  22
ENDBRANCH  20  21
ENDBRANCH  19  20
ENDBRANCH  18  19
ENDBRANCH  16  18
ENDBRANCH  15  16
ENDBRANCH  12  15
ENDBRANCH  10  12
ENDBRANCH   2   4
TORSDOF 16
ENDMDL
MODEL      397
REMARK 921   NORMALIZED FREE ENERGY PREDICTED BY IDOCK:   -3.22 KCAL/MOL
REMARK 922        TOTAL FREE ENERGY PREDICTED BY IDOCK:   -8.59 KCAL/MOL
REMARK 923 INTER-LIGAND FREE ENERGY PREDICTED BY IDOCK:   -6.71 KCAL/MOL
REMARK 924 INTRA-LIGAND FREE ENERGY PREDICTED BY IDOCK:   -1.87 KCAL/MOL
REMARK 927      BINDING AFFINITY PREDICTED BY RF-SCORE:    0.00 PKD
ROOT
HETATM    1  O   UNL     1     -10.035  14.383  64.547  1.00  0.00    -0.614 OA 
HETATM    2  C   UNL     1     -11.277  13.692  64.689  1.00  0.00    -0.373 C  
HETATM    3  H   UNL     1     -10.055  14.940  63.777  1.00  0.00     0.000 HD 
ENDROOT
BRANCH   2   4
HETATM    4  C   UNL     1     -11.245  12.810  65.909  1.00  0.00    -0.334 A  
HETATM    5  C   UNL     1     -11.808  13.189  67.133  1.00  0.00    -0.369 A  
HETATM    6  O   UNL     1     -12.369  14.423  67.317  1.00  0.00    -0.617 OA 
HETATM    7  C   UNL     1     -11.796  12.338  68.232  1.00  0.00    -0.367 A  
HETATM    8  C   UNL     1     -11.194  11.087  68.132  1.00  0.00    -0.364 A  
HETATM    9  H   UNL     1     -12.750  14.681  68.148  1.00  0.00     0.000 HD 
HETATM   10  C   UNL     1     -10.614  10.668  66.924  1.00  0.00    -0.311 A  
HETATM   11  C   UNL     1     -10.669  11.530  65.815  1.00  0.00    -0.325 A  
BRANCH  10  12
HETATM   12  C   UNL     1      -9.912   9.327  66.806  1.00  0.00    -0.245 C  
HETATM   13  O   UNL     1      -8.510   9.478  67.079  1.00  0.00    -0.126 OA 
HETATM   14  H   UNL     1      -8.071   8.638  67.005  1.00  0.00     0.000 HD 
BRANCH  12  15
HETATM   15  C   UNL     1     -10.500   8.274  67.769  1.00  0.00    -0.215 C  
BRANCH  15  16
HETATM   16  N   UNL     1     -10.877   7.046  67.050  1.00  0.00    -0.477 NA 
HETATM   17  H   UNL     1     -10.310   6.904  66.214  1.00  0.00     0.000 HD 
BRANCH  16  18
HETATM   18  C   UNL     1     -10.816   5.899  67.951  1.00  0.00    -0.233 C  
BRANCH  18  19
HETATM   19  C   UNL     1     -11.163   6.332  69.370  1.00  0.00    -0.489 C  
BRANCH  19  20
HETATM   20  C   UNL     1     -10.027   5.967  70.324  1.00  0.00    -0.236 C  
BRANCH  20  21
HETATM   21  C   UNL     1     -10.274   4.606  70.958  1.00  0.00    -0.207 C  
BRANCH  21  22
HETATM   22  C   UNL     1      -9.421   4.410  72.206  1.00  0.00    -0.183 C  
BRANCH  22  23
HETATM   23  C   UNL     1      -8.241   5.369  72.195  1.00  0.00    -0.115 C  
BRANCH  23  24
HETATM   24  O   UNL     1      -7.042   4.606  72.162  1.00  0.00    -0.061 OA 
BRANCH  24  25
HETATM   25  C   UNL     1      -6.532   4.496  70.835  1.00  0.00    -0.030 C  
BRANCH  25  26
HETATM   26  C   UNL     1      -6.490   3.023  70.446  1.00  0.00    -0.032 C  
BRANCH  26  27
HETATM   27  C   UNL     1      -6.741   2.844  68.948  1.00  0.00    -0.037 C  
BRANCH  27  28
HETATM   28  C   UNL     1      -7.686   3.909  68.396  1.00  0.00    -0.065 C  
BRANCH  28  29
HETATM   29  C   UNL     1      -7.108   4.505  67.134  1.00  0.00    -0.068 A  
HETATM   30  C   UNL     1      -7.066   5.892  66.960  1.00  0.00    -0.070 A  
HETATM   31  C   UNL     1      -6.607   6.439  65.762  1.00  0.00    -0.047 A  
HETATM   32  C   UNL     1      -6.189   5.603  64.728  1.00  0.00    -0.025 A  
HETATM   33  C   UNL     1      -6.223   4.219  64.893  1.00  0.00    -0.030 A  
HETATM   34  C   UNL     1      -6.682   3.670  66.091  1.00  0.00    -0.049 A  
ENDBRANCH  28  29
ENDBRANCH  27  28
ENDBRANCH  26  27
ENDBRANCH  25  26
ENDBRANCH  24  25
ENDBRANCH  23  24
ENDBRANCH  22  23
ENDBRANCH  21  22
ENDBRANCH  20  21
ENDBRANCH  19  20
ENDBRANCH  18  19
ENDBRANCH  16  18
ENDBRANCH  15  16
ENDBRANCH  12  15
ENDBRANCH  10  12
ENDBRANCH   2   4
TORSDOF 16
ENDMDL
MODEL      398
REMARK 921   NORMALIZED FREE ENERGY PREDICTED BY IDOCK:   -3.22 KCAL/MOL
REMARK 922        TOTAL FREE ENERGY PREDICTED BY IDOCK:   -8.58 KCAL/MOL
REMARK 923 INTER-LIGAND FREE ENERGY PREDICTED BY IDOCK:   -7.26 KCAL/MOL
REMARK 924 INTRA-LIGAND FREE ENERGY PREDICTED BY IDOCK:   -1.31 KCAL/MOL
REMARK 927      BINDING AFFINITY PREDICTED BY RF-SCORE:    0.00 PKD
ROOT
HETATM    1  O   UNL     1     -12.596  11.634  62.841  1.00  0.00    -0.914 OA 
HETATM    2  C   UNL     1     -11.341  12.148  63.290  1.00  0.00    -0.327 C  
HETATM    3  H   UNL     1     -12.635  11.647  61.891  1.00  0.00     0.000 HD 
ENDROOT
BRANCH   2   4
HETATM    4  C   UNL     1     -11.280  12.127  64.795  1.00  0.00    -0.373 A  
HETATM    5  C   UNL     1     -12.209  12.796  65.601  1.00  0.00    -0.444 A  
HETATM    6  O   UNL     1     -13.201  13.569  65.066  1.00  0.00    -0.721 OA 
HETATM    7  C   UNL     1     -12.148  12.728  66.988  1.00  0.00    -0.252 A  
HETATM    8  C   UNL     1     -11.131  12.002  67.602  1.00  0.00    -0.319 A  
HETATM    9  H   UNL     1     -13.832  14.024  65.613  1.00  0.00     0.000 HD 
HETATM   10  C   UNL     1     -10.176  11.319  66.831  1.00  0.00    -0.254 A  
HETATM   11  C   UNL     1     -10.277  11.372  65.430  1.00  0.00    -0.320 A  
BRANCH  10  12
HETATM   12  C   UNL     1      -9.033  10.559  67.478  1.00  0.00    -0.135 C  
HETATM   13  O   UNL     1      -9.441  10.047  68.756  1.00  0.00    -0.150 OA 
HETATM   14  H   UNL     1      -8.725   9.571  69.162  1.00  0.00     0.000 HD 
BRANCH  12  15
HETATM   15  C   UNL     1      -8.542   9.387  66.603  1.00  0.00    -0.130 C  
BRANCH  15  16
HETATM   16  N   UNL     1      -7.096   9.484  66.344  1.00  0.00    -0.087 NA 
HETATM   17  H   UNL     1      -6.690  10.324  66.756  1.00  0.00     0.000 HD 
BRANCH  16  18
HETATM   18  C   UNL     1      -6.423   8.272  66.801  1.00  0.00    -0.056 C  
BRANCH  18  19
HETATM   19  C   UNL     1      -7.396   7.396  67.579  1.00  0.00    -0.102 C  
BRANCH  19  20
HETATM   20  C   UNL     1      -7.553   6.041  66.891  1.00  0.00    -0.096 C  
BRANCH  20  21
HETATM   21  C   UNL     1      -6.959   6.079  65.490  1.00  0.00    -0.060 C  
BRANCH  21  22
HETATM   22  C   UNL     1      -5.857   5.038  65.325  1.00  0.00    -0.018 C  
BRANCH  22  23
HETATM   23  C   UNL     1      -6.453   3.639  65.297  1.00  0.00    -0.036 C  
BRANCH  23  24
HETATM   24  O   UNL     1      -6.492   3.140  66.628  1.00  0.00    -0.035 OA 
BRANCH  24  25
HETATM   25  C   UNL     1      -7.644   2.330  66.848  1.00  0.00    -0.066 C  
BRANCH  25  26
HETATM   26  C   UNL     1      -7.788   2.076  68.343  1.00  0.00    -0.056 C  
BRANCH  26  27
HETATM   27  C   UNL     1      -9.096   2.662  68.876  1.00  0.00    -0.200 C  
BRANCH  27  28
HETATM   28  C   UNL     1      -9.378   4.048  68.299  1.00  0.00    -0.216 C  
BRANCH  28  29
HETATM   29  C   UNL     1     -10.099   4.894  69.322  1.00  0.00    -0.248 A  
HETATM   30  C   UNL     1     -11.019   5.866  68.916  1.00  0.00    -0.337 A  
HETATM   31  C   UNL     1     -11.624   6.700  69.857  1.00  0.00    -0.393 A  
HETATM   32  C   UNL     1     -11.310   6.571  71.208  1.00  0.00    -0.355 A  
HETATM   33  C   UNL     1     -10.397   5.603  71.623  1.00  0.00    -0.270 A  
HETATM   34  C   UNL     1      -9.791   4.767  70.685  1.00  0.00    -0.292 A  
ENDBRANCH  28  29
ENDBRANCH  27  28
ENDBRANCH  26  27
ENDBRANCH  25  26
ENDBRANCH  24  25
ENDBRANCH  23  24
ENDBRANCH  22  23
ENDBRANCH  21  22
ENDBRANCH  20  21
ENDBRANCH  19  20
ENDBRANCH  18  19
ENDBRANCH  16  18
ENDBRANCH  15  16
ENDBRANCH  12  15
ENDBRANCH  10  12
ENDBRANCH   2   4
TORSDOF 16
ENDMDL
MODEL      399
REMARK 921   NORMALIZED FREE ENERGY PREDICTED BY IDOCK:   -3.20 KCAL/MOL
REMARK 922        TOTAL FREE ENERGY PREDICTED BY IDOCK:   -8.55 KCAL/MOL
REMARK 923 INTER-LIGAND FREE ENERGY PREDICTED BY IDOCK:   -7.65 KCAL/MOL
REMARK 924 INTRA-LIGAND FREE ENERGY PREDICTED BY IDOCK:   -0.90 KCAL/MOL
REMARK 927      BINDING AFFINITY PREDICTED BY RF-SCORE:    0.00 PKD
ROOT
HETATM    1  O   UNL     1      -7.063  20.946  67.286  1.00  0.00    -0.341 OA 
HETATM    2  C   UNL     1      -7.372  19.643  67.784  1.00  0.00    -0.271 C  
HETATM    3  H   UNL     1      -6.302  21.297  67.735  1.00  0.00     0.000 HD 
ENDROOT
BRANCH   2   4
HETATM    4  C   UNL     1      -8.578  19.087  67.073  1.00  0.00    -0.308 A  
HETATM    5  C   UNL     1      -9.670  19.879  66.700  1.00  0.00    -0.424 A  
HETATM    6  O   UNL     1      -9.739  21.207  67.019  1.00  0.00    -0.632 OA 
HETATM    7  C   UNL     1     -10.753  19.344  66.012  1.00  0.00    -0.512 A  
HETATM    8  C   UNL     1     -10.774  17.987  65.702  1.00  0.00    -0.049 A  
HETATM    9  H   UNL     1     -10.480  21.744  66.766  1.00  0.00     0.000 HD 
HETATM   10  C   UNL     1      -9.701  17.155  66.061  1.00  0.00    -0.213 A  
HETATM   11  C   UNL     1      -8.600  17.724  66.725  1.00  0.00    -0.272 A  
BRANCH  10  12
HETATM   12  C   UNL     1      -9.723  15.665  65.773  1.00  0.00    -0.345 C  
HETATM   13  O   UNL     1      -8.672  15.007  66.497  1.00  0.00    -0.355 OA 
HETATM   14  H   UNL     1      -8.686  14.074  66.318  1.00  0.00     0.000 HD 
BRANCH  12  15
HETATM   15  C   UNL     1     -11.072  15.018  66.151  1.00  0.00    -0.329 C  
BRANCH  15  16
HETATM   16  N   UNL     1     -11.416  15.285  67.558  1.00  0.00    -0.309 NA 
HETATM   17  H   UNL     1     -12.323  15.742  67.649  1.00  0.00     0.000 HD 
BRANCH  16  18
HETATM   18  C   UNL     1     -11.345  14.050  68.333  1.00  0.00    -0.291 C  
BRANCH  18  19
HETATM   19  C   UNL     1     -11.773  12.868  67.473  1.00  0.00    -0.422 C  
BRANCH  19  20
HETATM   20  C   UNL     1     -11.568  11.560  68.234  1.00  0.00    -0.378 C  
BRANCH  20  21
HETATM   21  C   UNL     1     -10.163  11.492  68.816  1.00  0.00    -0.204 C  
BRANCH  21  22
HETATM   22  C   UNL     1      -9.694  10.050  68.970  1.00  0.00    -0.204 C  
BRANCH  22  23
HETATM   23  C   UNL     1     -10.514   9.130  68.079  1.00  0.00    -0.224 C  
BRANCH  23  24
HETATM   24  O   UNL     1      -9.624   8.250  67.403  1.00  0.00    -0.148 OA 
BRANCH  24  25
HETATM   25  C   UNL     1     -10.329   7.192  66.757  1.00  0.00    -0.227 C  
BRANCH  25  26
HETATM   26  C   UNL     1     -10.652   6.117  67.786  1.00  0.00    -0.338 C  
BRANCH  26  27
HETATM   27  C   UNL     1     -10.067   4.766  67.371  1.00  0.00    -0.177 C  
BRANCH  27  28
HETATM   28  C   UNL     1      -8.557   4.842  67.150  1.00  0.00    -0.104 C  
BRANCH  28  29
HETATM   29  C   UNL     1      -8.229   4.496  65.717  1.00  0.00    -0.110 A  
HETATM   30  C   UNL     1      -8.303   5.473  64.718  1.00  0.00    -0.136 A  
HETATM   31  C   UNL     1      -8.078   5.135  63.383  1.00  0.00    -0.107 A  
HETATM   32  C   UNL     1      -7.782   3.818  63.037  1.00  0.00    -0.062 A  
HETATM   33  C   UNL     1      -7.703   2.838  64.026  1.00  0.00    -0.076 A  
HETATM   34  C   UNL     1      -7.926   3.174  65.362  1.00  0.00    -0.086 A  
ENDBRANCH  28  29
ENDBRANCH  27  28
ENDBRANCH  26  27
ENDBRANCH  25  26
ENDBRANCH  24  25
ENDBRANCH  23  24
ENDBRANCH  22  23
ENDBRANCH  21  22
ENDBRANCH  20  21
ENDBRANCH  19  20
ENDBRANCH  18  19
ENDBRANCH  16  18
ENDBRANCH  15  16
ENDBRANCH  12  15
ENDBRANCH  10  12
ENDBRANCH   2   4
TORSDOF 16
ENDMDL
MODEL      400
REMARK 921   NORMALIZED FREE ENERGY PREDICTED BY IDOCK:   -3.20 KCAL/MOL
REMARK 922        TOTAL FREE ENERGY PREDICTED BY IDOCK:   -8.53 KCAL/MOL
REMARK 923 INTER-LIGAND FREE ENERGY PREDICTED BY IDOCK:   -5.71 KCAL/MOL
REMARK 924 INTRA-LIGAND FREE ENERGY PREDICTED BY IDOCK:   -2.82 KCAL/MOL
REMARK 927      BINDING AFFINITY PREDICTED BY RF-SCORE:    0.00 PKD
ROOT
HETATM    1  O   UNL     1     -12.455  12.634  65.832  1.00  0.00    -0.584 OA 
HETATM    2  C   UNL     1     -11.833  12.550  67.114  1.00  0.00    -0.316 C  
HETATM    3  H   UNL     1     -13.380  12.829  65.928  1.00  0.00     0.000 HD 
ENDROOT
BRANCH   2   4
HETATM    4  C   UNL     1     -10.367  12.240  66.962  1.00  0.00    -0.237 A  
HETATM    5  C   UNL     1      -9.398  12.693  67.866  1.00  0.00    -0.204 A  
HETATM    6  O   UNL     1      -9.719  13.506  68.917  1.00  0.00    -0.410 OA 
HETATM    7  C   UNL     1      -8.057  12.360  67.719  1.00  0.00    -0.162 A  
HETATM    8  C   UNL     1      -7.651  11.579  66.640  1.00  0.00    -0.088 A  
HETATM    9  H   UNL     1      -9.062  13.814  69.530  1.00  0.00     0.000 HD 
HETATM   10  C   UNL     1      -8.589  11.107  65.708  1.00  0.00    -0.113 A  
HETATM   11  C   UNL     1      -9.945  11.426  65.895  1.00  0.00    -0.274 A  
BRANCH  10  12
HETATM   12  C   UNL     1      -8.164  10.292  64.500  1.00  0.00    -0.158 C  
HETATM   13  O   UNL     1      -6.805  10.599  64.151  1.00  0.00    -0.349 OA 
HETATM   14  H   UNL     1      -6.538  10.089  63.395  1.00  0.00     0.000 HD 
BRANCH  12  15
HETATM   15  C   UNL     1      -8.286   8.774  64.748  1.00  0.00    -0.168 C  
BRANCH  15  16
HETATM   16  N   UNL     1      -7.696   8.396  66.043  1.00  0.00    -0.088 NA 
HETATM   17  H   UNL     1      -8.358   7.892  66.632  1.00  0.00     0.000 HD 
BRANCH  16  18
HETATM   18  C   UNL     1      -6.467   7.638  65.831  1.00  0.00    -0.042 C  
BRANCH  18  19
HETATM   19  C   UNL     1      -6.131   6.828  67.078  1.00  0.00    -0.032 C  
BRANCH  19  20
HETATM   20  C   UNL     1      -7.195   7.048  68.151  1.00  0.00    -0.091 C  
BRANCH  20  21
HETATM   21  C   UNL     1      -6.992   6.087  69.313  1.00  0.00    -0.064 C  
BRANCH  21  22
HETATM   22  C   UNL     1      -7.969   4.918  69.246  1.00  0.00    -0.075 C  
BRANCH  22  23
HETATM   23  C   UNL     1      -8.704   4.768  70.569  1.00  0.00    -0.103 C  
BRANCH  23  24
HETATM   24  O   UNL     1     -10.070   4.482  70.293  1.00  0.00    -0.230 OA 
BRANCH  24  25
HETATM   25  C   UNL     1     -10.645   5.464  69.434  1.00  0.00    -0.225 C  
BRANCH  25  26
HETATM   26  C   UNL     1     -11.290   6.547  70.290  1.00  0.00    -0.456 C  
BRANCH  26  27
HETATM   27  C   UNL     1     -10.444   7.821  70.292  1.00  0.00    -0.225 C  
BRANCH  27  28
HETATM   28  C   UNL     1      -9.794   8.073  71.651  1.00  0.00    -0.223 C  
BRANCH  28  29
HETATM   29  C   UNL     1      -8.396   8.612  71.461  1.00  0.00    -0.220 A  
HETATM   30  C   UNL     1      -7.359   8.207  72.308  1.00  0.00    -0.122 A  
HETATM   31  C   UNL     1      -6.088   8.767  72.182  1.00  0.00    -0.075 A  
HETATM   32  C   UNL     1      -5.845   9.736  71.211  1.00  0.00    -0.052 A  
HETATM   33  C   UNL     1      -6.871  10.144  70.360  1.00  0.00    -0.129 A  
HETATM   34  C   UNL     1      -8.143   9.585  70.483  1.00  0.00    -0.199 A  
ENDBRANCH  28  29
ENDBRANCH  27  28
ENDBRANCH  26  27
ENDBRANCH  25  26
ENDBRANCH  24  25
ENDBRANCH  23  24
ENDBRANCH  22  23
ENDBRANCH  21  22
ENDBRANCH  20  21
ENDBRANCH  19  20
ENDBRANCH  18  19
ENDBRANCH  16  18
ENDBRANCH  15  16
ENDBRANCH  12  15
ENDBRANCH  10  12
ENDBRANCH   2   4
TORSDOF 16
ENDMDL
MODEL      401
REMARK 921   NORMALIZED FREE ENERGY PREDICTED BY IDOCK:   -3.20 KCAL/MOL
REMARK 922        TOTAL FREE ENERGY PREDICTED BY IDOCK:   -8.53 KCAL/MOL
REMARK 923 INTER-LIGAND FREE ENERGY PREDICTED BY IDOCK:   -7.14 KCAL/MOL
REMARK 924 INTRA-LIGAND FREE ENERGY PREDICTED BY IDOCK:   -1.39 KCAL/MOL
REMARK 927      BINDING AFFINITY PREDICTED BY RF-SCORE:    0.00 PKD
ROOT
HETATM    1  O   UNL     1      -9.525   3.400  69.719  1.00  0.00    -0.167 OA 
HETATM    2  C   UNL     1      -8.209   3.905  69.949  1.00  0.00    -0.053 C  
HETATM    3  H   UNL     1      -9.486   2.607  69.196  1.00  0.00     0.000 HD 
ENDROOT
BRANCH   2   4
HETATM    4  C   UNL     1      -8.271   5.162  70.777  1.00  0.00    -0.105 A  
HETATM    5  C   UNL     1      -7.172   6.011  70.950  1.00  0.00    -0.074 A  
HETATM    6  O   UNL     1      -5.944   5.715  70.426  1.00  0.00    -0.023 OA 
HETATM    7  C   UNL     1      -7.270   7.184  71.689  1.00  0.00    -0.073 A  
HETATM    8  C   UNL     1      -8.477   7.521  72.296  1.00  0.00    -0.138 A  
HETATM    9  H   UNL     1      -5.197   6.291  70.544  1.00  0.00     0.000 HD 
HETATM   10  C   UNL     1      -9.604   6.695  72.152  1.00  0.00    -0.149 A  
HETATM   11  C   UNL     1      -9.492   5.532  71.370  1.00  0.00    -0.182 A  
BRANCH  10  12
HETATM   12  C   UNL     1     -10.916   7.019  72.841  1.00  0.00    -0.302 C  
HETATM   13  O   UNL     1     -10.710   7.157  74.256  1.00  0.00    -0.540 OA 
HETATM   14  H   UNL     1     -11.532   7.360  74.688  1.00  0.00     0.000 HD 
BRANCH  12  15
HETATM   15  C   UNL     1     -11.555   8.316  72.300  1.00  0.00    -0.383 C  
BRANCH  15  16
HETATM   16  N   UNL     1     -12.057   8.131  70.929  1.00  0.00    -0.473 NA 
HETATM   17  H   UNL     1     -13.027   8.431  70.834  1.00  0.00     0.000 HD 
BRANCH  16  18
HETATM   18  C   UNL     1     -11.181   8.809  69.979  1.00  0.00    -0.106 C  
BRANCH  18  19
HETATM   19  C   UNL     1     -10.633   7.809  68.969  1.00  0.00    -0.179 C  
BRANCH  19  20
HETATM   20  C   UNL     1     -10.045   8.543  67.765  1.00  0.00    -0.266 C  
BRANCH  20  21
HETATM   21  C   UNL     1      -8.924   9.475  68.200  1.00  0.00    -0.123 C  
BRANCH  21  22
HETATM   22  C   UNL     1      -9.282  10.934  67.945  1.00  0.00    -0.152 C  
BRANCH  22  23
HETATM   23  C   UNL     1      -8.832  11.353  66.554  1.00  0.00    -0.187 C  
BRANCH  23  24
HETATM   24  O   UNL     1      -9.945  11.258  65.674  1.00  0.00    -0.225 OA 
BRANCH  24  25
HETATM   25  C   UNL     1     -11.066  11.984  66.173  1.00  0.00    -0.322 C  
BRANCH  25  26
HETATM   26  C   UNL     1     -11.640  12.834  65.047  1.00  0.00    -0.372 C  
BRANCH  26  27
HETATM   27  C   UNL     1     -10.664  13.940  64.643  1.00  0.00    -0.422 C  
BRANCH  27  28
HETATM   28  C   UNL     1     -11.160  15.322  65.065  1.00  0.00    -0.436 C  
BRANCH  28  29
HETATM   29  C   UNL     1     -10.434  15.770  66.311  1.00  0.00    -0.315 A  
HETATM   30  C   UNL     1     -11.033  15.631  67.568  1.00  0.00    -0.309 A  
HETATM   31  C   UNL     1     -10.396  16.118  68.709  1.00  0.00    -0.248 A  
HETATM   32  C   UNL     1      -9.159  16.750  68.603  1.00  0.00    -0.254 A  
HETATM   33  C   UNL     1      -8.552  16.890  67.355  1.00  0.00    -0.214 A  
HETATM   34  C   UNL     1      -9.187  16.403  66.212  1.00  0.00    -0.350 A  
ENDBRANCH  28  29
ENDBRANCH  27  28
ENDBRANCH  26  27
ENDBRANCH  25  26
ENDBRANCH  24  25
ENDBRANCH  23  24
ENDBRANCH  22  23
ENDBRANCH  21  22
ENDBRANCH  20  21
ENDBRANCH  19  20
ENDBRANCH  18  19
ENDBRANCH  16  18
ENDBRANCH  15  16
ENDBRANCH  12  15
ENDBRANCH  10  12
ENDBRANCH   2   4
TORSDOF 16
ENDMDL
MODEL      402
REMARK 921   NORMALIZED FREE ENERGY PREDICTED BY IDOCK:   -3.19 KCAL/MOL
REMARK 922        TOTAL FREE ENERGY PREDICTED BY IDOCK:   -8.53 KCAL/MOL
REMARK 923 INTER-LIGAND FREE ENERGY PREDICTED BY IDOCK:   -7.09 KCAL/MOL
REMARK 924 INTRA-LIGAND FREE ENERGY PREDICTED BY IDOCK:   -1.43 KCAL/MOL
REMARK 927      BINDING AFFINITY PREDICTED BY RF-SCORE:    0.00 PKD
ROOT
HETATM    1  O   UNL     1      -6.060  13.134  66.992  1.00  0.00    -0.460 OA 
HETATM    2  C   UNL     1      -6.849  14.256  67.391  1.00  0.00    -0.015 C  
HETATM    3  H   UNL     1      -5.137  13.363  66.999  1.00  0.00     0.000 HD 
ENDROOT
BRANCH   2   4
HETATM    4  C   UNL     1      -8.311  13.893  67.381  1.00  0.00    -0.208 A  
HETATM    5  C   UNL     1      -9.271  14.633  66.680  1.00  0.00    -0.267 A  
HETATM    6  O   UNL     1      -8.948  15.779  66.009  1.00  0.00    -0.333 OA 
HETATM    7  C   UNL     1     -10.608  14.252  66.659  1.00  0.00    -0.278 A  
HETATM    8  C   UNL     1     -11.017  13.124  67.366  1.00  0.00    -0.283 A  
HETATM    9  H   UNL     1      -9.599  16.282  65.534  1.00  0.00     0.000 HD 
HETATM   10  C   UNL     1     -10.088  12.355  68.085  1.00  0.00    -0.224 A  
HETATM   11  C   UNL     1      -8.736  12.738  68.063  1.00  0.00    -0.194 A  
BRANCH  10  12
HETATM   12  C   UNL     1     -10.519  11.149  68.899  1.00  0.00    -0.207 C  
HETATM   13  O   UNL     1     -11.241  11.573  70.066  1.00  0.00    -0.469 OA 
HETATM   14  H   UNL     1     -11.511  10.818  70.576  1.00  0.00     0.000 HD 
BRANCH  12  15
HETATM   15  C   UNL     1     -11.407  10.184  68.085  1.00  0.00    -0.099 C  
BRANCH  15  16
HETATM   16  N   UNL     1     -10.592   9.296  67.239  1.00  0.00    -0.261 NA 
HETATM   17  H   UNL     1      -9.721   9.740  66.948  1.00  0.00     0.000 HD 
BRANCH  16  18
HETATM   18  C   UNL     1     -10.358   8.028  67.924  1.00  0.00    -0.222 C  
BRANCH  18  19
HETATM   19  C   UNL     1     -11.098   6.905  67.210  1.00  0.00    -0.355 C  
BRANCH  19  20
HETATM   20  C   UNL     1     -10.170   5.710  67.002  1.00  0.00    -0.265 C  
BRANCH  20  21
HETATM   21  C   UNL     1      -9.214   5.562  68.176  1.00  0.00    -0.116 C  
BRANCH  21  22
HETATM   22  C   UNL     1      -7.782   5.340  67.704  1.00  0.00    -0.092 C  
BRANCH  22  23
HETATM   23  C   UNL     1      -6.904   4.906  68.868  1.00  0.00    -0.051 C  
BRANCH  23  24
HETATM   24  O   UNL     1      -6.627   6.046  69.672  1.00  0.00    -0.040 OA 
BRANCH  24  25
HETATM   25  C   UNL     1      -7.297   5.972  70.928  1.00  0.00    -0.082 C  
BRANCH  25  26
HETATM   26  C   UNL     1      -7.701   7.379  71.351  1.00  0.00    -0.086 C  
BRANCH  26  27
HETATM   27  C   UNL     1      -7.650   7.530  72.873  1.00  0.00    -0.105 C  
BRANCH  27  28
HETATM   28  C   UNL     1      -8.875   8.263  73.415  1.00  0.00    -0.270 C  
BRANCH  28  29
HETATM   29  C   UNL     1     -10.119   7.778  72.709  1.00  0.00    -0.344 A  
HETATM   30  C   UNL     1     -10.894   8.663  71.951  1.00  0.00    -0.419 A  
HETATM   31  C   UNL     1     -12.085   8.232  71.367  1.00  0.00    -0.331 A  
HETATM   32  C   UNL     1     -12.511   6.916  71.538  1.00  0.00    -0.420 A  
HETATM   33  C   UNL     1     -11.744   6.027  72.288  1.00  0.00    -0.338 A  
HETATM   34  C   UNL     1     -10.552   6.455  72.873  1.00  0.00    -0.260 A  
ENDBRANCH  28  29
ENDBRANCH  27  28
ENDBRANCH  26  27
ENDBRANCH  25  26
ENDBRANCH  24  25
ENDBRANCH  23  24
ENDBRANCH  22  23
ENDBRANCH  21  22
ENDBRANCH  20  21
ENDBRANCH  19  20
ENDBRANCH  18  19
ENDBRANCH  16  18
ENDBRANCH  15  16
ENDBRANCH  12  15
ENDBRANCH  10  12
ENDBRANCH   2   4
TORSDOF 16
ENDMDL
MODEL      403
REMARK 921   NORMALIZED FREE ENERGY PREDICTED BY IDOCK:   -3.18 KCAL/MOL
REMARK 922        TOTAL FREE ENERGY PREDICTED BY IDOCK:   -8.50 KCAL/MOL
REMARK 923 INTER-LIGAND FREE ENERGY PREDICTED BY IDOCK:   -7.71 KCAL/MOL
REMARK 924 INTRA-LIGAND FREE ENERGY PREDICTED BY IDOCK:   -0.79 KCAL/MOL
REMARK 927      BINDING AFFINITY PREDICTED BY RF-SCORE:    0.00 PKD
ROOT
HETATM    1  O   UNL     1      -9.921   4.028  63.447  1.00  0.00    -0.164 OA 
HETATM    2  C   UNL     1      -9.774   2.783  64.131  1.00  0.00    -0.151 C  
HETATM    3  H   UNL     1     -10.313   3.889  62.593  1.00  0.00     0.000 HD 
ENDROOT
BRANCH   2   4
HETATM    4  C   UNL     1      -9.152   3.003  65.485  1.00  0.00    -0.150 A  
HETATM    5  C   UNL     1      -7.941   2.415  65.868  1.00  0.00    -0.082 A  
HETATM    6  O   UNL     1      -7.273   1.544  65.052  1.00  0.00    -0.046 OA 
HETATM    7  C   UNL     1      -7.373   2.666  67.112  1.00  0.00    -0.057 A  
HETATM    8  C   UNL     1      -8.027   3.501  68.015  1.00  0.00    -0.075 A  
HETATM    9  H   UNL     1      -6.452   1.145  65.312  1.00  0.00     0.000 HD 
HETATM   10  C   UNL     1      -9.246   4.108  67.673  1.00  0.00    -0.184 A  
HETATM   11  C   UNL     1      -9.784   3.869  66.397  1.00  0.00    -0.181 A  
BRANCH  10  12
HETATM   12  C   UNL     1      -9.997   4.985  68.658  1.00  0.00    -0.144 C  
HETATM   13  O   UNL     1     -10.153   4.300  69.910  1.00  0.00    -0.194 OA 
HETATM   14  H   UNL     1     -10.623   4.849  70.527  1.00  0.00     0.000 HD 
BRANCH  12  15
HETATM   15  C   UNL     1      -9.279   6.328  68.909  1.00  0.00    -0.123 C  
BRANCH  15  16
HETATM   16  N   UNL     1     -10.237   7.445  68.948  1.00  0.00    -0.191 NA 
HETATM   17  H   UNL     1     -11.174   7.154  68.670  1.00  0.00     0.000 HD 
BRANCH  16  18
HETATM   18  C   UNL     1     -10.226   8.069  70.267  1.00  0.00    -0.200 C  
BRANCH  18  19
HETATM   19  C   UNL     1     -11.553   7.819  70.973  1.00  0.00    -0.301 C  
BRANCH  19  20
HETATM   20  C   UNL     1     -11.967   9.054  71.770  1.00  0.00    -0.438 C  
BRANCH  20  21
HETATM   21  C   UNL     1     -12.785  10.002  70.906  1.00  0.00    -0.414 C  
BRANCH  21  22
HETATM   22  C   UNL     1     -12.005  11.269  70.578  1.00  0.00    -0.467 C  
BRANCH  22  23
HETATM   23  C   UNL     1     -12.046  11.543  69.082  1.00  0.00    -0.263 C  
BRANCH  23  24
HETATM   24  O   UNL     1     -10.813  12.140  68.701  1.00  0.00    -0.219 OA 
BRANCH  24  25
HETATM   25  C   UNL     1     -10.891  13.563  68.731  1.00  0.00    -0.253 C  
BRANCH  25  26
HETATM   26  C   UNL     1     -11.296  14.061  67.349  1.00  0.00    -0.350 C  
BRANCH  26  27
HETATM   27  C   UNL     1     -10.711  15.447  67.072  1.00  0.00    -0.321 C  
BRANCH  27  28
HETATM   28  C   UNL     1     -11.085  16.453  68.160  1.00  0.00    -0.320 C  
BRANCH  28  29
HETATM   29  C   UNL     1     -10.423  17.781  67.881  1.00  0.00    -0.401 A  
HETATM   30  C   UNL     1     -10.879  18.596  66.839  1.00  0.00    -0.248 A  
HETATM   31  C   UNL     1     -10.216  19.784  66.532  1.00  0.00    -0.606 A  
HETATM   32  C   UNL     1      -9.092  20.165  67.261  1.00  0.00    -0.480 A  
HETATM   33  C   UNL     1      -8.631  19.361  68.303  1.00  0.00    -0.376 A  
HETATM   34  C   UNL     1      -9.293  18.173  68.613  1.00  0.00    -0.309 A  
ENDBRANCH  28  29
ENDBRANCH  27  28
ENDBRANCH  26  27
ENDBRANCH  25  26
ENDBRANCH  24  25
ENDBRANCH  23  24
ENDBRANCH  22  23
ENDBRANCH  21  22
ENDBRANCH  20  21
ENDBRANCH  19  20
ENDBRANCH  18  19
ENDBRANCH  16  18
ENDBRANCH  15  16
ENDBRANCH  12  15
ENDBRANCH  10  12
ENDBRANCH   2   4
TORSDOF 16
ENDMDL
MODEL      404
REMARK 921   NORMALIZED FREE ENERGY PREDICTED BY IDOCK:   -3.18 KCAL/MOL
REMARK 922        TOTAL FREE ENERGY PREDICTED BY IDOCK:   -8.50 KCAL/MOL
REMARK 923 INTER-LIGAND FREE ENERGY PREDICTED BY IDOCK:   -6.52 KCAL/MOL
REMARK 924 INTRA-LIGAND FREE ENERGY PREDICTED BY IDOCK:   -1.98 KCAL/MOL
REMARK 927      BINDING AFFINITY PREDICTED BY RF-SCORE:    0.00 PKD
ROOT
HETATM    1  O   UNL     1      -9.467  14.611  69.539  1.00  0.00    -0.413 OA 
HETATM    2  C   UNL     1      -9.604  15.027  68.179  1.00  0.00    -0.207 C  
HETATM    3  H   UNL     1      -9.078  15.306  70.057  1.00  0.00     0.000 HD 
ENDROOT
BRANCH   2   4
HETATM    4  C   UNL     1     -10.220  13.925  67.357  1.00  0.00    -0.252 A  
HETATM    5  C   UNL     1     -11.603  13.766  67.217  1.00  0.00    -0.361 A  
HETATM    6  O   UNL     1     -12.491  14.570  67.877  1.00  0.00    -0.599 OA 
HETATM    7  C   UNL     1     -12.142  12.761  66.421  1.00  0.00    -0.370 A  
HETATM    8  C   UNL     1     -11.296  11.872  65.763  1.00  0.00    -0.354 A  
HETATM    9  H   UNL     1     -13.430  14.462  67.782  1.00  0.00     0.000 HD 
HETATM   10  C   UNL     1      -9.902  11.993  65.879  1.00  0.00    -0.259 A  
HETATM   11  C   UNL     1      -9.379  13.038  66.660  1.00  0.00    -0.242 A  
BRANCH  10  12
HETATM   12  C   UNL     1      -8.963  11.008  65.207  1.00  0.00    -0.163 C  
HETATM   13  O   UNL     1      -7.873  10.688  66.085  1.00  0.00    -0.142 OA 
HETATM   14  H   UNL     1      -7.285  10.071  65.665  1.00  0.00     0.000 HD 
BRANCH  12  15
HETATM   15  C   UNL     1      -9.680   9.702  64.803  1.00  0.00    -0.038 C  
BRANCH  15  16
HETATM   16  N   UNL     1      -9.307   8.591  65.694  1.00  0.00    -0.426 NA 
HETATM   17  H   UNL     1      -8.445   8.784  66.204  1.00  0.00     0.000 HD 
BRANCH  16  18
HETATM   18  C   UNL     1     -10.414   8.275  66.591  1.00  0.00    -0.147 C  
BRANCH  18  19
HETATM   19  C   UNL     1     -10.609   6.766  66.668  1.00  0.00    -0.208 C  
BRANCH  19  20
HETATM   20  C   UNL     1      -9.266   6.071  66.878  1.00  0.00    -0.131 C  
BRANCH  20  21
HETATM   21  C   UNL     1      -9.436   4.820  67.728  1.00  0.00    -0.180 C  
BRANCH  21  22
HETATM   22  C   UNL     1      -8.126   4.054  67.858  1.00  0.00    -0.089 C  
BRANCH  22  23
HETATM   23  C   UNL     1      -6.977   5.013  68.132  1.00  0.00    -0.061 C  
BRANCH  23  24
HETATM   24  O   UNL     1      -6.113   4.417  69.091  1.00  0.00    -0.025 OA 
BRANCH  24  25
HETATM   25  C   UNL     1      -6.312   4.973  70.388  1.00  0.00    -0.026 C  
BRANCH  25  26
HETATM   26  C   UNL     1      -6.396   6.489  70.265  1.00  0.00    -0.039 C  
BRANCH  26  27
HETATM   27  C   UNL     1      -7.179   7.092  71.432  1.00  0.00    -0.078 C  
BRANCH  27  28
HETATM   28  C   UNL     1      -8.100   6.067  72.092  1.00  0.00    -0.107 C  
BRANCH  28  29
HETATM   29  C   UNL     1      -9.543   6.423  71.822  1.00  0.00    -0.162 A  
HETATM   30  C   UNL     1     -10.575   5.735  72.469  1.00  0.00    -0.262 A  
HETATM   31  C   UNL     1     -11.907   6.009  72.158  1.00  0.00    -0.304 A  
HETATM   32  C   UNL     1     -12.216   6.970  71.198  1.00  0.00    -0.427 A  
HETATM   33  C   UNL     1     -11.195   7.664  70.551  1.00  0.00    -0.275 A  
HETATM   34  C   UNL     1      -9.862   7.391  70.860  1.00  0.00    -0.177 A  
ENDBRANCH  28  29
ENDBRANCH  27  28
ENDBRANCH  26  27
ENDBRANCH  25  26
ENDBRANCH  24  25
ENDBRANCH  23  24
ENDBRANCH  22  23
ENDBRANCH  21  22
ENDBRANCH  20  21
ENDBRANCH  19  20
ENDBRANCH  18  19
ENDBRANCH  16  18
ENDBRANCH  15  16
ENDBRANCH  12  15
ENDBRANCH  10  12
ENDBRANCH   2   4
TORSDOF 16
ENDMDL
MODEL      405
REMARK 921   NORMALIZED FREE ENERGY PREDICTED BY IDOCK:   -3.16 KCAL/MOL
REMARK 922        TOTAL FREE ENERGY PREDICTED BY IDOCK:   -8.46 KCAL/MOL
REMARK 923 INTER-LIGAND FREE ENERGY PREDICTED BY IDOCK:   -7.31 KCAL/MOL
REMARK 924 INTRA-LIGAND FREE ENERGY PREDICTED BY IDOCK:   -1.15 KCAL/MOL
REMARK 927      BINDING AFFINITY PREDICTED BY RF-SCORE:    0.00 PKD
ROOT
HETATM    1  O   UNL     1      -5.970   2.930  64.543  1.00  0.00    -0.017 OA 
HETATM    2  C   UNL     1      -6.390   4.254  64.875  1.00  0.00    -0.034 C  
HETATM    3  H   UNL     1      -5.026   2.903  64.431  1.00  0.00     0.000 HD 
ENDROOT
BRANCH   2   4
HETATM    4  C   UNL     1      -7.885   4.297  65.053  1.00  0.00    -0.089 A  
HETATM    5  C   UNL     1      -8.767   3.599  64.221  1.00  0.00    -0.101 A  
HETATM    6  O   UNL     1      -8.326   2.880  63.145  1.00  0.00    -0.083 OA 
HETATM    7  C   UNL     1     -10.141   3.628  64.432  1.00  0.00    -0.203 A  
HETATM    8  C   UNL     1     -10.664   4.383  65.478  1.00  0.00    -0.126 A  
HETATM    9  H   UNL     1      -8.925   2.406  62.579  1.00  0.00     0.000 HD 
HETATM   10  C   UNL     1      -9.815   5.102  66.335  1.00  0.00    -0.211 A  
HETATM   11  C   UNL     1      -8.427   5.030  66.124  1.00  0.00    -0.114 A  
BRANCH  10  12
HETATM   12  C   UNL     1     -10.366   5.968  67.452  1.00  0.00    -0.216 C  
HETATM   13  O   UNL     1     -11.643   6.507  67.075  1.00  0.00    -0.729 OA 
HETATM   14  H   UNL     1     -11.989   7.050  67.775  1.00  0.00     0.000 HD 
BRANCH  12  15
HETATM   15  C   UNL     1     -10.524   5.186  68.773  1.00  0.00    -0.043 C  
BRANCH  15  16
HETATM   16  N   UNL     1     -11.075   6.042  69.837  1.00  0.00    -0.391 NA 
HETATM   17  H   UNL     1     -11.885   5.616  70.288  1.00  0.00     0.000 HD 
BRANCH  16  18
HETATM   18  C   UNL     1     -10.030   6.381  70.798  1.00  0.00    -0.185 C  
BRANCH  18  19
HETATM   19  C   UNL     1     -10.225   7.807  71.299  1.00  0.00    -0.218 C  
BRANCH  19  20
HETATM   20  C   UNL     1     -10.075   8.796  70.146  1.00  0.00    -0.203 C  
BRANCH  20  21
HETATM   21  C   UNL     1     -11.391   9.509  69.874  1.00  0.00    -0.161 C  
BRANCH  21  22
HETATM   22  C   UNL     1     -11.485  10.820  70.647  1.00  0.00    -0.314 C  
BRANCH  22  23
HETATM   23  C   UNL     1     -12.712  10.817  71.545  1.00  0.00    -0.431 C  
BRANCH  23  24
HETATM   24  O   UNL     1     -12.942  12.146  71.995  1.00  0.00    -0.376 OA 
BRANCH  24  25
HETATM   25  C   UNL     1     -12.629  13.101  70.984  1.00  0.00    -0.312 C  
BRANCH  25  26
HETATM   26  C   UNL     1     -12.725  14.498  71.582  1.00  0.00    -0.414 C  
BRANCH  26  27
HETATM   27  C   UNL     1     -12.404  15.566  70.535  1.00  0.00    -0.461 C  
BRANCH  27  28
HETATM   28  C   UNL     1     -11.702  14.976  69.314  1.00  0.00    -0.349 C  
BRANCH  28  29
HETATM   29  C   UNL     1     -10.952  16.061  68.578  1.00  0.00    -0.326 A  
HETATM   30  C   UNL     1     -10.338  15.790  67.350  1.00  0.00    -0.282 A  
HETATM   31  C   UNL     1      -9.579  16.770  66.711  1.00  0.00    -0.261 A  
HETATM   32  C   UNL     1      -9.426  18.026  67.294  1.00  0.00    -0.260 A  
HETATM   33  C   UNL     1     -10.036  18.306  68.516  1.00  0.00    -0.419 A  
HETATM   34  C   UNL     1     -10.797  17.328  69.157  1.00  0.00     0.017 A  
ENDBRANCH  28  29
ENDBRANCH  27  28
ENDBRANCH  26  27
ENDBRANCH  25  26
ENDBRANCH  24  25
ENDBRANCH  23  24
ENDBRANCH  22  23
ENDBRANCH  21  22
ENDBRANCH  20  21
ENDBRANCH  19  20
ENDBRANCH  18  19
ENDBRANCH  16  18
ENDBRANCH  15  16
ENDBRANCH  12  15
ENDBRANCH  10  12
ENDBRANCH   2   4
TORSDOF 16
ENDMDL
MODEL      406
REMARK 921   NORMALIZED FREE ENERGY PREDICTED BY IDOCK:   -3.16 KCAL/MOL
REMARK 922        TOTAL FREE ENERGY PREDICTED BY IDOCK:   -8.46 KCAL/MOL
REMARK 923 INTER-LIGAND FREE ENERGY PREDICTED BY IDOCK:   -6.98 KCAL/MOL
REMARK 924 INTRA-LIGAND FREE ENERGY PREDICTED BY IDOCK:   -1.48 KCAL/MOL
REMARK 927      BINDING AFFINITY PREDICTED BY RF-SCORE:    0.00 PKD
ROOT
HETATM    1  O   UNL     1     -12.171  13.342  71.565  1.00  0.00    -0.254 OA 
HETATM    2  C   UNL     1     -12.337  13.584  70.167  1.00  0.00    -0.275 C  
HETATM    3  H   UNL     1     -12.794  12.688  71.861  1.00  0.00     0.000 HD 
ENDROOT
BRANCH   2   4
HETATM    4  C   UNL     1     -11.351  14.621  69.697  1.00  0.00    -0.317 A  
HETATM    5  C   UNL     1     -11.351  15.937  70.173  1.00  0.00    -0.365 A  
HETATM    6  O   UNL     1     -12.296  16.385  71.054  1.00  0.00    -0.395 OA 
HETATM    7  C   UNL     1     -10.404  16.863  69.749  1.00  0.00    -0.021 A  
HETATM    8  C   UNL     1      -9.444  16.490  68.812  1.00  0.00    -0.246 A  
HETATM    9  H   UNL     1     -12.297  17.278  71.377  1.00  0.00     0.000 HD 
HETATM   10  C   UNL     1      -9.410  15.181  68.305  1.00  0.00    -0.193 A  
HETATM   11  C   UNL     1     -10.354  14.252  68.775  1.00  0.00    -0.239 A  
BRANCH  10  12
HETATM   12  C   UNL     1      -8.401  14.766  67.250  1.00  0.00    -0.212 C  
HETATM   13  O   UNL     1      -7.675  15.914  66.783  1.00  0.00    -0.231 OA 
HETATM   14  H   UNL     1      -7.043  15.654  66.122  1.00  0.00     0.000 HD 
BRANCH  12  15
HETATM   15  C   UNL     1      -7.397  13.721  67.782  1.00  0.00    -0.164 C  
BRANCH  15  16
HETATM   16  N   UNL     1      -7.349  12.537  66.909  1.00  0.00    -0.380 NA 
HETATM   17  H   UNL     1      -6.444  12.439  66.449  1.00  0.00     0.000 HD 
BRANCH  16  18
HETATM   18  C   UNL     1      -7.710  11.342  67.665  1.00  0.00    -0.121 C  
BRANCH  18  19
HETATM   19  C   UNL     1      -8.113  10.224  66.713  1.00  0.00    -0.121 C  
BRANCH  19  20
HETATM   20  C   UNL     1      -9.523  10.469  66.178  1.00  0.00    -0.222 C  
BRANCH  20  21
HETATM   21  C   UNL     1     -10.327  11.316  67.153  1.00  0.00    -0.244 C  
BRANCH  21  22
HETATM   22  C   UNL     1     -11.340  10.472  67.918  1.00  0.00    -0.297 C  
BRANCH  22  23
HETATM   23  C   UNL     1     -11.272  10.784  69.405  1.00  0.00    -0.276 C  
BRANCH  23  24
HETATM   24  O   UNL     1     -10.731   9.654  70.077  1.00  0.00    -0.223 OA 
BRANCH  24  25
HETATM   25  C   UNL     1     -11.529   9.284  71.200  1.00  0.00    -0.333 C  
BRANCH  25  26
HETATM   26  C   UNL     1     -10.715   8.360  72.097  1.00  0.00    -0.407 C  
BRANCH  26  27
HETATM   27  C   UNL     1     -11.221   6.919  72.003  1.00  0.00    -0.292 C  
BRANCH  27  28
HETATM   28  C   UNL     1     -11.246   6.415  70.561  1.00  0.00    -0.414 C  
BRANCH  28  29
HETATM   29  C   UNL     1      -9.842   6.100  70.102  1.00  0.00    -0.209 A  
HETATM   30  C   UNL     1      -9.320   6.703  68.953  1.00  0.00    -0.128 A  
HETATM   31  C   UNL     1      -8.054   6.351  68.486  1.00  0.00    -0.110 A  
HETATM   32  C   UNL     1      -7.302   5.392  69.162  1.00  0.00    -0.066 A  
HETATM   33  C   UNL     1      -7.812   4.788  70.310  1.00  0.00    -0.058 A  
HETATM   34  C   UNL     1      -9.078   5.139  70.780  1.00  0.00    -0.171 A  
ENDBRANCH  28  29
ENDBRANCH  27  28
ENDBRANCH  26  27
ENDBRANCH  25  26
ENDBRANCH  24  25
ENDBRANCH  23  24
ENDBRANCH  22  23
ENDBRANCH  21  22
ENDBRANCH  20  21
ENDBRANCH  19  20
ENDBRANCH  18  19
ENDBRANCH  16  18
ENDBRANCH  15  16
ENDBRANCH  12  15
ENDBRANCH  10  12
ENDBRANCH   2   4
TORSDOF 16
ENDMDL
MODEL      407
REMARK 921   NORMALIZED FREE ENERGY PREDICTED BY IDOCK:   -3.16 KCAL/MOL
REMARK 922        TOTAL FREE ENERGY PREDICTED BY IDOCK:   -8.45 KCAL/MOL
REMARK 923 INTER-LIGAND FREE ENERGY PREDICTED BY IDOCK:   -7.61 KCAL/MOL
REMARK 924 INTRA-LIGAND FREE ENERGY PREDICTED BY IDOCK:   -0.85 KCAL/MOL
REMARK 927      BINDING AFFINITY PREDICTED BY RF-SCORE:    0.00 PKD
ROOT
HETATM    1  O   UNL     1     -12.395  16.170  71.822  1.00  0.00    -0.537 OA 
HETATM    2  C   UNL     1     -11.995  14.942  71.213  1.00  0.00    -0.340 C  
HETATM    3  H   UNL     1     -12.671  16.018  72.718  1.00  0.00     0.000 HD 
ENDROOT
BRANCH   2   4
HETATM    4  C   UNL     1     -11.558  15.183  69.792  1.00  0.00    -0.338 A  
HETATM    5  C   UNL     1     -10.967  16.381  69.373  1.00  0.00    -0.325 A  
HETATM    6  O   UNL     1     -10.808  17.441  70.223  1.00  0.00    -0.111 OA 
HETATM    7  C   UNL     1     -10.540  16.561  68.063  1.00  0.00    -0.328 A  
HETATM    8  C   UNL     1     -10.719  15.542  67.131  1.00  0.00    -0.315 A  
HETATM    9  H   UNL     1     -10.408  18.254  69.939  1.00  0.00     0.000 HD 
HETATM   10  C   UNL     1     -11.311  14.325  67.507  1.00  0.00    -0.346 A  
HETATM   11  C   UNL     1     -11.703  14.152  68.846  1.00  0.00    -0.369 A  
BRANCH  10  12
HETATM   12  C   UNL     1     -11.557  13.219  66.497  1.00  0.00    -0.350 C  
HETATM   13  O   UNL     1     -12.284  12.144  67.111  1.00  0.00    -0.507 OA 
HETATM   14  H   UNL     1     -12.439  11.451  66.479  1.00  0.00     0.000 HD 
BRANCH  12  15
HETATM   15  C   UNL     1     -12.345  13.717  65.267  1.00  0.00    -0.464 C  
BRANCH  15  16
HETATM   16  N   UNL     1     -13.178  12.645  64.698  1.00  0.00    -0.775 NA 
HETATM   17  H   UNL     1     -13.972  13.015  64.174  1.00  0.00     0.000 HD 
BRANCH  16  18
HETATM   18  C   UNL     1     -12.358  11.751  63.887  1.00  0.00    -0.288 C  
BRANCH  18  19
HETATM   19  C   UNL     1     -11.323  12.553  63.109  1.00  0.00    -0.165 C  
BRANCH  19  20
HETATM   20  C   UNL     1      -9.943  11.916  63.256  1.00  0.00    -0.409 C  
BRANCH  20  21
HETATM   21  C   UNL     1     -10.041  10.581  63.981  1.00  0.00    -0.321 C  
BRANCH  21  22
HETATM   22  C   UNL     1      -8.815   9.715  63.721  1.00  0.00    -0.257 C  
BRANCH  22  23
HETATM   23  C   UNL     1      -8.041   9.494  65.012  1.00  0.00    -0.125 C  
BRANCH  23  24
HETATM   24  O   UNL     1      -8.282   8.166  65.460  1.00  0.00    -0.127 OA 
BRANCH  24  25
HETATM   25  C   UNL     1      -8.980   8.155  66.703  1.00  0.00    -0.152 C  
BRANCH  25  26
HETATM   26  C   UNL     1      -8.096   7.497  67.755  1.00  0.00    -0.119 C  
BRANCH  26  27
HETATM   27  C   UNL     1      -8.914   6.574  68.660  1.00  0.00    -0.126 C  
BRANCH  27  28
HETATM   28  C   UNL     1      -8.058   5.947  69.759  1.00  0.00    -0.105 C  
BRANCH  28  29
HETATM   29  C   UNL     1      -7.702   4.528  69.386  1.00  0.00    -0.055 A  
HETATM   30  C   UNL     1      -8.142   3.982  68.175  1.00  0.00    -0.084 A  
HETATM   31  C   UNL     1      -7.880   2.646  67.869  1.00  0.00    -0.059 A  
HETATM   32  C   UNL     1      -7.180   1.847  68.770  1.00  0.00    -0.043 A  
HETATM   33  C   UNL     1      -6.734   2.383  69.978  1.00  0.00    -0.033 A  
HETATM   34  C   UNL     1      -6.994   3.718  70.286  1.00  0.00    -0.034 A  
ENDBRANCH  28  29
ENDBRANCH  27  28
ENDBRANCH  26  27
ENDBRANCH  25  26
ENDBRANCH  24  25
ENDBRANCH  23  24
ENDBRANCH  22  23
ENDBRANCH  21  22
ENDBRANCH  20  21
ENDBRANCH  19  20
ENDBRANCH  18  19
ENDBRANCH  16  18
ENDBRANCH  15  16
ENDBRANCH  12  15
ENDBRANCH  10  12
ENDBRANCH   2   4
TORSDOF 16
ENDMDL
MODEL      408
REMARK 921   NORMALIZED FREE ENERGY PREDICTED BY IDOCK:   -3.11 KCAL/MOL
REMARK 922        TOTAL FREE ENERGY PREDICTED BY IDOCK:   -8.37 KCAL/MOL
REMARK 923 INTER-LIGAND FREE ENERGY PREDICTED BY IDOCK:   -7.25 KCAL/MOL
REMARK 924 INTRA-LIGAND FREE ENERGY PREDICTED BY IDOCK:   -1.12 KCAL/MOL
REMARK 927      BINDING AFFINITY PREDICTED BY RF-SCORE:    0.00 PKD
ROOT
HETATM    1  O   UNL     1      -5.148  17.107  66.184  1.00  0.00    -0.335 OA 
HETATM    2  C   UNL     1      -5.991  18.260  66.198  1.00  0.00    -0.188 C  
HETATM    3  H   UNL     1      -4.303  17.323  65.805  1.00  0.00     0.000 HD 
ENDROOT
BRANCH   2   4
HETATM    4  C   UNL     1      -7.330  17.918  66.799  1.00  0.00    -0.234 A  
HETATM    5  C   UNL     1      -8.438  18.769  66.715  1.00  0.00    -0.287 A  
HETATM    6  O   UNL     1      -8.355  20.004  66.132  1.00  0.00    -0.439 OA 
HETATM    7  C   UNL     1      -9.671  18.410  67.246  1.00  0.00    -0.304 A  
HETATM    8  C   UNL     1      -9.813  17.189  67.901  1.00  0.00    -0.283 A  
HETATM    9  H   UNL     1      -9.107  20.582  66.076  1.00  0.00     0.000 HD 
HETATM   10  C   UNL     1      -8.727  16.307  68.012  1.00  0.00    -0.178 A  
HETATM   11  C   UNL     1      -7.498  16.675  67.435  1.00  0.00    -0.188 A  
BRANCH  10  12
HETATM   12  C   UNL     1      -8.847  14.992  68.759  1.00  0.00    -0.192 C  
HETATM   13  O   UNL     1      -9.170  15.235  70.137  1.00  0.00    -0.368 OA 
HETATM   14  H   UNL     1      -9.246  14.412  70.606  1.00  0.00     0.000 HD 
BRANCH  12  15
HETATM   15  C   UNL     1      -9.924  14.070  68.148  1.00  0.00    -0.242 C  
BRANCH  15  16
HETATM   16  N   UNL     1      -9.623  13.759  66.741  1.00  0.00    -0.270 NA 
HETATM   17  H   UNL     1      -8.965  12.984  66.654  1.00  0.00     0.000 HD 
BRANCH  16  18
HETATM   18  C   UNL     1     -10.859  13.510  66.007  1.00  0.00    -0.278 C  
BRANCH  18  19
HETATM   19  C   UNL     1     -10.582  12.617  64.805  1.00  0.00    -0.341 C  
BRANCH  19  20
HETATM   20  C   UNL     1     -10.381  11.173  65.256  1.00  0.00    -0.336 C  
BRANCH  20  21
HETATM   21  C   UNL     1      -9.294  10.498  64.432  1.00  0.00    -0.307 C  
BRANCH  21  22
HETATM   22  C   UNL     1      -8.325   9.723  65.316  1.00  0.00    -0.146 C  
BRANCH  22  23
HETATM   23  C   UNL     1      -8.987   9.363  66.637  1.00  0.00    -0.146 C  
BRANCH  23  24
HETATM   24  O   UNL     1      -9.065   7.946  66.729  1.00  0.00    -0.141 OA 
BRANCH  24  25
HETATM   25  C   UNL     1      -7.771   7.360  66.842  1.00  0.00    -0.110 C  
BRANCH  25  26
HETATM   26  C   UNL     1      -7.907   5.996  67.508  1.00  0.00    -0.098 C  
BRANCH  26  27
HETATM   27  C   UNL     1      -9.352   5.737  67.939  1.00  0.00    -0.107 C  
BRANCH  27  28
HETATM   28  C   UNL     1      -9.448   5.358  69.415  1.00  0.00    -0.181 C  
BRANCH  28  29
HETATM   29  C   UNL     1     -10.014   6.513  70.207  1.00  0.00    -0.198 A  
HETATM   30  C   UNL     1     -10.341   7.716  69.570  1.00  0.00    -0.217 A  
HETATM   31  C   UNL     1     -10.787   8.807  70.315  1.00  0.00    -0.252 A  
HETATM   32  C   UNL     1     -10.908   8.707  71.699  1.00  0.00    -0.374 A  
HETATM   33  C   UNL     1     -10.588   7.511  72.342  1.00  0.00    -0.299 A  
HETATM   34  C   UNL     1     -10.142   6.418  71.600  1.00  0.00    -0.209 A  
ENDBRANCH  28  29
ENDBRANCH  27  28
ENDBRANCH  26  27
ENDBRANCH  25  26
ENDBRANCH  24  25
ENDBRANCH  23  24
ENDBRANCH  22  23
ENDBRANCH  21  22
ENDBRANCH  20  21
ENDBRANCH  19  20
ENDBRANCH  18  19
ENDBRANCH  16  18
ENDBRANCH  15  16
ENDBRANCH  12  15
ENDBRANCH  10  12
ENDBRANCH   2   4
TORSDOF 16
ENDMDL
MODEL      409
REMARK 921   NORMALIZED FREE ENERGY PREDICTED BY IDOCK:   -3.10 KCAL/MOL
REMARK 922        TOTAL FREE ENERGY PREDICTED BY IDOCK:   -8.35 KCAL/MOL
REMARK 923 INTER-LIGAND FREE ENERGY PREDICTED BY IDOCK:   -5.08 KCAL/MOL
REMARK 924 INTRA-LIGAND FREE ENERGY PREDICTED BY IDOCK:   -3.27 KCAL/MOL
REMARK 927      BINDING AFFINITY PREDICTED BY RF-SCORE:    0.00 PKD
ROOT
HETATM    1  O   UNL     1      -5.398   6.408  64.930  1.00  0.00    -0.020 OA 
HETATM    2  C   UNL     1      -5.622   7.009  66.207  1.00  0.00    -0.026 C  
HETATM    3  H   UNL     1      -4.538   6.005  64.904  1.00  0.00     0.000 HD 
ENDROOT
BRANCH   2   4
HETATM    4  C   UNL     1      -6.985   7.649  66.248  1.00  0.00    -0.066 A  
HETATM    5  C   UNL     1      -8.171   6.918  66.110  1.00  0.00    -0.121 A  
HETATM    6  O   UNL     1      -8.163   5.573  65.862  1.00  0.00    -0.113 OA 
HETATM    7  C   UNL     1      -9.415   7.532  66.191  1.00  0.00    -0.095 A  
HETATM    8  C   UNL     1      -9.497   8.908  66.389  1.00  0.00    -0.283 A  
HETATM    9  H   UNL     1      -8.968   5.077  65.768  1.00  0.00     0.000 HD 
HETATM   10  C   UNL     1      -8.333   9.680  66.528  1.00  0.00    -0.120 A  
HETATM   11  C   UNL     1      -7.085   9.033  66.480  1.00  0.00    -0.081 A  
BRANCH  10  12
HETATM   12  C   UNL     1      -8.397  11.186  66.699  1.00  0.00    -0.160 C  
HETATM   13  O   UNL     1      -9.746  11.646  66.522  1.00  0.00    -0.197 OA 
HETATM   14  H   UNL     1      -9.787  12.589  66.629  1.00  0.00     0.000 HD 
BRANCH  12  15
HETATM   15  C   UNL     1      -7.892  11.638  68.086  1.00  0.00    -0.133 C  
BRANCH  15  16
HETATM   16  N   UNL     1      -7.884  10.517  69.041  1.00  0.00    -0.119 NA 
HETATM   17  H   UNL     1      -7.118  10.591  69.710  1.00  0.00     0.000 HD 
BRANCH  16  18
HETATM   18  C   UNL     1      -9.180  10.415  69.704  1.00  0.00    -0.056 C  
BRANCH  18  19
HETATM   19  C   UNL     1      -9.279   9.093  70.455  1.00  0.00    -0.286 C  
BRANCH  19  20
HETATM   20  C   UNL     1      -8.196   8.130  69.973  1.00  0.00    -0.120 C  
BRANCH  20  21
HETATM   21  C   UNL     1      -7.119   7.958  71.034  1.00  0.00    -0.049 C  
BRANCH  21  22
HETATM   22  C   UNL     1      -6.513   6.560  70.991  1.00  0.00    -0.049 C  
BRANCH  22  23
HETATM   23  C   UNL     1      -7.026   5.726  72.154  1.00  0.00    -0.082 C  
BRANCH  23  24
HETATM   24  O   UNL     1      -7.263   6.591  73.258  1.00  0.00    -0.081 OA 
BRANCH  24  25
HETATM   25  C   UNL     1      -8.472   6.255  73.933  1.00  0.00    -0.119 C  
BRANCH  25  26
HETATM   26  C   UNL     1      -9.360   7.491  73.994  1.00  0.00    -0.251 C  
BRANCH  26  27
HETATM   27  C   UNL     1     -10.708   7.232  73.318  1.00  0.00    -0.428 C  
BRANCH  27  28
HETATM   28  C   UNL     1     -10.878   5.765  72.927  1.00  0.00    -0.298 C  
BRANCH  28  29
HETATM   29  C   UNL     1     -10.735   5.612  71.431  1.00  0.00    -0.310 A  
HETATM   30  C   UNL     1     -11.443   6.449  70.562  1.00  0.00    -0.444 A  
HETATM   31  C   UNL     1     -11.372   6.254  69.183  1.00  0.00    -0.358 A  
HETATM   32  C   UNL     1     -10.596   5.220  68.662  1.00  0.00    -0.096 A  
HETATM   33  C   UNL     1      -9.883   4.383  69.520  1.00  0.00    -0.258 A  
HETATM   34  C   UNL     1      -9.952   4.577  70.900  1.00  0.00    -0.263 A  
ENDBRANCH  28  29
ENDBRANCH  27  28
ENDBRANCH  26  27
ENDBRANCH  25  26
ENDBRANCH  24  25
ENDBRANCH  23  24
ENDBRANCH  22  23
ENDBRANCH  21  22
ENDBRANCH  20  21
ENDBRANCH  19  20
ENDBRANCH  18  19
ENDBRANCH  16  18
ENDBRANCH  15  16
ENDBRANCH  12  15
ENDBRANCH  10  12
ENDBRANCH   2   4
TORSDOF 16
ENDMDL
MODEL      410
REMARK 921   NORMALIZED FREE ENERGY PREDICTED BY IDOCK:   -3.07 KCAL/MOL
REMARK 922        TOTAL FREE ENERGY PREDICTED BY IDOCK:   -8.29 KCAL/MOL
REMARK 923 INTER-LIGAND FREE ENERGY PREDICTED BY IDOCK:   -7.12 KCAL/MOL
REMARK 924 INTRA-LIGAND FREE ENERGY PREDICTED BY IDOCK:   -1.17 KCAL/MOL
REMARK 927      BINDING AFFINITY PREDICTED BY RF-SCORE:    0.00 PKD
ROOT
HETATM    1  O   UNL     1     -10.501  13.241  65.823  1.00  0.00    -0.275 OA 
HETATM    2  C   UNL     1     -11.055  14.420  65.237  1.00  0.00    -0.342 C  
HETATM    3  H   UNL     1     -10.796  12.470  65.352  1.00  0.00     0.000 HD 
ENDROOT
BRANCH   2   4
HETATM    4  C   UNL     1     -10.587  15.641  65.984  1.00  0.00    -0.336 A  
HETATM    5  C   UNL     1     -10.705  16.937  65.467  1.00  0.00    -0.163 A  
HETATM    6  O   UNL     1     -11.197  17.170  64.213  1.00  0.00    -1.141 OA 
HETATM    7  C   UNL     1     -10.298  18.049  66.196  1.00  0.00    -0.368 A  
HETATM    8  C   UNL     1      -9.738  17.881  67.460  1.00  0.00    -0.278 A  
HETATM    9  H   UNL     1     -11.276  18.049  63.862  1.00  0.00     0.000 HD 
HETATM   10  C   UNL     1      -9.598  16.598  68.015  1.00  0.00    -0.225 A  
HETATM   11  C   UNL     1     -10.049  15.491  67.275  1.00  0.00    -0.250 A  
BRANCH  10  12
HETATM   12  C   UNL     1      -8.949  16.389  69.370  1.00  0.00    -0.014 C  
HETATM   13  O   UNL     1      -9.585  15.301  70.059  1.00  0.00    -0.458 OA 
HETATM   14  H   UNL     1      -9.179  15.169  70.908  1.00  0.00     0.000 HD 
BRANCH  12  15
HETATM   15  C   UNL     1      -7.438  16.093  69.255  1.00  0.00    -0.222 C  
BRANCH  15  16
HETATM   16  N   UNL     1      -7.171  14.647  69.330  1.00  0.00    -0.190 NA 
HETATM   17  H   UNL     1      -8.010  14.094  69.152  1.00  0.00     0.000 HD 
BRANCH  16  18
HETATM   18  C   UNL     1      -6.081  14.291  68.428  1.00  0.00    -0.102 C  
BRANCH  18  19
HETATM   19  C   UNL     1      -6.267  12.868  67.919  1.00  0.00    -0.125 C  
BRANCH  19  20
HETATM   20  C   UNL     1      -7.725  12.635  67.527  1.00  0.00    -0.161 C  
BRANCH  20  21
HETATM   21  C   UNL     1      -8.356  11.571  68.412  1.00  0.00    -0.154 C  
BRANCH  21  22
HETATM   22  C   UNL     1      -7.977  10.168  67.952  1.00  0.00    -0.101 C  
BRANCH  22  23
HETATM   23  C   UNL     1      -7.525  10.192  66.500  1.00  0.00    -0.109 C  
BRANCH  23  24
HETATM   24  O   UNL     1      -6.442   9.282  66.352  1.00  0.00    -0.065 OA 
BRANCH  24  25
HETATM   25  C   UNL     1      -6.738   8.273  65.390  1.00  0.00    -0.052 C  
BRANCH  25  26
HETATM   26  C   UNL     1      -7.286   7.050  66.114  1.00  0.00    -0.075 C  
BRANCH  26  27
HETATM   27  C   UNL     1      -8.639   6.631  65.536  1.00  0.00    -0.101 C  
BRANCH  27  28
HETATM   28  C   UNL     1      -9.085   5.267  66.058  1.00  0.00    -0.154 C  
BRANCH  28  29
HETATM   29  C   UNL     1      -9.531   5.388  67.496  1.00  0.00    -0.129 A  
HETATM   30  C   UNL     1      -8.863   4.688  68.506  1.00  0.00    -0.123 A  
HETATM   31  C   UNL     1      -9.325   4.737  69.821  1.00  0.00    -0.208 A  
HETATM   32  C   UNL     1     -10.460   5.482  70.136  1.00  0.00    -0.370 A  
HETATM   33  C   UNL     1     -11.131   6.186  69.136  1.00  0.00    -0.448 A  
HETATM   34  C   UNL     1     -10.670   6.139  67.820  1.00  0.00    -0.382 A  
ENDBRANCH  28  29
ENDBRANCH  27  28
ENDBRANCH  26  27
ENDBRANCH  25  26
ENDBRANCH  24  25
ENDBRANCH  23  24
ENDBRANCH  22  23
ENDBRANCH  21  22
ENDBRANCH  20  21
ENDBRANCH  19  20
ENDBRANCH  18  19
ENDBRANCH  16  18
ENDBRANCH  15  16
ENDBRANCH  12  15
ENDBRANCH  10  12
ENDBRANCH   2   4
TORSDOF 16
ENDMDL
MODEL      411
REMARK 921   NORMALIZED FREE ENERGY PREDICTED BY IDOCK:   -3.07 KCAL/MOL
REMARK 922        TOTAL FREE ENERGY PREDICTED BY IDOCK:   -8.28 KCAL/MOL
REMARK 923 INTER-LIGAND FREE ENERGY PREDICTED BY IDOCK:   -7.27 KCAL/MOL
REMARK 924 INTRA-LIGAND FREE ENERGY PREDICTED BY IDOCK:   -1.01 KCAL/MOL
REMARK 927      BINDING AFFINITY PREDICTED BY RF-SCORE:    0.00 PKD
ROOT
HETATM    1  O   UNL     1      -7.086  20.954  67.275  1.00  0.00    -0.341 OA 
HETATM    2  C   UNL     1      -7.413  19.652  67.764  1.00  0.00    -0.278 C  
HETATM    3  H   UNL     1      -6.336  21.301  67.743  1.00  0.00     0.000 HD 
ENDROOT
BRANCH   2   4
HETATM    4  C   UNL     1      -8.603  19.102  67.023  1.00  0.00    -0.309 A  
HETATM    5  C   UNL     1      -9.671  19.903  66.601  1.00  0.00    -0.424 A  
HETATM    6  O   UNL     1      -9.730  21.237  66.895  1.00  0.00    -0.491 OA 
HETATM    7  C   UNL     1     -10.738  19.372  65.885  1.00  0.00    -0.501 A  
HETATM    8  C   UNL     1     -10.769  18.010  65.597  1.00  0.00    -0.049 A  
HETATM    9  H   UNL     1     -10.455  21.780  66.609  1.00  0.00     0.000 HD 
HETATM   10  C   UNL     1      -9.721  17.169  66.005  1.00  0.00    -0.213 A  
HETATM   11  C   UNL     1      -8.634  17.734  66.696  1.00  0.00    -0.280 A  
BRANCH  10  12
HETATM   12  C   UNL     1      -9.755  15.675  65.742  1.00  0.00    -0.345 C  
HETATM   13  O   UNL     1      -8.768  15.009  66.545  1.00  0.00    -0.355 OA 
HETATM   14  H   UNL     1      -8.790  14.073  66.380  1.00  0.00     0.000 HD 
BRANCH  12  15
HETATM   15  C   UNL     1     -11.140  15.062  66.040  1.00  0.00    -0.329 C  
BRANCH  15  16
HETATM   16  N   UNL     1     -11.556  15.334  67.426  1.00  0.00    -0.255 NA 
HETATM   17  H   UNL     1     -12.460  15.803  67.468  1.00  0.00     0.000 HD 
BRANCH  16  18
HETATM   18  C   UNL     1     -11.543  14.099  68.204  1.00  0.00    -0.331 C  
BRANCH  18  19
HETATM   19  C   UNL     1     -11.919  12.919  67.317  1.00  0.00    -0.371 C  
BRANCH  19  20
HETATM   20  C   UNL     1     -11.784  11.612  68.094  1.00  0.00    -0.365 C  
BRANCH  20  21
HETATM   21  C   UNL     1     -10.434  11.539  68.793  1.00  0.00    -0.227 C  
BRANCH  21  22
HETATM   22  C   UNL     1      -9.978  10.096  68.972  1.00  0.00    -0.216 C  
BRANCH  22  23
HETATM   23  C   UNL     1     -10.693   9.188  67.983  1.00  0.00    -0.147 C  
BRANCH  23  24
HETATM   24  O   UNL     1      -9.732   8.319  67.395  1.00  0.00    -0.155 OA 
BRANCH  24  25
HETATM   25  C   UNL     1     -10.359   7.276  66.653  1.00  0.00    -0.158 C  
BRANCH  25  26
HETATM   26  C   UNL     1     -10.803   6.185  67.618  1.00  0.00    -0.421 C  
BRANCH  26  27
HETATM   27  C   UNL     1     -10.162   4.843  67.261  1.00  0.00    -0.190 C  
BRANCH  27  28
HETATM   28  C   UNL     1      -8.637   4.925  67.240  1.00  0.00    -0.104 C  
BRANCH  28  29
HETATM   29  C   UNL     1      -8.068   4.234  68.457  1.00  0.00    -0.077 A  
HETATM   30  C   UNL     1      -8.910   3.820  69.495  1.00  0.00    -0.149 A  
HETATM   31  C   UNL     1      -8.375   3.255  70.653  1.00  0.00    -0.084 A  
HETATM   32  C   UNL     1      -6.996   3.102  70.782  1.00  0.00    -0.033 A  
HETATM   33  C   UNL     1      -6.150   3.507  69.751  1.00  0.00    -0.024 A  
HETATM   34  C   UNL     1      -6.682   4.072  68.592  1.00  0.00    -0.046 A  
ENDBRANCH  28  29
ENDBRANCH  27  28
ENDBRANCH  26  27
ENDBRANCH  25  26
ENDBRANCH  24  25
ENDBRANCH  23  24
ENDBRANCH  22  23
ENDBRANCH  21  22
ENDBRANCH  20  21
ENDBRANCH  19  20
ENDBRANCH  18  19
ENDBRANCH  16  18
ENDBRANCH  15  16
ENDBRANCH  12  15
ENDBRANCH  10  12
ENDBRANCH   2   4
TORSDOF 16
ENDMDL
MODEL      412
REMARK 921   NORMALIZED FREE ENERGY PREDICTED BY IDOCK:   -3.06 KCAL/MOL
REMARK 922        TOTAL FREE ENERGY PREDICTED BY IDOCK:   -8.27 KCAL/MOL
REMARK 923 INTER-LIGAND FREE ENERGY PREDICTED BY IDOCK:   -6.76 KCAL/MOL
REMARK 924 INTRA-LIGAND FREE ENERGY PREDICTED BY IDOCK:   -1.51 KCAL/MOL
REMARK 927      BINDING AFFINITY PREDICTED BY RF-SCORE:    0.00 PKD
ROOT
HETATM    1  O   UNL     1      -7.121   5.728  62.330  1.00  0.00    -0.041 OA 
HETATM    2  C   UNL     1      -7.942   4.561  62.389  1.00  0.00    -0.067 C  
HETATM    3  H   UNL     1      -6.561   5.696  61.563  1.00  0.00     0.000 HD 
ENDROOT
BRANCH   2   4
HETATM    4  C   UNL     1      -8.829   4.609  63.605  1.00  0.00    -0.129 A  
HETATM    5  C   UNL     1     -10.089   4.000  63.650  1.00  0.00    -0.132 A  
HETATM    6  O   UNL     1     -10.624   3.371  62.559  1.00  0.00    -0.159 OA 
HETATM    7  C   UNL     1     -10.870   4.030  64.799  1.00  0.00    -0.093 A  
HETATM    8  C   UNL     1     -10.410   4.699  65.931  1.00  0.00    -0.315 A  
HETATM    9  H   UNL     1     -11.478   2.958  62.589  1.00  0.00     0.000 HD 
HETATM   10  C   UNL     1      -9.155   5.328  65.928  1.00  0.00    -0.159 A  
HETATM   11  C   UNL     1      -8.366   5.254  64.767  1.00  0.00    -0.145 A  
BRANCH  10  12
HETATM   12  C   UNL     1      -8.654   6.101  67.134  1.00  0.00    -0.103 C  
HETATM   13  O   UNL     1      -8.774   5.299  68.320  1.00  0.00    -0.102 OA 
HETATM   14  H   UNL     1      -8.460   5.783  69.075  1.00  0.00     0.000 HD 
BRANCH  12  15
HETATM   15  C   UNL     1      -7.183   6.541  66.975  1.00  0.00    -0.078 C  
BRANCH  15  16
HETATM   16  N   UNL     1      -7.076   8.004  66.843  1.00  0.00    -0.080 NA 
HETATM   17  H   UNL     1      -7.757   8.378  66.182  1.00  0.00     0.000 HD 
BRANCH  16  18
HETATM   18  C   UNL     1      -7.183   8.634  68.155  1.00  0.00    -0.087 C  
BRANCH  18  19
HETATM   19  C   UNL     1      -8.171   9.793  68.098  1.00  0.00    -0.109 C  
BRANCH  19  20
HETATM   20  C   UNL     1      -8.038  10.534  66.769  1.00  0.00    -0.123 C  
BRANCH  20  21
HETATM   21  C   UNL     1      -8.089  12.040  66.986  1.00  0.00    -0.158 C  
BRANCH  21  22
HETATM   22  C   UNL     1      -8.837  12.393  68.266  1.00  0.00    -0.174 C  
BRANCH  22  23
HETATM   23  C   UNL     1      -9.885  13.460  67.988  1.00  0.00    -0.229 C  
BRANCH  23  24
HETATM   24  O   UNL     1     -11.087  13.092  68.653  1.00  0.00    -0.245 OA 
BRANCH  24  25
HETATM   25  C   UNL     1     -11.645  11.902  68.101  1.00  0.00    -0.334 C  
BRANCH  25  26
HETATM   26  C   UNL     1     -12.280  11.091  69.223  1.00  0.00    -0.280 C  
BRANCH  26  27
HETATM   27  C   UNL     1     -11.975  11.711  70.588  1.00  0.00    -0.356 C  
BRANCH  27  28
HETATM   28  C   UNL     1     -12.830  11.101  71.696  1.00  0.00    -0.524 C  
BRANCH  28  29
HETATM   29  C   UNL     1     -12.725   9.594  71.657  1.00  0.00    -0.499 A  
HETATM   30  C   UNL     1     -13.879   8.805  71.610  1.00  0.00    -0.443 A  
HETATM   31  C   UNL     1     -13.782   7.414  71.655  1.00  0.00    -0.468 A  
HETATM   32  C   UNL     1     -12.534   6.803  71.750  1.00  0.00    -0.394 A  
HETATM   33  C   UNL     1     -11.378   7.581  71.795  1.00  0.00    -0.289 A  
HETATM   34  C   UNL     1     -11.472   8.973  71.749  1.00  0.00    -0.442 A  
ENDBRANCH  28  29
ENDBRANCH  27  28
ENDBRANCH  26  27
ENDBRANCH  25  26
ENDBRANCH  24  25
ENDBRANCH  23  24
ENDBRANCH  22  23
ENDBRANCH  21  22
ENDBRANCH  20  21
ENDBRANCH  19  20
ENDBRANCH  18  19
ENDBRANCH  16  18
ENDBRANCH  15  16
ENDBRANCH  12  15
ENDBRANCH  10  12
ENDBRANCH   2   4
TORSDOF 16
ENDMDL
MODEL      413
REMARK 921   NORMALIZED FREE ENERGY PREDICTED BY IDOCK:   -3.06 KCAL/MOL
REMARK 922        TOTAL FREE ENERGY PREDICTED BY IDOCK:   -8.26 KCAL/MOL
REMARK 923 INTER-LIGAND FREE ENERGY PREDICTED BY IDOCK:   -6.72 KCAL/MOL
REMARK 924 INTRA-LIGAND FREE ENERGY PREDICTED BY IDOCK:   -1.54 KCAL/MOL
REMARK 927      BINDING AFFINITY PREDICTED BY RF-SCORE:    0.00 PKD
ROOT
HETATM    1  O   UNL     1     -11.624  10.303  71.472  1.00  0.00    -0.273 OA 
HETATM    2  C   UNL     1     -11.487   9.934  70.100  1.00  0.00    -0.248 C  
HETATM    3  H   UNL     1     -12.499  10.638  71.636  1.00  0.00     0.000 HD 
ENDROOT
BRANCH   2   4
HETATM    4  C   UNL     1     -10.101   9.403  69.840  1.00  0.00    -0.243 A  
HETATM    5  C   UNL     1      -9.549   8.339  70.563  1.00  0.00    -0.167 A  
HETATM    6  O   UNL     1     -10.216   7.752  71.603  1.00  0.00    -0.183 OA 
HETATM    7  C   UNL     1      -8.282   7.846  70.275  1.00  0.00    -0.124 A  
HETATM    8  C   UNL     1      -7.525   8.431  69.263  1.00  0.00    -0.084 A  
HETATM    9  H   UNL     1      -9.841   7.030  72.094  1.00  0.00     0.000 HD 
HETATM   10  C   UNL     1      -8.038   9.503  68.516  1.00  0.00    -0.101 A  
HETATM   11  C   UNL     1      -9.337   9.962  68.800  1.00  0.00    -0.157 A  
BRANCH  10  12
HETATM   12  C   UNL     1      -7.214  10.185  67.440  1.00  0.00    -0.088 C  
HETATM   13  O   UNL     1      -6.699   9.210  66.520  1.00  0.00    -0.073 OA 
HETATM   14  H   UNL     1      -6.183   9.637  65.845  1.00  0.00     0.000 HD 
BRANCH  12  15
HETATM   15  C   UNL     1      -8.032  11.232  66.654  1.00  0.00    -0.159 C  
BRANCH  15  16
HETATM   16  N   UNL     1      -8.178  12.480  67.422  1.00  0.00    -0.174 NA 
HETATM   17  H   UNL     1      -8.655  12.328  68.311  1.00  0.00     0.000 HD 
BRANCH  16  18
HETATM   18  C   UNL     1      -6.876  13.113  67.601  1.00  0.00    -0.158 C  
BRANCH  18  19
HETATM   19  C   UNL     1      -7.021  14.377  68.439  1.00  0.00    -0.109 C  
BRANCH  19  20
HETATM   20  C   UNL     1      -5.868  15.336  68.149  1.00  0.00    -0.137 C  
BRANCH  20  21
HETATM   21  C   UNL     1      -5.323  15.927  69.442  1.00  0.00    -0.113 C  
BRANCH  21  22
HETATM   22  C   UNL     1      -5.451  17.445  69.457  1.00  0.00    -0.193 C  
BRANCH  22  23
HETATM   23  C   UNL     1      -6.897  17.856  69.227  1.00  0.00    -0.183 C  
BRANCH  23  24
HETATM   24  O   UNL     1      -6.987  18.493  67.959  1.00  0.00    -0.220 OA 
BRANCH  24  25
HETATM   25  C   UNL     1      -8.335  18.549  67.498  1.00  0.00    -0.257 C  
BRANCH  25  26
HETATM   26  C   UNL     1      -8.453  17.720  66.225  1.00  0.00    -0.225 C  
BRANCH  26  27
HETATM   27  C   UNL     1      -8.841  16.275  66.545  1.00  0.00    -0.318 C  
BRANCH  27  28
HETATM   28  C   UNL     1     -10.330  16.140  66.860  1.00  0.00    -0.297 C  
BRANCH  28  29
HETATM   29  C   UNL     1     -10.875  14.878  66.234  1.00  0.00    -0.331 A  
HETATM   30  C   UNL     1     -11.568  13.944  67.012  1.00  0.00    -0.394 A  
HETATM   31  C   UNL     1     -12.001  12.743  66.451  1.00  0.00    -0.443 A  
HETATM   32  C   UNL     1     -11.741  12.465  65.110  1.00  0.00    -0.430 A  
HETATM   33  C   UNL     1     -11.054  13.391  64.326  1.00  0.00    -0.396 A  
HETATM   34  C   UNL     1     -10.621  14.593  64.885  1.00  0.00    -0.446 A  
ENDBRANCH  28  29
ENDBRANCH  27  28
ENDBRANCH  26  27
ENDBRANCH  25  26
ENDBRANCH  24  25
ENDBRANCH  23  24
ENDBRANCH  22  23
ENDBRANCH  21  22
ENDBRANCH  20  21
ENDBRANCH  19  20
ENDBRANCH  18  19
ENDBRANCH  16  18
ENDBRANCH  15  16
ENDBRANCH  12  15
ENDBRANCH  10  12
ENDBRANCH   2   4
TORSDOF 16
ENDMDL
MODEL      414
REMARK 921   NORMALIZED FREE ENERGY PREDICTED BY IDOCK:   -3.04 KCAL/MOL
REMARK 922        TOTAL FREE ENERGY PREDICTED BY IDOCK:   -8.24 KCAL/MOL
REMARK 923 INTER-LIGAND FREE ENERGY PREDICTED BY IDOCK:   -7.54 KCAL/MOL
REMARK 924 INTRA-LIGAND FREE ENERGY PREDICTED BY IDOCK:   -0.70 KCAL/MOL
REMARK 927      BINDING AFFINITY PREDICTED BY RF-SCORE:    0.00 PKD
ROOT
HETATM    1  O   UNL     1      -7.974   6.575  73.392  1.00  0.00    -0.099 OA 
HETATM    2  C   UNL     1      -9.360   6.826  73.155  1.00  0.00    -0.133 C  
HETATM    3  H   UNL     1      -7.730   6.874  74.261  1.00  0.00     0.000 HD 
ENDROOT
BRANCH   2   4
HETATM    4  C   UNL     1      -9.746   6.354  71.778  1.00  0.00    -0.172 A  
HETATM    5  C   UNL     1      -9.702   5.007  71.398  1.00  0.00    -0.171 A  
HETATM    6  O   UNL     1      -9.240   4.036  72.241  1.00  0.00    -0.115 OA 
HETATM    7  C   UNL     1     -10.101   4.597  70.131  1.00  0.00    -0.283 A  
HETATM    8  C   UNL     1     -10.532   5.541  69.202  1.00  0.00    -0.315 A  
HETATM    9  H   UNL     1      -9.209   3.122  71.984  1.00  0.00     0.000 HD 
HETATM   10  C   UNL     1     -10.588   6.902  69.540  1.00  0.00    -0.261 A  
HETATM   11  C   UNL     1     -10.215   7.291  70.839  1.00  0.00    -0.203 A  
BRANCH  10  12
HETATM   12  C   UNL     1     -11.012   7.952  68.530  1.00  0.00     0.207 C  
HETATM   13  O   UNL     1     -10.999   9.254  69.135  1.00  0.00    -0.380 OA 
HETATM   14  H   UNL     1     -11.264   9.912  68.503  1.00  0.00     0.000 HD 
BRANCH  12  15
HETATM   15  C   UNL     1     -10.096   7.969  67.287  1.00  0.00    -0.240 C  
BRANCH  15  16
HETATM   16  N   UNL     1      -8.714   8.325  67.649  1.00  0.00    -0.133 NA 
HETATM   17  H   UNL     1      -8.051   8.071  66.917  1.00  0.00     0.000 HD 
BRANCH  16  18
HETATM   18  C   UNL     1      -8.634   9.742  67.990  1.00  0.00    -0.122 C  
BRANCH  18  19
HETATM   19  C   UNL     1      -7.723  10.465  67.007  1.00  0.00    -0.105 C  
BRANCH  19  20
HETATM   20  C   UNL     1      -7.214  11.768  67.621  1.00  0.00    -0.111 C  
BRANCH  20  21
HETATM   21  C   UNL     1      -8.346  12.514  68.312  1.00  0.00    -0.167 C  
BRANCH  21  22
HETATM   22  C   UNL     1      -9.400  12.976  67.313  1.00  0.00    -0.220 C  
BRANCH  22  23
HETATM   23  C   UNL     1      -9.015  14.323  66.722  1.00  0.00    -0.227 C  
BRANCH  23  24
HETATM   24  O   UNL     1      -8.345  15.078  67.724  1.00  0.00    -0.138 OA 
BRANCH  24  25
HETATM   25  C   UNL     1      -9.107  16.218  68.114  1.00  0.00    -0.188 C  
BRANCH  25  26
HETATM   26  C   UNL     1     -10.483  16.133  67.466  1.00  0.00    -0.302 C  
BRANCH  26  27
HETATM   27  C   UNL     1     -11.586  16.092  68.525  1.00  0.00    -0.265 C  
BRANCH  27  28
HETATM   28  C   UNL     1     -11.025  16.229  69.939  1.00  0.00    -0.365 C  
BRANCH  28  29
HETATM   29  C   UNL     1     -11.797  15.342  70.887  1.00  0.00    -0.387 A  
HETATM   30  C   UNL     1     -12.106  14.025  70.530  1.00  0.00    -0.424 A  
HETATM   31  C   UNL     1     -12.888  13.233  71.371  1.00  0.00    -0.411 A  
HETATM   32  C   UNL     1     -13.368  13.751  72.572  1.00  0.00    -0.656 A  
HETATM   33  C   UNL     1     -13.062  15.061  72.938  1.00  0.00    -0.576 A  
HETATM   34  C   UNL     1     -12.280  15.856  72.099  1.00  0.00    -0.578 A  
ENDBRANCH  28  29
ENDBRANCH  27  28
ENDBRANCH  26  27
ENDBRANCH  25  26
ENDBRANCH  24  25
ENDBRANCH  23  24
ENDBRANCH  22  23
ENDBRANCH  21  22
ENDBRANCH  20  21
ENDBRANCH  19  20
ENDBRANCH  18  19
ENDBRANCH  16  18
ENDBRANCH  15  16
ENDBRANCH  12  15
ENDBRANCH  10  12
ENDBRANCH   2   4
TORSDOF 16
ENDMDL
MODEL      415
REMARK 921   NORMALIZED FREE ENERGY PREDICTED BY IDOCK:   -3.01 KCAL/MOL
REMARK 922        TOTAL FREE ENERGY PREDICTED BY IDOCK:   -8.18 KCAL/MOL
REMARK 923 INTER-LIGAND FREE ENERGY PREDICTED BY IDOCK:   -7.09 KCAL/MOL
REMARK 924 INTRA-LIGAND FREE ENERGY PREDICTED BY IDOCK:   -1.09 KCAL/MOL
REMARK 927      BINDING AFFINITY PREDICTED BY RF-SCORE:    0.00 PKD
ROOT
HETATM    1  O   UNL     1      -5.301  17.289  65.885  1.00  0.00    -0.311 OA 
HETATM    2  C   UNL     1      -6.161  18.428  65.857  1.00  0.00    -0.212 C  
HETATM    3  H   UNL     1      -4.419  17.537  65.632  1.00  0.00     0.000 HD 
ENDROOT
BRANCH   2   4
HETATM    4  C   UNL     1      -7.559  18.035  66.258  1.00  0.00    -0.306 A  
HETATM    5  C   UNL     1      -8.639  18.924  66.212  1.00  0.00    -0.257 A  
HETATM    6  O   UNL     1      -8.478  20.235  65.859  1.00  0.00    -0.557 OA 
HETATM    7  C   UNL     1      -9.925  18.522  66.552  1.00  0.00    -0.401 A  
HETATM    8  C   UNL     1     -10.153  17.214  66.972  1.00  0.00    -0.297 A  
HETATM    9  H   UNL     1      -9.211  20.839  65.828  1.00  0.00     0.000 HD 
HETATM   10  C   UNL     1      -9.097  16.290  67.037  1.00  0.00    -0.226 A  
HETATM   11  C   UNL     1      -7.811  16.709  66.654  1.00  0.00    -0.316 A  
BRANCH  10  12
HETATM   12  C   UNL     1      -9.314  14.874  67.535  1.00  0.00    -0.193 C  
HETATM   13  O   UNL     1      -9.646  14.887  68.932  1.00  0.00    -0.208 OA 
HETATM   14  H   UNL     1      -9.782  13.999  69.245  1.00  0.00     0.000 HD 
BRANCH  12  15
HETATM   15  C   UNL     1     -10.435  14.148  66.761  1.00  0.00    -0.277 C  
BRANCH  15  16
HETATM   16  N   UNL     1     -10.020  13.847  65.381  1.00  0.00    -0.514 NA 
HETATM   17  H   UNL     1      -9.399  13.039  65.336  1.00  0.00     0.000 HD 
BRANCH  16  18
HETATM   18  C   UNL     1     -11.194  13.680  64.530  1.00  0.00    -0.382 C  
BRANCH  18  19
HETATM   19  C   UNL     1     -10.962  12.549  63.536  1.00  0.00    -0.472 C  
BRANCH  19  20
HETATM   20  C   UNL     1     -10.993  11.202  64.253  1.00  0.00    -0.276 C  
BRANCH  20  21
HETATM   21  C   UNL     1      -9.812  10.341  63.831  1.00  0.00    -0.251 C  
BRANCH  21  22
HETATM   22  C   UNL     1      -9.051   9.807  65.039  1.00  0.00    -0.280 C  
BRANCH  22  23
HETATM   23  C   UNL     1      -9.980   9.688  66.237  1.00  0.00    -0.264 C  
BRANCH  23  24
HETATM   24  O   UNL     1      -9.624   8.521  66.968  1.00  0.00    -0.162 OA 
BRANCH  24  25
HETATM   25  C   UNL     1     -10.619   7.507  66.848  1.00  0.00    -0.297 C  
BRANCH  25  26
HETATM   26  C   UNL     1      -9.989   6.159  67.175  1.00  0.00    -0.188 C  
BRANCH  26  27
HETATM   27  C   UNL     1      -8.462   6.252  67.169  1.00  0.00    -0.108 C  
BRANCH  27  28
HETATM   28  C   UNL     1      -7.822   5.086  66.418  1.00  0.00    -0.099 C  
BRANCH  28  29
HETATM   29  C   UNL     1      -7.195   4.124  67.399  1.00  0.00    -0.068 A  
HETATM   30  C   UNL     1      -7.349   4.317  68.777  1.00  0.00    -0.056 A  
HETATM   31  C   UNL     1      -6.703   3.475  69.682  1.00  0.00    -0.034 A  
HETATM   32  C   UNL     1      -5.898   2.437  69.218  1.00  0.00    -0.023 A  
HETATM   33  C   UNL     1      -5.742   2.234  67.848  1.00  0.00    -0.019 A  
HETATM   34  C   UNL     1      -6.387   3.075  66.940  1.00  0.00    -0.035 A  
ENDBRANCH  28  29
ENDBRANCH  27  28
ENDBRANCH  26  27
ENDBRANCH  25  26
ENDBRANCH  24  25
ENDBRANCH  23  24
ENDBRANCH  22  23
ENDBRANCH  21  22
ENDBRANCH  20  21
ENDBRANCH  19  20
ENDBRANCH  18  19
ENDBRANCH  16  18
ENDBRANCH  15  16
ENDBRANCH  12  15
ENDBRANCH  10  12
ENDBRANCH   2   4
TORSDOF 16
ENDMDL
MODEL      416
REMARK 921   NORMALIZED FREE ENERGY PREDICTED BY IDOCK:   -2.92 KCAL/MOL
REMARK 922        TOTAL FREE ENERGY PREDICTED BY IDOCK:   -8.00 KCAL/MOL
REMARK 923 INTER-LIGAND FREE ENERGY PREDICTED BY IDOCK:   -7.22 KCAL/MOL
REMARK 924 INTRA-LIGAND FREE ENERGY PREDICTED BY IDOCK:   -0.78 KCAL/MOL
REMARK 927      BINDING AFFINITY PREDICTED BY RF-SCORE:    0.00 PKD
ROOT
HETATM    1  O   UNL     1      -6.271  16.844  66.644  1.00  0.00    -0.198 OA 
HETATM    2  C   UNL     1      -6.880  17.972  66.014  1.00  0.00    -0.297 C  
HETATM    3  H   UNL     1      -5.408  16.690  66.277  1.00  0.00     0.000 HD 
ENDROOT
BRANCH   2   4
HETATM    4  C   UNL     1      -8.248  18.217  66.594  1.00  0.00    -0.282 A  
HETATM    5  C   UNL     1      -9.032  19.323  66.247  1.00  0.00    -0.328 A  
HETATM    6  O   UNL     1      -8.573  20.294  65.400  1.00  0.00    -0.408 OA 
HETATM    7  C   UNL     1     -10.307  19.503  66.772  1.00  0.00    -0.570 A  
HETATM    8  C   UNL     1     -10.817  18.581  67.682  1.00  0.00    -0.319 A  
HETATM    9  H   UNL     1      -9.105  21.045  65.164  1.00  0.00     0.000 HD 
HETATM   10  C   UNL     1     -10.062  17.459  68.061  1.00  0.00    -0.326 A  
HETATM   11  C   UNL     1      -8.790  17.278  67.491  1.00  0.00    -0.219 A  
BRANCH  10  12
HETATM   12  C   UNL     1     -10.580  16.466  69.085  1.00  0.00    -0.308 C  
HETATM   13  O   UNL     1     -11.110  17.162  70.224  1.00  0.00    -0.282 OA 
HETATM   14  H   UNL     1     -11.434  16.541  70.866  1.00  0.00     0.000 HD 
BRANCH  12  15
HETATM   15  C   UNL     1     -11.676  15.547  68.505  1.00  0.00    -0.337 C  
BRANCH  15  16
HETATM   16  N   UNL     1     -11.285  15.017  67.189  1.00  0.00    -0.337 NA 
HETATM   17  H   UNL     1     -10.326  14.671  67.186  1.00  0.00     0.000 HD 
BRANCH  16  18
HETATM   18  C   UNL     1     -12.236  13.997  66.757  1.00  0.00    -0.404 C  
BRANCH  18  19
HETATM   19  C   UNL     1     -11.996  13.646  65.294  1.00  0.00    -0.395 C  
BRANCH  19  20
HETATM   20  C   UNL     1     -11.548  12.192  65.168  1.00  0.00    -0.372 C  
BRANCH  20  21
HETATM   21  C   UNL     1     -10.086  12.044  65.564  1.00  0.00    -0.281 C  
BRANCH  21  22
HETATM   22  C   UNL     1      -9.943  11.376  66.926  1.00  0.00    -0.235 C  
BRANCH  22  23
HETATM   23  C   UNL     1     -10.805  10.125  66.994  1.00  0.00    -0.151 C  
BRANCH  23  24
HETATM   24  O   UNL     1     -10.237   9.141  66.138  1.00  0.00    -0.272 OA 
BRANCH  24  25
HETATM   25  C   UNL     1      -8.962   8.712  66.611  1.00  0.00    -0.145 C  
BRANCH  25  26
HETATM   26  C   UNL     1      -9.096   8.293  68.069  1.00  0.00    -0.139 C  
BRANCH  26  27
HETATM   27  C   UNL     1      -7.736   7.914  68.658  1.00  0.00    -0.113 C  
BRANCH  27  28
HETATM   28  C   UNL     1      -7.805   7.713  70.171  1.00  0.00    -0.097 C  
BRANCH  28  29
HETATM   29  C   UNL     1      -7.570   6.259  70.507  1.00  0.00    -0.096 A  
HETATM   30  C   UNL     1      -8.650   5.404  70.747  1.00  0.00    -0.131 A  
HETATM   31  C   UNL     1      -8.430   4.082  71.136  1.00  0.00    -0.098 A  
HETATM   32  C   UNL     1      -7.129   3.608  71.292  1.00  0.00    -0.033 A  
HETATM   33  C   UNL     1      -6.045   4.452  71.052  1.00  0.00    -0.018 A  
HETATM   34  C   UNL     1      -6.263   5.774  70.662  1.00  0.00    -0.031 A  
ENDBRANCH  28  29
ENDBRANCH  27  28
ENDBRANCH  26  27
ENDBRANCH  25  26
ENDBRANCH  24  25
ENDBRANCH  23  24
ENDBRANCH  22  23
ENDBRANCH  21  22
ENDBRANCH  20  21
ENDBRANCH  19  20
ENDBRANCH  18  19
ENDBRANCH  16  18
ENDBRANCH  15  16
ENDBRANCH  12  15
ENDBRANCH  10  12
ENDBRANCH   2   4
TORSDOF 16
ENDMDL
MODEL      417
REMARK 921   NORMALIZED FREE ENERGY PREDICTED BY IDOCK:   -2.92 KCAL/MOL
REMARK 922        TOTAL FREE ENERGY PREDICTED BY IDOCK:   -7.99 KCAL/MOL
REMARK 923 INTER-LIGAND FREE ENERGY PREDICTED BY IDOCK:   -6.99 KCAL/MOL
REMARK 924 INTRA-LIGAND FREE ENERGY PREDICTED BY IDOCK:   -1.00 KCAL/MOL
REMARK 927      BINDING AFFINITY PREDICTED BY RF-SCORE:    0.00 PKD
ROOT
HETATM    1  O   UNL     1      -5.960   4.706  65.468  1.00  0.00    -0.021 OA 
HETATM    2  C   UNL     1      -7.327   4.863  65.087  1.00  0.00    -0.072 C  
HETATM    3  H   UNL     1      -5.395   4.806  64.710  1.00  0.00     0.000 HD 
ENDROOT
BRANCH   2   4
HETATM    4  C   UNL     1      -8.223   4.704  66.288  1.00  0.00    -0.107 A  
HETATM    5  C   UNL     1      -8.514   3.459  66.856  1.00  0.00    -0.107 A  
HETATM    6  O   UNL     1      -8.051   2.293  66.313  1.00  0.00    -0.080 OA 
HETATM    7  C   UNL     1      -9.315   3.347  67.987  1.00  0.00    -0.241 A  
HETATM    8  C   UNL     1      -9.864   4.490  68.562  1.00  0.00    -0.160 A  
HETATM    9  H   UNL     1      -8.250   1.447  66.699  1.00  0.00     0.000 HD 
HETATM   10  C   UNL     1      -9.601   5.759  68.022  1.00  0.00    -0.131 A  
HETATM   11  C   UNL     1      -8.760   5.852  66.899  1.00  0.00    -0.111 A  
BRANCH  10  12
HETATM   12  C   UNL     1     -10.226   7.013  68.604  1.00  0.00    -0.176 C  
HETATM   13  O   UNL     1     -11.655   6.877  68.653  1.00  0.00    -0.472 OA 
HETATM   14  H   UNL     1     -12.046   7.662  69.018  1.00  0.00     0.000 HD 
BRANCH  12  15
HETATM   15  C   UNL     1      -9.704   7.319  70.024  1.00  0.00    -0.175 C  
BRANCH  15  16
HETATM   16  N   UNL     1     -10.485   8.394  70.659  1.00  0.00    -0.197 NA 
HETATM   17  H   UNL     1     -10.439   8.349  71.677  1.00  0.00     0.000 HD 
BRANCH  16  18
HETATM   18  C   UNL     1     -10.057   9.692  70.148  1.00  0.00    -0.262 C  
BRANCH  18  19
HETATM   19  C   UNL     1     -11.236  10.419  69.515  1.00  0.00    -0.325 C  
BRANCH  19  20
HETATM   20  C   UNL     1     -10.786  11.767  68.956  1.00  0.00    -0.239 C  
BRANCH  20  21
HETATM   21  C   UNL     1     -11.686  12.200  67.808  1.00  0.00    -0.390 C  
BRANCH  21  22
HETATM   22  C   UNL     1     -11.888  13.710  67.797  1.00  0.00    -0.403 C  
BRANCH  22  23
HETATM   23  C   UNL     1     -10.562  14.419  67.568  1.00  0.00    -0.265 C  
BRANCH  23  24
HETATM   24  O   UNL     1     -10.583  15.004  66.272  1.00  0.00    -0.291 OA 
BRANCH  24  25
HETATM   25  C   UNL     1      -9.631  16.059  66.160  1.00  0.00    -0.334 C  
BRANCH  25  26
HETATM   26  C   UNL     1      -9.751  16.960  67.383  1.00  0.00    -0.247 C  
BRANCH  26  27
HETATM   27  C   UNL     1     -10.131  18.385  66.979  1.00  0.00    -0.382 C  
BRANCH  27  28
HETATM   28  C   UNL     1      -8.966  19.122  66.322  1.00  0.00    -0.320 C  
BRANCH  28  29
HETATM   29  C   UNL     1      -7.800  19.197  67.279  1.00  0.00    -0.274 A  
HETATM   30  C   UNL     1      -6.556  18.662  66.923  1.00  0.00    -0.204 A  
HETATM   31  C   UNL     1      -5.503  18.660  67.838  1.00  0.00    -0.176 A  
HETATM   32  C   UNL     1      -5.686  19.188  69.114  1.00  0.00    -0.236 A  
HETATM   33  C   UNL     1      -6.920  19.726  69.477  1.00  0.00    -0.299 A  
HETATM   34  C   UNL     1      -7.975  19.730  68.563  1.00  0.00    -0.293 A  
ENDBRANCH  28  29
ENDBRANCH  27  28
ENDBRANCH  26  27
ENDBRANCH  25  26
ENDBRANCH  24  25
ENDBRANCH  23  24
ENDBRANCH  22  23
ENDBRANCH  21  22
ENDBRANCH  20  21
ENDBRANCH  19  20
ENDBRANCH  18  19
ENDBRANCH  16  18
ENDBRANCH  15  16
ENDBRANCH  12  15
ENDBRANCH  10  12
ENDBRANCH   2   4
TORSDOF 16
ENDMDL
MODEL      418
REMARK 921   NORMALIZED FREE ENERGY PREDICTED BY IDOCK:   -2.90 KCAL/MOL
REMARK 922        TOTAL FREE ENERGY PREDICTED BY IDOCK:   -7.96 KCAL/MOL
REMARK 923 INTER-LIGAND FREE ENERGY PREDICTED BY IDOCK:   -7.07 KCAL/MOL
REMARK 924 INTRA-LIGAND FREE ENERGY PREDICTED BY IDOCK:   -0.89 KCAL/MOL
REMARK 927      BINDING AFFINITY PREDICTED BY RF-SCORE:    0.00 PKD
ROOT
HETATM    1  O   UNL     1      -8.921   4.435  70.761  1.00  0.00    -0.096 OA 
HETATM    2  C   UNL     1     -10.207   5.055  70.703  1.00  0.00    -0.235 C  
HETATM    3  H   UNL     1      -8.770   4.075  71.628  1.00  0.00     0.000 HD 
ENDROOT
BRANCH   2   4
HETATM    4  C   UNL     1     -10.447   5.627  69.331  1.00  0.00    -0.367 A  
HETATM    5  C   UNL     1     -10.803   6.964  69.118  1.00  0.00    -0.228 A  
HETATM    6  O   UNL     1     -11.019   7.826  70.158  1.00  0.00    -0.256 OA 
HETATM    7  C   UNL     1     -10.981   7.473  67.837  1.00  0.00    -0.027 A  
HETATM    8  C   UNL     1     -10.829   6.638  66.733  1.00  0.00    -0.322 A  
HETATM    9  H   UNL     1     -11.261   8.733  70.014  1.00  0.00     0.000 HD 
HETATM   10  C   UNL     1     -10.478   5.289  66.901  1.00  0.00    -0.313 A  
HETATM   11  C   UNL     1     -10.267   4.804  68.204  1.00  0.00    -0.058 A  
BRANCH  10  12
HETATM   12  C   UNL     1     -10.351   4.350  65.715  1.00  0.00    -0.217 C  
HETATM   13  O   UNL     1     -11.495   4.483  64.856  1.00  0.00    -1.056 OA 
HETATM   14  H   UNL     1     -11.416   3.895  64.113  1.00  0.00     0.000 HD 
BRANCH  12  15
HETATM   15  C   UNL     1      -9.073   4.618  64.892  1.00  0.00    -0.154 C  
BRANCH  15  16
HETATM   16  N   UNL     1      -8.620   6.010  65.050  1.00  0.00    -0.312 NA 
HETATM   17  H   UNL     1      -9.036   6.457  65.868  1.00  0.00     0.000 HD 
BRANCH  16  18
HETATM   18  C   UNL     1      -7.162   6.062  65.081  1.00  0.00    -0.070 C  
BRANCH  18  19
HETATM   19  C   UNL     1      -6.694   7.503  65.240  1.00  0.00    -0.044 C  
BRANCH  19  20
HETATM   20  C   UNL     1      -7.579   8.236  66.247  1.00  0.00    -0.096 C  
BRANCH  20  21
HETATM   21  C   UNL     1      -8.038   9.573  65.684  1.00  0.00    -0.112 C  
BRANCH  21  22
HETATM   22  C   UNL     1      -8.021  10.662  66.751  1.00  0.00    -0.132 C  
BRANCH  22  23
HETATM   23  C   UNL     1      -8.971  11.788  66.371  1.00  0.00    -0.201 C  
BRANCH  23  24
HETATM   24  O   UNL     1      -9.832  12.040  67.474  1.00  0.00    -0.183 OA 
BRANCH  24  25
HETATM   25  C   UNL     1     -10.619  13.210  67.265  1.00  0.00    -0.246 C  
BRANCH  25  26
HETATM   26  C   UNL     1      -9.696  14.357  66.871  1.00  0.00    -0.266 C  
BRANCH  26  27
HETATM   27  C   UNL     1      -9.723  15.468  67.922  1.00  0.00    -0.211 C  
BRANCH  27  28
HETATM   28  C   UNL     1      -8.399  15.571  68.678  1.00  0.00    -0.172 C  
BRANCH  28  29
HETATM   29  C   UNL     1      -8.012  17.022  68.841  1.00  0.00    -0.217 A  
HETATM   30  C   UNL     1      -8.823  18.035  68.317  1.00  0.00    -0.291 A  
HETATM   31  C   UNL     1      -8.424  19.369  68.397  1.00  0.00    -0.389 A  
HETATM   32  C   UNL     1      -7.212  19.700  68.999  1.00  0.00    -0.379 A  
HETATM   33  C   UNL     1      -6.399  18.699  69.528  1.00  0.00    -0.268 A  
HETATM   34  C   UNL     1      -6.796  17.363  69.449  1.00  0.00    -0.147 A  
ENDBRANCH  28  29
ENDBRANCH  27  28
ENDBRANCH  26  27
ENDBRANCH  25  26
ENDBRANCH  24  25
ENDBRANCH  23  24
ENDBRANCH  22  23
ENDBRANCH  21  22
ENDBRANCH  20  21
ENDBRANCH  19  20
ENDBRANCH  18  19
ENDBRANCH  16  18
ENDBRANCH  15  16
ENDBRANCH  12  15
ENDBRANCH  10  12
ENDBRANCH   2   4
TORSDOF 16
ENDMDL
MODEL      419
REMARK 921   NORMALIZED FREE ENERGY PREDICTED BY IDOCK:   -2.82 KCAL/MOL
REMARK 922        TOTAL FREE ENERGY PREDICTED BY IDOCK:   -7.81 KCAL/MOL
REMARK 923 INTER-LIGAND FREE ENERGY PREDICTED BY IDOCK:   -6.19 KCAL/MOL
REMARK 924 INTRA-LIGAND FREE ENERGY PREDICTED BY IDOCK:   -1.62 KCAL/MOL
REMARK 927      BINDING AFFINITY PREDICTED BY RF-SCORE:    0.00 PKD
ROOT
HETATM    1  O   UNL     1      -8.373   7.870  74.258  1.00  0.00    -0.226 OA 
HETATM    2  C   UNL     1      -8.739   6.660  73.594  1.00  0.00    -0.125 C  
HETATM    3  H   UNL     1      -7.559   7.750  74.734  1.00  0.00     0.000 HD 
ENDROOT
BRANCH   2   4
HETATM    4  C   UNL     1     -10.029   6.849  72.840  1.00  0.00    -0.204 A  
HETATM    5  C   UNL     1     -11.164   6.064  73.071  1.00  0.00    -0.197 A  
HETATM    6  O   UNL     1     -11.153   5.024  73.959  1.00  0.00    -0.371 OA 
HETATM    7  C   UNL     1     -12.353   6.287  72.386  1.00  0.00    -0.072 A  
HETATM    8  C   UNL     1     -12.421   7.295  71.428  1.00  0.00    -0.418 A  
HETATM    9  H   UNL     1     -11.923   4.491  74.116  1.00  0.00     0.000 HD 
HETATM   10  C   UNL     1     -11.304   8.103  71.161  1.00  0.00    -0.299 A  
HETATM   11  C   UNL     1     -10.123   7.884  71.892  1.00  0.00    -0.250 A  
BRANCH  10  12
HETATM   12  C   UNL     1     -11.342   9.177  70.090  1.00  0.00    -0.142 C  
HETATM   13  O   UNL     1     -12.546   9.951  70.208  1.00  0.00    -0.510 OA 
HETATM   14  H   UNL     1     -12.570  10.624  69.538  1.00  0.00     0.000 HD 
BRANCH  12  15
HETATM   15  C   UNL     1     -10.127  10.126  70.172  1.00  0.00    -0.141 C  
BRANCH  15  16
HETATM   16  N   UNL     1      -9.570  10.395  68.836  1.00  0.00    -0.183 NA 
HETATM   17  H   UNL     1     -10.254  10.232  68.098  1.00  0.00     0.000 HD 
BRANCH  16  18
HETATM   18  C   UNL     1      -9.022  11.747  68.785  1.00  0.00     0.023 C  
BRANCH  18  19
HETATM   19  C   UNL     1     -10.141  12.757  68.568  1.00  0.00    -0.189 C  
BRANCH  19  20
HETATM   20  C   UNL     1     -10.240  13.124  67.089  1.00  0.00    -0.244 C  
BRANCH  20  21
HETATM   21  C   UNL     1     -11.571  12.667  66.510  1.00  0.00    -0.441 C  
BRANCH  21  22
HETATM   22  C   UNL     1     -11.405  11.423  65.646  1.00  0.00    -0.069 C  
BRANCH  22  23
HETATM   23  C   UNL     1     -10.068  11.456  64.923  1.00  0.00    -0.274 C  
BRANCH  23  24
HETATM   24  O   UNL     1      -9.972  10.299  64.101  1.00  0.00    -0.315 OA 
BRANCH  24  25
HETATM   25  C   UNL     1      -8.632   9.817  64.034  1.00  0.00    -0.197 C  
BRANCH  25  26
HETATM   26  C   UNL     1      -8.055   9.773  65.443  1.00  0.00    -0.127 C  
BRANCH  26  27
HETATM   27  C   UNL     1      -8.418   8.462  66.143  1.00  0.00    -0.139 C  
BRANCH  27  28
HETATM   28  C   UNL     1      -7.541   7.302  65.673  1.00  0.00    -0.089 C  
BRANCH  28  29
HETATM   29  C   UNL     1      -8.406   6.118  65.311  1.00  0.00    -0.144 A  
HETATM   30  C   UNL     1      -8.371   5.585  64.018  1.00  0.00    -0.091 A  
HETATM   31  C   UNL     1      -9.228   4.544  63.662  1.00  0.00    -0.086 A  
HETATM   32  C   UNL     1     -10.127   4.030  64.595  1.00  0.00    -0.215 A  
HETATM   33  C   UNL     1     -10.166   4.552  65.887  1.00  0.00    -0.289 A  
HETATM   34  C   UNL     1      -9.310   5.593  66.245  1.00  0.00    -0.169 A  
ENDBRANCH  28  29
ENDBRANCH  27  28
ENDBRANCH  26  27
ENDBRANCH  25  26
ENDBRANCH  24  25
ENDBRANCH  23  24
ENDBRANCH  22  23
ENDBRANCH  21  22
ENDBRANCH  20  21
ENDBRANCH  19  20
ENDBRANCH  18  19
ENDBRANCH  16  18
ENDBRANCH  15  16
ENDBRANCH  12  15
ENDBRANCH  10  12
ENDBRANCH   2   4
TORSDOF 16
ENDMDL
MODEL      420
REMARK 921   NORMALIZED FREE ENERGY PREDICTED BY IDOCK:   -2.77 KCAL/MOL
REMARK 922        TOTAL FREE ENERGY PREDICTED BY IDOCK:   -7.70 KCAL/MOL
REMARK 923 INTER-LIGAND FREE ENERGY PREDICTED BY IDOCK:   -7.19 KCAL/MOL
REMARK 924 INTRA-LIGAND FREE ENERGY PREDICTED BY IDOCK:   -0.51 KCAL/MOL
REMARK 927      BINDING AFFINITY PREDICTED BY RF-SCORE:    0.00 PKD
ROOT
HETATM    1  O   UNL     1      -7.280   7.215  73.967  1.00  0.00    -0.089 OA 
HETATM    2  C   UNL     1      -7.741   5.896  73.672  1.00  0.00    -0.097 C  
HETATM    3  H   UNL     1      -6.379   7.188  74.269  1.00  0.00     0.000 HD 
ENDROOT
BRANCH   2   4
HETATM    4  C   UNL     1      -9.169   5.939  73.194  1.00  0.00    -0.133 A  
HETATM    5  C   UNL     1     -10.113   4.964  73.538  1.00  0.00    -0.164 A  
HETATM    6  O   UNL     1      -9.778   3.868  74.284  1.00  0.00    -0.107 OA 
HETATM    7  C   UNL     1     -11.433   5.050  73.111  1.00  0.00    -0.362 A  
HETATM    8  C   UNL     1     -11.832   6.112  72.303  1.00  0.00    -0.326 A  
HETATM    9  H   UNL     1     -10.418   3.207  74.517  1.00  0.00     0.000 HD 
HETATM   10  C   UNL     1     -10.916   7.110  71.931  1.00  0.00    -0.262 A  
HETATM   11  C   UNL     1      -9.595   7.022  72.403  1.00  0.00    -0.163 A  
BRANCH  10  12
HETATM   12  C   UNL     1     -11.317   8.251  71.015  1.00  0.00    -0.269 C  
HETATM   13  O   UNL     1     -12.719   8.528  71.156  1.00  0.00    -0.456 OA 
HETATM   14  H   UNL     1     -12.971   9.243  70.583  1.00  0.00     0.000 HD 
BRANCH  12  15
HETATM   15  C   UNL     1     -10.520   9.540  71.306  1.00  0.00    -0.250 C  
BRANCH  15  16
HETATM   16  N   UNL     1      -9.079   9.338  71.082  1.00  0.00    -0.271 NA 
HETATM   17  H   UNL     1      -8.856   8.361  70.892  1.00  0.00     0.000 HD 
BRANCH  16  18
HETATM   18  C   UNL     1      -8.608  10.222  70.021  1.00  0.00     0.140 C  
BRANCH  18  19
HETATM   19  C   UNL     1      -9.749  11.104  69.531  1.00  0.00     0.286 C  
BRANCH  19  20
HETATM   20  C   UNL     1      -9.693  11.243  68.011  1.00  0.00    -0.185 C  
BRANCH  20  21
HETATM   21  C   UNL     1     -10.788  10.413  67.355  1.00  0.00    -0.344 C  
BRANCH  21  22
HETATM   22  C   UNL     1     -10.211   9.200  66.635  1.00  0.00    -0.328 C  
BRANCH  22  23
HETATM   23  C   UNL     1      -9.343   9.643  65.467  1.00  0.00    -0.248 C  
BRANCH  23  24
HETATM   24  O   UNL     1      -9.622  11.011  65.193  1.00  0.00    -0.214 OA 
BRANCH  24  25
HETATM   25  C   UNL     1      -9.566  11.284  63.795  1.00  0.00    -0.259 C  
BRANCH  25  26
HETATM   26  C   UNL     1     -10.887  10.867  63.161  1.00  0.00     0.308 C  
BRANCH  26  27
HETATM   27  C   UNL     1     -12.043  11.718  63.691  1.00  0.00    -0.486 C  
BRANCH  27  28
HETATM   28  C   UNL     1     -11.802  13.210  63.470  1.00  0.00    -0.539 C  
BRANCH  28  29
HETATM   29  C   UNL     1     -11.565  13.894  64.795  1.00  0.00    -0.383 A  
HETATM   30  C   UNL     1     -12.055  13.334  65.980  1.00  0.00    -0.491 A  
HETATM   31  C   UNL     1     -11.906  14.008  67.192  1.00  0.00    -0.444 A  
HETATM   32  C   UNL     1     -11.268  15.246  67.229  1.00  0.00    -0.306 A  
HETATM   33  C   UNL     1     -10.773  15.811  66.054  1.00  0.00    -0.311 A  
HETATM   34  C   UNL     1     -10.920  15.139  64.840  1.00  0.00    -0.434 A  
ENDBRANCH  28  29
ENDBRANCH  27  28
ENDBRANCH  26  27
ENDBRANCH  25  26
ENDBRANCH  24  25
ENDBRANCH  23  24
ENDBRANCH  22  23
ENDBRANCH  21  22
ENDBRANCH  20  21
ENDBRANCH  19  20
ENDBRANCH  18  19
ENDBRANCH  16  18
ENDBRANCH  15  16
ENDBRANCH  12  15
ENDBRANCH  10  12
ENDBRANCH   2   4
TORSDOF 16
ENDMDL
MODEL      421
REMARK 921   NORMALIZED FREE ENERGY PREDICTED BY IDOCK:   -2.73 KCAL/MOL
REMARK 922        TOTAL FREE ENERGY PREDICTED BY IDOCK:   -7.63 KCAL/MOL
REMARK 923 INTER-LIGAND FREE ENERGY PREDICTED BY IDOCK:   -6.01 KCAL/MOL
REMARK 924 INTRA-LIGAND FREE ENERGY PREDICTED BY IDOCK:   -1.61 KCAL/MOL
REMARK 927      BINDING AFFINITY PREDICTED BY RF-SCORE:    0.00 PKD
ROOT
HETATM    1  O   UNL     1     -13.255  12.899  72.818  1.00  0.00    -0.421 OA 
HETATM    2  C   UNL     1     -13.898  11.921  72.000  1.00  0.00     0.308 C  
HETATM    3  H   UNL     1     -13.897  13.505  73.171  1.00  0.00     0.000 HD 
ENDROOT
BRANCH   2   4
HETATM    4  C   UNL     1     -12.882  10.961  71.440  1.00  0.00    -0.554 A  
HETATM    5  C   UNL     1     -12.039  11.287  70.371  1.00  0.00    -0.384 A  
HETATM    6  O   UNL     1     -12.132  12.486  69.721  1.00  0.00    -0.287 OA 
HETATM    7  C   UNL     1     -11.084  10.393  69.900  1.00  0.00    -0.367 A  
HETATM    8  C   UNL     1     -10.970   9.133  70.481  1.00  0.00    -0.307 A  
HETATM    9  H   UNL     1     -11.561  12.708  68.995  1.00  0.00     0.000 HD 
HETATM   10  C   UNL     1     -11.798   8.763  71.553  1.00  0.00    -0.377 A  
HETATM   11  C   UNL     1     -12.732   9.695  72.037  1.00  0.00    -0.470 A  
BRANCH  10  12
HETATM   12  C   UNL     1     -11.722   7.379  72.171  1.00  0.00    -0.290 C  
HETATM   13  O   UNL     1     -12.149   6.390  71.222  1.00  0.00    -0.310 OA 
HETATM   14  H   UNL     1     -12.101   5.523  71.609  1.00  0.00     0.000 HD 
BRANCH  12  15
HETATM   15  C   UNL     1     -10.296   7.031  72.649  1.00  0.00    -0.209 C  
BRANCH  15  16
HETATM   16  N   UNL     1      -9.511   6.405  71.572  1.00  0.00    -0.155 NA 
HETATM   17  H   UNL     1      -8.715   6.979  71.296  1.00  0.00     0.000 HD 
BRANCH  16  18
HETATM   18  C   UNL     1      -9.104   5.059  71.966  1.00  0.00    -0.136 C  
BRANCH  18  19
HETATM   19  C   UNL     1      -7.587   4.985  72.081  1.00  0.00    -0.094 C  
BRANCH  19  20
HETATM   20  C   UNL     1      -7.058   3.782  71.305  1.00  0.00    -0.033 C  
BRANCH  20  21
HETATM   21  C   UNL     1      -7.607   3.774  69.886  1.00  0.00    -0.048 C  
BRANCH  21  22
HETATM   22  C   UNL     1      -8.305   2.457  69.566  1.00  0.00    -0.075 C  
BRANCH  22  23
HETATM   23  C   UNL     1      -9.390   2.674  68.523  1.00  0.00    -0.190 C  
BRANCH  23  24
HETATM   24  O   UNL     1      -8.828   3.394  67.433  1.00  0.00    -0.109 OA 
BRANCH  24  25
HETATM   25  C   UNL     1      -9.750   4.345  66.906  1.00  0.00    -0.210 C  
BRANCH  25  26
HETATM   26  C   UNL     1      -9.424   5.717  67.484  1.00  0.00    -0.117 C  
BRANCH  26  27
HETATM   27  C   UNL     1     -10.701   6.507  67.775  1.00  0.00    -0.368 C  
BRANCH  27  28
HETATM   28  C   UNL     1     -10.773   7.796  66.958  1.00  0.00    -0.316 C  
BRANCH  28  29
HETATM   29  C   UNL     1      -9.390   8.190  66.497  1.00  0.00    -0.262 A  
HETATM   30  C   UNL     1      -8.595   9.034  67.281  1.00  0.00    -0.115 A  
HETATM   31  C   UNL     1      -7.352   9.462  66.816  1.00  0.00    -0.086 A  
HETATM   32  C   UNL     1      -6.894   9.053  65.565  1.00  0.00    -0.073 A  
HETATM   33  C   UNL     1      -7.677   8.209  64.778  1.00  0.00    -0.123 A  
HETATM   34  C   UNL     1      -8.921   7.779  65.240  1.00  0.00     0.162 A  
ENDBRANCH  28  29
ENDBRANCH  27  28
ENDBRANCH  26  27
ENDBRANCH  25  26
ENDBRANCH  24  25
ENDBRANCH  23  24
ENDBRANCH  22  23
ENDBRANCH  21  22
ENDBRANCH  20  21
ENDBRANCH  19  20
ENDBRANCH  18  19
ENDBRANCH  16  18
ENDBRANCH  15  16
ENDBRANCH  12  15
ENDBRANCH  10  12
ENDBRANCH   2   4
TORSDOF 16
ENDMDL
MODEL      422
REMARK 921   NORMALIZED FREE ENERGY PREDICTED BY IDOCK:   -2.69 KCAL/MOL
REMARK 922        TOTAL FREE ENERGY PREDICTED BY IDOCK:   -7.55 KCAL/MOL
REMARK 923 INTER-LIGAND FREE ENERGY PREDICTED BY IDOCK:   -6.80 KCAL/MOL
REMARK 924 INTRA-LIGAND FREE ENERGY PREDICTED BY IDOCK:   -0.76 KCAL/MOL
REMARK 927      BINDING AFFINITY PREDICTED BY RF-SCORE:    0.00 PKD
ROOT
HETATM    1  O   UNL     1     -11.633  10.286  71.359  1.00  0.00    -0.317 OA 
HETATM    2  C   UNL     1     -11.715  10.144  69.940  1.00  0.00    -0.179 C  
HETATM    3  H   UNL     1     -12.237  10.957  71.657  1.00  0.00     0.000 HD 
ENDROOT
BRANCH   2   4
HETATM    4  C   UNL     1     -10.758   9.081  69.467  1.00  0.00    -0.215 A  
HETATM    5  C   UNL     1     -10.312   8.042  70.292  1.00  0.00    -0.212 A  
HETATM    6  O   UNL     1     -10.669   7.964  71.609  1.00  0.00    -0.216 OA 
HETATM    7  C   UNL     1      -9.457   7.054  69.816  1.00  0.00    -0.145 A  
HETATM    8  C   UNL     1      -9.010   7.102  68.498  1.00  0.00    -0.127 A  
HETATM    9  H   UNL     1     -10.366   7.259  72.169  1.00  0.00     0.000 HD 
HETATM   10  C   UNL     1      -9.429   8.129  67.638  1.00  0.00    -0.172 A  
HETATM   11  C   UNL     1     -10.322   9.097  68.130  1.00  0.00    -0.263 A  
BRANCH  10  12
HETATM   12  C   UNL     1      -8.919   8.226  66.212  1.00  0.00    -0.183 C  
HETATM   13  O   UNL     1      -9.168   6.996  65.513  1.00  0.00    -0.376 OA 
HETATM   14  H   UNL     1      -8.849   7.057  64.620  1.00  0.00     0.000 HD 
BRANCH  12  15
HETATM   15  C   UNL     1      -9.577   9.386  65.434  1.00  0.00    -0.226 C  
BRANCH  15  16
HETATM   16  N   UNL     1      -9.370  10.672  66.120  1.00  0.00    -0.171 NA 
HETATM   17  H   UNL     1      -9.863  10.713  67.011  1.00  0.00     0.000 HD 
BRANCH  16  18
HETATM   18  C   UNL     1      -7.942  10.933  66.274  1.00  0.00    -0.161 C  
BRANCH  18  19
HETATM   19  C   UNL     1      -7.722  12.057  67.278  1.00  0.00    -0.168 C  
BRANCH  19  20
HETATM   20  C   UNL     1      -6.266  12.517  67.244  1.00  0.00    -0.124 C  
BRANCH  20  21
HETATM   21  C   UNL     1      -5.591  12.266  68.584  1.00  0.00    -0.053 C  
BRANCH  21  22
HETATM   22  C   UNL     1      -5.267  13.572  69.298  1.00  0.00    -0.077 C  
BRANCH  22  23
HETATM   23  C   UNL     1      -6.495  14.467  69.346  1.00  0.00    -0.132 C  
BRANCH  23  24
HETATM   24  O   UNL     1      -6.272  15.583  68.493  1.00  0.00    -0.093 OA 
BRANCH  24  25
HETATM   25  C   UNL     1      -7.468  16.332  68.291  1.00  0.00    -0.157 C  
BRANCH  25  26
HETATM   26  C   UNL     1      -7.846  16.265  66.817  1.00  0.00    -0.300 C  
BRANCH  26  27
HETATM   27  C   UNL     1      -8.988  15.273  66.588  1.00  0.00    -0.324 C  
BRANCH  27  28
HETATM   28  C   UNL     1     -10.355  15.915  66.813  1.00  0.00    -0.298 C  
BRANCH  28  29
HETATM   29  C   UNL     1     -11.048  15.254  67.981  1.00  0.00    -0.312 A  
HETATM   30  C   UNL     1     -11.676  16.029  68.962  1.00  0.00    -0.322 A  
HETATM   31  C   UNL     1     -12.245  15.421  70.082  1.00  0.00    -0.407 A  
HETATM   32  C   UNL     1     -12.187  14.037  70.230  1.00  0.00    -0.430 A  
HETATM   33  C   UNL     1     -11.566  13.256  69.255  1.00  0.00    -0.370 A  
HETATM   34  C   UNL     1     -10.997  13.861  68.135  1.00  0.00    -0.267 A  
ENDBRANCH  28  29
ENDBRANCH  27  28
ENDBRANCH  26  27
ENDBRANCH  25  26
ENDBRANCH  24  25
ENDBRANCH  23  24
ENDBRANCH  22  23
ENDBRANCH  21  22
ENDBRANCH  20  21
ENDBRANCH  19  20
ENDBRANCH  18  19
ENDBRANCH  16  18
ENDBRANCH  15  16
ENDBRANCH  12  15
ENDBRANCH  10  12
ENDBRANCH   2   4
TORSDOF 16
ENDMDL
MODEL      423
REMARK 921   NORMALIZED FREE ENERGY PREDICTED BY IDOCK:   -2.69 KCAL/MOL
REMARK 922        TOTAL FREE ENERGY PREDICTED BY IDOCK:   -7.55 KCAL/MOL
REMARK 923 INTER-LIGAND FREE ENERGY PREDICTED BY IDOCK:   -6.64 KCAL/MOL
REMARK 924 INTRA-LIGAND FREE ENERGY PREDICTED BY IDOCK:   -0.91 KCAL/MOL
REMARK 927      BINDING AFFINITY PREDICTED BY RF-SCORE:    0.00 PKD
ROOT
HETATM    1  O   UNL     1     -11.283   5.442  66.049  1.00  0.00    -0.783 OA 
HETATM    2  C   UNL     1     -11.344   6.225  67.242  1.00  0.00     0.049 C  
HETATM    3  H   UNL     1     -12.146   5.108  65.831  1.00  0.00     0.000 HD 
ENDROOT
BRANCH   2   4
HETATM    4  C   UNL     1      -9.977   6.753  67.588  1.00  0.00    -0.171 A  
HETATM    5  C   UNL     1      -9.507   7.994  67.140  1.00  0.00    -0.162 A  
HETATM    6  O   UNL     1     -10.243   8.781  66.299  1.00  0.00    -0.359 OA 
HETATM    7  C   UNL     1      -8.254   8.471  67.507  1.00  0.00    -0.117 A  
HETATM    8  C   UNL     1      -7.429   7.697  68.318  1.00  0.00    -0.104 A  
HETATM    9  H   UNL     1      -9.925   9.623  65.994  1.00  0.00     0.000 HD 
HETATM   10  C   UNL     1      -7.859   6.445  68.787  1.00  0.00    -0.109 A  
HETATM   11  C   UNL     1      -9.144   5.998  68.433  1.00  0.00    -0.112 A  
BRANCH  10  12
HETATM   12  C   UNL     1      -6.959   5.566  69.635  1.00  0.00    -0.062 C  
HETATM   13  O   UNL     1      -5.753   6.270  69.970  1.00  0.00    -0.013 OA 
HETATM   14  H   UNL     1      -5.189   5.719  70.501  1.00  0.00     0.000 HD 
BRANCH  12  15
HETATM   15  C   UNL     1      -7.649   5.109  70.938  1.00  0.00    -0.079 C  
BRANCH  15  16
HETATM   16  N   UNL     1      -8.862   5.900  71.204  1.00  0.00    -0.135 NA 
HETATM   17  H   UNL     1      -9.639   5.316  71.514  1.00  0.00     0.000 HD 
BRANCH  16  18
HETATM   18  C   UNL     1      -8.567   6.967  72.155  1.00  0.00    -0.116 C  
BRANCH  18  19
HETATM   19  C   UNL     1      -9.534   8.127  71.955  1.00  0.00    -0.279 C  
BRANCH  19  20
HETATM   20  C   UNL     1     -10.952   7.701  72.330  1.00  0.00    -0.328 C  
BRANCH  20  21
HETATM   21  C   UNL     1     -11.976   8.434  71.475  1.00  0.00    -0.344 C  
BRANCH  21  22
HETATM   22  C   UNL     1     -12.080   9.902  71.868  1.00  0.00    -0.264 C  
BRANCH  22  23
HETATM   23  C   UNL     1     -12.227  10.772  70.629  1.00  0.00    -0.379 C  
BRANCH  23  24
HETATM   24  O   UNL     1     -13.029  11.898  70.962  1.00  0.00    -0.237 OA 
BRANCH  24  25
HETATM   25  C   UNL     1     -12.235  12.979  71.443  1.00  0.00     0.187 C  
BRANCH  25  26
HETATM   26  C   UNL     1     -11.420  13.542  70.285  1.00  0.00    -0.017 C  
BRANCH  26  27
HETATM   27  C   UNL     1     -12.275  14.455  69.405  1.00  0.00    -0.305 C  
BRANCH  27  28
HETATM   28  C   UNL     1     -11.420  15.384  68.545  1.00  0.00    -0.360 C  
BRANCH  28  29
HETATM   29  C   UNL     1     -11.243  14.792  67.167  1.00  0.00    -0.346 A  
HETATM   30  C   UNL     1     -10.010  14.880  66.511  1.00  0.00    -0.277 A  
HETATM   31  C   UNL     1      -9.871  14.404  65.207  1.00  0.00    -0.216 A  
HETATM   32  C   UNL     1     -10.962  13.840  64.549  1.00  0.00    -0.399 A  
HETATM   33  C   UNL     1     -12.193  13.745  65.196  1.00  0.00    -0.453 A  
HETATM   34  C   UNL     1     -12.335  14.220  66.500  1.00  0.00    -0.345 A  
ENDBRANCH  28  29
ENDBRANCH  27  28
ENDBRANCH  26  27
ENDBRANCH  25  26
ENDBRANCH  24  25
ENDBRANCH  23  24
ENDBRANCH  22  23
ENDBRANCH  21  22
ENDBRANCH  20  21
ENDBRANCH  19  20
ENDBRANCH  18  19
ENDBRANCH  16  18
ENDBRANCH  15  16
ENDBRANCH  12  15
ENDBRANCH  10  12
ENDBRANCH   2   4
TORSDOF 16
ENDMDL
MODEL      424
REMARK 921   NORMALIZED FREE ENERGY PREDICTED BY IDOCK:   -2.68 KCAL/MOL
REMARK 922        TOTAL FREE ENERGY PREDICTED BY IDOCK:   -7.52 KCAL/MOL
REMARK 923 INTER-LIGAND FREE ENERGY PREDICTED BY IDOCK:   -6.23 KCAL/MOL
REMARK 924 INTRA-LIGAND FREE ENERGY PREDICTED BY IDOCK:   -1.29 KCAL/MOL
REMARK 927      BINDING AFFINITY PREDICTED BY RF-SCORE:    0.00 PKD
ROOT
HETATM    1  O   UNL     1      -7.923   5.956  66.438  1.00  0.00    -0.100 OA 
HETATM    2  C   UNL     1      -8.519   6.424  65.227  1.00  0.00    -0.098 C  
HETATM    3  H   UNL     1      -8.440   5.250  66.807  1.00  0.00     0.000 HD 
ENDROOT
BRANCH   2   4
HETATM    4  C   UNL     1      -7.699   7.544  64.642  1.00  0.00    -0.122 A  
HETATM    5  C   UNL     1      -7.719   7.867  63.280  1.00  0.00    -0.140 A  
HETATM    6  O   UNL     1      -8.442   7.137  62.378  1.00  0.00    -0.335 OA 
HETATM    7  C   UNL     1      -6.980   8.931  62.775  1.00  0.00    -0.093 A  
HETATM    8  C   UNL     1      -6.180   9.684  63.630  1.00  0.00    -0.108 A  
HETATM    9  H   UNL     1      -8.456   7.356  61.453  1.00  0.00     0.000 HD 
HETATM   10  C   UNL     1      -6.127   9.392  65.002  1.00  0.00    -0.067 A  
HETATM   11  C   UNL     1      -6.910   8.335  65.497  1.00  0.00    -0.066 A  
BRANCH  10  12
HETATM   12  C   UNL     1      -5.227  10.171  65.943  1.00  0.00    -0.047 C  
HETATM   13  O   UNL     1      -5.157  11.546  65.535  1.00  0.00    -0.473 OA 
HETATM   14  H   UNL     1      -4.593  12.034  66.124  1.00  0.00     0.000 HD 
BRANCH  12  15
HETATM   15  C   UNL     1      -5.717  10.108  67.405  1.00  0.00    -0.042 C  
BRANCH  15  16
HETATM   16  N   UNL     1      -7.030  10.758  67.556  1.00  0.00    -0.082 NA 
HETATM   17  H   UNL     1      -7.719  10.135  67.975  1.00  0.00     0.000 HD 
BRANCH  16  18
HETATM   18  C   UNL     1      -6.889  12.002  68.307  1.00  0.00    -0.068 C  
BRANCH  18  19
HETATM   19  C   UNL     1      -7.416  13.171  67.484  1.00  0.00    -0.164 C  
BRANCH  19  20
HETATM   20  C   UNL     1      -8.331  14.046  68.338  1.00  0.00    -0.162 C  
BRANCH  20  21
HETATM   21  C   UNL     1      -9.657  14.287  67.631  1.00  0.00    -0.219 C  
BRANCH  21  22
HETATM   22  C   UNL     1     -10.311  12.977  67.211  1.00  0.00    -0.238 C  
BRANCH  22  23
HETATM   23  C   UNL     1     -11.776  12.963  67.619  1.00  0.00    -0.370 C  
BRANCH  23  24
HETATM   24  O   UNL     1     -12.122  11.639  68.006  1.00  0.00    -0.597 OA 
BRANCH  24  25
HETATM   25  C   UNL     1     -11.208  11.121  68.970  1.00  0.00    -0.256 C  
BRANCH  25  26
HETATM   26  C   UNL     1     -11.849  11.207  70.349  1.00  0.00    -0.462 C  
BRANCH  26  27
HETATM   27  C   UNL     1     -12.157   9.814  70.899  1.00  0.00    -0.407 C  
BRANCH  27  28
HETATM   28  C   UNL     1     -11.392   8.723  70.152  1.00  0.00    -0.099 C  
BRANCH  28  29
HETATM   29  C   UNL     1     -10.422   8.043  71.088  1.00  0.00    -0.230 A  
HETATM   30  C   UNL     1      -9.997   6.733  70.839  1.00  0.00    -0.200 A  
HETATM   31  C   UNL     1      -9.164   6.078  71.746  1.00  0.00    -0.151 A  
HETATM   32  C   UNL     1      -8.753   6.725  72.910  1.00  0.00    -0.131 A  
HETATM   33  C   UNL     1      -9.169   8.031  73.165  1.00  0.00    -0.347 A  
HETATM   34  C   UNL     1     -10.001   8.689  72.259  1.00  0.00    -0.361 A  
ENDBRANCH  28  29
ENDBRANCH  27  28
ENDBRANCH  26  27
ENDBRANCH  25  26
ENDBRANCH  24  25
ENDBRANCH  23  24
ENDBRANCH  22  23
ENDBRANCH  21  22
ENDBRANCH  20  21
ENDBRANCH  19  20
ENDBRANCH  18  19
ENDBRANCH  16  18
ENDBRANCH  15  16
ENDBRANCH  12  15
ENDBRANCH  10  12
ENDBRANCH   2   4
TORSDOF 16
ENDMDL
MODEL      425
REMARK 921   NORMALIZED FREE ENERGY PREDICTED BY IDOCK:   -2.65 KCAL/MOL
REMARK 922        TOTAL FREE ENERGY PREDICTED BY IDOCK:   -7.48 KCAL/MOL
REMARK 923 INTER-LIGAND FREE ENERGY PREDICTED BY IDOCK:   -6.01 KCAL/MOL
REMARK 924 INTRA-LIGAND FREE ENERGY PREDICTED BY IDOCK:   -1.46 KCAL/MOL
REMARK 927      BINDING AFFINITY PREDICTED BY RF-SCORE:    0.00 PKD
ROOT
HETATM    1  O   UNL     1     -12.337  13.009  71.382  1.00  0.00    -0.259 OA 
HETATM    2  C   UNL     1     -12.344  12.990  69.954  1.00  0.00    -0.110 C  
HETATM    3  H   UNL     1     -12.965  12.382  71.722  1.00  0.00     0.000 HD 
ENDROOT
BRANCH   2   4
HETATM    4  C   UNL     1     -11.348  13.984  69.415  1.00  0.00    -0.317 A  
HETATM    5  C   UNL     1     -11.416  15.353  69.697  1.00  0.00    -0.320 A  
HETATM    6  O   UNL     1     -12.436  15.888  70.433  1.00  0.00    -0.396 OA 
HETATM    7  C   UNL     1     -10.460  16.241  69.216  1.00  0.00    -0.285 A  
HETATM    8  C   UNL     1      -9.422  15.773  68.415  1.00  0.00    -0.196 A  
HETATM    9  H   UNL     1     -12.482  16.817  70.624  1.00  0.00     0.000 HD 
HETATM   10  C   UNL     1      -9.319  14.408  68.104  1.00  0.00    -0.203 A  
HETATM   11  C   UNL     1     -10.276  13.522  68.631  1.00  0.00    -0.193 A  
BRANCH  10  12
HETATM   12  C   UNL     1      -8.222  13.883  67.196  1.00  0.00    -0.109 C  
HETATM   13  O   UNL     1      -7.120  14.802  67.171  1.00  0.00    -0.286 OA 
HETATM   14  H   UNL     1      -6.432  14.474  66.602  1.00  0.00     0.000 HD 
BRANCH  12  15
HETATM   15  C   UNL     1      -7.708  12.497  67.643  1.00  0.00    -0.151 C  
BRANCH  15  16
HETATM   16  N   UNL     1      -7.599  11.576  66.500  1.00  0.00    -0.322 NA 
HETATM   17  H   UNL     1      -6.680  11.620  66.060  1.00  0.00     0.000 HD 
BRANCH  16  18
HETATM   18  C   UNL     1      -7.941  10.219  66.916  1.00  0.00    -0.112 C  
BRANCH  18  19
HETATM   19  C   UNL     1      -8.888   9.586  65.905  1.00  0.00    -0.193 C  
BRANCH  19  20
HETATM   20  C   UNL     1     -10.338   9.855  66.301  1.00  0.00    -0.233 C  
BRANCH  20  21
HETATM   21  C   UNL     1     -10.451  10.090  67.800  1.00  0.00    -0.282 C  
BRANCH  21  22
HETATM   22  C   UNL     1     -10.909   8.833  68.528  1.00  0.00    -0.016 C  
BRANCH  22  23
HETATM   23  C   UNL     1      -9.818   8.336  69.464  1.00  0.00    -0.181 C  
BRANCH  23  24
HETATM   24  O   UNL     1      -9.331   7.096  68.967  1.00  0.00    -0.142 OA 
BRANCH  24  25
HETATM   25  C   UNL     1      -8.891   6.247  70.025  1.00  0.00    -0.142 C  
BRANCH  25  26
HETATM   26  C   UNL     1      -7.882   5.252  69.468  1.00  0.00    -0.084 C  
BRANCH  26  27
HETATM   27  C   UNL     1      -8.043   3.880  70.125  1.00  0.00    -0.063 C  
BRANCH  27  28
HETATM   28  C   UNL     1      -9.511   3.529  70.361  1.00  0.00    -0.254 C  
BRANCH  28  29
HETATM   29  C   UNL     1      -9.726   3.159  71.809  1.00  0.00    -0.234 A  
HETATM   30  C   UNL     1      -9.521   1.845  72.242  1.00  0.00    -0.153 A  
HETATM   31  C   UNL     1      -9.797   1.487  73.562  1.00  0.00    -0.108 A  
HETATM   32  C   UNL     1     -10.282   2.439  74.457  1.00  0.00    -0.179 A  
HETATM   33  C   UNL     1     -10.485   3.753  74.035  1.00  0.00    -0.262 A  
HETATM   34  C   UNL     1     -10.209   4.113  72.716  1.00  0.00    -0.228 A  
ENDBRANCH  28  29
ENDBRANCH  27  28
ENDBRANCH  26  27
ENDBRANCH  25  26
ENDBRANCH  24  25
ENDBRANCH  23  24
ENDBRANCH  22  23
ENDBRANCH  21  22
ENDBRANCH  20  21
ENDBRANCH  19  20
ENDBRANCH  18  19
ENDBRANCH  16  18
ENDBRANCH  15  16
ENDBRANCH  12  15
ENDBRANCH  10  12
ENDBRANCH   2   4
TORSDOF 16
ENDMDL
MODEL      426
REMARK 921   NORMALIZED FREE ENERGY PREDICTED BY IDOCK:   -2.64 KCAL/MOL
REMARK 922        TOTAL FREE ENERGY PREDICTED BY IDOCK:   -7.46 KCAL/MOL
REMARK 923 INTER-LIGAND FREE ENERGY PREDICTED BY IDOCK:   -7.04 KCAL/MOL
REMARK 924 INTRA-LIGAND FREE ENERGY PREDICTED BY IDOCK:   -0.41 KCAL/MOL
REMARK 927      BINDING AFFINITY PREDICTED BY RF-SCORE:    0.00 PKD
ROOT
HETATM    1  O   UNL     1     -10.238  18.753  69.310  1.00  0.00    -0.489 OA 
HETATM    2  C   UNL     1     -10.573  18.341  67.984  1.00  0.00    -0.325 C  
HETATM    3  H   UNL     1     -10.053  19.685  69.328  1.00  0.00     0.000 HD 
ENDROOT
BRANCH   2   4
HETATM    4  C   UNL     1     -10.864  16.864  67.956  1.00  0.00    -0.338 A  
HETATM    5  C   UNL     1     -11.134  16.122  69.112  1.00  0.00    -0.329 A  
HETATM    6  O   UNL     1     -11.086  16.685  70.357  1.00  0.00    -0.450 OA 
HETATM    7  C   UNL     1     -11.437  14.767  69.051  1.00  0.00    -0.316 A  
HETATM    8  C   UNL     1     -11.452  14.116  67.820  1.00  0.00    -0.352 A  
HETATM    9  H   UNL     1     -11.269  16.182  71.142  1.00  0.00     0.000 HD 
HETATM   10  C   UNL     1     -11.183  14.821  66.636  1.00  0.00    -0.346 A  
HETATM   11  C   UNL     1     -10.914  16.198  66.717  1.00  0.00    -0.080 A  
BRANCH  10  12
HETATM   12  C   UNL     1     -11.149  14.122  65.289  1.00  0.00    -0.331 C  
HETATM   13  O   UNL     1      -9.820  13.657  65.007  1.00  0.00    -0.577 OA 
HETATM   14  H   UNL     1      -9.798  13.219  64.164  1.00  0.00     0.000 HD 
BRANCH  12  15
HETATM   15  C   UNL     1     -12.122  12.926  65.227  1.00  0.00    -0.453 C  
BRANCH  15  16
HETATM   16  N   UNL     1     -11.714  11.860  66.157  1.00  0.00    -0.496 NA 
HETATM   17  H   UNL     1     -12.506  11.486  66.681  1.00  0.00     0.000 HD 
BRANCH  16  18
HETATM   18  C   UNL     1     -10.994  10.815  65.437  1.00  0.00     0.110 C  
BRANCH  18  19
HETATM   19  C   UNL     1      -9.856  10.278  66.296  1.00  0.00    -0.276 C  
BRANCH  19  20
HETATM   20  C   UNL     1      -9.291  11.389  67.177  1.00  0.00    -0.180 C  
BRANCH  20  21
HETATM   21  C   UNL     1      -9.372  11.003  68.647  1.00  0.00    -0.196 C  
BRANCH  21  22
HETATM   22  C   UNL     1      -9.936   9.599  68.824  1.00  0.00    -0.184 C  
BRANCH  22  23
HETATM   23  C   UNL     1      -9.304   8.924  70.032  1.00  0.00    -0.174 C  
BRANCH  23  24
HETATM   24  O   UNL     1     -10.182   7.900  70.484  1.00  0.00    -0.196 OA 
BRANCH  24  25
HETATM   25  C   UNL     1      -9.630   6.605  70.260  1.00  0.00    -0.161 C  
BRANCH  25  26
HETATM   26  C   UNL     1     -10.112   6.093  68.909  1.00  0.00    -0.211 C  
BRANCH  26  27
HETATM   27  C   UNL     1      -8.995   6.163  67.866  1.00  0.00    -0.112 C  
BRANCH  27  28
HETATM   28  C   UNL     1      -9.450   5.635  66.506  1.00  0.00    -0.165 C  
BRANCH  28  29
HETATM   29  C   UNL     1      -8.255   5.157  65.715  1.00  0.00    -0.117 A  
HETATM   30  C   UNL     1      -7.062   4.825  66.365  1.00  0.00    -0.075 A  
HETATM   31  C   UNL     1      -5.936   4.461  65.627  1.00  0.00    -0.023 A  
HETATM   32  C   UNL     1      -5.993   4.429  64.235  1.00  0.00    -0.018 A  
HETATM   33  C   UNL     1      -7.179   4.755  63.578  1.00  0.00    -0.049 A  
HETATM   34  C   UNL     1      -8.307   5.119  64.314  1.00  0.00    -0.137 A  
ENDBRANCH  28  29
ENDBRANCH  27  28
ENDBRANCH  26  27
ENDBRANCH  25  26
ENDBRANCH  24  25
ENDBRANCH  23  24
ENDBRANCH  22  23
ENDBRANCH  21  22
ENDBRANCH  20  21
ENDBRANCH  19  20
ENDBRANCH  18  19
ENDBRANCH  16  18
ENDBRANCH  15  16
ENDBRANCH  12  15
ENDBRANCH  10  12
ENDBRANCH   2   4
TORSDOF 16
ENDMDL
MODEL      427
REMARK 921   NORMALIZED FREE ENERGY PREDICTED BY IDOCK:   -2.64 KCAL/MOL
REMARK 922        TOTAL FREE ENERGY PREDICTED BY IDOCK:   -7.46 KCAL/MOL
REMARK 923 INTER-LIGAND FREE ENERGY PREDICTED BY IDOCK:   -6.96 KCAL/MOL
REMARK 924 INTRA-LIGAND FREE ENERGY PREDICTED BY IDOCK:   -0.50 KCAL/MOL
REMARK 927      BINDING AFFINITY PREDICTED BY RF-SCORE:    0.00 PKD
ROOT
HETATM    1  O   UNL     1      -9.965   5.115  65.142  1.00  0.00    -0.371 OA 
HETATM    2  C   UNL     1     -10.272   5.946  66.262  1.00  0.00    -0.030 C  
HETATM    3  H   UNL     1     -10.606   4.417  65.066  1.00  0.00     0.000 HD 
ENDROOT
BRANCH   2   4
HETATM    4  C   UNL     1      -9.256   7.052  66.383  1.00  0.00    -0.186 A  
HETATM    5  C   UNL     1      -8.480   7.490  65.304  1.00  0.00    -0.063 A  
HETATM    6  O   UNL     1      -8.551   6.893  64.076  1.00  0.00    -0.333 OA 
HETATM    7  C   UNL     1      -7.577   8.538  65.438  1.00  0.00    -0.088 A  
HETATM    8  C   UNL     1      -7.414   9.158  66.674  1.00  0.00    -0.086 A  
HETATM    9  H   UNL     1      -8.024   7.190  63.343  1.00  0.00     0.000 HD 
HETATM   10  C   UNL     1      -8.169   8.747  67.784  1.00  0.00    -0.111 A  
HETATM   11  C   UNL     1      -9.102   7.709  67.618  1.00  0.00    -0.133 A  
BRANCH  10  12
HETATM   12  C   UNL     1      -7.975   9.377  69.151  1.00  0.00    -0.091 C  
HETATM   13  O   UNL     1      -7.387  10.680  69.015  1.00  0.00    -0.088 OA 
HETATM   14  H   UNL     1      -7.266  11.075  69.871  1.00  0.00     0.000 HD 
BRANCH  12  15
HETATM   15  C   UNL     1      -9.303   9.506  69.928  1.00  0.00    -0.223 C  
BRANCH  15  16
HETATM   16  N   UNL     1     -10.403   9.912  69.038  1.00  0.00    -0.198 NA 
HETATM   17  H   UNL     1     -11.249   9.366  69.202  1.00  0.00     0.000 HD 
BRANCH  16  18
HETATM   18  C   UNL     1     -10.645  11.346  69.164  1.00  0.00    -0.160 C  
BRANCH  18  19
HETATM   19  C   UNL     1     -11.967  11.712  68.501  1.00  0.00    -0.284 C  
BRANCH  19  20
HETATM   20  C   UNL     1     -11.778  11.856  66.992  1.00  0.00    -0.304 C  
BRANCH  20  21
HETATM   21  C   UNL     1     -10.383  12.375  66.673  1.00  0.00    -0.245 C  
BRANCH  21  22
HETATM   22  C   UNL     1     -10.441  13.687  65.900  1.00  0.00    -0.297 C  
BRANCH  22  23
HETATM   23  C   UNL     1      -9.793  14.803  66.704  1.00  0.00    -0.259 C  
BRANCH  23  24
HETATM   24  O   UNL     1      -9.332  15.800  65.800  1.00  0.00    -0.329 OA 
BRANCH  24  25
HETATM   25  C   UNL     1      -8.253  16.548  66.354  1.00  0.00    -0.329 C  
BRANCH  25  26
HETATM   26  C   UNL     1      -8.576  16.872  67.807  1.00  0.00    -0.208 C  
BRANCH  26  27
HETATM   27  C   UNL     1      -8.866  18.363  67.985  1.00  0.00    -0.302 C  
BRANCH  27  28
HETATM   28  C   UNL     1      -8.877  19.106  66.651  1.00  0.00    -0.340 C  
BRANCH  28  29
HETATM   29  C   UNL     1      -7.568  19.834  66.457  1.00  0.00    -0.295 A  
HETATM   30  C   UNL     1      -7.041  20.628  67.481  1.00  0.00    -0.391 A  
HETATM   31  C   UNL     1      -5.874  21.363  67.273  1.00  0.00    -0.422 A  
HETATM   32  C   UNL     1      -5.227  21.313  66.039  1.00  0.00    -0.253 A  
HETATM   33  C   UNL     1      -5.743  20.521  65.014  1.00  0.00    -0.249 A  
HETATM   34  C   UNL     1      -6.910  19.784  65.220  1.00  0.00    -0.291 A  
ENDBRANCH  28  29
ENDBRANCH  27  28
ENDBRANCH  26  27
ENDBRANCH  25  26
ENDBRANCH  24  25
ENDBRANCH  23  24
ENDBRANCH  22  23
ENDBRANCH  21  22
ENDBRANCH  20  21
ENDBRANCH  19  20
ENDBRANCH  18  19
ENDBRANCH  16  18
ENDBRANCH  15  16
ENDBRANCH  12  15
ENDBRANCH  10  12
ENDBRANCH   2   4
TORSDOF 16
ENDMDL
MODEL      428
REMARK 921   NORMALIZED FREE ENERGY PREDICTED BY IDOCK:   -2.59 KCAL/MOL
REMARK 922        TOTAL FREE ENERGY PREDICTED BY IDOCK:   -7.35 KCAL/MOL
REMARK 923 INTER-LIGAND FREE ENERGY PREDICTED BY IDOCK:   -5.76 KCAL/MOL
REMARK 924 INTRA-LIGAND FREE ENERGY PREDICTED BY IDOCK:   -1.59 KCAL/MOL
REMARK 927      BINDING AFFINITY PREDICTED BY RF-SCORE:    0.00 PKD
ROOT
HETATM    1  O   UNL     1     -13.701   9.461  71.061  1.00  0.00    -0.561 OA 
HETATM    2  C   UNL     1     -12.333   9.118  71.285  1.00  0.00    -0.315 C  
HETATM    3  H   UNL     1     -14.260   8.994  71.671  1.00  0.00     0.000 HD 
ENDROOT
BRANCH   2   4
HETATM    4  C   UNL     1     -11.445   9.857  70.318  1.00  0.00    -0.349 A  
HETATM    5  C   UNL     1     -11.929  10.834  69.440  1.00  0.00    -0.281 A  
HETATM    6  O   UNL     1     -13.261  11.134  69.359  1.00  0.00     0.181 OA 
HETATM    7  C   UNL     1     -11.080  11.526  68.585  1.00  0.00    -0.291 A  
HETATM    8  C   UNL     1      -9.718  11.234  68.575  1.00  0.00    -0.199 A  
HETATM    9  H   UNL     1     -13.590  11.796  68.763  1.00  0.00     0.000 HD 
HETATM   10  C   UNL     1      -9.191  10.258  69.437  1.00  0.00    -0.206 A  
HETATM   11  C   UNL     1     -10.063   9.596  70.319  1.00  0.00    -0.331 A  
BRANCH  10  12
HETATM   12  C   UNL     1      -7.719   9.892  69.411  1.00  0.00    -0.119 C  
HETATM   13  O   UNL     1      -7.557   8.483  69.639  1.00  0.00    -0.083 OA 
HETATM   14  H   UNL     1      -6.635   8.253  69.623  1.00  0.00     0.000 HD 
BRANCH  12  15
HETATM   15  C   UNL     1      -7.049  10.262  68.071  1.00  0.00    -0.083 C  
BRANCH  15  16
HETATM   16  N   UNL     1      -6.965   9.095  67.177  1.00  0.00    -0.081 NA 
HETATM   17  H   UNL     1      -6.956   8.217  67.696  1.00  0.00     0.000 HD 
BRANCH  16  18
HETATM   18  C   UNL     1      -8.043   9.138  66.194  1.00  0.00    -0.107 C  
BRANCH  18  19
HETATM   19  C   UNL     1      -8.156  10.538  65.604  1.00  0.00    -0.161 C  
BRANCH  19  20
HETATM   20  C   UNL     1      -8.829  10.480  64.235  1.00  0.00    -0.209 C  
BRANCH  20  21
HETATM   21  C   UNL     1      -9.928  11.528  64.132  1.00  0.00    -0.327 C  
BRANCH  21  22
HETATM   22  C   UNL     1      -9.708  12.665  65.122  1.00  0.00    -0.018 C  
BRANCH  22  23
HETATM   23  C   UNL     1     -11.042  13.238  65.573  1.00  0.00    -0.281 C  
BRANCH  23  24
HETATM   24  O   UNL     1     -10.845  13.921  66.805  1.00  0.00    -0.283 OA 
BRANCH  24  25
HETATM   25  C   UNL     1     -11.339  15.257  66.745  1.00  0.00    -0.183 C  
BRANCH  25  26
HETATM   26  C   UNL     1     -10.503  16.045  65.744  1.00  0.00    -0.391 C  
BRANCH  26  27
HETATM   27  C   UNL     1      -9.174  16.481  66.363  1.00  0.00    -0.327 C  
BRANCH  27  28
HETATM   28  C   UNL     1      -8.138  15.360  66.339  1.00  0.00     0.139 C  
BRANCH  28  29
HETATM   29  C   UNL     1      -7.428  15.288  67.670  1.00  0.00    -0.197 A  
HETATM   30  C   UNL     1      -7.191  14.051  68.281  1.00  0.00    -0.114 A  
HETATM   31  C   UNL     1      -6.608  13.991  69.546  1.00  0.00    -0.115 A  
HETATM   32  C   UNL     1      -6.259  15.165  70.211  1.00  0.00    -0.108 A  
HETATM   33  C   UNL     1      -6.488  16.402  69.609  1.00  0.00    -0.201 A  
HETATM   34  C   UNL     1      -7.071  16.465  68.343  1.00  0.00    -0.156 A  
ENDBRANCH  28  29
ENDBRANCH  27  28
ENDBRANCH  26  27
ENDBRANCH  25  26
ENDBRANCH  24  25
ENDBRANCH  23  24
ENDBRANCH  22  23
ENDBRANCH  21  22
ENDBRANCH  20  21
ENDBRANCH  19  20
ENDBRANCH  18  19
ENDBRANCH  16  18
ENDBRANCH  15  16
ENDBRANCH  12  15
ENDBRANCH  10  12
ENDBRANCH   2   4
TORSDOF 16
ENDMDL
MODEL      429
REMARK 921   NORMALIZED FREE ENERGY PREDICTED BY IDOCK:   -2.45 KCAL/MOL
REMARK 922        TOTAL FREE ENERGY PREDICTED BY IDOCK:   -7.10 KCAL/MOL
REMARK 923 INTER-LIGAND FREE ENERGY PREDICTED BY IDOCK:   -6.49 KCAL/MOL
REMARK 924 INTRA-LIGAND FREE ENERGY PREDICTED BY IDOCK:   -0.61 KCAL/MOL
REMARK 927      BINDING AFFINITY PREDICTED BY RF-SCORE:    0.00 PKD
ROOT
HETATM    1  O   UNL     1      -6.895   5.463  63.547  1.00  0.00    -0.039 OA 
HETATM    2  C   UNL     1      -7.761   4.397  63.939  1.00  0.00    -0.079 C  
HETATM    3  H   UNL     1      -6.542   5.297  62.680  1.00  0.00     0.000 HD 
ENDROOT
BRANCH   2   4
HETATM    4  C   UNL     1      -8.321   4.659  65.312  1.00  0.00    -0.124 A  
HETATM    5  C   UNL     1      -9.543   4.133  65.746  1.00  0.00    -0.190 A  
HETATM    6  O   UNL     1     -10.344   3.395  64.919  1.00  0.00    -0.400 OA 
HETATM    7  C   UNL     1     -10.017   4.362  67.033  1.00  0.00    -0.197 A  
HETATM    8  C   UNL     1      -9.278   5.150  67.912  1.00  0.00    -0.128 A  
HETATM    9  H   UNL     1     -11.174   3.038  65.213  1.00  0.00     0.000 HD 
HETATM   10  C   UNL     1      -8.048   5.701  67.517  1.00  0.00    -0.102 A  
HETATM   11  C   UNL     1      -7.572   5.427  66.223  1.00  0.00    -0.087 A  
BRANCH  10  12
HETATM   12  C   UNL     1      -7.249   6.600  68.442  1.00  0.00    -0.085 C  
HETATM   13  O   UNL     1      -7.021   5.939  69.696  1.00  0.00    -0.062 OA 
HETATM   14  H   UNL     1      -6.520   6.502  70.276  1.00  0.00     0.000 HD 
BRANCH  12  15
HETATM   15  C   UNL     1      -5.889   7.002  67.833  1.00  0.00    -0.025 C  
BRANCH  15  16
HETATM   16  N   UNL     1      -5.980   8.295  67.135  1.00  0.00    -0.052 NA 
HETATM   17  H   UNL     1      -6.916   8.468  66.770  1.00  0.00     0.000 HD 
BRANCH  16  18
HETATM   18  C   UNL     1      -5.529   9.371  68.012  1.00  0.00    -0.037 C  
BRANCH  18  19
HETATM   19  C   UNL     1      -6.406  10.602  67.823  1.00  0.00    -0.059 C  
BRANCH  19  20
HETATM   20  C   UNL     1      -5.619  11.706  67.120  1.00  0.00    -0.111 C  
BRANCH  20  21
HETATM   21  C   UNL     1      -5.678  13.000  67.919  1.00  0.00    -0.126 C  
BRANCH  21  22
HETATM   22  C   UNL     1      -6.942  13.074  68.767  1.00  0.00    -0.103 C  
BRANCH  22  23
HETATM   23  C   UNL     1      -7.509  14.485  68.748  1.00  0.00    -0.132 C  
BRANCH  23  24
HETATM   24  O   UNL     1      -8.382  14.603  67.632  1.00  0.00    -0.153 OA 
BRANCH  24  25
HETATM   25  C   UNL     1      -9.309  13.521  67.579  1.00  0.00    -0.220 C  
BRANCH  25  26
HETATM   26  C   UNL     1     -10.346  13.709  68.679  1.00  0.00    -0.223 C  
BRANCH  26  27
HETATM   27  C   UNL     1     -10.657  15.191  68.892  1.00  0.00    -0.242 C  
BRANCH  27  28
HETATM   28  C   UNL     1     -12.150  15.436  69.108  1.00  0.00    -0.270 C  
BRANCH  28  29
HETATM   29  C   UNL     1     -12.443  15.556  70.585  1.00  0.00    -0.483 A  
HETATM   30  C   UNL     1     -11.413  15.829  71.491  1.00  0.00    -0.504 A  
HETATM   31  C   UNL     1     -11.671  15.859  72.862  1.00  0.00    -0.468 A  
HETATM   32  C   UNL     1     -12.958  15.613  73.336  1.00  0.00    -0.676 A  
HETATM   33  C   UNL     1     -13.992  15.343  72.440  1.00  0.00    -0.657 A  
HETATM   34  C   UNL     1     -13.736  15.313  71.068  1.00  0.00    -0.452 A  
ENDBRANCH  28  29
ENDBRANCH  27  28
ENDBRANCH  26  27
ENDBRANCH  25  26
ENDBRANCH  24  25
ENDBRANCH  23  24
ENDBRANCH  22  23
ENDBRANCH  21  22
ENDBRANCH  20  21
ENDBRANCH  19  20
ENDBRANCH  18  19
ENDBRANCH  16  18
ENDBRANCH  15  16
ENDBRANCH  12  15
ENDBRANCH  10  12
ENDBRANCH   2   4
TORSDOF 16
ENDMDL
MODEL      430
REMARK 921   NORMALIZED FREE ENERGY PREDICTED BY IDOCK:   -2.21 KCAL/MOL
REMARK 922        TOTAL FREE ENERGY PREDICTED BY IDOCK:   -6.62 KCAL/MOL
REMARK 923 INTER-LIGAND FREE ENERGY PREDICTED BY IDOCK:   -6.75 KCAL/MOL
REMARK 924 INTRA-LIGAND FREE ENERGY PREDICTED BY IDOCK:    0.12 KCAL/MOL
REMARK 927      BINDING AFFINITY PREDICTED BY RF-SCORE:    0.00 PKD
ROOT
HETATM    1  O   UNL     1      -5.682   6.348  64.978  1.00  0.00    -0.021 OA 
HETATM    2  C   UNL     1      -6.502   5.215  65.266  1.00  0.00    -0.036 C  
HETATM    3  H   UNL     1      -4.895   6.075  64.520  1.00  0.00     0.000 HD 
ENDROOT
BRANCH   2   4
HETATM    4  C   UNL     1      -7.749   5.646  65.993  1.00  0.00    -0.095 A  
HETATM    5  C   UNL     1      -8.939   4.910  65.958  1.00  0.00    -0.129 A  
HETATM    6  O   UNL     1      -9.064   3.777  65.203  1.00  0.00    -0.129 OA 
HETATM    7  C   UNL     1     -10.063   5.314  66.669  1.00  0.00    -0.259 A  
HETATM    8  C   UNL     1     -10.024   6.488  67.418  1.00  0.00    -0.180 A  
HETATM    9  H   UNL     1      -9.872   3.278  65.178  1.00  0.00     0.000 HD 
HETATM   10  C   UNL     1      -8.852   7.258  67.477  1.00  0.00    -0.119 A  
HETATM   11  C   UNL     1      -7.716   6.812  66.779  1.00  0.00    -0.106 A  
BRANCH  10  12
HETATM   12  C   UNL     1      -8.800   8.564  68.249  1.00  0.00    -0.142 C  
HETATM   13  O   UNL     1      -9.091   8.329  69.635  1.00  0.00    -0.151 OA 
HETATM   14  H   UNL     1      -9.058   9.147  70.119  1.00  0.00     0.000 HD 
BRANCH  12  15
HETATM   15  C   UNL     1      -7.425   9.255  68.135  1.00  0.00    -0.083 C  
BRANCH  15  16
HETATM   16  N   UNL     1      -7.556  10.618  67.595  1.00  0.00    -0.092 NA 
HETATM   17  H   UNL     1      -8.506  10.813  67.279  1.00  0.00     0.000 HD 
BRANCH  16  18
HETATM   18  C   UNL     1      -7.096  11.593  68.578  1.00  0.00    -0.089 C  
BRANCH  18  19
HETATM   19  C   UNL     1      -8.004  12.817  68.565  1.00  0.00    -0.095 C  
BRANCH  19  20
HETATM   20  C   UNL     1      -7.744  13.651  67.313  1.00  0.00    -0.091 C  
BRANCH  20  21
HETATM   21  C   UNL     1      -6.974  14.917  67.661  1.00  0.00    -0.207 C  
BRANCH  21  22
HETATM   22  C   UNL     1      -7.173  15.305  69.121  1.00  0.00    -0.169 C  
BRANCH  22  23
HETATM   23  C   UNL     1      -8.635  15.629  69.388  1.00  0.00    -0.248 C  
BRANCH  23  24
HETATM   24  O   UNL     1      -8.850  17.004  69.098  1.00  0.00    -0.180 OA 
BRANCH  24  25
HETATM   25  C   UNL     1     -10.062  17.200  68.372  1.00  0.00    -0.314 C  
BRANCH  25  26
HETATM   26  C   UNL     1     -11.013  16.053  68.688  1.00  0.00    -0.323 C  
BRANCH  26  27
HETATM   27  C   UNL     1     -11.282  15.961  70.190  1.00  0.00    -0.368 C  
BRANCH  27  28
HETATM   28  C   UNL     1     -12.689  15.447  70.488  1.00  0.00    -0.455 C  
BRANCH  28  29
HETATM   29  C   UNL     1     -12.660  13.949  70.678  1.00  0.00    -0.405 A  
HETATM   30  C   UNL     1     -13.194  13.371  71.835  1.00  0.00    -0.522 A  
HETATM   31  C   UNL     1     -13.094  11.995  72.045  1.00  0.00    -0.456 A  
HETATM   32  C   UNL     1     -12.459  11.189  71.103  1.00  0.00    -0.498 A  
HETATM   33  C   UNL     1     -11.927  11.756  69.945  1.00  0.00    -0.405 A  
HETATM   34  C   UNL     1     -12.026  13.131  69.732  1.00  0.00    -0.382 A  
ENDBRANCH  28  29
ENDBRANCH  27  28
ENDBRANCH  26  27
ENDBRANCH  25  26
ENDBRANCH  24  25
ENDBRANCH  23  24
ENDBRANCH  22  23
ENDBRANCH  21  22
ENDBRANCH  20  21
ENDBRANCH  19  20
ENDBRANCH  18  19
ENDBRANCH  16  18
ENDBRANCH  15  16
ENDBRANCH  12  15
ENDBRANCH  10  12
ENDBRANCH   2   4
TORSDOF 16
ENDMDL
MODEL      431
REMARK 921   NORMALIZED FREE ENERGY PREDICTED BY IDOCK:   -2.19 KCAL/MOL
REMARK 922        TOTAL FREE ENERGY PREDICTED BY IDOCK:   -6.57 KCAL/MOL
REMARK 923 INTER-LIGAND FREE ENERGY PREDICTED BY IDOCK:   -5.31 KCAL/MOL
REMARK 924 INTRA-LIGAND FREE ENERGY PREDICTED BY IDOCK:   -1.26 KCAL/MOL
REMARK 927      BINDING AFFINITY PREDICTED BY RF-SCORE:    0.00 PKD
ROOT
HETATM    1  O   UNL     1     -10.673   3.114  72.770  1.00  0.00    -0.128 OA 
HETATM    2  C   UNL     1      -9.619   3.856  73.385  1.00  0.00    -0.110 C  
HETATM    3  H   UNL     1     -10.524   2.181  72.879  1.00  0.00     0.000 HD 
ENDROOT
BRANCH   2   4
HETATM    4  C   UNL     1      -9.854   5.334  73.213  1.00  0.00    -0.178 A  
HETATM    5  C   UNL     1      -9.008   6.305  73.760  1.00  0.00    -0.128 A  
HETATM    6  O   UNL     1      -7.941   5.970  74.546  1.00  0.00    -0.102 OA 
HETATM    7  C   UNL     1      -9.229   7.662  73.552  1.00  0.00    -0.331 A  
HETATM    8  C   UNL     1     -10.329   8.077  72.805  1.00  0.00    -0.408 A  
HETATM    9  H   UNL     1      -7.366   6.629  74.918  1.00  0.00     0.000 HD 
HETATM   10  C   UNL     1     -11.206   7.136  72.241  1.00  0.00    -0.297 A  
HETATM   11  C   UNL     1     -10.942   5.769  72.434  1.00  0.00    -0.308 A  
BRANCH  10  12
HETATM   12  C   UNL     1     -12.435   7.567  71.462  1.00  0.00    -0.346 C  
HETATM   13  O   UNL     1     -13.623   7.288  72.220  1.00  0.00    -0.508 OA 
HETATM   14  H   UNL     1     -14.392   7.558  71.732  1.00  0.00     0.000 HD 
BRANCH  12  15
HETATM   15  C   UNL     1     -12.406   9.070  71.112  1.00  0.00    -0.251 C  
BRANCH  15  16
HETATM   16  N   UNL     1     -11.713   9.306  69.834  1.00  0.00    -0.443 NA 
HETATM   17  H   UNL     1     -12.338   9.693  69.127  1.00  0.00     0.000 HD 
BRANCH  16  18
HETATM   18  C   UNL     1     -10.541  10.148  70.048  1.00  0.00    -0.287 C  
BRANCH  18  19
HETATM   19  C   UNL     1      -9.298   9.464  69.494  1.00  0.00    -0.187 C  
BRANCH  19  20
HETATM   20  C   UNL     1      -8.132   9.621  70.467  1.00  0.00    -0.145 C  
BRANCH  20  21
HETATM   21  C   UNL     1      -6.805   9.619  69.721  1.00  0.00    -0.070 C  
BRANCH  21  22
HETATM   22  C   UNL     1      -7.015   9.579  68.212  1.00  0.00    -0.070 C  
BRANCH  22  23
HETATM   23  C   UNL     1      -7.538  10.919  67.716  1.00  0.00    -0.095 C  
BRANCH  23  24
HETATM   24  O   UNL     1      -7.795  10.812  66.322  1.00  0.00    -0.147 OA 
BRANCH  24  25
HETATM   25  C   UNL     1      -9.188  10.661  66.059  1.00  0.00    -0.182 C  
BRANCH  25  26
HETATM   26  C   UNL     1      -9.424   9.291  65.435  1.00  0.00    -0.281 C  
BRANCH  26  27
HETATM   27  C   UNL     1      -9.405   8.193  66.500  1.00  0.00    -0.262 C  
BRANCH  27  28
HETATM   28  C   UNL     1     -10.086   6.915  66.015  1.00  0.00     0.447 C  
BRANCH  28  29
HETATM   29  C   UNL     1     -10.013   5.854  67.088  1.00  0.00    -0.187 A  
HETATM   30  C   UNL     1      -9.820   4.511  66.744  1.00  0.00    -0.242 A  
HETATM   31  C   UNL     1      -9.834   3.524  67.729  1.00  0.00     0.071 A  
HETATM   32  C   UNL     1     -10.042   3.870  69.063  1.00  0.00     0.364 A  
HETATM   33  C   UNL     1     -10.232   5.206  69.415  1.00  0.00    -0.293 A  
HETATM   34  C   UNL     1     -10.218   6.195  68.432  1.00  0.00    -0.208 A  
ENDBRANCH  28  29
ENDBRANCH  27  28
ENDBRANCH  26  27
ENDBRANCH  25  26
ENDBRANCH  24  25
ENDBRANCH  23  24
ENDBRANCH  22  23
ENDBRANCH  21  22
ENDBRANCH  20  21
ENDBRANCH  19  20
ENDBRANCH  18  19
ENDBRANCH  16  18
ENDBRANCH  15  16
ENDBRANCH  12  15
ENDBRANCH  10  12
ENDBRANCH   2   4
TORSDOF 16
ENDMDL
MODEL      432
REMARK 921   NORMALIZED FREE ENERGY PREDICTED BY IDOCK:   -2.13 KCAL/MOL
REMARK 922        TOTAL FREE ENERGY PREDICTED BY IDOCK:   -6.47 KCAL/MOL
REMARK 923 INTER-LIGAND FREE ENERGY PREDICTED BY IDOCK:   -6.41 KCAL/MOL
REMARK 924 INTRA-LIGAND FREE ENERGY PREDICTED BY IDOCK:   -0.06 KCAL/MOL
REMARK 927      BINDING AFFINITY PREDICTED BY RF-SCORE:    0.00 PKD
ROOT
HETATM    1  O   UNL     1     -12.113  16.667  72.221  1.00  0.00    -0.569 OA 
HETATM    2  C   UNL     1     -12.126  15.343  71.685  1.00  0.00    -0.380 C  
HETATM    3  H   UNL     1     -12.460  16.667  73.105  1.00  0.00     0.000 HD 
ENDROOT
BRANCH   2   4
HETATM    4  C   UNL     1     -11.575  15.343  70.284  1.00  0.00    -0.346 A  
HETATM    5  C   UNL     1     -10.948  16.457  69.715  1.00  0.00    -0.341 A  
HETATM    6  O   UNL     1     -10.853  17.648  70.381  1.00  0.00     0.135 OA 
HETATM    7  C   UNL     1     -10.416  16.415  68.432  1.00  0.00    -0.298 A  
HETATM    8  C   UNL     1     -10.524  15.251  67.676  1.00  0.00    -0.263 A  
HETATM    9  H   UNL     1     -10.428  18.405  69.995  1.00  0.00     0.000 HD 
HETATM   10  C   UNL     1     -11.149  14.111  68.205  1.00  0.00    -0.274 A  
HETATM   11  C   UNL     1     -11.648  14.164  69.519  1.00  0.00    -0.349 A  
BRANCH  10  12
HETATM   12  C   UNL     1     -11.319  12.847  67.383  1.00  0.00    -0.309 C  
HETATM   13  O   UNL     1     -12.527  12.169  67.762  1.00  0.00    -0.093 OA 
HETATM   14  H   UNL     1     -12.633  11.378  67.247  1.00  0.00     0.000 HD 
BRANCH  12  15
HETATM   15  C   UNL     1     -11.362  13.138  65.868  1.00  0.00    -0.311 C  
BRANCH  15  16
HETATM   16  N   UNL     1     -12.419  12.356  65.205  1.00  0.00    -0.609 NA 
HETATM   17  H   UNL     1     -13.124  12.954  64.776  1.00  0.00     0.000 HD 
BRANCH  16  18
HETATM   18  C   UNL     1     -11.829  11.430  64.244  1.00  0.00     0.156 C  
BRANCH  18  19
HETATM   19  C   UNL     1     -10.989  12.195  63.229  1.00  0.00    -0.398 C  
BRANCH  19  20
HETATM   20  C   UNL     1      -9.552  11.678  63.236  1.00  0.00    -0.334 C  
BRANCH  20  21
HETATM   21  C   UNL     1      -9.491  10.270  63.812  1.00  0.00    -0.352 C  
BRANCH  21  22
HETATM   22  C   UNL     1      -8.706   9.331  62.904  1.00  0.00    -0.210 C  
BRANCH  22  23
HETATM   23  C   UNL     1      -7.635   8.600  63.699  1.00  0.00    -0.127 C  
BRANCH  23  24
HETATM   24  O   UNL     1      -8.005   7.231  63.797  1.00  0.00    -0.133 OA 
BRANCH  24  25
HETATM   25  C   UNL     1      -7.225   6.550  64.778  1.00  0.00    -0.067 C  
BRANCH  25  26
HETATM   26  C   UNL     1      -7.720   5.113  64.886  1.00  0.00    -0.085 C  
BRANCH  26  27
HETATM   27  C   UNL     1      -9.218   5.070  65.190  1.00  0.00    -0.100 C  
BRANCH  27  28
HETATM   28  C   UNL     1      -9.645   6.204  66.120  1.00  0.00    -0.071 C  
BRANCH  28  29
HETATM   29  C   UNL     1      -9.263   5.874  67.543  1.00  0.00    -0.108 A  
HETATM   30  C   UNL     1      -9.740   6.653  68.603  1.00  0.00    -0.129 A  
HETATM   31  C   UNL     1      -9.322   6.396  69.909  1.00  0.00    -0.156 A  
HETATM   32  C   UNL     1      -8.424   5.362  70.164  1.00  0.00    -0.119 A  
HETATM   33  C   UNL     1      -7.946   4.578  69.115  1.00  0.00    -0.069 A  
HETATM   34  C   UNL     1      -8.363   4.832  67.808  1.00  0.00    -0.103 A  
ENDBRANCH  28  29
ENDBRANCH  27  28
ENDBRANCH  26  27
ENDBRANCH  25  26
ENDBRANCH  24  25
ENDBRANCH  23  24
ENDBRANCH  22  23
ENDBRANCH  21  22
ENDBRANCH  20  21
ENDBRANCH  19  20
ENDBRANCH  18  19
ENDBRANCH  16  18
ENDBRANCH  15  16
ENDBRANCH  12  15
ENDBRANCH  10  12
ENDBRANCH   2   4
TORSDOF 16
ENDMDL
MODEL      433
REMARK 921   NORMALIZED FREE ENERGY PREDICTED BY IDOCK:   -1.93 KCAL/MOL
REMARK 922        TOTAL FREE ENERGY PREDICTED BY IDOCK:   -6.09 KCAL/MOL
REMARK 923 INTER-LIGAND FREE ENERGY PREDICTED BY IDOCK:   -5.32 KCAL/MOL
REMARK 924 INTRA-LIGAND FREE ENERGY PREDICTED BY IDOCK:   -0.77 KCAL/MOL
REMARK 927      BINDING AFFINITY PREDICTED BY RF-SCORE:    0.00 PKD
ROOT
HETATM    1  O   UNL     1      -5.387   7.307  67.499  1.00  0.00    -0.019 OA 
HETATM    2  C   UNL     1      -5.732   8.606  67.016  1.00  0.00    -0.042 C  
HETATM    3  H   UNL     1      -4.446   7.235  67.605  1.00  0.00     0.000 HD 
ENDROOT
BRANCH   2   4
HETATM    4  C   UNL     1      -7.224   8.720  66.846  1.00  0.00    -0.079 A  
HETATM    5  C   UNL     1      -8.134   8.217  67.783  1.00  0.00    -0.127 A  
HETATM    6  O   UNL     1      -7.722   7.527  68.889  1.00  0.00    -0.109 OA 
HETATM    7  C   UNL     1      -9.506   8.370  67.617  1.00  0.00    -0.176 A  
HETATM    8  C   UNL     1      -9.998   9.016  66.486  1.00  0.00    -0.355 A  
HETATM    9  H   UNL     1      -8.339   7.185  69.525  1.00  0.00     0.000 HD 
HETATM   10  C   UNL     1      -9.121   9.532  65.519  1.00  0.00    -0.262 A  
HETATM   11  C   UNL     1      -7.736   9.398  65.725  1.00  0.00    -0.099 A  
BRANCH  10  12
HETATM   12  C   UNL     1      -9.636  10.199  64.257  1.00  0.00    -0.290 C  
HETATM   13  O   UNL     1     -11.070  10.263  64.283  1.00  0.00     0.375 OA 
HETATM   14  H   UNL     1     -11.394  10.681  63.493  1.00  0.00     0.000 HD 
BRANCH  12  15
HETATM   15  C   UNL     1      -9.074  11.626  64.080  1.00  0.00     0.288 C  
BRANCH  15  16
HETATM   16  N   UNL     1      -9.591  12.534  65.117  1.00  0.00    -0.468 NA 
HETATM   17  H   UNL     1      -8.845  12.917  65.697  1.00  0.00     0.000 HD 
BRANCH  16  18
HETATM   18  C   UNL     1     -10.400  13.584  64.505  1.00  0.00    -0.358 C  
BRANCH  18  19
HETATM   19  C   UNL     1     -10.502  14.779  65.445  1.00  0.00    -0.401 C  
BRANCH  19  20
HETATM   20  C   UNL     1     -10.589  16.075  64.642  1.00  0.00     0.101 C  
BRANCH  20  21
HETATM   21  C   UNL     1     -11.153  17.200  65.497  1.00  0.00     0.216 C  
BRANCH  21  22
HETATM   22  C   UNL     1     -10.087  17.792  66.412  1.00  0.00    -0.357 C  
BRANCH  22  23
HETATM   23  C   UNL     1      -9.972  19.292  66.187  1.00  0.00    -0.397 C  
BRANCH  23  24
HETATM   24  O   UNL     1      -8.932  19.792  67.018  1.00  0.00    -0.303 OA 
BRANCH  24  25
HETATM   25  C   UNL     1      -8.625  18.883  68.073  1.00  0.00    -0.299 C  
BRANCH  25  26
HETATM   26  C   UNL     1      -7.670  17.821  67.543  1.00  0.00    -0.214 C  
BRANCH  26  27
HETATM   27  C   UNL     1      -7.944  16.464  68.192  1.00  0.00    -0.160 C  
BRANCH  27  28
HETATM   28  C   UNL     1      -9.252  16.462  68.982  1.00  0.00    -0.247 C  
BRANCH  28  29
HETATM   29  C   UNL     1      -9.871  15.085  68.948  1.00  0.00    -0.233 A  
HETATM   30  C   UNL     1      -9.108  13.974  68.573  1.00  0.00    -0.163 A  
HETATM   31  C   UNL     1      -9.701  12.716  68.465  1.00  0.00    -0.131 A  
HETATM   32  C   UNL     1     -11.061  12.560  68.727  1.00  0.00    -0.314 A  
HETATM   33  C   UNL     1     -11.829  13.661  69.105  1.00  0.00    -0.394 A  
HETATM   34  C   UNL     1     -11.238  14.920  69.215  1.00  0.00    -0.300 A  
ENDBRANCH  28  29
ENDBRANCH  27  28
ENDBRANCH  26  27
ENDBRANCH  25  26
ENDBRANCH  24  25
ENDBRANCH  23  24
ENDBRANCH  22  23
ENDBRANCH  21  22
ENDBRANCH  20  21
ENDBRANCH  19  20
ENDBRANCH  18  19
ENDBRANCH  16  18
ENDBRANCH  15  16
ENDBRANCH  12  15
ENDBRANCH  10  12
ENDBRANCH   2   4
TORSDOF 16
ENDMDL
MODEL      434
REMARK 921   NORMALIZED FREE ENERGY PREDICTED BY IDOCK:   -1.87 KCAL/MOL
REMARK 922        TOTAL FREE ENERGY PREDICTED BY IDOCK:   -5.96 KCAL/MOL
REMARK 923 INTER-LIGAND FREE ENERGY PREDICTED BY IDOCK:   -4.82 KCAL/MOL
REMARK 924 INTRA-LIGAND FREE ENERGY PREDICTED BY IDOCK:   -1.15 KCAL/MOL
REMARK 927      BINDING AFFINITY PREDICTED BY RF-SCORE:    0.00 PKD
ROOT
HETATM    1  O   UNL     1      -7.162   5.778  62.332  1.00  0.00    -0.045 OA 
HETATM    2  C   UNL     1      -7.994   4.623  62.455  1.00  0.00    -0.068 C  
HETATM    3  H   UNL     1      -6.639   5.723  61.541  1.00  0.00     0.000 HD 
ENDROOT
BRANCH   2   4
HETATM    4  C   UNL     1      -8.824   4.710  63.709  1.00  0.00    -0.130 A  
HETATM    5  C   UNL     1     -10.025   4.010  63.872  1.00  0.00    -0.150 A  
HETATM    6  O   UNL     1     -10.557   3.248  62.870  1.00  0.00    -0.176 OA 
HETATM    7  C   UNL     1     -10.751   4.081  65.056  1.00  0.00    -0.062 A  
HETATM    8  C   UNL     1     -10.295   4.882  66.100  1.00  0.00    -0.329 A  
HETATM    9  H   UNL     1     -11.372   2.773  62.981  1.00  0.00     0.000 HD 
HETATM   10  C   UNL     1      -9.097   5.604  65.977  1.00  0.00    -0.164 A  
HETATM   11  C   UNL     1      -8.361   5.489  64.785  1.00  0.00    -0.136 A  
BRANCH  10  12
HETATM   12  C   UNL     1      -8.606   6.518  67.084  1.00  0.00    -0.111 C  
HETATM   13  O   UNL     1      -9.217   6.155  68.332  1.00  0.00    -0.113 OA 
HETATM   14  H   UNL     1      -8.909   6.726  69.026  1.00  0.00     0.000 HD 
BRANCH  12  15
HETATM   15  C   UNL     1      -7.071   6.466  67.245  1.00  0.00    -0.073 C  
BRANCH  15  16
HETATM   16  N   UNL     1      -6.461   7.773  66.949  1.00  0.00    -0.054 NA 
HETATM   17  H   UNL     1      -7.065   8.354  66.368  1.00  0.00     0.000 HD 
BRANCH  16  18
HETATM   18  C   UNL     1      -6.087   8.443  68.190  1.00  0.00    -0.050 C  
BRANCH  18  19
HETATM   19  C   UNL     1      -7.079   9.557  68.501  1.00  0.00    -0.070 C  
BRANCH  19  20
HETATM   20  C   UNL     1      -7.116  10.565  67.355  1.00  0.00    -0.090 C  
BRANCH  20  21
HETATM   21  C   UNL     1      -8.285  11.525  67.521  1.00  0.00    -0.140 C  
BRANCH  21  22
HETATM   22  C   UNL     1      -9.109  11.190  68.759  1.00  0.00    -0.144 C  
BRANCH  22  23
HETATM   23  C   UNL     1     -10.590  11.159  68.415  1.00  0.00    -0.193 C  
BRANCH  23  24
HETATM   24  O   UNL     1     -11.250  10.314  69.349  1.00  0.00    -0.231 OA 
BRANCH  24  25
HETATM   25  C   UNL     1     -10.752   8.980  69.286  1.00  0.00    -0.174 C  
BRANCH  25  26
HETATM   26  C   UNL     1     -10.797   8.373  70.683  1.00  0.00    -0.256 C  
BRANCH  26  27
HETATM   27  C   UNL     1     -11.654   7.107  70.705  1.00  0.00    -0.354 C  
BRANCH  27  28
HETATM   28  C   UNL     1     -11.148   6.092  71.728  1.00  0.00    -0.332 C  
BRANCH  28  29
HETATM   29  C   UNL     1      -9.832   6.557  72.306  1.00  0.00    -0.166 A  
HETATM   30  C   UNL     1      -9.807   7.405  73.418  1.00  0.00    -0.345 A  
HETATM   31  C   UNL     1      -8.595   7.898  73.901  1.00  0.00    -0.332 A  
HETATM   32  C   UNL     1      -7.400   7.549  73.274  1.00  0.00    -0.100 A  
HETATM   33  C   UNL     1      -7.415   6.701  72.168  1.00  0.00    -0.094 A  
HETATM   34  C   UNL     1      -8.626   6.206  71.683  1.00  0.00    -0.134 A  
ENDBRANCH  28  29
ENDBRANCH  27  28
ENDBRANCH  26  27
ENDBRANCH  25  26
ENDBRANCH  24  25
ENDBRANCH  23  24
ENDBRANCH  22  23
ENDBRANCH  21  22
ENDBRANCH  20  21
ENDBRANCH  19  20
ENDBRANCH  18  19
ENDBRANCH  16  18
ENDBRANCH  15  16
ENDBRANCH  12  15
ENDBRANCH  10  12
ENDBRANCH   2   4
TORSDOF 16
ENDMDL
MODEL      435
REMARK 921   NORMALIZED FREE ENERGY PREDICTED BY IDOCK:   -1.81 KCAL/MOL
REMARK 922        TOTAL FREE ENERGY PREDICTED BY IDOCK:   -5.85 KCAL/MOL
REMARK 923 INTER-LIGAND FREE ENERGY PREDICTED BY IDOCK:   -3.48 KCAL/MOL
REMARK 924 INTRA-LIGAND FREE ENERGY PREDICTED BY IDOCK:   -2.37 KCAL/MOL
REMARK 927      BINDING AFFINITY PREDICTED BY RF-SCORE:    0.00 PKD
ROOT
HETATM    1  O   UNL     1     -12.995   7.194  70.823  1.00  0.00    -0.597 OA 
HETATM    2  C   UNL     1     -11.984   6.605  70.003  1.00  0.00    -0.123 C  
HETATM    3  H   UNL     1     -13.712   6.582  70.950  1.00  0.00     0.000 HD 
ENDROOT
BRANCH   2   4
HETATM    4  C   UNL     1     -10.849   7.574  69.801  1.00  0.00    -0.234 A  
HETATM    5  C   UNL     1     -10.608   8.214  68.580  1.00  0.00    -0.100 A  
HETATM    6  O   UNL     1     -11.356   7.948  67.467  1.00  0.00    -0.232 OA 
HETATM    7  C   UNL     1      -9.574   9.132  68.433  1.00  0.00    -0.162 A  
HETATM    8  C   UNL     1      -8.739   9.411  69.511  1.00  0.00    -0.162 A  
HETATM    9  H   UNL     1     -11.193   8.382  66.638  1.00  0.00     0.000 HD 
HETATM   10  C   UNL     1      -8.942   8.788  70.753  1.00  0.00    -0.231 A  
HETATM   11  C   UNL     1     -10.016   7.890  70.889  1.00  0.00    -0.196 A  
BRANCH  10  12
HETATM   12  C   UNL     1      -8.017   9.043  71.928  1.00  0.00     0.228 C  
HETATM   13  O   UNL     1      -8.577   8.488  73.128  1.00  0.00    -0.362 OA 
HETATM   14  H   UNL     1      -7.998   8.647  73.864  1.00  0.00     0.000 HD 
BRANCH  12  15
HETATM   15  C   UNL     1      -6.613   8.440  71.706  1.00  0.00    -0.070 C  
BRANCH  15  16
HETATM   16  N   UNL     1      -6.079   8.805  70.384  1.00  0.00    -0.033 NA 
HETATM   17  H   UNL     1      -6.821   9.021  69.719  1.00  0.00     0.000 HD 
BRANCH  16  18
HETATM   18  C   UNL     1      -5.126   9.903  70.514  1.00  0.00    -0.035 C  
BRANCH  18  19
HETATM   19  C   UNL     1      -5.850  11.239  70.400  1.00  0.00    -0.151 C  
BRANCH  19  20
HETATM   20  C   UNL     1      -5.546  11.889  69.052  1.00  0.00    -0.051 C  
BRANCH  20  21
HETATM   21  C   UNL     1      -6.834  12.225  68.315  1.00  0.00    -0.075 C  
BRANCH  21  22
HETATM   22  C   UNL     1      -6.614  12.288  66.808  1.00  0.00     0.217 C  
BRANCH  22  23
HETATM   23  C   UNL     1      -5.849  11.062  66.335  1.00  0.00    -0.140 C  
BRANCH  23  24
HETATM   24  O   UNL     1      -6.788  10.082  65.911  1.00  0.00    -0.095 OA 
BRANCH  24  25
HETATM   25  C   UNL     1      -6.247   8.766  66.004  1.00  0.00    -0.056 C  
BRANCH  25  26
HETATM   26  C   UNL     1      -7.395   7.766  66.050  1.00  0.00    -0.074 C  
BRANCH  26  27
HETATM   27  C   UNL     1      -7.322   6.904  67.312  1.00  0.00    -0.091 C  
BRANCH  27  28
HETATM   28  C   UNL     1      -8.252   5.695  67.232  1.00  0.00    -0.101 C  
BRANCH  28  29
HETATM   29  C   UNL     1      -8.120   4.862  68.485  1.00  0.00    -0.085 A  
HETATM   30  C   UNL     1      -8.904   3.716  68.660  1.00  0.00    -0.159 A  
HETATM   31  C   UNL     1      -8.839   2.993  69.851  1.00  0.00    -0.152 A  
HETATM   32  C   UNL     1      -7.993   3.411  70.876  1.00  0.00    -0.055 A  
HETATM   33  C   UNL     1      -7.205   4.550  70.710  1.00  0.00    -0.041 A  
HETATM   34  C   UNL     1      -7.268   5.274  69.520  1.00  0.00    -0.061 A  
ENDBRANCH  28  29
ENDBRANCH  27  28
ENDBRANCH  26  27
ENDBRANCH  25  26
ENDBRANCH  24  25
ENDBRANCH  23  24
ENDBRANCH  22  23
ENDBRANCH  21  22
ENDBRANCH  20  21
ENDBRANCH  19  20
ENDBRANCH  18  19
ENDBRANCH  16  18
ENDBRANCH  15  16
ENDBRANCH  12  15
ENDBRANCH  10  12
ENDBRANCH   2   4
TORSDOF 16
ENDMDL
MODEL      436
REMARK 921   NORMALIZED FREE ENERGY PREDICTED BY IDOCK:   -1.64 KCAL/MOL
REMARK 922        TOTAL FREE ENERGY PREDICTED BY IDOCK:   -5.52 KCAL/MOL
REMARK 923 INTER-LIGAND FREE ENERGY PREDICTED BY IDOCK:   -5.03 KCAL/MOL
REMARK 924 INTRA-LIGAND FREE ENERGY PREDICTED BY IDOCK:   -0.48 KCAL/MOL
REMARK 927      BINDING AFFINITY PREDICTED BY RF-SCORE:    0.00 PKD
ROOT
HETATM    1  O   UNL     1      -7.176   5.784  62.383  1.00  0.00    -0.045 OA 
HETATM    2  C   UNL     1      -8.008   4.635  62.553  1.00  0.00    -0.069 C  
HETATM    3  H   UNL     1      -6.646   5.692  61.600  1.00  0.00     0.000 HD 
ENDROOT
BRANCH   2   4
HETATM    4  C   UNL     1      -8.848   4.780  63.795  1.00  0.00    -0.106 A  
HETATM    5  C   UNL     1     -10.033   4.063  63.997  1.00  0.00    -0.154 A  
HETATM    6  O   UNL     1     -10.540   3.226  63.042  1.00  0.00    -0.179 OA 
HETATM    7  C   UNL     1     -10.768   4.190  65.170  1.00  0.00    -0.089 A  
HETATM    8  C   UNL     1     -10.338   5.066  66.164  1.00  0.00    -0.309 A  
HETATM    9  H   UNL     1     -11.344   2.739  63.178  1.00  0.00     0.000 HD 
HETATM   10  C   UNL     1      -9.157   5.808  66.001  1.00  0.00    -0.163 A  
HETATM   11  C   UNL     1      -8.411   5.637  64.822  1.00  0.00    -0.128 A  
BRANCH  10  12
HETATM   12  C   UNL     1      -8.695   6.801  67.051  1.00  0.00    -0.114 C  
HETATM   13  O   UNL     1      -8.346   6.113  68.262  1.00  0.00    -0.113 OA 
HETATM   14  H   UNL     1      -8.056   6.734  68.920  1.00  0.00     0.000 HD 
BRANCH  12  15
HETATM   15  C   UNL     1      -7.480   7.627  66.578  1.00  0.00    -0.092 C  
BRANCH  15  16
HETATM   16  N   UNL     1      -7.788   9.067  66.563  1.00  0.00    -0.099 NA 
HETATM   17  H   UNL     1      -8.791   9.242  66.494  1.00  0.00     0.000 HD 
BRANCH  16  18
HETATM   18  C   UNL     1      -7.199   9.717  67.730  1.00  0.00    -0.085 C  
BRANCH  18  19
HETATM   19  C   UNL     1      -8.289  10.375  68.567  1.00  0.00    -0.124 C  
BRANCH  19  20
HETATM   20  C   UNL     1      -9.090  11.354  67.713  1.00  0.00    -0.158 C  
BRANCH  20  21
HETATM   21  C   UNL     1     -10.342  11.810  68.450  1.00  0.00    -0.223 C  
BRANCH  21  22
HETATM   22  C   UNL     1     -10.543  11.028  69.742  1.00  0.00    -0.055 C  
BRANCH  22  23
HETATM   23  C   UNL     1     -11.995  10.598  69.878  1.00  0.00    -0.310 C  
BRANCH  23  24
HETATM   24  O   UNL     1     -12.040   9.408  70.655  1.00  0.00    -0.239 OA 
BRANCH  24  25
HETATM   25  C   UNL     1     -11.330   8.346  70.022  1.00  0.00    -0.001 C  
BRANCH  25  26
HETATM   26  C   UNL     1     -10.609   7.533  71.091  1.00  0.00    -0.234 C  
BRANCH  26  27
HETATM   27  C   UNL     1     -10.840   8.128  72.481  1.00  0.00    -0.431 C  
BRANCH  27  28
HETATM   28  C   UNL     1     -10.789   7.061  73.574  1.00  0.00    -0.289 C  
BRANCH  28  29
HETATM   29  C   UNL     1     -10.294   5.757  72.996  1.00  0.00    -0.229 A  
HETATM   30  C   UNL     1      -9.163   5.731  72.173  1.00  0.00    -0.154 A  
HETATM   31  C   UNL     1      -8.754   4.538  71.576  1.00  0.00    -0.139 A  
HETATM   32  C   UNL     1      -9.473   3.365  71.794  1.00  0.00    -0.214 A  
HETATM   33  C   UNL     1     -10.599   3.380  72.616  1.00  0.00    -0.121 A  
HETATM   34  C   UNL     1     -11.010   4.572  73.215  1.00  0.00    -0.369 A  
ENDBRANCH  28  29
ENDBRANCH  27  28
ENDBRANCH  26  27
ENDBRANCH  25  26
ENDBRANCH  24  25
ENDBRANCH  23  24
ENDBRANCH  22  23
ENDBRANCH  21  22
ENDBRANCH  20  21
ENDBRANCH  19  20
ENDBRANCH  18  19
ENDBRANCH  16  18
ENDBRANCH  15  16
ENDBRANCH  12  15
ENDBRANCH  10  12
ENDBRANCH   2   4
TORSDOF 16
ENDMDL
MODEL      437
REMARK 921   NORMALIZED FREE ENERGY PREDICTED BY IDOCK:   -1.55 KCAL/MOL
REMARK 922        TOTAL FREE ENERGY PREDICTED BY IDOCK:   -5.35 KCAL/MOL
REMARK 923 INTER-LIGAND FREE ENERGY PREDICTED BY IDOCK:   -4.64 KCAL/MOL
REMARK 924 INTRA-LIGAND FREE ENERGY PREDICTED BY IDOCK:   -0.71 KCAL/MOL
REMARK 927      BINDING AFFINITY PREDICTED BY RF-SCORE:    0.00 PKD
ROOT
HETATM    1  O   UNL     1     -10.179  13.507  66.142  1.00  0.00    -0.288 OA 
HETATM    2  C   UNL     1     -10.334  14.905  65.893  1.00  0.00    -0.314 C  
HETATM    3  H   UNL     1     -10.886  13.020  65.734  1.00  0.00     0.000 HD 
ENDROOT
BRANCH   2   4
HETATM    4  C   UNL     1      -9.213  15.676  66.540  1.00  0.00    -0.325 A  
HETATM    5  C   UNL     1      -9.016  17.046  66.331  1.00  0.00    -0.275 A  
HETATM    6  O   UNL     1      -9.798  17.762  65.468  1.00  0.00    -0.439 OA 
HETATM    7  C   UNL     1      -7.995  17.738  66.971  1.00  0.00    -0.238 A  
HETATM    8  C   UNL     1      -7.127  17.060  67.823  1.00  0.00    -0.162 A  
HETATM    9  H   UNL     1      -9.664  18.692  65.325  1.00  0.00     0.000 HD 
HETATM   10  C   UNL     1      -7.286  15.685  68.057  1.00  0.00    -0.140 A  
HETATM   11  C   UNL     1      -8.347  15.012  67.428  1.00  0.00    -0.210 A  
BRANCH  10  12
HETATM   12  C   UNL     1      -6.325  14.917  68.946  1.00  0.00    -0.087 C  
HETATM   13  O   UNL     1      -7.048  13.992  69.773  1.00  0.00    -0.336 OA 
HETATM   14  H   UNL     1      -6.446  13.511  70.329  1.00  0.00     0.000 HD 
BRANCH  12  15
HETATM   15  C   UNL     1      -5.270  14.139  68.129  1.00  0.00    -0.118 C  
BRANCH  15  16
HETATM   16  N   UNL     1      -5.373  12.690  68.369  1.00  0.00    -0.055 NA 
HETATM   17  H   UNL     1      -6.177  12.456  68.952  1.00  0.00     0.000 HD 
BRANCH  16  18
HETATM   18  C   UNL     1      -5.393  11.973  67.098  1.00  0.00    -0.114 C  
BRANCH  18  19
HETATM   19  C   UNL     1      -6.325  10.771  67.191  1.00  0.00    -0.072 C  
BRANCH  19  20
HETATM   20  C   UNL     1      -7.494  11.082  68.123  1.00  0.00    -0.092 C  
BRANCH  20  21
HETATM   21  C   UNL     1      -7.435  10.209  69.369  1.00  0.00    -0.119 C  
BRANCH  21  22
HETATM   22  C   UNL     1      -7.602   8.735  69.023  1.00  0.00    -0.090 C  
BRANCH  22  23
HETATM   23  C   UNL     1      -8.787   8.542  68.089  1.00  0.00    -0.142 C  
BRANCH  23  24
HETATM   24  O   UNL     1      -8.320   7.938  66.890  1.00  0.00    -0.113 OA 
BRANCH  24  25
HETATM   25  C   UNL     1      -9.086   6.783  66.555  1.00  0.00    -0.151 C  
BRANCH  25  26
HETATM   26  C   UNL     1      -8.671   5.637  67.469  1.00  0.00    -0.107 C  
BRANCH  26  27
HETATM   27  C   UNL     1      -9.874   5.080  68.232  1.00  0.00    -0.211 C  
BRANCH  27  28
HETATM   28  C   UNL     1      -9.534   3.787  68.970  1.00  0.00    -0.233 C  
BRANCH  28  29
HETATM   29  C   UNL     1      -8.046   3.712  69.216  1.00  0.00    -0.063 A  
HETATM   30  C   UNL     1      -7.204   3.096  68.285  1.00  0.00    -0.050 A  
HETATM   31  C   UNL     1      -5.841   2.956  68.551  1.00  0.00    -0.023 A  
HETATM   32  C   UNL     1      -5.312   3.428  69.750  1.00  0.00    -0.012 A  
HETATM   33  C   UNL     1      -6.143   4.047  70.683  1.00  0.00    -0.018 A  
HETATM   34  C   UNL     1      -7.505   4.188  70.419  1.00  0.00    -0.045 A  
ENDBRANCH  28  29
ENDBRANCH  27  28
ENDBRANCH  26  27
ENDBRANCH  25  26
ENDBRANCH  24  25
ENDBRANCH  23  24
ENDBRANCH  22  23
ENDBRANCH  21  22
ENDBRANCH  20  21
ENDBRANCH  19  20
ENDBRANCH  18  19
ENDBRANCH  16  18
ENDBRANCH  15  16
ENDBRANCH  12  15
ENDBRANCH  10  12
ENDBRANCH   2   4
TORSDOF 16
ENDMDL
MODEL      438
REMARK 921   NORMALIZED FREE ENERGY PREDICTED BY IDOCK:   -1.54 KCAL/MOL
REMARK 922        TOTAL FREE ENERGY PREDICTED BY IDOCK:   -5.32 KCAL/MOL
REMARK 923 INTER-LIGAND FREE ENERGY PREDICTED BY IDOCK:   -4.59 KCAL/MOL
REMARK 924 INTRA-LIGAND FREE ENERGY PREDICTED BY IDOCK:   -0.74 KCAL/MOL
REMARK 927      BINDING AFFINITY PREDICTED BY RF-SCORE:    0.00 PKD
ROOT
HETATM    1  O   UNL     1      -9.101  15.153  65.869  1.00  0.00    -0.458 OA 
HETATM    2  C   UNL     1      -8.935  16.563  65.711  1.00  0.00     0.029 C  
HETATM    3  H   UNL     1      -9.760  14.831  65.264  1.00  0.00     0.000 HD 
ENDROOT
BRANCH   2   4
HETATM    4  C   UNL     1      -7.892  17.074  66.670  1.00  0.00    -0.299 A  
HETATM    5  C   UNL     1      -7.239  18.300  66.497  1.00  0.00    -0.232 A  
HETATM    6  O   UNL     1      -7.463  19.087  65.401  1.00  0.00    -0.442 OA 
HETATM    7  C   UNL     1      -6.307  18.763  67.419  1.00  0.00    -0.191 A  
HETATM    8  C   UNL     1      -5.991  17.988  68.531  1.00  0.00    -0.188 A  
HETATM    9  H   UNL     1      -7.020  19.919  65.283  1.00  0.00     0.000 HD 
HETATM   10  C   UNL     1      -6.618  16.750  68.742  1.00  0.00    -0.180 A  
HETATM   11  C   UNL     1      -7.584  16.318  67.815  1.00  0.00    -0.151 A  
BRANCH  10  12
HETATM   12  C   UNL     1      -6.256  15.869  69.922  1.00  0.00    -0.157 C  
HETATM   13  O   UNL     1      -7.413  15.149  70.375  1.00  0.00    -0.060 OA 
HETATM   14  H   UNL     1      -7.185  14.596  71.115  1.00  0.00     0.000 HD 
BRANCH  12  15
HETATM   15  C   UNL     1      -5.142  14.858  69.575  1.00  0.00    -0.088 C  
BRANCH  15  16
HETATM   16  N   UNL     1      -5.662  13.481  69.546  1.00  0.00    -0.092 NA 
HETATM   17  H   UNL     1      -6.673  13.452  69.673  1.00  0.00     0.000 HD 
BRANCH  16  18
HETATM   18  C   UNL     1      -5.246  12.814  68.316  1.00  0.00    -0.069 C  
BRANCH  18  19
HETATM   19  C   UNL     1      -6.435  12.108  67.677  1.00  0.00    -0.110 C  
BRANCH  19  20
HETATM   20  C   UNL     1      -7.705  12.934  67.870  1.00  0.00    -0.143 C  
BRANCH  20  21
HETATM   21  C   UNL     1      -8.635  12.265  68.871  1.00  0.00     0.252 C  
BRANCH  21  22
HETATM   22  C   UNL     1      -8.878  10.804  68.516  1.00  0.00    -0.149 C  
BRANCH  22  23
HETATM   23  C   UNL     1      -9.923  10.694  67.417  1.00  0.00    -0.181 C  
BRANCH  23  24
HETATM   24  O   UNL     1      -9.292  10.195  66.244  1.00  0.00    -0.161 OA 
BRANCH  24  25
HETATM   25  C   UNL     1      -9.923   9.004  65.780  1.00  0.00     0.004 C  
BRANCH  25  26
HETATM   26  C   UNL     1      -9.571   7.862  66.725  1.00  0.00    -0.278 C  
BRANCH  26  27
HETATM   27  C   UNL     1     -10.674   6.802  66.740  1.00  0.00    -0.312 C  
BRANCH  27  28
HETATM   28  C   UNL     1     -10.292   5.592  67.590  1.00  0.00    -0.266 C  
BRANCH  28  29
HETATM   29  C   UNL     1      -9.217   5.977  68.579  1.00  0.00    -0.114 A  
HETATM   30  C   UNL     1      -7.870   5.964  68.200  1.00  0.00    -0.105 A  
HETATM   31  C   UNL     1      -6.873   6.242  69.136  1.00  0.00    -0.062 A  
HETATM   32  C   UNL     1      -7.215   6.531  70.456  1.00  0.00    -0.074 A  
HETATM   33  C   UNL     1      -8.555   6.549  70.841  1.00  0.00    -0.135 A  
HETATM   34  C   UNL     1      -9.554   6.273  69.907  1.00  0.00    -0.174 A  
ENDBRANCH  28  29
ENDBRANCH  27  28
ENDBRANCH  26  27
ENDBRANCH  25  26
ENDBRANCH  24  25
ENDBRANCH  23  24
ENDBRANCH  22  23
ENDBRANCH  21  22
ENDBRANCH  20  21
ENDBRANCH  19  20
ENDBRANCH  18  19
ENDBRANCH  16  18
ENDBRANCH  15  16
ENDBRANCH  12  15
ENDBRANCH  10  12
ENDBRANCH   2   4
TORSDOF 16
ENDMDL
MODEL      439
REMARK 921   NORMALIZED FREE ENERGY PREDICTED BY IDOCK:   -1.52 KCAL/MOL
REMARK 922        TOTAL FREE ENERGY PREDICTED BY IDOCK:   -5.28 KCAL/MOL
REMARK 923 INTER-LIGAND FREE ENERGY PREDICTED BY IDOCK:   -3.68 KCAL/MOL
REMARK 924 INTRA-LIGAND FREE ENERGY PREDICTED BY IDOCK:   -1.60 KCAL/MOL
REMARK 927      BINDING AFFINITY PREDICTED BY RF-SCORE:    0.00 PKD
ROOT
HETATM    1  O   UNL     1     -13.003   7.185  71.142  1.00  0.00    -0.488 OA 
HETATM    2  C   UNL     1     -12.210   6.373  70.275  1.00  0.00     0.292 C  
HETATM    3  H   UNL     1     -13.802   6.729  71.378  1.00  0.00     0.000 HD 
ENDROOT
BRANCH   2   4
HETATM    4  C   UNL     1     -10.942   7.095  69.900  1.00  0.00    -0.278 A  
HETATM    5  C   UNL     1     -10.681   7.543  68.600  1.00  0.00    -0.077 A  
HETATM    6  O   UNL     1     -11.540   7.292  67.566  1.00  0.00    -0.193 OA 
HETATM    7  C   UNL     1      -9.519   8.240  68.292  1.00  0.00    -0.146 A  
HETATM    8  C   UNL     1      -8.574   8.484  69.285  1.00  0.00    -0.129 A  
HETATM    9  H   UNL     1     -11.363   7.595  66.683  1.00  0.00     0.000 HD 
HETATM   10  C   UNL     1      -8.794   8.049  70.602  1.00  0.00    -0.143 A  
HETATM   11  C   UNL     1      -9.993   7.378  70.899  1.00  0.00    -0.184 A  
BRANCH  10  12
HETATM   12  C   UNL     1      -7.759   8.264  71.690  1.00  0.00    -0.101 C  
HETATM   13  O   UNL     1      -8.407   8.498  72.950  1.00  0.00    -0.348 OA 
HETATM   14  H   UNL     1      -7.759   8.633  73.632  1.00  0.00     0.000 HD 
BRANCH  12  15
HETATM   15  C   UNL     1      -6.805   7.059  71.834  1.00  0.00    -0.060 C  
BRANCH  15  16
HETATM   16  N   UNL     1      -6.474   6.482  70.521  1.00  0.00    -0.043 NA 
HETATM   17  H   UNL     1      -7.251   6.555  69.865  1.00  0.00     0.000 HD 
BRANCH  16  18
HETATM   18  C   UNL     1      -5.256   7.093  69.998  1.00  0.00    -0.019 C  
BRANCH  18  19
HETATM   19  C   UNL     1      -5.603   8.343  69.198  1.00  0.00    -0.035 C  
BRANCH  19  20
HETATM   20  C   UNL     1      -5.129   8.192  67.754  1.00  0.00    -0.033 C  
BRANCH  20  21
HETATM   21  C   UNL     1      -6.264   8.483  66.783  1.00  0.00    -0.055 C  
BRANCH  21  22
HETATM   22  C   UNL     1      -6.285   7.483  65.634  1.00  0.00    -0.038 C  
BRANCH  22  23
HETATM   23  C   UNL     1      -6.238   6.061  66.171  1.00  0.00    -0.037 C  
BRANCH  23  24
HETATM   24  O   UNL     1      -7.561   5.665  66.511  1.00  0.00    -0.089 OA 
BRANCH  24  25
HETATM   25  C   UNL     1      -7.562   4.705  67.566  1.00  0.00    -0.078 C  
BRANCH  25  26
HETATM   26  C   UNL     1      -8.557   3.603  67.225  1.00  0.00    -0.116 C  
BRANCH  26  27
HETATM   27  C   UNL     1      -9.310   3.138  68.472  1.00  0.00    -0.240 C  
BRANCH  27  28
HETATM   28  C   UNL     1      -9.299   4.197  69.574  1.00  0.00    -0.238 C  
BRANCH  28  29
HETATM   29  C   UNL     1      -9.197   3.531  70.926  1.00  0.00    -0.201 A  
HETATM   30  C   UNL     1      -9.893   4.048  72.024  1.00  0.00    -0.242 A  
HETATM   31  C   UNL     1      -9.735   3.481  73.288  1.00  0.00    -0.156 A  
HETATM   32  C   UNL     1      -8.879   2.395  73.465  1.00  0.00    -0.073 A  
HETATM   33  C   UNL     1      -8.185   1.871  72.375  1.00  0.00    -0.053 A  
HETATM   34  C   UNL     1      -8.341   2.436  71.110  1.00  0.00    -0.080 A  
ENDBRANCH  28  29
ENDBRANCH  27  28
ENDBRANCH  26  27
ENDBRANCH  25  26
ENDBRANCH  24  25
ENDBRANCH  23  24
ENDBRANCH  22  23
ENDBRANCH  21  22
ENDBRANCH  20  21
ENDBRANCH  19  20
ENDBRANCH  18  19
ENDBRANCH  16  18
ENDBRANCH  15  16
ENDBRANCH  12  15
ENDBRANCH  10  12
ENDBRANCH   2   4
TORSDOF 16
ENDMDL
MODEL      440
REMARK 921   NORMALIZED FREE ENERGY PREDICTED BY IDOCK:   -1.49 KCAL/MOL
REMARK 922        TOTAL FREE ENERGY PREDICTED BY IDOCK:   -5.23 KCAL/MOL
REMARK 923 INTER-LIGAND FREE ENERGY PREDICTED BY IDOCK:   -4.83 KCAL/MOL
REMARK 924 INTRA-LIGAND FREE ENERGY PREDICTED BY IDOCK:   -0.40 KCAL/MOL
REMARK 927      BINDING AFFINITY PREDICTED BY RF-SCORE:    0.00 PKD
ROOT
HETATM    1  O   UNL     1      -8.943   9.583  68.213  1.00  0.00    -0.124 OA 
HETATM    2  C   UNL     1     -10.152  10.328  68.354  1.00  0.00    -0.159 C  
HETATM    3  H   UNL     1      -9.050   8.711  68.576  1.00  0.00     0.000 HD 
ENDROOT
BRANCH   2   4
HETATM    4  C   UNL     1      -9.982  11.710  67.780  1.00  0.00    -0.191 A  
HETATM    5  C   UNL     1     -11.008  12.382  67.104  1.00  0.00    -0.262 A  
HETATM    6  O   UNL     1     -12.219  11.794  66.865  1.00  0.00    -0.391 OA 
HETATM    7  C   UNL     1     -10.833  13.672  66.617  1.00  0.00    -0.283 A  
HETATM    8  C   UNL     1      -9.606  14.312  66.778  1.00  0.00    -0.290 A  
HETATM    9  H   UNL     1     -12.915  12.249  66.406  1.00  0.00     0.000 HD 
HETATM   10  C   UNL     1      -8.549  13.673  67.446  1.00  0.00    -0.212 A  
HETATM   11  C   UNL     1      -8.760  12.383  67.962  1.00  0.00    -0.186 A  
BRANCH  10  12
HETATM   12  C   UNL     1      -7.191  14.334  67.593  1.00  0.00    -0.183 C  
HETATM   13  O   UNL     1      -7.311  15.755  67.422  1.00  0.00    -0.159 OA 
HETATM   14  H   UNL     1      -6.461  16.169  67.514  1.00  0.00     0.000 HD 
BRANCH  12  15
HETATM   15  C   UNL     1      -6.549  14.048  68.967  1.00  0.00    -0.106 C  
BRANCH  15  16
HETATM   16  N   UNL     1      -5.857  12.748  68.971  1.00  0.00    -0.072 NA 
HETATM   17  H   UNL     1      -4.875  12.838  68.711  1.00  0.00     0.000 HD 
BRANCH  16  18
HETATM   18  C   UNL     1      -6.021  12.097  70.267  1.00  0.00    -0.137 C  
BRANCH  18  19
HETATM   19  C   UNL     1      -5.668  10.619  70.158  1.00  0.00    -0.076 C  
BRANCH  19  20
HETATM   20  C   UNL     1      -6.773   9.766  70.775  1.00  0.00    -0.081 C  
BRANCH  20  21
HETATM   21  C   UNL     1      -6.198   8.798  71.798  1.00  0.00    -0.073 C  
BRANCH  21  22
HETATM   22  C   UNL     1      -5.195   7.844  71.160  1.00  0.00    -0.026 C  
BRANCH  22  23
HETATM   23  C   UNL     1      -5.464   6.417  71.611  1.00  0.00    -0.027 C  
BRANCH  23  24
HETATM   24  O   UNL     1      -6.607   5.933  70.916  1.00  0.00    -0.042 OA 
BRANCH  24  25
HETATM   25  C   UNL     1      -7.644   5.555  71.818  1.00  0.00    -0.095 C  
BRANCH  25  26
HETATM   26  C   UNL     1      -8.339   6.813  72.322  1.00  0.00    -0.106 C  
BRANCH  26  27
HETATM   27  C   UNL     1      -8.546   6.756  73.836  1.00  0.00    -0.154 C  
BRANCH  27  28
HETATM   28  C   UNL     1      -9.953   6.289  74.204  1.00  0.00    -0.299 C  
BRANCH  28  29
HETATM   29  C   UNL     1     -10.943   6.782  73.175  1.00  0.00    -0.279 A  
HETATM   30  C   UNL     1     -11.303   8.133  73.129  1.00  0.00     0.097 A  
HETATM   31  C   UNL     1     -12.277   8.572  72.232  1.00  0.00    -0.454 A  
HETATM   32  C   UNL     1     -12.900   7.665  71.378  1.00  0.00    -0.354 A  
HETATM   33  C   UNL     1     -12.545   6.317  71.414  1.00  0.00     0.229 A  
HETATM   34  C   UNL     1     -11.571   5.875  72.310  1.00  0.00    -0.338 A  
ENDBRANCH  28  29
ENDBRANCH  27  28
ENDBRANCH  26  27
ENDBRANCH  25  26
ENDBRANCH  24  25
ENDBRANCH  23  24
ENDBRANCH  22  23
ENDBRANCH  21  22
ENDBRANCH  20  21
ENDBRANCH  19  20
ENDBRANCH  18  19
ENDBRANCH  16  18
ENDBRANCH  15  16
ENDBRANCH  12  15
ENDBRANCH  10  12
ENDBRANCH   2   4
TORSDOF 16
ENDMDL
MODEL      441
REMARK 921   NORMALIZED FREE ENERGY PREDICTED BY IDOCK:   -1.34 KCAL/MOL
REMARK 922        TOTAL FREE ENERGY PREDICTED BY IDOCK:   -4.95 KCAL/MOL
REMARK 923 INTER-LIGAND FREE ENERGY PREDICTED BY IDOCK:   -4.42 KCAL/MOL
REMARK 924 INTRA-LIGAND FREE ENERGY PREDICTED BY IDOCK:   -0.53 KCAL/MOL
REMARK 927      BINDING AFFINITY PREDICTED BY RF-SCORE:    0.00 PKD
ROOT
HETATM    1  O   UNL     1      -5.776   5.889  64.532  1.00  0.00    -0.023 OA 
HETATM    2  C   UNL     1      -6.621   4.747  64.681  1.00  0.00    -0.043 C  
HETATM    3  H   UNL     1      -5.187   5.768  63.796  1.00  0.00     0.000 HD 
ENDROOT
BRANCH   2   4
HETATM    4  C   UNL     1      -7.554   4.938  65.847  1.00  0.00    -0.090 A  
HETATM    5  C   UNL     1      -8.755   4.231  65.981  1.00  0.00    -0.114 A  
HETATM    6  O   UNL     1      -9.190   3.361  65.020  1.00  0.00    -0.136 OA 
HETATM    7  C   UNL     1      -9.579   4.402  67.088  1.00  0.00    -0.221 A  
HETATM    8  C   UNL     1      -9.224   5.312  68.081  1.00  0.00    -0.129 A  
HETATM    9  H   UNL     1     -10.005   2.881  65.110  1.00  0.00     0.000 HD 
HETATM   10  C   UNL     1      -8.031   6.046  67.984  1.00  0.00    -0.109 A  
HETATM   11  C   UNL     1      -7.195   5.830  66.874  1.00  0.00    -0.075 A  
BRANCH  10  12
HETATM   12  C   UNL     1      -7.647   7.075  69.031  1.00  0.00    -0.104 C  
HETATM   13  O   UNL     1      -7.927   6.571  70.346  1.00  0.00    -0.111 OA 
HETATM   14  H   UNL     1      -7.687   7.215  71.002  1.00  0.00     0.000 HD 
BRANCH  12  15
HETATM   15  C   UNL     1      -6.154   7.461  68.950  1.00  0.00    -0.030 C  
BRANCH  15  16
HETATM   16  N   UNL     1      -5.963   8.685  68.156  1.00  0.00    -0.046 NA 
HETATM   17  H   UNL     1      -6.827   8.988  67.706  1.00  0.00     0.000 HD 
BRANCH  16  18
HETATM   18  C   UNL     1      -5.381   9.735  68.986  1.00  0.00    -0.036 C  
BRANCH  18  19
HETATM   19  C   UNL     1      -6.129  11.045  68.771  1.00  0.00    -0.043 C  
BRANCH  19  20
HETATM   20  C   UNL     1      -5.150  12.155  68.395  1.00  0.00    -0.052 C  
BRANCH  20  21
HETATM   21  C   UNL     1      -5.281  13.333  69.349  1.00  0.00    -0.075 C  
BRANCH  21  22
HETATM   22  C   UNL     1      -6.722  13.521  69.807  1.00  0.00     0.084 C  
BRANCH  22  23
HETATM   23  C   UNL     1      -7.480  14.393  68.818  1.00  0.00    -0.133 C  
BRANCH  23  24
HETATM   24  O   UNL     1      -8.267  13.550  67.986  1.00  0.00    -0.140 OA 
BRANCH  24  25
HETATM   25  C   UNL     1      -9.660  13.729  68.230  1.00  0.00    -0.219 C  
BRANCH  25  26
HETATM   26  C   UNL     1      -9.964  15.222  68.262  1.00  0.00    -0.222 C  
BRANCH  26  27
HETATM   27  C   UNL     1     -10.197  15.764  66.851  1.00  0.00    -0.280 C  
BRANCH  27  28
HETATM   28  C   UNL     1     -11.121  16.981  66.852  1.00  0.00     0.273 C  
BRANCH  28  29
HETATM   29  C   UNL     1     -10.307  18.244  67.004  1.00  0.00    -0.408 A  
HETATM   30  C   UNL     1     -10.280  19.197  65.981  1.00  0.00    -0.494 A  
HETATM   31  C   UNL     1      -9.465  20.324  66.089  1.00  0.00    -0.349 A  
HETATM   32  C   UNL     1      -8.669  20.505  67.218  1.00  0.00    -0.387 A  
HETATM   33  C   UNL     1      -8.692  19.562  68.245  1.00  0.00    -0.380 A  
HETATM   34  C   UNL     1      -9.507  18.434  68.140  1.00  0.00    -0.327 A  
ENDBRANCH  28  29
ENDBRANCH  27  28
ENDBRANCH  26  27
ENDBRANCH  25  26
ENDBRANCH  24  25
ENDBRANCH  23  24
ENDBRANCH  22  23
ENDBRANCH  21  22
ENDBRANCH  20  21
ENDBRANCH  19  20
ENDBRANCH  18  19
ENDBRANCH  16  18
ENDBRANCH  15  16
ENDBRANCH  12  15
ENDBRANCH  10  12
ENDBRANCH   2   4
TORSDOF 16
ENDMDL
MODEL      442
REMARK 921   NORMALIZED FREE ENERGY PREDICTED BY IDOCK:   -1.28 KCAL/MOL
REMARK 922        TOTAL FREE ENERGY PREDICTED BY IDOCK:   -4.82 KCAL/MOL
REMARK 923 INTER-LIGAND FREE ENERGY PREDICTED BY IDOCK:   -4.38 KCAL/MOL
REMARK 924 INTRA-LIGAND FREE ENERGY PREDICTED BY IDOCK:   -0.44 KCAL/MOL
REMARK 927      BINDING AFFINITY PREDICTED BY RF-SCORE:    0.00 PKD
ROOT
HETATM    1  O   UNL     1      -9.735  13.069  64.083  1.00  0.00    -0.673 OA 
HETATM    2  C   UNL     1     -10.754  13.763  64.804  1.00  0.00    -0.416 C  
HETATM    3  H   UNL     1      -9.688  13.391  63.190  1.00  0.00     0.000 HD 
ENDROOT
BRANCH   2   4
HETATM    4  C   UNL     1     -10.830  13.253  66.219  1.00  0.00    -0.293 A  
HETATM    5  C   UNL     1     -10.567  11.921  66.561  1.00  0.00    -0.243 A  
HETATM    6  O   UNL     1     -10.286  10.977  65.613  1.00  0.00    -0.243 OA 
HETATM    7  C   UNL     1     -10.608  11.488  67.881  1.00  0.00    -0.224 A  
HETATM    8  C   UNL     1     -10.940  12.385  68.893  1.00  0.00    -0.268 A  
HETATM    9  H   UNL     1     -10.108  10.073  65.844  1.00  0.00     0.000 HD 
HETATM   10  C   UNL     1     -11.215  13.729  68.595  1.00  0.00    -0.308 A  
HETATM   11  C   UNL     1     -11.133  14.154  67.257  1.00  0.00    -0.315 A  
BRANCH  10  12
HETATM   12  C   UNL     1     -11.623  14.713  69.676  1.00  0.00    -0.307 C  
HETATM   13  O   UNL     1     -10.778  14.561  70.827  1.00  0.00    -0.348 OA 
HETATM   14  H   UNL     1     -11.033  15.178  71.504  1.00  0.00     0.000 HD 
BRANCH  12  15
HETATM   15  C   UNL     1     -11.551  16.177  69.191  1.00  0.00    -0.285 C  
BRANCH  15  16
HETATM   16  N   UNL     1     -10.403  16.879  69.787  1.00  0.00    -0.109 NA 
HETATM   17  H   UNL     1      -9.966  16.334  70.531  1.00  0.00     0.000 HD 
BRANCH  16  18
HETATM   18  C   UNL     1      -9.447  17.250  68.748  1.00  0.00    -0.256 C  
BRANCH  18  19
HETATM   19  C   UNL     1      -8.250  16.308  68.779  1.00  0.00    -0.227 C  
BRANCH  19  20
HETATM   20  C   UNL     1      -6.960  17.101  68.979  1.00  0.00    -0.235 C  
BRANCH  20  21
HETATM   21  C   UNL     1      -7.261  18.482  69.542  1.00  0.00     0.077 C  
BRANCH  21  22
HETATM   22  C   UNL     1      -5.980  19.243  69.863  1.00  0.00    -0.292 C  
BRANCH  22  23
HETATM   23  C   UNL     1      -6.234  20.742  69.834  1.00  0.00     0.229 C  
BRANCH  23  24
HETATM   24  O   UNL     1      -5.147  21.370  69.166  1.00  0.00    -0.208 OA 
BRANCH  24  25
HETATM   25  C   UNL     1      -5.170  21.102  67.766  1.00  0.00    -0.271 C  
BRANCH  25  26
HETATM   26  C   UNL     1      -6.578  20.673  67.372  1.00  0.00    -0.346 C  
BRANCH  26  27
HETATM   27  C   UNL     1      -6.627  20.232  65.908  1.00  0.00    -0.264 C  
BRANCH  27  28
HETATM   28  C   UNL     1      -7.650  19.120  65.682  1.00  0.00    -0.031 C  
BRANCH  28  29
HETATM   29  C   UNL     1      -9.002  19.552  66.198  1.00  0.00    -0.342 A  
HETATM   30  C   UNL     1      -9.119  20.677  67.021  1.00  0.00    -0.356 A  
HETATM   31  C   UNL     1     -10.356  21.028  67.562  1.00  0.00     0.543 A  
HETATM   32  C   UNL     1     -11.483  20.255  67.287  1.00  0.00     1.344 A  
HETATM   33  C   UNL     1     -11.377  19.134  66.465  1.00  0.00     0.508 A  
HETATM   34  C   UNL     1     -10.141  18.782  65.922  1.00  0.00    -0.223 A  
ENDBRANCH  28  29
ENDBRANCH  27  28
ENDBRANCH  26  27
ENDBRANCH  25  26
ENDBRANCH  24  25
ENDBRANCH  23  24
ENDBRANCH  22  23
ENDBRANCH  21  22
ENDBRANCH  20  21
ENDBRANCH  19  20
ENDBRANCH  18  19
ENDBRANCH  16  18
ENDBRANCH  15  16
ENDBRANCH  12  15
ENDBRANCH  10  12
ENDBRANCH   2   4
TORSDOF 16
ENDMDL
MODEL      443
REMARK 921   NORMALIZED FREE ENERGY PREDICTED BY IDOCK:   -1.25 KCAL/MOL
REMARK 922        TOTAL FREE ENERGY PREDICTED BY IDOCK:   -4.76 KCAL/MOL
REMARK 923 INTER-LIGAND FREE ENERGY PREDICTED BY IDOCK:   -3.92 KCAL/MOL
REMARK 924 INTRA-LIGAND FREE ENERGY PREDICTED BY IDOCK:   -0.84 KCAL/MOL
REMARK 927      BINDING AFFINITY PREDICTED BY RF-SCORE:    0.00 PKD
ROOT
HETATM    1  O   UNL     1      -9.812  12.334  63.693  1.00  0.00    -0.564 OA 
HETATM    2  C   UNL     1      -9.664  13.265  64.766  1.00  0.00     0.165 C  
HETATM    3  H   UNL     1      -9.374  12.658  62.914  1.00  0.00     0.000 HD 
ENDROOT
BRANCH   2   4
HETATM    4  C   UNL     1     -10.358  12.752  66.000  1.00  0.00    -0.291 A  
HETATM    5  C   UNL     1     -11.752  12.672  66.107  1.00  0.00    -0.406 A  
HETATM    6  O   UNL     1     -12.578  13.118  65.113  1.00  0.00    -0.497 OA 
HETATM    7  C   UNL     1     -12.364  12.159  67.245  1.00  0.00     0.715 A  
HETATM    8  C   UNL     1     -11.584  11.735  68.319  1.00  0.00    -0.373 A  
HETATM    9  H   UNL     1     -13.524  13.063  65.186  1.00  0.00     0.000 HD 
HETATM   10  C   UNL     1     -10.184  11.803  68.255  1.00  0.00    -0.209 A  
HETATM   11  C   UNL     1      -9.585  12.291  67.080  1.00  0.00    -0.200 A  
BRANCH  10  12
HETATM   12  C   UNL     1      -9.317  11.389  69.430  1.00  0.00     0.500 C  
HETATM   13  O   UNL     1      -9.900  10.262  70.102  1.00  0.00    -0.411 OA 
HETATM   14  H   UNL     1      -9.357  10.003  70.837  1.00  0.00     0.000 HD 
BRANCH  12  15
HETATM   15  C   UNL     1      -7.881  11.024  68.995  1.00  0.00    -0.126 C  
BRANCH  15  16
HETATM   16  N   UNL     1      -6.886  11.567  69.935  1.00  0.00    -0.346 NA 
HETATM   17  H   UNL     1      -7.170  11.442  70.906  1.00  0.00     0.000 HD 
BRANCH  16  18
HETATM   18  C   UNL     1      -5.575  10.983  69.670  1.00  0.00    -0.043 C  
BRANCH  18  19
HETATM   19  C   UNL     1      -5.696   9.883  68.622  1.00  0.00    -0.038 C  
BRANCH  19  20
HETATM   20  C   UNL     1      -5.903   8.530  69.299  1.00  0.00    -0.038 C  
BRANCH  20  21
HETATM   21  C   UNL     1      -5.159   8.474  70.625  1.00  0.00    -0.021 C  
BRANCH  21  22
HETATM   22  C   UNL     1      -5.505   7.210  71.404  1.00  0.00    -0.031 C  
BRANCH  22  23
HETATM   23  C   UNL     1      -6.223   6.215  70.505  1.00  0.00    -0.035 C  
BRANCH  23  24
HETATM   24  O   UNL     1      -7.595   6.582  70.435  1.00  0.00    -0.092 OA 
BRANCH  24  25
HETATM   25  C   UNL     1      -8.387   5.812  71.336  1.00  0.00    -0.127 C  
BRANCH  25  26
HETATM   26  C   UNL     1      -9.794   6.395  71.373  1.00  0.00    -0.195 C  
BRANCH  26  27
HETATM   27  C   UNL     1     -10.800   5.442  70.727  1.00  0.00    -0.190 C  
BRANCH  27  28
HETATM   28  C   UNL     1     -10.132   4.493  69.734  1.00  0.00    -0.177 C  
BRANCH  28  29
HETATM   29  C   UNL     1      -9.923   5.196  68.413  1.00  0.00    -0.214 A  
HETATM   30  C   UNL     1     -10.933   5.997  67.869  1.00  0.00    -0.334 A  
HETATM   31  C   UNL     1     -10.769   6.579  66.612  1.00  0.00    -0.243 A  
HETATM   32  C   UNL     1      -9.598   6.363  65.889  1.00  0.00     0.129 A  
HETATM   33  C   UNL     1      -8.585   5.569  66.424  1.00  0.00    -0.121 A  
HETATM   34  C   UNL     1      -8.745   4.986  67.682  1.00  0.00    -0.103 A  
ENDBRANCH  28  29
ENDBRANCH  27  28
ENDBRANCH  26  27
ENDBRANCH  25  26
ENDBRANCH  24  25
ENDBRANCH  23  24
ENDBRANCH  22  23
ENDBRANCH  21  22
ENDBRANCH  20  21
ENDBRANCH  19  20
ENDBRANCH  18  19
ENDBRANCH  16  18
ENDBRANCH  15  16
ENDBRANCH  12  15
ENDBRANCH  10  12
ENDBRANCH   2   4
TORSDOF 16
ENDMDL
MODEL      444
REMARK 921   NORMALIZED FREE ENERGY PREDICTED BY IDOCK:   -1.00 KCAL/MOL
REMARK 922        TOTAL FREE ENERGY PREDICTED BY IDOCK:   -4.27 KCAL/MOL
REMARK 923 INTER-LIGAND FREE ENERGY PREDICTED BY IDOCK:   -3.93 KCAL/MOL
REMARK 924 INTRA-LIGAND FREE ENERGY PREDICTED BY IDOCK:   -0.34 KCAL/MOL
REMARK 927      BINDING AFFINITY PREDICTED BY RF-SCORE:    0.00 PKD
ROOT
HETATM    1  O   UNL     1      -9.814  12.333  63.692  1.00  0.00    -0.564 OA 
HETATM    2  C   UNL     1      -9.675  13.251  64.778  1.00  0.00     0.165 C  
HETATM    3  H   UNL     1      -9.383  12.673  62.917  1.00  0.00     0.000 HD 
ENDROOT
BRANCH   2   4
HETATM    4  C   UNL     1     -10.359  12.712  66.007  1.00  0.00    -0.287 A  
HETATM    5  C   UNL     1     -11.751  12.625  66.122  1.00  0.00    -0.406 A  
HETATM    6  O   UNL     1     -12.586  13.088  65.143  1.00  0.00    -0.482 OA 
HETATM    7  C   UNL     1     -12.353  12.088  67.254  1.00  0.00     0.811 A  
HETATM    8  C   UNL     1     -11.565  11.645  68.314  1.00  0.00    -0.378 A  
HETATM    9  H   UNL     1     -13.531  13.030  65.222  1.00  0.00     0.000 HD 
HETATM   10  C   UNL     1     -10.165  11.718  68.241  1.00  0.00    -0.209 A  
HETATM   11  C   UNL     1      -9.576  12.231  67.072  1.00  0.00    -0.208 A  
BRANCH  10  12
HETATM   12  C   UNL     1      -9.288  11.284  69.401  1.00  0.00     0.393 C  
HETATM   13  O   UNL     1      -9.868  10.146  70.059  1.00  0.00    -0.352 OA 
HETATM   14  H   UNL     1      -9.319   9.874  70.786  1.00  0.00     0.000 HD 
BRANCH  12  15
HETATM   15  C   UNL     1      -7.857  10.924  68.948  1.00  0.00    -0.142 C  
BRANCH  15  16
HETATM   16  N   UNL     1      -6.852  11.469  69.876  1.00  0.00    -0.346 NA 
HETATM   17  H   UNL     1      -7.125  11.343  70.851  1.00  0.00     0.000 HD 
BRANCH  16  18
HETATM   18  C   UNL     1      -5.544  10.887  69.596  1.00  0.00    -0.042 C  
BRANCH  18  19
HETATM   19  C   UNL     1      -5.673   9.793  68.543  1.00  0.00    -0.039 C  
BRANCH  19  20
HETATM   20  C   UNL     1      -5.879   8.437  69.215  1.00  0.00    -0.034 C  
BRANCH  20  21
HETATM   21  C   UNL     1      -5.128   8.373  70.537  1.00  0.00    -0.022 C  
BRANCH  21  22
HETATM   22  C   UNL     1      -5.472   7.106  71.311  1.00  0.00    -0.028 C  
BRANCH  22  23
HETATM   23  C   UNL     1      -6.839   6.586  70.893  1.00  0.00    -0.063 C  
BRANCH  23  24
HETATM   24  O   UNL     1      -7.833   7.319  71.598  1.00  0.00    -0.090 OA 
BRANCH  24  25
HETATM   25  C   UNL     1      -8.295   6.603  72.742  1.00  0.00    -0.118 C  
BRANCH  25  26
HETATM   26  C   UNL     1      -9.187   7.522  73.568  1.00  0.00    -0.301 C  
BRANCH  26  27
HETATM   27  C   UNL     1     -10.562   6.892  73.795  1.00  0.00    -0.333 C  
BRANCH  27  28
HETATM   28  C   UNL     1     -10.904   5.862  72.720  1.00  0.00    -0.289 C  
BRANCH  28  29
HETATM   29  C   UNL     1     -10.790   4.468  73.288  1.00  0.00    -0.346 A  
HETATM   30  C   UNL     1      -9.709   4.122  74.106  1.00  0.00    -0.145 A  
HETATM   31  C   UNL     1      -9.563   2.812  74.564  1.00  0.00    -0.126 A  
HETATM   32  C   UNL     1     -10.494   1.839  74.206  1.00  0.00    -0.173 A  
HETATM   33  C   UNL     1     -11.577   2.175  73.394  1.00  0.00    -0.230 A  
HETATM   34  C   UNL     1     -11.725   3.484  72.935  1.00  0.00     0.453 A  
ENDBRANCH  28  29
ENDBRANCH  27  28
ENDBRANCH  26  27
ENDBRANCH  25  26
ENDBRANCH  24  25
ENDBRANCH  23  24
ENDBRANCH  22  23
ENDBRANCH  21  22
ENDBRANCH  20  21
ENDBRANCH  19  20
ENDBRANCH  18  19
ENDBRANCH  16  18
ENDBRANCH  15  16
ENDBRANCH  12  15
ENDBRANCH  10  12
ENDBRANCH   2   4
TORSDOF 16
ENDMDL
MODEL      445
REMARK 921   NORMALIZED FREE ENERGY PREDICTED BY IDOCK:   -0.87 KCAL/MOL
REMARK 922        TOTAL FREE ENERGY PREDICTED BY IDOCK:   -4.03 KCAL/MOL
REMARK 923 INTER-LIGAND FREE ENERGY PREDICTED BY IDOCK:   -3.03 KCAL/MOL
REMARK 924 INTRA-LIGAND FREE ENERGY PREDICTED BY IDOCK:   -0.99 KCAL/MOL
REMARK 927      BINDING AFFINITY PREDICTED BY RF-SCORE:    0.00 PKD
ROOT
HETATM    1  O   UNL     1     -12.895   7.269  71.124  1.00  0.00    -0.477 OA 
HETATM    2  C   UNL     1     -11.900   6.705  70.268  1.00  0.00    -0.316 C  
HETATM    3  H   UNL     1     -13.589   6.638  71.279  1.00  0.00     0.000 HD 
ENDROOT
BRANCH   2   4
HETATM    4  C   UNL     1     -10.800   7.704  70.021  1.00  0.00    -0.250 A  
HETATM    5  C   UNL     1     -10.625   8.350  68.791  1.00  0.00    -0.125 A  
HETATM    6  O   UNL     1     -11.410   8.064  67.709  1.00  0.00    -0.163 OA 
HETATM    7  C   UNL     1      -9.623   9.296  68.604  1.00  0.00    -0.152 A  
HETATM    8  C   UNL     1      -8.753   9.597  69.648  1.00  0.00    -0.206 A  
HETATM    9  H   UNL     1     -11.292   8.502  66.874  1.00  0.00     0.000 HD 
HETATM   10  C   UNL     1      -8.890   8.970  70.897  1.00  0.00    -0.294 A  
HETATM   11  C   UNL     1      -9.932   8.043  71.075  1.00  0.00    -0.208 A  
BRANCH  10  12
HETATM   12  C   UNL     1      -7.925   9.249  72.034  1.00  0.00     0.738 C  
HETATM   13  O   UNL     1      -8.416   8.670  73.252  1.00  0.00    -0.395 OA 
HETATM   14  H   UNL     1      -7.812   8.845  73.965  1.00  0.00     0.000 HD 
BRANCH  12  15
HETATM   15  C   UNL     1      -6.512   8.695  71.750  1.00  0.00    -0.073 C  
BRANCH  15  16
HETATM   16  N   UNL     1      -6.048   9.082  70.408  1.00  0.00    -0.035 NA 
HETATM   17  H   UNL     1      -6.825   9.270  69.774  1.00  0.00     0.000 HD 
BRANCH  16  18
HETATM   18  C   UNL     1      -5.133  10.215  70.501  1.00  0.00    -0.046 C  
BRANCH  18  19
HETATM   19  C   UNL     1      -5.910  11.523  70.413  1.00  0.00    -0.155 C  
BRANCH  19  20
HETATM   20  C   UNL     1      -5.613  12.224  69.089  1.00  0.00    -0.066 C  
BRANCH  20  21
HETATM   21  C   UNL     1      -6.903  12.525  68.340  1.00  0.00    -0.085 C  
BRANCH  21  22
HETATM   22  C   UNL     1      -6.663  12.632  66.839  1.00  0.00     0.326 C  
BRANCH  22  23
HETATM   23  C   UNL     1      -5.833  11.455  66.351  1.00  0.00    -0.107 C  
BRANCH  23  24
HETATM   24  O   UNL     1      -6.715  10.388  66.026  1.00  0.00    -0.108 OA 
BRANCH  24  25
HETATM   25  C   UNL     1      -6.064   9.123  66.131  1.00  0.00    -0.059 C  
BRANCH  25  26
HETATM   26  C   UNL     1      -6.340   8.323  64.864  1.00  0.00    -0.052 C  
BRANCH  26  27
HETATM   27  C   UNL     1      -7.015   6.991  65.193  1.00  0.00    -0.052 C  
BRANCH  27  28
HETATM   28  C   UNL     1      -7.011   6.039  63.998  1.00  0.00    -0.050 C  
BRANCH  28  29
HETATM   29  C   UNL     1      -7.664   4.731  64.381  1.00  0.00    -0.082 A  
HETATM   30  C   UNL     1      -8.940   4.718  64.954  1.00  0.00    -0.151 A  
HETATM   31  C   UNL     1      -9.507   3.517  65.380  1.00  0.00    -0.152 A  
HETATM   32  C   UNL     1      -8.803   2.323  65.240  1.00  0.00    -0.122 A  
HETATM   33  C   UNL     1      -7.532   2.326  64.667  1.00  0.00    -0.063 A  
HETATM   34  C   UNL     1      -6.962   3.526  64.239  1.00  0.00    -0.049 A  
ENDBRANCH  28  29
ENDBRANCH  27  28
ENDBRANCH  26  27
ENDBRANCH  25  26
ENDBRANCH  24  25
ENDBRANCH  23  24
ENDBRANCH  22  23
ENDBRANCH  21  22
ENDBRANCH  20  21
ENDBRANCH  19  20
ENDBRANCH  18  19
ENDBRANCH  16  18
ENDBRANCH  15  16
ENDBRANCH  12  15
ENDBRANCH  10  12
ENDBRANCH   2   4
TORSDOF 16
ENDMDL
MODEL      446
REMARK 921   NORMALIZED FREE ENERGY PREDICTED BY IDOCK:   -0.85 KCAL/MOL
REMARK 922        TOTAL FREE ENERGY PREDICTED BY IDOCK:   -3.99 KCAL/MOL
REMARK 923 INTER-LIGAND FREE ENERGY PREDICTED BY IDOCK:   -3.20 KCAL/MOL
REMARK 924 INTRA-LIGAND FREE ENERGY PREDICTED BY IDOCK:   -0.79 KCAL/MOL
REMARK 927      BINDING AFFINITY PREDICTED BY RF-SCORE:    0.00 PKD
ROOT
HETATM    1  O   UNL     1      -8.853   9.491  68.250  1.00  0.00    -0.124 OA 
HETATM    2  C   UNL     1      -9.820  10.542  68.300  1.00  0.00    -0.149 C  
HETATM    3  H   UNL     1      -9.258   8.661  68.473  1.00  0.00     0.000 HD 
ENDROOT
BRANCH   2   4
HETATM    4  C   UNL     1      -9.178  11.857  67.946  1.00  0.00    -0.187 A  
HETATM    5  C   UNL     1      -9.819  12.829  67.169  1.00  0.00    -0.216 A  
HETATM    6  O   UNL     1     -11.054  12.615  66.623  1.00  0.00    -0.255 OA 
HETATM    7  C   UNL     1      -9.215  14.049  66.889  1.00  0.00    -0.271 A  
HETATM    8  C   UNL     1      -7.935  14.314  67.368  1.00  0.00    -0.211 A  
HETATM    9  H   UNL     1     -11.490  13.273  66.095  1.00  0.00     0.000 HD 
HETATM   10  C   UNL     1      -7.254  13.366  68.149  1.00  0.00    -0.113 A  
HETATM   11  C   UNL     1      -7.897  12.153  68.449  1.00  0.00    -0.149 A  
BRANCH  10  12
HETATM   12  C   UNL     1      -5.841  13.615  68.643  1.00  0.00    -0.086 C  
HETATM   13  O   UNL     1      -5.617  15.023  68.811  1.00  0.00    -0.084 OA 
HETATM   14  H   UNL     1      -4.733  15.179  69.121  1.00  0.00     0.000 HD 
BRANCH  12  15
HETATM   15  C   UNL     1      -5.556  12.899  69.980  1.00  0.00    -0.126 C  
BRANCH  15  16
HETATM   16  N   UNL     1      -5.129  11.508  69.759  1.00  0.00    -0.057 NA 
HETATM   17  H   UNL     1      -4.115  11.427  69.681  1.00  0.00     0.000 HD 
BRANCH  16  18
HETATM   18  C   UNL     1      -5.666  10.646  70.808  1.00  0.00    -0.103 C  
BRANCH  18  19
HETATM   19  C   UNL     1      -5.434   9.183  70.452  1.00  0.00    -0.030 C  
BRANCH  19  20
HETATM   20  C   UNL     1      -6.712   8.378  70.673  1.00  0.00    -0.038 C  
BRANCH  20  21
HETATM   21  C   UNL     1      -6.429   7.141  71.513  1.00  0.00    -0.041 C  
BRANCH  21  22
HETATM   22  C   UNL     1      -5.304   6.306  70.914  1.00  0.00    -0.018 C  
BRANCH  22  23
HETATM   23  C   UNL     1      -5.701   4.839  70.869  1.00  0.00    -0.016 C  
BRANCH  23  24
HETATM   24  O   UNL     1      -5.314   4.307  69.608  1.00  0.00    -0.007 OA 
BRANCH  24  25
HETATM   25  C   UNL     1      -6.424   4.220  68.717  1.00  0.00    -0.037 C  
BRANCH  25  26
HETATM   26  C   UNL     1      -6.861   5.629  68.337  1.00  0.00    -0.063 C  
BRANCH  26  27
HETATM   27  C   UNL     1      -8.358   5.823  68.579  1.00  0.00    -0.107 C  
BRANCH  27  28
HETATM   28  C   UNL     1      -9.187   5.453  67.350  1.00  0.00    -0.112 C  
BRANCH  28  29
HETATM   29  C   UNL     1      -8.449   5.847  66.093  1.00  0.00    -0.132 A  
HETATM   30  C   UNL     1      -8.506   7.162  65.620  1.00  0.00    -0.141 A  
HETATM   31  C   UNL     1      -7.890   7.505  64.417  1.00  0.00    -0.128 A  
HETATM   32  C   UNL     1      -7.215   6.537  63.677  1.00  0.00    -0.064 A  
HETATM   33  C   UNL     1      -7.149   5.224  64.142  1.00  0.00    -0.049 A  
HETATM   34  C   UNL     1      -7.764   4.879  65.346  1.00  0.00    -0.086 A  
ENDBRANCH  28  29
ENDBRANCH  27  28
ENDBRANCH  26  27
ENDBRANCH  25  26
ENDBRANCH  24  25
ENDBRANCH  23  24
ENDBRANCH  22  23
ENDBRANCH  21  22
ENDBRANCH  20  21
ENDBRANCH  19  20
ENDBRANCH  18  19
ENDBRANCH  16  18
ENDBRANCH  15  16
ENDBRANCH  12  15
ENDBRANCH  10  12
ENDBRANCH   2   4
TORSDOF 16
ENDMDL
MODEL      447
REMARK 921   NORMALIZED FREE ENERGY PREDICTED BY IDOCK:   -0.67 KCAL/MOL
REMARK 922        TOTAL FREE ENERGY PREDICTED BY IDOCK:   -3.65 KCAL/MOL
REMARK 923 INTER-LIGAND FREE ENERGY PREDICTED BY IDOCK:   -3.61 KCAL/MOL
REMARK 924 INTRA-LIGAND FREE ENERGY PREDICTED BY IDOCK:   -0.04 KCAL/MOL
REMARK 927      BINDING AFFINITY PREDICTED BY RF-SCORE:    0.00 PKD
ROOT
HETATM    1  O   UNL     1     -11.897  17.487  73.010  1.00  0.00     0.237 OA 
HETATM    2  C   UNL     1     -11.620  16.200  72.457  1.00  0.00    -0.250 C  
HETATM    3  H   UNL     1     -12.070  17.413  73.942  1.00  0.00     0.000 HD 
ENDROOT
BRANCH   2   4
HETATM    4  C   UNL     1     -11.345  16.316  70.980  1.00  0.00    -0.315 A  
HETATM    5  C   UNL     1     -10.817  17.473  70.396  1.00  0.00     1.255 A  
HETATM    6  O   UNL     1     -10.576  18.604  71.127  1.00  0.00     1.180 OA 
HETATM    7  C   UNL     1     -10.540  17.538  69.036  1.00  0.00    -0.146 A  
HETATM    8  C   UNL     1     -10.811  16.442  68.221  1.00  0.00    -0.347 A  
HETATM    9  H   UNL     1     -10.218  19.389  70.731  1.00  0.00     0.000 HD 
HETATM   10  C   UNL     1     -11.344  15.263  68.765  1.00  0.00    -0.318 A  
HETATM   11  C   UNL     1     -11.584  15.206  70.149  1.00  0.00    -0.326 A  
BRANCH  10  12
HETATM   12  C   UNL     1     -11.690  14.073  67.889  1.00  0.00    -0.362 C  
HETATM   13  O   UNL     1     -12.908  13.463  68.342  1.00  0.00     0.432 OA 
HETATM   14  H   UNL     1     -13.125  12.717  67.794  1.00  0.00     0.000 HD 
BRANCH  12  15
HETATM   15  C   UNL     1     -11.849  14.467  66.405  1.00  0.00    -0.388 C  
BRANCH  15  16
HETATM   16  N   UNL     1     -12.974  13.749  65.781  1.00  0.00    -0.495 NA 
HETATM   17  H   UNL     1     -13.574  14.374  65.244  1.00  0.00     0.000 HD 
BRANCH  16  18
HETATM   18  C   UNL     1     -12.474  12.642  64.972  1.00  0.00    -0.487 C  
BRANCH  18  19
HETATM   19  C   UNL     1     -11.731  13.178  63.755  1.00  0.00    -0.519 C  
BRANCH  19  20
HETATM   20  C   UNL     1     -10.360  12.517  63.641  1.00  0.00    -0.382 C  
BRANCH  20  21
HETATM   21  C   UNL     1     -10.048  11.708  64.891  1.00  0.00    -0.303 C  
BRANCH  21  22
HETATM   22  C   UNL     1     -10.021  10.213  64.595  1.00  0.00    -0.304 C  
BRANCH  22  23
HETATM   23  C   UNL     1      -8.656   9.633  64.929  1.00  0.00    -0.170 C  
BRANCH  23  24
HETATM   24  O   UNL     1      -8.723   9.039  66.219  1.00  0.00    -0.125 OA 
BRANCH  24  25
HETATM   25  C   UNL     1      -7.462   9.089  66.883  1.00  0.00    -0.090 C  
BRANCH  25  26
HETATM   26  C   UNL     1      -7.510   8.170  68.097  1.00  0.00    -0.097 C  
BRANCH  26  27
HETATM   27  C   UNL     1      -7.851   8.954  69.365  1.00  0.00    -0.098 C  
BRANCH  27  28
HETATM   28  C   UNL     1      -7.561   8.149  70.630  1.00  0.00    -0.073 C  
BRANCH  28  29
HETATM   29  C   UNL     1      -8.533   6.998  70.741  1.00  0.00    -0.135 A  
HETATM   30  C   UNL     1      -8.971   6.559  71.995  1.00  0.00    -0.140 A  
HETATM   31  C   UNL     1      -9.805   5.446  72.100  1.00  0.00    -0.209 A  
HETATM   32  C   UNL     1     -10.205   4.762  70.953  1.00  0.00    -0.247 A  
HETATM   33  C   UNL     1      -9.776   5.194  69.699  1.00  0.00    -0.255 A  
HETATM   34  C   UNL     1      -8.943   6.308  69.591  1.00  0.00    -0.135 A  
ENDBRANCH  28  29
ENDBRANCH  27  28
ENDBRANCH  26  27
ENDBRANCH  25  26
ENDBRANCH  24  25
ENDBRANCH  23  24
ENDBRANCH  22  23
ENDBRANCH  21  22
ENDBRANCH  20  21
ENDBRANCH  19  20
ENDBRANCH  18  19
ENDBRANCH  16  18
ENDBRANCH  15  16
ENDBRANCH  12  15
ENDBRANCH  10  12
ENDBRANCH   2   4
TORSDOF 16
ENDMDL
MODEL      448
REMARK 921   NORMALIZED FREE ENERGY PREDICTED BY IDOCK:   -0.15 KCAL/MOL
REMARK 922        TOTAL FREE ENERGY PREDICTED BY IDOCK:   -2.63 KCAL/MOL
REMARK 923 INTER-LIGAND FREE ENERGY PREDICTED BY IDOCK:   -1.57 KCAL/MOL
REMARK 924 INTRA-LIGAND FREE ENERGY PREDICTED BY IDOCK:   -1.07 KCAL/MOL
REMARK 927      BINDING AFFINITY PREDICTED BY RF-SCORE:    0.00 PKD
ROOT
HETATM    1  O   UNL     1      -6.192   9.980  66.106  1.00  0.00    -0.068 OA 
HETATM    2  C   UNL     1      -6.298   9.187  67.289  1.00  0.00    -0.059 C  
HETATM    3  H   UNL     1      -5.281  10.073  65.854  1.00  0.00     0.000 HD 
ENDROOT
BRANCH   2   4
HETATM    4  C   UNL     1      -7.742   9.038  67.689  1.00  0.00    -0.097 A  
HETATM    5  C   UNL     1      -8.254   7.867  68.259  1.00  0.00    -0.124 A  
HETATM    6  O   UNL     1      -7.482   6.752  68.431  1.00  0.00    -0.091 OA 
HETATM    7  C   UNL     1      -9.584   7.773  68.653  1.00  0.00    -0.154 A  
HETATM    8  C   UNL     1     -10.442   8.853  68.459  1.00  0.00    -0.218 A  
HETATM    9  H   UNL     1      -7.830   5.957  68.817  1.00  0.00     0.000 HD 
HETATM   10  C   UNL     1      -9.970  10.046  67.887  1.00  0.00    -0.183 A  
HETATM   11  C   UNL     1      -8.613  10.131  67.529  1.00  0.00    -0.118 A  
BRANCH  10  12
HETATM   12  C   UNL     1     -10.897  11.218  67.625  1.00  0.00    -0.238 C  
HETATM   13  O   UNL     1     -11.736  11.450  68.767  1.00  0.00    -0.292 OA 
HETATM   14  H   UNL     1     -12.317  12.184  68.603  1.00  0.00     0.000 HD 
BRANCH  12  15
HETATM   15  C   UNL     1     -10.121  12.514  67.304  1.00  0.00    -0.213 C  
BRANCH  15  16
HETATM   16  N   UNL     1     -10.035  13.390  68.484  1.00  0.00    -0.320 NA 
HETATM   17  H   UNL     1     -10.573  13.025  69.270  1.00  0.00     0.000 HD 
BRANCH  16  18
HETATM   18  C   UNL     1      -8.638  13.619  68.837  1.00  0.00     0.177 C  
BRANCH  18  19
HETATM   19  C   UNL     1      -8.412  15.094  69.147  1.00  0.00    -0.220 C  
BRANCH  19  20
HETATM   20  C   UNL     1      -9.747  15.834  69.183  1.00  0.00    -0.250 C  
BRANCH  20  21
HETATM   21  C   UNL     1      -9.733  17.015  68.223  1.00  0.00    -0.275 C  
BRANCH  21  22
HETATM   22  C   UNL     1     -10.325  18.263  68.866  1.00  0.00    -0.191 C  
BRANCH  22  23
HETATM   23  C   UNL     1     -11.126  19.055  67.845  1.00  0.00     0.105 C  
BRANCH  23  24
HETATM   24  O   UNL     1     -10.479  20.304  67.637  1.00  0.00    -0.311 OA 
BRANCH  24  25
HETATM   25  C   UNL     1      -9.062  20.181  67.738  1.00  0.00    -0.298 C  
BRANCH  25  26
HETATM   26  C   UNL     1      -8.526  21.344  68.562  1.00  0.00     2.106 C  
BRANCH  26  27
HETATM   27  C   UNL     1      -7.089  21.081  69.013  1.00  0.00     1.181 C  
BRANCH  27  28
HETATM   28  C   UNL     1      -6.211  20.589  67.864  1.00  0.00    -0.317 C  
BRANCH  28  29
HETATM   29  C   UNL     1      -5.961  19.106  68.006  1.00  0.00    -0.222 A  
HETATM   30  C   UNL     1      -6.340  18.223  66.989  1.00  0.00    -0.193 A  
HETATM   31  C   UNL     1      -6.182  16.847  67.157  1.00  0.00    -0.215 A  
HETATM   32  C   UNL     1      -5.649  16.344  68.342  1.00  0.00    -0.106 A  
HETATM   33  C   UNL     1      -5.265  17.217  69.359  1.00  0.00    -0.157 A  
HETATM   34  C   UNL     1      -5.421  18.593  69.194  1.00  0.00    -0.205 A  
ENDBRANCH  28  29
ENDBRANCH  27  28
ENDBRANCH  26  27
ENDBRANCH  25  26
ENDBRANCH  24  25
ENDBRANCH  23  24
ENDBRANCH  22  23
ENDBRANCH  21  22
ENDBRANCH  20  21
ENDBRANCH  19  20
ENDBRANCH  18  19
ENDBRANCH  16  18
ENDBRANCH  15  16
ENDBRANCH  12  15
ENDBRANCH  10  12
ENDBRANCH   2   4
TORSDOF 16
ENDMDL
MODEL      449
REMARK 921   NORMALIZED FREE ENERGY PREDICTED BY IDOCK:    0.96 KCAL/MOL
REMARK 922        TOTAL FREE ENERGY PREDICTED BY IDOCK:   -0.49 KCAL/MOL
REMARK 923 INTER-LIGAND FREE ENERGY PREDICTED BY IDOCK:   -1.52 KCAL/MOL
REMARK 924 INTRA-LIGAND FREE ENERGY PREDICTED BY IDOCK:    1.03 KCAL/MOL
REMARK 927      BINDING AFFINITY PREDICTED BY RF-SCORE:    0.00 PKD
ROOT
HETATM    1  O   UNL     1     -12.108  11.799  72.243  1.00  0.00     1.215 OA 
HETATM    2  C   UNL     1     -12.703  12.228  71.018  1.00  0.00    -0.225 C  
HETATM    3  H   UNL     1     -12.415  10.928  72.470  1.00  0.00     0.000 HD 
ENDROOT
BRANCH   2   4
HETATM    4  C   UNL     1     -12.218  13.608  70.659  1.00  0.00    -0.434 A  
HETATM    5  C   UNL     1     -13.028  14.745  70.755  1.00  0.00    -0.352 A  
HETATM    6  O   UNL     1     -14.343  14.664  71.121  1.00  0.00    -0.518 OA 
HETATM    7  C   UNL     1     -12.541  16.012  70.452  1.00  0.00     0.102 A  
HETATM    8  C   UNL     1     -11.226  16.162  70.020  1.00  0.00    -0.359 A  
HETATM    9  H   UNL     1     -14.894  15.436  71.186  1.00  0.00     0.000 HD 
HETATM   10  C   UNL     1     -10.379  15.047  69.906  1.00  0.00    -0.141 A  
HETATM   11  C   UNL     1     -10.883  13.781  70.252  1.00  0.00     0.726 A  
BRANCH  10  12
HETATM   12  C   UNL     1      -8.957  15.182  69.395  1.00  0.00    -0.176 C  
HETATM   13  O   UNL     1      -8.126  15.782  70.399  1.00  0.00     0.792 OA 
HETATM   14  H   UNL     1      -7.235  15.867  70.079  1.00  0.00     0.000 HD 
BRANCH  12  15
HETATM   15  C   UNL     1      -8.351  13.820  68.992  1.00  0.00     0.230 C  
BRANCH  15  16
HETATM   16  N   UNL     1      -8.230  13.703  67.529  1.00  0.00    -0.172 NA 
HETATM   17  H   UNL     1      -7.263  13.573  67.235  1.00  0.00     0.000 HD 
BRANCH  16  18
HETATM   18  C   UNL     1      -9.098  12.637  67.039  1.00  0.00    -0.215 C  
BRANCH  18  19
HETATM   19  C   UNL     1      -9.872  13.114  65.816  1.00  0.00    -0.214 C  
BRANCH  19  20
HETATM   20  C   UNL     1     -11.244  13.637  66.232  1.00  0.00    -0.313 C  
BRANCH  20  21
HETATM   21  C   UNL     1     -11.599  13.162  67.634  1.00  0.00    -0.392 C  
BRANCH  21  22
HETATM   22  C   UNL     1     -12.164  11.747  67.615  1.00  0.00     0.420 C  
BRANCH  22  23
HETATM   23  C   UNL     1     -11.225  10.794  68.340  1.00  0.00    -0.284 C  
BRANCH  23  24
HETATM   24  O   UNL     1     -10.380  10.177  67.377  1.00  0.00    -0.207 OA 
BRANCH  24  25
HETATM   25  C   UNL     1      -9.744   9.017  67.908  1.00  0.00    -0.155 C  
BRANCH  25  26
HETATM   26  C   UNL     1      -8.352   8.900  67.301  1.00  0.00    -0.104 C  
BRANCH  26  27
HETATM   27  C   UNL     1      -8.089   7.478  66.803  1.00  0.00    -0.123 C  
BRANCH  27  28
HETATM   28  C   UNL     1      -8.958   6.450  67.525  1.00  0.00    -0.116 C  
BRANCH  28  29
HETATM   29  C   UNL     1      -8.237   5.936  68.748  1.00  0.00    -0.103 A  
HETATM   30  C   UNL     1      -8.949   5.630  69.913  1.00  0.00    -0.142 A  
HETATM   31  C   UNL     1      -8.274   5.233  71.067  1.00  0.00    -0.116 A  
HETATM   32  C   UNL     1      -6.883   5.141  71.067  1.00  0.00    -0.047 A  
HETATM   33  C   UNL     1      -6.166   5.440  69.909  1.00  0.00    -0.026 A  
HETATM   34  C   UNL     1      -6.839   5.837  68.754  1.00  0.00    -0.066 A  
ENDBRANCH  28  29
ENDBRANCH  27  28
ENDBRANCH  26  27
ENDBRANCH  25  26
ENDBRANCH  24  25
ENDBRANCH  23  24
ENDBRANCH  22  23
ENDBRANCH  21  22
ENDBRANCH  20  21
ENDBRANCH  19  20
ENDBRANCH  18  19
ENDBRANCH  16  18
ENDBRANCH  15  16
ENDBRANCH  12  15
ENDBRANCH  10  12
ENDBRANCH   2   4
TORSDOF 16
ENDMDL
MODEL      450
REMARK 921   NORMALIZED FREE ENERGY PREDICTED BY IDOCK:    1.50 KCAL/MOL
REMARK 922        TOTAL FREE ENERGY PREDICTED BY IDOCK:    0.57 KCAL/MOL
REMARK 923 INTER-LIGAND FREE ENERGY PREDICTED BY IDOCK:    0.05 KCAL/MOL
REMARK 924 INTRA-LIGAND FREE ENERGY PREDICTED BY IDOCK:    0.52 KCAL/MOL
REMARK 927      BINDING AFFINITY PREDICTED BY RF-SCORE:    0.00 PKD
ROOT
HETATM    1  O   UNL     1      -5.125   7.857  66.487  1.00  0.00    -0.023 OA 
HETATM    2  C   UNL     1      -5.591   9.039  65.834  1.00  0.00    -0.045 C  
HETATM    3  H   UNL     1      -4.226   7.677  66.237  1.00  0.00     0.000 HD 
ENDROOT
BRANCH   2   4
HETATM    4  C   UNL     1      -7.016   9.324  66.230  1.00  0.00    -0.087 A  
HETATM    5  C   UNL     1      -7.469   9.233  67.552  1.00  0.00    -0.088 A  
HETATM    6  O   UNL     1      -6.653   8.813  68.565  1.00  0.00    -0.057 OA 
HETATM    7  C   UNL     1      -8.781   9.539  67.892  1.00  0.00    -0.119 A  
HETATM    8  C   UNL     1      -9.682   9.923  66.902  1.00  0.00    -0.236 A  
HETATM    9  H   UNL     1      -6.960   8.750  69.462  1.00  0.00     0.000 HD 
HETATM   10  C   UNL     1      -9.271  10.024  65.563  1.00  0.00    -0.247 A  
HETATM   11  C   UNL     1      -7.930   9.744  65.246  1.00  0.00    -0.123 A  
BRANCH  10  12
HETATM   12  C   UNL     1     -10.246  10.396  64.461  1.00  0.00    -0.210 C  
HETATM   13  O   UNL     1     -11.597  10.250  64.927  1.00  0.00     1.590 OA 
HETATM   14  H   UNL     1     -12.207  10.483  64.237  1.00  0.00     0.000 HD 
BRANCH  12  15
HETATM   15  C   UNL     1     -10.041  11.844  63.966  1.00  0.00    -0.334 C  
BRANCH  15  16
HETATM   16  N   UNL     1     -10.479  12.820  64.978  1.00  0.00    -0.305 NA 
HETATM   17  H   UNL     1      -9.724  13.075  65.615  1.00  0.00     0.000 HD 
BRANCH  16  18
HETATM   18  C   UNL     1     -11.063  13.988  64.327  1.00  0.00    -0.180 C  
BRANCH  18  19
HETATM   19  C   UNL     1     -10.872  15.222  65.200  1.00  0.00    -0.441 C  
BRANCH  19  20
HETATM   20  C   UNL     1     -10.848  16.481  64.336  1.00  0.00     0.477 C  
BRANCH  20  21
HETATM   21  C   UNL     1     -11.614  17.610  65.010  1.00  0.00     2.038 C  
BRANCH  21  22
HETATM   22  C   UNL     1     -10.680  18.528  65.790  1.00  0.00    -0.193 C  
BRANCH  22  23
HETATM   23  C   UNL     1     -11.005  19.985  65.495  1.00  0.00     0.044 C  
BRANCH  23  24
HETATM   24  O   UNL     1     -10.296  20.799  66.421  1.00  0.00     0.029 OA 
BRANCH  24  25
HETATM   25  C   UNL     1      -9.747  20.023  67.484  1.00  0.00    -0.407 C  
BRANCH  25  26
HETATM   26  C   UNL     1      -8.670  19.107  66.917  1.00  0.00    -0.318 C  
BRANCH  26  27
HETATM   27  C   UNL     1      -8.642  17.769  67.658  1.00  0.00    -0.230 C  
BRANCH  27  28
HETATM   28  C   UNL     1      -7.393  16.957  67.322  1.00  0.00    -0.199 C  
BRANCH  28  29
HETATM   29  C   UNL     1      -7.150  15.920  68.394  1.00  0.00    -0.117 A  
HETATM   30  C   UNL     1      -6.676  16.301  69.653  1.00  0.00    -0.154 A  
HETATM   31  C   UNL     1      -6.376  15.336  70.614  1.00  0.00     0.168 A  
HETATM   32  C   UNL     1      -6.545  13.984  70.323  1.00  0.00     0.043 A  
HETATM   33  C   UNL     1      -7.021  13.595  69.072  1.00  0.00    -0.098 A  
HETATM   34  C   UNL     1      -7.322  14.558  68.109  1.00  0.00    -0.129 A  
ENDBRANCH  28  29
ENDBRANCH  27  28
ENDBRANCH  26  27
ENDBRANCH  25  26
ENDBRANCH  24  25
ENDBRANCH  23  24
ENDBRANCH  22  23
ENDBRANCH  21  22
ENDBRANCH  20  21
ENDBRANCH  19  20
ENDBRANCH  18  19
ENDBRANCH  16  18
ENDBRANCH  15  16
ENDBRANCH  12  15
ENDBRANCH  10  12
ENDBRANCH   2   4
TORSDOF 16
ENDMDL
MODEL      451
REMARK 921   NORMALIZED FREE ENERGY PREDICTED BY IDOCK:    2.17 KCAL/MOL
REMARK 922        TOTAL FREE ENERGY PREDICTED BY IDOCK:    1.85 KCAL/MOL
REMARK 923 INTER-LIGAND FREE ENERGY PREDICTED BY IDOCK:   -1.74 KCAL/MOL
REMARK 924 INTRA-LIGAND FREE ENERGY PREDICTED BY IDOCK:    3.60 KCAL/MOL
REMARK 927      BINDING AFFINITY PREDICTED BY RF-SCORE:    0.00 PKD
ROOT
HETATM    1  O   UNL     1     -13.336  13.077  73.342  1.00  0.00     0.204 OA 
HETATM    2  C   UNL     1     -14.124  12.227  72.507  1.00  0.00     0.578 C  
HETATM    3  H   UNL     1     -13.897  13.577  73.923  1.00  0.00     0.000 HD 
ENDROOT
BRANCH   2   4
HETATM    4  C   UNL     1     -13.235  11.433  71.586  1.00  0.00    -0.413 A  
HETATM    5  C   UNL     1     -12.364  12.034  70.670  1.00  0.00    -0.304 A  
HETATM    6  O   UNL     1     -12.312  13.390  70.508  1.00  0.00    -0.342 OA 
HETATM    7  C   UNL     1     -11.528  11.275  69.858  1.00  0.00    -0.373 A  
HETATM    8  C   UNL     1     -11.567   9.885  69.932  1.00  0.00    -0.184 A  
HETATM    9  H   UNL     1     -11.721  13.798  69.886  1.00  0.00     0.000 HD 
HETATM   10  C   UNL     1     -12.430   9.241  70.833  1.00  0.00    -0.189 A  
HETATM   11  C   UNL     1     -13.240  10.029  71.670  1.00  0.00    -0.518 A  
BRANCH  10  12
HETATM   12  C   UNL     1     -12.521   7.728  70.899  1.00  0.00    -0.059 C  
HETATM   13  O   UNL     1     -13.236   7.227  69.758  1.00  0.00     1.360 OA 
HETATM   14  H   UNL     1     -13.293   6.279  69.799  1.00  0.00     0.000 HD 
BRANCH  12  15
HETATM   15  C   UNL     1     -11.130   7.061  70.950  1.00  0.00    -0.267 C  
BRANCH  15  16
HETATM   16  N   UNL     1     -10.330   7.405  69.762  1.00  0.00    -0.217 NA 
HETATM   17  H   UNL     1      -9.415   6.956  69.776  1.00  0.00     0.000 HD 
BRANCH  16  18
HETATM   18  C   UNL     1     -11.076   7.090  68.548  1.00  0.00    -0.006 C  
BRANCH  18  19
HETATM   19  C   UNL     1     -10.485   5.856  67.878  1.00  0.00    -0.297 C  
BRANCH  19  20
HETATM   20  C   UNL     1      -9.673   6.261  66.650  1.00  0.00    -0.195 C  
BRANCH  20  21
HETATM   21  C   UNL     1      -8.664   7.343  67.007  1.00  0.00    -0.123 C  
BRANCH  21  22
HETATM   22  C   UNL     1      -8.530   8.369  65.888  1.00  0.00    -0.159 C  
BRANCH  22  23
HETATM   23  C   UNL     1      -8.404   7.671  64.543  1.00  0.00     0.029 C  
BRANCH  23  24
HETATM   24  O   UNL     1      -8.874   6.336  64.684  1.00  0.00     0.163 OA 
BRANCH  24  25
HETATM   25  C   UNL     1      -7.999   5.406  64.050  1.00  0.00    -0.111 C  
BRANCH  25  26
HETATM   26  C   UNL     1      -6.580   5.647  64.551  1.00  0.00    -0.045 C  
BRANCH  26  27
HETATM   27  C   UNL     1      -5.570   4.817  63.758  1.00  0.00    -0.016 C  
BRANCH  27  28
HETATM   28  C   UNL     1      -5.133   3.568  64.521  1.00  0.00    -0.009 C  
BRANCH  28  29
HETATM   29  C   UNL     1      -5.873   3.482  65.834  1.00  0.00    -0.019 A  
HETATM   30  C   UNL     1      -5.223   3.786  67.035  1.00  0.00    -0.012 A  
HETATM   31  C   UNL     1      -5.885   3.628  68.253  1.00  0.00    -0.026 A  
HETATM   32  C   UNL     1      -7.199   3.164  68.280  1.00  0.00    -0.050 A  
HETATM   33  C   UNL     1      -7.856   2.863  67.088  1.00  0.00    -0.074 A  
HETATM   34  C   UNL     1      -7.197   3.019  65.868  1.00  0.00    -0.070 A  
ENDBRANCH  28  29
ENDBRANCH  27  28
ENDBRANCH  26  27
ENDBRANCH  25  26
ENDBRANCH  24  25
ENDBRANCH  23  24
ENDBRANCH  22  23
ENDBRANCH  21  22
ENDBRANCH  20  21
ENDBRANCH  19  20
ENDBRANCH  18  19
ENDBRANCH  16  18
ENDBRANCH  15  16
ENDBRANCH  12  15
ENDBRANCH  10  12
ENDBRANCH   2   4
TORSDOF 16
ENDMDL
MODEL      452
REMARK 921   NORMALIZED FREE ENERGY PREDICTED BY IDOCK:    2.71 KCAL/MOL
REMARK 922        TOTAL FREE ENERGY PREDICTED BY IDOCK:    2.90 KCAL/MOL
REMARK 923 INTER-LIGAND FREE ENERGY PREDICTED BY IDOCK:   -1.52 KCAL/MOL
REMARK 924 INTRA-LIGAND FREE ENERGY PREDICTED BY IDOCK:    4.42 KCAL/MOL
REMARK 927      BINDING AFFINITY PREDICTED BY RF-SCORE:    0.00 PKD
ROOT
HETATM    1  O   UNL     1     -13.318  13.056  73.523  1.00  0.00     0.616 OA 
HETATM    2  C   UNL     1     -14.067  12.003  72.913  1.00  0.00     1.858 C  
HETATM    3  H   UNL     1     -13.904  13.674  73.945  1.00  0.00     0.000 HD 
ENDROOT
BRANCH   2   4
HETATM    4  C   UNL     1     -13.139  11.024  72.244  1.00  0.00    -0.085 A  
HETATM    5  C   UNL     1     -12.255  11.393  71.223  1.00  0.00    -0.134 A  
HETATM    6  O   UNL     1     -12.226  12.664  70.720  1.00  0.00    -0.406 OA 
HETATM    7  C   UNL     1     -11.384  10.474  70.650  1.00  0.00    -0.363 A  
HETATM    8  C   UNL     1     -11.397   9.149  71.077  1.00  0.00    -0.377 A  
HETATM    9  H   UNL     1     -11.627  12.915  70.027  1.00  0.00     0.000 HD 
HETATM   10  C   UNL     1     -12.270   8.735  72.095  1.00  0.00    -0.448 A  
HETATM   11  C   UNL     1     -13.117   9.688  72.686  1.00  0.00    -0.108 A  
BRANCH  10  12
HETATM   12  C   UNL     1     -12.333   7.286  72.544  1.00  0.00     0.098 C  
HETATM   13  O   UNL     1     -12.999   6.490  71.551  1.00  0.00    -0.179 OA 
HETATM   14  H   UNL     1     -13.039   5.583  71.832  1.00  0.00     0.000 HD 
BRANCH  12  15
HETATM   15  C   UNL     1     -10.931   6.694  72.802  1.00  0.00    -0.258 C  
BRANCH  15  16
HETATM   16  N   UNL     1     -10.087   6.778  71.599  1.00  0.00    -0.184 NA 
HETATM   17  H   UNL     1      -9.172   6.351  71.744  1.00  0.00     0.000 HD 
BRANCH  16  18
HETATM   18  C   UNL     1     -10.786   6.201  70.455  1.00  0.00    -0.278 C  
BRANCH  18  19
HETATM   19  C   UNL     1     -10.168   4.857  70.090  1.00  0.00    -0.310 C  
BRANCH  19  20
HETATM   20  C   UNL     1      -9.302   4.998  68.840  1.00  0.00    -0.174 C  
BRANCH  20  21
HETATM   21  C   UNL     1      -8.315   6.145  68.996  1.00  0.00    -0.112 C  
BRANCH  21  22
HETATM   22  C   UNL     1      -8.125   6.898  67.684  1.00  0.00    -0.113 C  
BRANCH  22  23
HETATM   23  C   UNL     1      -8.019   5.920  66.524  1.00  0.00    -0.102 C  
BRANCH  23  24
HETATM   24  O   UNL     1      -8.619   4.691  66.917  1.00  0.00    -0.106 OA 
BRANCH  24  25
HETATM   25  C   UNL     1      -7.780   3.580  66.609  1.00  0.00    -0.081 C  
BRANCH  25  26
HETATM   26  C   UNL     1      -6.395   3.835  67.192  1.00  0.00    -0.037 C  
BRANCH  26  27
HETATM   27  C   UNL     1      -5.413   2.740  66.772  1.00  0.00    -0.020 C  
BRANCH  27  28
HETATM   28  C   UNL     1      -5.224   1.692  67.867  1.00  0.00    -0.012 C  
BRANCH  28  29
HETATM   29  C   UNL     1      -6.097   2.025  69.054  1.00  0.00    -0.024 A  
HETATM   30  C   UNL     1      -5.529   2.508  70.238  1.00  0.00    -0.016 A  
HETATM   31  C   UNL     1      -6.327   2.738  71.358  1.00  0.00    -0.018 A  
HETATM   32  C   UNL     1      -7.696   2.486  71.305  1.00  0.00    -0.040 A  
HETATM   33  C   UNL     1      -8.272   2.009  70.129  1.00  0.00    -0.061 A  
HETATM   34  C   UNL     1      -7.476   1.778  69.006  1.00  0.00    -0.043 A  
ENDBRANCH  28  29
ENDBRANCH  27  28
ENDBRANCH  26  27
ENDBRANCH  25  26
ENDBRANCH  24  25
ENDBRANCH  23  24
ENDBRANCH  22  23
ENDBRANCH  21  22
ENDBRANCH  20  21
ENDBRANCH  19  20
ENDBRANCH  18  19
ENDBRANCH  16  18
ENDBRANCH  15  16
ENDBRANCH  12  15
ENDBRANCH  10  12
ENDBRANCH   2   4
TORSDOF 16
ENDMDL
MODEL      453
REMARK 921   NORMALIZED FREE ENERGY PREDICTED BY IDOCK:    3.88 KCAL/MOL
REMARK 922        TOTAL FREE ENERGY PREDICTED BY IDOCK:    5.16 KCAL/MOL
REMARK 923 INTER-LIGAND FREE ENERGY PREDICTED BY IDOCK:    5.83 KCAL/MOL
REMARK 924 INTRA-LIGAND FREE ENERGY PREDICTED BY IDOCK:   -0.67 KCAL/MOL
REMARK 927      BINDING AFFINITY PREDICTED BY RF-SCORE:    0.00 PKD
ROOT
HETATM    1  O   UNL     1     -11.909  19.984  67.545  1.00  0.00     0.938 OA 
HETATM    2  C   UNL     1     -10.505  19.783  67.375  1.00  0.00    -0.442 C  
HETATM    3  H   UNL     1     -12.069  20.785  68.030  1.00  0.00     0.000 HD 
ENDROOT
BRANCH   2   4
HETATM    4  C   UNL     1     -10.250  18.513  66.607  1.00  0.00    -0.429 A  
HETATM    5  C   UNL     1     -10.210  18.467  65.208  1.00  0.00     0.913 A  
HETATM    6  O   UNL     1     -10.467  19.572  64.444  1.00  0.00     1.556 OA 
HETATM    7  C   UNL     1      -9.935  17.287  64.528  1.00  0.00     3.630 A  
HETATM    8  C   UNL     1      -9.717  16.111  65.242  1.00  0.00     0.224 A  
HETATM    9  H   UNL     1     -10.441  19.541  63.495  1.00  0.00     0.000 HD 
HETATM   10  C   UNL     1      -9.752  16.111  66.646  1.00  0.00    -0.260 A  
HETATM   11  C   UNL     1      -9.996  17.324  67.314  1.00  0.00    -0.283 A  
BRANCH  10  12
HETATM   12  C   UNL     1      -9.561  14.834  67.442  1.00  0.00    -0.210 C  
HETATM   13  O   UNL     1     -10.396  13.792  66.913  1.00  0.00    -0.262 OA 
HETATM   14  H   UNL     1     -10.277  12.992  67.412  1.00  0.00     0.000 HD 
BRANCH  12  15
HETATM   15  C   UNL     1      -8.094  14.353  67.432  1.00  0.00    -0.199 C  
BRANCH  15  16
HETATM   16  N   UNL     1      -7.624  14.050  68.794  1.00  0.00    -0.140 NA 
HETATM   17  H   UNL     1      -8.333  13.567  69.344  1.00  0.00     0.000 HD 
BRANCH  16  18
HETATM   18  C   UNL     1      -6.372  13.301  68.737  1.00  0.00    -0.094 C  
BRANCH  18  19
HETATM   19  C   UNL     1      -6.366  12.213  69.802  1.00  0.00    -0.102 C  
BRANCH  19  20
HETATM   20  C   UNL     1      -7.221  11.031  69.354  1.00  0.00    -0.114 C  
BRANCH  20  21
HETATM   21  C   UNL     1      -6.367   9.782  69.188  1.00  0.00    -0.040 C  
BRANCH  21  22
HETATM   22  C   UNL     1      -6.743   8.711  70.205  1.00  0.00    -0.039 C  
BRANCH  22  23
HETATM   23  C   UNL     1      -7.180   9.354  71.512  1.00  0.00     0.273 C  
BRANCH  23  24
HETATM   24  O   UNL     1      -8.196   8.546  72.093  1.00  0.00    -0.195 OA 
BRANCH  24  25
HETATM   25  C   UNL     1      -9.364   8.511  71.276  1.00  0.00    -0.203 C  
BRANCH  25  26
HETATM   26  C   UNL     1      -9.839   9.939  71.037  1.00  0.00     0.338 C  
BRANCH  26  27
HETATM   27  C   UNL     1     -11.184   9.955  70.310  1.00  0.00    -0.364 C  
BRANCH  27  28
HETATM   28  C   UNL     1     -12.236  10.760  71.071  1.00  0.00    -0.485 C  
BRANCH  28  29
HETATM   29  C   UNL     1     -12.057  12.233  70.791  1.00  0.00    -0.259 A  
HETATM   30  C   UNL     1     -10.792  12.749  70.492  1.00  0.00     2.153 A  
HETATM   31  C   UNL     1     -10.615  14.121  70.313  1.00  0.00     0.704 A  
HETATM   32  C   UNL     1     -11.700  14.987  70.434  1.00  0.00    -0.336 A  
HETATM   33  C   UNL     1     -12.966  14.482  70.728  1.00  0.00    -0.403 A  
HETATM   34  C   UNL     1     -13.145  13.110  70.907  1.00  0.00    -0.042 A  
ENDBRANCH  28  29
ENDBRANCH  27  28
ENDBRANCH  26  27
ENDBRANCH  25  26
ENDBRANCH  24  25
ENDBRANCH  23  24
ENDBRANCH  22  23
ENDBRANCH  21  22
ENDBRANCH  20  21
ENDBRANCH  19  20
ENDBRANCH  18  19
ENDBRANCH  16  18
ENDBRANCH  15  16
ENDBRANCH  12  15
ENDBRANCH  10  12
ENDBRANCH   2   4
TORSDOF 16
ENDMDL
MODEL      454
REMARK 921   NORMALIZED FREE ENERGY PREDICTED BY IDOCK:    7.13 KCAL/MOL
REMARK 922        TOTAL FREE ENERGY PREDICTED BY IDOCK:   11.46 KCAL/MOL
REMARK 923 INTER-LIGAND FREE ENERGY PREDICTED BY IDOCK:    2.76 KCAL/MOL
REMARK 924 INTRA-LIGAND FREE ENERGY PREDICTED BY IDOCK:    8.71 KCAL/MOL
REMARK 927      BINDING AFFINITY PREDICTED BY RF-SCORE:    0.00 PKD
ROOT
HETATM    1  O   UNL     1     -13.283  13.012  73.709  1.00  0.00     1.852 OA 
HETATM    2  C   UNL     1     -14.078  11.903  73.289  1.00  0.00     4.032 C  
HETATM    3  H   UNL     1     -13.805  13.612  74.230  1.00  0.00     0.000 HD 
ENDROOT
BRANCH   2   4
HETATM    4  C   UNL     1     -13.251  10.953  72.463  1.00  0.00     0.497 A  
HETATM    5  C   UNL     1     -13.211   9.575  72.706  1.00  0.00     0.041 A  
HETATM    6  O   UNL     1     -13.875   9.009  73.759  1.00  0.00    -0.545 OA 
HETATM    7  C   UNL     1     -12.468   8.717  71.903  1.00  0.00    -0.434 A  
HETATM    8  C   UNL     1     -11.723   9.232  70.845  1.00  0.00    -0.360 A  
HETATM    9  H   UNL     1     -13.848   8.074  73.924  1.00  0.00     0.000 HD 
HETATM   10  C   UNL     1     -11.732  10.608  70.568  1.00  0.00    -0.451 A  
HETATM   11  C   UNL     1     -12.519  11.453  71.370  1.00  0.00    -0.370 A  
BRANCH  10  12
HETATM   12  C   UNL     1     -10.893  11.196  69.448  1.00  0.00    -0.216 C  
HETATM   13  O   UNL     1      -9.534  11.360  69.883  1.00  0.00     0.368 OA 
HETATM   14  H   UNL     1      -9.008  11.728  69.182  1.00  0.00     0.000 HD 
BRANCH  12  15
HETATM   15  C   UNL     1     -10.911  10.315  68.181  1.00  0.00    -0.265 C  
BRANCH  15  16
HETATM   16  N   UNL     1     -10.453   8.947  68.478  1.00  0.00    -0.272 NA 
HETATM   17  H   UNL     1     -10.371   8.381  67.634  1.00  0.00     0.000 HD 
BRANCH  16  18
HETATM   18  C   UNL     1      -9.203   8.990  69.231  1.00  0.00    -0.145 C  
BRANCH  18  19
HETATM   19  C   UNL     1      -8.053   8.496  68.362  1.00  0.00    -0.122 C  
BRANCH  19  20
HETATM   20  C   UNL     1      -7.590   7.119  68.833  1.00  0.00    -0.100 C  
BRANCH  20  21
HETATM   21  C   UNL     1      -8.775   6.178  68.989  1.00  0.00    -0.124 C  
BRANCH  21  22
HETATM   22  C   UNL     1      -8.610   5.271  70.202  1.00  0.00    -0.122 C  
BRANCH  22  23
HETATM   23  C   UNL     1      -7.153   4.867  70.366  1.00  0.00    -0.053 C  
BRANCH  23  24
HETATM   24  O   UNL     1      -6.339   5.871  69.772  1.00  0.00    -0.034 OA 
BRANCH  24  25
HETATM   25  C   UNL     1      -5.424   5.312  68.833  1.00  0.00    -0.004 C  
BRANCH  25  26
HETATM   26  C   UNL     1      -6.201   4.457  67.840  1.00  0.00    -0.036 C  
BRANCH  26  27
HETATM   27  C   UNL     1      -5.258   3.775  66.847  1.00  0.00    -0.012 C  
BRANCH  27  28
HETATM   28  C   UNL     1      -5.142   4.558  65.541  1.00  0.00    -0.009 C  
BRANCH  28  29
HETATM   29  C   UNL     1      -5.994   5.803  65.609  1.00  0.00    -0.025 A  
HETATM   30  C   UNL     1      -7.141   5.921  64.816  1.00  0.00    -0.060 A  
HETATM   31  C   UNL     1      -7.882   7.103  64.821  1.00  0.00    -0.126 A  
HETATM   32  C   UNL     1      -7.481   8.175  65.616  1.00  0.00    -0.081 A  
HETATM   33  C   UNL     1      -6.342   8.066  66.412  1.00  0.00    -0.047 A  
HETATM   34  C   UNL     1      -5.600   6.885  66.410  1.00  0.00    -0.022 A  
ENDBRANCH  28  29
ENDBRANCH  27  28
ENDBRANCH  26  27
ENDBRANCH  25  26
ENDBRANCH  24  25
ENDBRANCH  23  24
ENDBRANCH  22  23
ENDBRANCH  21  22
ENDBRANCH  20  21
ENDBRANCH  19  20
ENDBRANCH  18  19
ENDBRANCH  16  18
ENDBRANCH  15  16
ENDBRANCH  12  15
ENDBRANCH  10  12
ENDBRANCH   2   4
TORSDOF 16
ENDMDL
MODEL      455
REMARK 921   NORMALIZED FREE ENERGY PREDICTED BY IDOCK:    7.18 KCAL/MOL
REMARK 922        TOTAL FREE ENERGY PREDICTED BY IDOCK:   11.55 KCAL/MOL
REMARK 923 INTER-LIGAND FREE ENERGY PREDICTED BY IDOCK:    0.37 KCAL/MOL
REMARK 924 INTRA-LIGAND FREE ENERGY PREDICTED BY IDOCK:   11.18 KCAL/MOL
REMARK 927      BINDING AFFINITY PREDICTED BY RF-SCORE:    0.00 PKD
ROOT
HETATM    1  O   UNL     1      -5.607  10.162  66.898  1.00  0.00    -0.045 OA 
HETATM    2  C   UNL     1      -5.422   9.537  68.168  1.00  0.00    -0.037 C  
HETATM    3  H   UNL     1      -4.777  10.483  66.566  1.00  0.00     0.000 HD 
ENDROOT
BRANCH   2   4
HETATM    4  C   UNL     1      -6.738   9.027  68.695  1.00  0.00    -0.058 A  
HETATM    5  C   UNL     1      -6.943   7.691  69.057  1.00  0.00    -0.069 A  
HETATM    6  O   UNL     1      -5.972   6.743  68.894  1.00  0.00    -0.021 OA 
HETATM    7  C   UNL     1      -8.159   7.258  69.575  1.00  0.00    -0.129 A  
HETATM    8  C   UNL     1      -9.210   8.159  69.719  1.00  0.00    -0.151 A  
HETATM    9  H   UNL     1      -6.111   5.836  69.139  1.00  0.00     0.000 HD 
HETATM   10  C   UNL     1      -9.049   9.508  69.363  1.00  0.00    -0.172 A  
HETATM   11  C   UNL     1      -7.801   9.932  68.876  1.00  0.00    -0.091 A  
BRANCH  10  12
HETATM   12  C   UNL     1     -10.195  10.497  69.469  1.00  0.00    -0.200 C  
HETATM   13  O   UNL     1     -10.615  10.622  70.837  1.00  0.00    -0.047 OA 
HETATM   14  H   UNL     1     -11.333  11.242  70.903  1.00  0.00     0.000 HD 
BRANCH  12  15
HETATM   15  C   UNL     1      -9.812  11.893  68.933  1.00  0.00     0.025 C  
BRANCH  15  16
HETATM   16  N   UNL     1      -9.382  12.783  70.025  1.00  0.00     2.424 NA 
HETATM   17  H   UNL     1      -9.261  12.278  70.903  1.00  0.00     0.000 HD 
BRANCH  16  18
HETATM   18  C   UNL     1      -8.173  13.503  69.637  1.00  0.00     1.292 C  
BRANCH  18  19
HETATM   19  C   UNL     1      -8.138  13.690  68.126  1.00  0.00    -0.156 C  
BRANCH  19  20
HETATM   20  C   UNL     1      -9.545  13.556  67.546  1.00  0.00    -0.221 C  
BRANCH  20  21
HETATM   21  C   UNL     1      -9.571  12.515  66.436  1.00  0.00    -0.247 C  
BRANCH  21  22
HETATM   22  C   UNL     1     -10.113  13.100  65.137  1.00  0.00    -0.239 C  
BRANCH  22  23
HETATM   23  C   UNL     1     -11.236  12.230  64.594  1.00  0.00    -0.315 C  
BRANCH  23  24
HETATM   24  O   UNL     1     -10.768  11.569  63.426  1.00  0.00    -0.385 OA 
BRANCH  24  25
HETATM   25  C   UNL     1      -9.452  11.054  63.610  1.00  0.00    -0.272 C  
BRANCH  25  26
HETATM   26  C   UNL     1      -8.611  11.408  62.390  1.00  0.00    -0.077 C  
BRANCH  26  27
HETATM   27  C   UNL     1      -7.118  11.282  62.697  1.00  0.00     0.484 C  
BRANCH  27  28
HETATM   28  C   UNL     1      -6.759   9.896  63.227  1.00  0.00    -0.124 C  
BRANCH  28  29
HETATM   29  C   UNL     1      -7.644   9.549  64.401  1.00  0.00    -0.122 A  
HETATM   30  C   UNL     1      -8.266   8.299  64.474  1.00  0.00    -0.138 A  
HETATM   31  C   UNL     1      -9.146   8.010  65.517  1.00  0.00     0.010 A  
HETATM   32  C   UNL     1      -9.413   8.969  66.492  1.00  0.00    -0.266 A  
HETATM   33  C   UNL     1      -8.795  10.217  66.430  1.00  0.00    -0.158 A  
HETATM   34  C   UNL     1      -7.913  10.508  65.388  1.00  0.00    -0.129 A  
ENDBRANCH  28  29
ENDBRANCH  27  28
ENDBRANCH  26  27
ENDBRANCH  25  26
ENDBRANCH  24  25
ENDBRANCH  23  24
ENDBRANCH  22  23
ENDBRANCH  21  22
ENDBRANCH  20  21
ENDBRANCH  19  20
ENDBRANCH  18  19
ENDBRANCH  16  18
ENDBRANCH  15  16
ENDBRANCH  12  15
ENDBRANCH  10  12
ENDBRANCH   2   4
TORSDOF 16
ENDMDL
MODEL      456
REMARK 921   NORMALIZED FREE ENERGY PREDICTED BY IDOCK:   11.63 KCAL/MOL
REMARK 922        TOTAL FREE ENERGY PREDICTED BY IDOCK:   20.17 KCAL/MOL
REMARK 923 INTER-LIGAND FREE ENERGY PREDICTED BY IDOCK:   12.43 KCAL/MOL
REMARK 924 INTRA-LIGAND FREE ENERGY PREDICTED BY IDOCK:    7.74 KCAL/MOL
REMARK 927      BINDING AFFINITY PREDICTED BY RF-SCORE:    0.00 PKD
ROOT
HETATM    1  O   UNL     1      -8.281  13.922  64.959  1.00  0.00     3.662 OA 
HETATM    2  C   UNL     1      -9.013  14.380  66.097  1.00  0.00     0.115 C  
HETATM    3  H   UNL     1      -8.668  14.263  64.161  1.00  0.00     0.000 HD 
ENDROOT
BRANCH   2   4
HETATM    4  C   UNL     1      -8.401  13.840  67.362  1.00  0.00    -0.201 A  
HETATM    5  C   UNL     1      -7.374  12.888  67.361  1.00  0.00    -0.128 A  
HETATM    6  O   UNL     1      -6.904  12.337  66.201  1.00  0.00     0.078 OA 
HETATM    7  C   UNL     1      -6.803  12.435  68.545  1.00  0.00    -0.082 A  
HETATM    8  C   UNL     1      -7.270  12.914  69.766  1.00  0.00     0.669 A  
HETATM    9  H   UNL     1      -6.207  11.691  66.200  1.00  0.00     0.000 HD 
HETATM   10  C   UNL     1      -8.301  13.866  69.813  1.00  0.00     1.233 A  
HETATM   11  C   UNL     1      -8.840  14.337  68.603  1.00  0.00    -0.150 A  
BRANCH  10  12
HETATM   12  C   UNL     1      -8.857  14.367  71.133  1.00  0.00     4.484 C  
HETATM   13  O   UNL     1      -7.833  15.051  71.872  1.00  0.00     2.674 OA 
HETATM   14  H   UNL     1      -8.180  15.365  72.699  1.00  0.00     0.000 HD 
BRANCH  12  15
HETATM   15  C   UNL     1     -10.054  15.321  70.938  1.00  0.00     0.741 C  
BRANCH  15  16
HETATM   16  N   UNL     1      -9.602  16.685  70.615  1.00  0.00     2.176 NA 
HETATM   17  H   UNL     1      -8.675  16.879  70.994  1.00  0.00     0.000 HD 
BRANCH  16  18
HETATM   18  C   UNL     1      -9.659  16.904  69.173  1.00  0.00    -0.158 C  
BRANCH  18  19
HETATM   19  C   UNL     1      -8.509  16.177  68.488  1.00  0.00    -0.197 C  
BRANCH  19  20
HETATM   20  C   UNL     1      -7.279  17.081  68.423  1.00  0.00    -0.202 C  
BRANCH  20  21
HETATM   21  C   UNL     1      -7.376  18.196  69.454  1.00  0.00     0.072 C  
BRANCH  21  22
HETATM   22  C   UNL     1      -6.015  18.827  69.722  1.00  0.00    -0.272 C  
BRANCH  22  23
HETATM   23  C   UNL     1      -6.171  20.076  70.576  1.00  0.00    -0.309 C  
BRANCH  23  24
HETATM   24  O   UNL     1      -5.132  20.986  70.235  1.00  0.00    -0.435 OA 
BRANCH  24  25
HETATM   25  C   UNL     1      -5.158  21.309  68.847  1.00  0.00    -0.129 C  
BRANCH  25  26
HETATM   26  C   UNL     1      -6.362  20.631  68.207  1.00  0.00    -0.352 C  
BRANCH  26  27
HETATM   27  C   UNL     1      -6.589  21.144  66.784  1.00  0.00    -0.357 C  
BRANCH  27  28
HETATM   28  C   UNL     1      -7.189  20.070  65.878  1.00  0.00    -0.327 C  
BRANCH  28  29
HETATM   29  C   UNL     1      -8.643  19.857  66.228  1.00  0.00    -0.377 A  
HETATM   30  C   UNL     1      -9.228  20.560  67.287  1.00  0.00    -0.500 A  
HETATM   31  C   UNL     1     -10.547  20.303  67.659  1.00  0.00    -0.223 A  
HETATM   32  C   UNL     1     -11.291  19.341  66.978  1.00  0.00     0.263 A  
HETATM   33  C   UNL     1     -10.718  18.638  65.919  1.00  0.00    -0.274 A  
HETATM   34  C   UNL     1      -9.399  18.893  65.545  1.00  0.00     0.936 A  
ENDBRANCH  28  29
ENDBRANCH  27  28
ENDBRANCH  26  27
ENDBRANCH  25  26
ENDBRANCH  24  25
ENDBRANCH  23  24
ENDBRANCH  22  23
ENDBRANCH  21  22
ENDBRANCH  20  21
ENDBRANCH  19  20
ENDBRANCH  18  19
ENDBRANCH  16  18
ENDBRANCH  15  16
ENDBRANCH  12  15
ENDBRANCH  10  12
ENDBRANCH   2   4
TORSDOF 16
ENDMDL
MODEL      457
REMARK 921   NORMALIZED FREE ENERGY PREDICTED BY IDOCK:   11.64 KCAL/MOL
REMARK 922        TOTAL FREE ENERGY PREDICTED BY IDOCK:   20.17 KCAL/MOL
REMARK 923 INTER-LIGAND FREE ENERGY PREDICTED BY IDOCK:    9.10 KCAL/MOL
REMARK 924 INTRA-LIGAND FREE ENERGY PREDICTED BY IDOCK:   11.07 KCAL/MOL
REMARK 927      BINDING AFFINITY PREDICTED BY RF-SCORE:    0.00 PKD
ROOT
HETATM    1  O   UNL     1     -13.224  13.013  74.065  1.00  0.00     3.360 OA 
HETATM    2  C   UNL     1     -13.910  11.851  73.597  1.00  0.00     7.199 C  
HETATM    3  H   UNL     1     -13.765  13.484  74.690  1.00  0.00     0.000 HD 
ENDROOT
BRANCH   2   4
HETATM    4  C   UNL     1     -13.054  11.106  72.607  1.00  0.00     1.220 A  
HETATM    5  C   UNL     1     -12.944   9.710  72.599  1.00  0.00     0.012 A  
HETATM    6  O   UNL     1     -13.562   8.934  73.541  1.00  0.00    -0.836 OA 
HETATM    7  C   UNL     1     -12.176   9.048  71.649  1.00  0.00    -0.418 A  
HETATM    8  C   UNL     1     -11.476   9.779  70.693  1.00  0.00    -0.397 A  
HETATM    9  H   UNL     1     -13.487   7.987  73.536  1.00  0.00     0.000 HD 
HETATM   10  C   UNL     1     -11.555  11.181  70.666  1.00  0.00    -0.188 A  
HETATM   11  C   UNL     1     -12.367  11.828  71.614  1.00  0.00     0.065 A  
BRANCH  10  12
HETATM   12  C   UNL     1     -10.766  12.000  69.662  1.00  0.00     0.331 C  
HETATM   13  O   UNL     1      -9.359  11.880  69.924  1.00  0.00     1.063 OA 
HETATM   14  H   UNL     1      -8.864  12.393  69.295  1.00  0.00     0.000 HD 
BRANCH  12  15
HETATM   15  C   UNL     1     -11.042  11.563  68.207  1.00  0.00    -0.239 C  
BRANCH  15  16
HETATM   16  N   UNL     1     -10.823  10.118  68.034  1.00  0.00    -0.258 NA 
HETATM   17  H   UNL     1     -11.015   9.814  67.079  1.00  0.00     0.000 HD 
BRANCH  16  18
HETATM   18  C   UNL     1      -9.474   9.761  68.461  1.00  0.00    -0.145 C  
BRANCH  18  19
HETATM   19  C   UNL     1      -8.626   9.387  67.252  1.00  0.00    -0.129 C  
BRANCH  19  20
HETATM   20  C   UNL     1      -8.607   7.871  67.069  1.00  0.00    -0.128 C  
BRANCH  20  21
HETATM   21  C   UNL     1     -10.015   7.302  67.157  1.00  0.00    -0.279 C  
BRANCH  21  22
HETATM   22  C   UNL     1     -10.018   5.921  67.802  1.00  0.00    -0.156 C  
BRANCH  22  23
HETATM   23  C   UNL     1      -8.716   5.195  67.502  1.00  0.00    -0.103 C  
BRANCH  23  24
HETATM   24  O   UNL     1      -7.661   6.149  67.495  1.00  0.00    -0.095 OA 
BRANCH  24  25
HETATM   25  C   UNL     1      -7.097   6.293  66.193  1.00  0.00    -0.067 C  
BRANCH  25  26
HETATM   26  C   UNL     1      -8.215   6.606  65.207  1.00  0.00    -0.133 C  
BRANCH  26  27
HETATM   27  C   UNL     1      -8.188   5.639  64.022  1.00  0.00    -0.102 C  
BRANCH  27  28
HETATM   28  C   UNL     1      -7.219   6.098  62.933  1.00  0.00    -0.054 C  
BRANCH  28  29
HETATM   29  C   UNL     1      -6.647   7.449  63.289  1.00  0.00    -0.054 A  
HETATM   30  C   UNL     1      -6.777   8.529  62.409  1.00  0.00    -0.095 A  
HETATM   31  C   UNL     1      -6.179   9.754  62.703  1.00  0.00    -0.104 A  
HETATM   32  C   UNL     1      -5.444   9.908  63.877  1.00  0.00    -0.093 A  
HETATM   33  C   UNL     1      -5.311   8.839  64.762  1.00  0.00    -0.039 A  
HETATM   34  C   UNL     1      -5.909   7.613  64.471  1.00  0.00    -0.037 A  
ENDBRANCH  28  29
ENDBRANCH  27  28
ENDBRANCH  26  27
ENDBRANCH  25  26
ENDBRANCH  24  25
ENDBRANCH  23  24
ENDBRANCH  22  23
ENDBRANCH  21  22
ENDBRANCH  20  21
ENDBRANCH  19  20
ENDBRANCH  18  19
ENDBRANCH  16  18
ENDBRANCH  15  16
ENDBRANCH  12  15
ENDBRANCH  10  12
ENDBRANCH   2   4
TORSDOF 16
ENDMDL
MODEL      458
REMARK 921   NORMALIZED FREE ENERGY PREDICTED BY IDOCK:   17.00 KCAL/MOL
REMARK 922        TOTAL FREE ENERGY PREDICTED BY IDOCK:   30.55 KCAL/MOL
REMARK 923 INTER-LIGAND FREE ENERGY PREDICTED BY IDOCK:   16.82 KCAL/MOL
REMARK 924 INTRA-LIGAND FREE ENERGY PREDICTED BY IDOCK:   13.73 KCAL/MOL
REMARK 927      BINDING AFFINITY PREDICTED BY RF-SCORE:    0.00 PKD
ROOT
HETATM    1  O   UNL     1     -13.761  13.542  74.121  1.00  0.00     3.461 OA 
HETATM    2  C   UNL     1     -14.392  12.332  73.701  1.00  0.00     6.663 C  
HETATM    3  H   UNL     1     -14.326  14.016  74.720  1.00  0.00     0.000 HD 
ENDROOT
BRANCH   2   4
HETATM    4  C   UNL     1     -13.496  11.581  72.751  1.00  0.00     1.446 A  
HETATM    5  C   UNL     1     -13.392  10.185  72.751  1.00  0.00     0.665 A  
HETATM    6  O   UNL     1     -14.054   9.413  73.665  1.00  0.00    -0.340 OA 
HETATM    7  C   UNL     1     -12.585   9.517  71.837  1.00  0.00    -0.479 A  
HETATM    8  C   UNL     1     -11.840  10.243  70.911  1.00  0.00    -0.473 A  
HETATM    9  H   UNL     1     -13.984   8.466  73.666  1.00  0.00     0.000 HD 
HETATM   10  C   UNL     1     -11.911  11.645  70.879  1.00  0.00    -0.167 A  
HETATM   11  C   UNL     1     -12.762  12.298  71.789  1.00  0.00    -0.257 A  
BRANCH  10  12
HETATM   12  C   UNL     1     -11.074  12.459  69.910  1.00  0.00     0.293 C  
HETATM   13  O   UNL     1      -9.678  12.205  70.129  1.00  0.00     1.801 OA 
HETATM   14  H   UNL     1      -9.153  12.714  69.522  1.00  0.00     0.000 HD 
BRANCH  12  15
HETATM   15  C   UNL     1     -11.415  12.143  68.438  1.00  0.00    -0.304 C  
BRANCH  15  16
HETATM   16  N   UNL     1     -11.391  10.693  68.184  1.00  0.00    -0.399 NA 
HETATM   17  H   UNL     1     -11.684  10.466  67.234  1.00  0.00     0.000 HD 
BRANCH  16  18
HETATM   18  C   UNL     1     -10.071  10.152  68.493  1.00  0.00    -0.169 C  
BRANCH  18  19
HETATM   19  C   UNL     1      -9.362   9.742  67.209  1.00  0.00    -0.161 C  
BRANCH  19  20
HETATM   20  C   UNL     1      -8.627  10.937  66.607  1.00  0.00    -0.148 C  
BRANCH  20  21
HETATM   21  C   UNL     1      -7.887  11.712  67.688  1.00  0.00    -0.135 C  
BRANCH  21  22
HETATM   22  C   UNL     1      -7.811  13.197  67.356  1.00  0.00    -0.169 C  
BRANCH  22  23
HETATM   23  C   UNL     1      -7.753  13.399  65.850  1.00  0.00     3.337 C  
BRANCH  23  24
HETATM   24  O   UNL     1      -8.590  12.429  65.233  1.00  0.00     0.883 OA 
BRANCH  24  25
HETATM   25  C   UNL     1      -7.824  11.390  64.627  1.00  0.00     1.159 C  
BRANCH  25  26
HETATM   26  C   UNL     1      -6.914  10.772  65.680  1.00  0.00    -0.020 C  
BRANCH  26  27
HETATM   27  C   UNL     1      -5.457  10.769  65.214  1.00  0.00    -0.124 C  
BRANCH  27  28
HETATM   28  C   UNL     1      -5.146   9.569  64.321  1.00  0.00    -0.058 C  
BRANCH  28  29
HETATM   29  C   UNL     1      -6.352   8.664  64.237  1.00  0.00    -0.071 A  
HETATM   30  C   UNL     1      -6.246   7.309  64.571  1.00  0.00    -0.037 A  
HETATM   31  C   UNL     1      -7.340   6.458  64.416  1.00  0.00    -0.075 A  
HETATM   32  C   UNL     1      -8.546   6.953  63.925  1.00  0.00     0.481 A  
HETATM   33  C   UNL     1      -8.663   8.302  63.593  1.00  0.00     0.327 A  
HETATM   34  C   UNL     1      -7.571   9.156  63.748  1.00  0.00    -0.113 A  
ENDBRANCH  28  29
ENDBRANCH  27  28
ENDBRANCH  26  27
ENDBRANCH  25  26
ENDBRANCH  24  25
ENDBRANCH  23  24
ENDBRANCH  22  23
ENDBRANCH  21  22
ENDBRANCH  20  21
ENDBRANCH  19  20
ENDBRANCH  18  19
ENDBRANCH  16  18
ENDBRANCH  15  16
ENDBRANCH  12  15
ENDBRANCH  10  12
ENDBRANCH   2   4
TORSDOF 16
ENDMDL
MODEL      459
REMARK 921   NORMALIZED FREE ENERGY PREDICTED BY IDOCK:   33.73 KCAL/MOL
REMARK 922        TOTAL FREE ENERGY PREDICTED BY IDOCK:   62.94 KCAL/MOL
REMARK 923 INTER-LIGAND FREE ENERGY PREDICTED BY IDOCK:   62.07 KCAL/MOL
REMARK 924 INTRA-LIGAND FREE ENERGY PREDICTED BY IDOCK:    0.86 KCAL/MOL
REMARK 927      BINDING AFFINITY PREDICTED BY RF-SCORE:    0.00 PKD
ROOT
HETATM    1  O   UNL     1     -12.618   5.989  64.783  1.00  0.00     4.451 OA 
HETATM    2  C   UNL     1     -12.355   7.163  65.554  1.00  0.00    10.694 C  
HETATM    3  H   UNL     1     -13.262   5.446  65.222  1.00  0.00     0.000 HD 
ENDROOT
BRANCH   2   4
HETATM    4  C   UNL     1     -11.334   8.024  64.858  1.00  0.00    11.280 A  
HETATM    5  C   UNL     1     -11.685   9.105  64.041  1.00  0.00    13.112 A  
HETATM    6  O   UNL     1     -12.990   9.408  63.768  1.00  0.00    10.972 OA 
HETATM    7  C   UNL     1     -10.719   9.905  63.441  1.00  0.00     2.888 A  
HETATM    8  C   UNL     1      -9.369   9.621  63.632  1.00  0.00    -0.046 A  
HETATM    9  H   UNL     1     -13.228  10.141  63.213  1.00  0.00     0.000 HD 
HETATM   10  C   UNL     1      -8.973   8.544  64.441  1.00  0.00     0.320 A  
HETATM   11  C   UNL     1      -9.966   7.770  65.066  1.00  0.00     2.635 A  
BRANCH  10  12
HETATM   12  C   UNL     1      -7.510   8.189  64.626  1.00  0.00    -0.096 C  
HETATM   13  O   UNL     1      -6.726   9.384  64.770  1.00  0.00    -0.081 OA 
HETATM   14  H   UNL     1      -5.809   9.161  64.886  1.00  0.00     0.000 HD 
BRANCH  12  15
HETATM   15  C   UNL     1      -7.279   7.288  65.858  1.00  0.00    -0.074 C  
BRANCH  15  16
HETATM   16  N   UNL     1      -8.450   7.296  66.750  1.00  0.00    -0.118 NA 
HETATM   17  H   UNL     1      -8.608   6.385  67.182  1.00  0.00     0.000 HD 
BRANCH  16  18
HETATM   18  C   UNL     1      -8.316   8.355  67.745  1.00  0.00    -0.130 C  
BRANCH  18  19
HETATM   19  C   UNL     1      -9.660   8.618  68.412  1.00  0.00    -0.157 C  
BRANCH  19  20
HETATM   20  C   UNL     1      -9.912   7.589  69.512  1.00  0.00    -0.180 C  
BRANCH  20  21
HETATM   21  C   UNL     1      -9.976   8.264  70.875  1.00  0.00    -0.223 C  
BRANCH  21  22
HETATM   22  C   UNL     1      -8.595   8.364  71.512  1.00  0.00    -0.215 C  
BRANCH  22  23
HETATM   23  C   UNL     1      -8.394   9.741  72.125  1.00  0.00     2.831 C  
BRANCH  23  24
HETATM   24  O   UNL     1      -7.456   9.628  73.187  1.00  0.00     1.041 OA 
BRANCH  24  25
HETATM   25  C   UNL     1      -6.201   9.135  72.724  1.00  0.00     0.172 C  
BRANCH  25  26
HETATM   26  C   UNL     1      -5.892   9.770  71.374  1.00  0.00    -0.024 C  
BRANCH  26  27
HETATM   27  C   UNL     1      -5.400  11.209  71.545  1.00  0.00     0.085 C  
BRANCH  27  28
HETATM   28  C   UNL     1      -5.290  11.937  70.207  1.00  0.00    -0.113 C  
BRANCH  28  29
HETATM   29  C   UNL     1      -6.573  12.680  69.918  1.00  0.00     0.132 A  
HETATM   30  C   UNL     1      -7.340  12.358  68.793  1.00  0.00    -0.076 A  
HETATM   31  C   UNL     1      -8.481  13.098  68.484  1.00  0.00    -0.058 A  
HETATM   32  C   UNL     1      -8.862  14.166  69.295  1.00  0.00     0.357 A  
HETATM   33  C   UNL     1      -8.106  14.492  70.420  1.00  0.00     1.433 A  
HETATM   34  C   UNL     1      -6.964  13.753  70.732  1.00  0.00     1.261 A  
ENDBRANCH  28  29
ENDBRANCH  27  28
ENDBRANCH  26  27
ENDBRANCH  25  26
ENDBRANCH  24  25
ENDBRANCH  23  24
ENDBRANCH  22  23
ENDBRANCH  21  22
ENDBRANCH  20  21
ENDBRANCH  19  20
ENDBRANCH  18  19
ENDBRANCH  16  18
ENDBRANCH  15  16
ENDBRANCH  12  15
ENDBRANCH  10  12
ENDBRANCH   2   4
TORSDOF 16
ENDMDL
MODEL      460
REMARK 921   NORMALIZED FREE ENERGY PREDICTED BY IDOCK:   39.17 KCAL/MOL
REMARK 922        TOTAL FREE ENERGY PREDICTED BY IDOCK:   73.46 KCAL/MOL
REMARK 923 INTER-LIGAND FREE ENERGY PREDICTED BY IDOCK:   39.83 KCAL/MOL
REMARK 924 INTRA-LIGAND FREE ENERGY PREDICTED BY IDOCK:   33.63 KCAL/MOL
REMARK 927      BINDING AFFINITY PREDICTED BY RF-SCORE:    0.00 PKD
ROOT
HETATM    1  O   UNL     1      -8.000  14.046  65.769  1.00  0.00     1.601 OA 
HETATM    2  C   UNL     1      -8.857  14.535  66.802  1.00  0.00    -0.220 C  
HETATM    3  H   UNL     1      -8.331  14.307  64.917  1.00  0.00     0.000 HD 
ENDROOT
BRANCH   2   4
HETATM    4  C   UNL     1      -8.333  14.121  68.152  1.00  0.00    -0.161 A  
HETATM    5  C   UNL     1      -7.210  13.302  68.311  1.00  0.00    -0.108 A  
HETATM    6  O   UNL     1      -6.550  12.768  67.239  1.00  0.00    -0.237 OA 
HETATM    7  C   UNL     1      -6.728  12.967  69.571  1.00  0.00     0.029 A  
HETATM    8  C   UNL     1      -7.383  13.432  70.709  1.00  0.00     2.979 A  
HETATM    9  H   UNL     1      -5.788  12.211  67.346  1.00  0.00     0.000 HD 
HETATM   10  C   UNL     1      -8.516  14.253  70.595  1.00  0.00     2.948 A  
HETATM   11  C   UNL     1      -8.965  14.609  69.311  1.00  0.00     0.044 A  
BRANCH  10  12
HETATM   12  C   UNL     1      -9.272  14.734  71.820  1.00  0.00     4.937 C  
HETATM   13  O   UNL     1      -8.505  15.729  72.515  1.00  0.00     8.372 OA 
HETATM   14  H   UNL     1      -8.978  16.031  73.282  1.00  0.00     0.000 HD 
BRANCH  12  15
HETATM   15  C   UNL     1     -10.651  15.327  71.459  1.00  0.00     0.533 C  
BRANCH  15  16
HETATM   16  N   UNL     1     -10.510  16.607  70.746  1.00  0.00     0.741 NA 
HETATM   17  H   UNL     1      -9.630  17.072  70.966  1.00  0.00     0.000 HD 
BRANCH  16  18
HETATM   18  C   UNL     1     -10.675  16.401  69.310  1.00  0.00    -0.325 C  
BRANCH  18  19
HETATM   19  C   UNL     1      -9.443  15.712  68.737  1.00  0.00    -0.214 C  
BRANCH  19  20
HETATM   20  C   UNL     1      -8.430  16.751  68.263  1.00  0.00    -0.222 C  
BRANCH  20  21
HETATM   21  C   UNL     1      -8.699  18.100  68.916  1.00  0.00    -0.129 C  
BRANCH  21  22
HETATM   22  C   UNL     1      -7.479  19.009  68.837  1.00  0.00    -0.364 C  
BRANCH  22  23
HETATM   23  C   UNL     1      -7.818  20.395  69.364  1.00  0.00     0.737 C  
BRANCH  23  24
HETATM   24  O   UNL     1      -7.008  21.345  68.685  1.00  0.00     0.760 OA 
BRANCH  24  25
HETATM   25  C   UNL     1      -7.293  21.370  67.288  1.00  0.00     0.171 C  
BRANCH  25  26
HETATM   26  C   UNL     1      -8.532  20.523  67.026  1.00  0.00    -0.313 C  
BRANCH  26  27
HETATM   27  C   UNL     1      -8.172  19.039  66.928  1.00  0.00    -0.286 C  
BRANCH  27  28
HETATM   28  C   UNL     1      -9.352  18.140  67.289  1.00  0.00    -0.252 C  
BRANCH  28  29
HETATM   29  C   UNL     1     -10.344  18.112  66.150  1.00  0.00    -0.394 A  
HETATM   30  C   UNL     1     -11.206  17.022  65.987  1.00  0.00     0.585 A  
HETATM   31  C   UNL     1     -12.065  16.961  64.890  1.00  0.00     2.392 A  
HETATM   32  C   UNL     1     -12.067  17.987  63.947  1.00  0.00     8.905 A  
HETATM   33  C   UNL     1     -11.215  19.079  64.103  1.00  0.00     6.311 A  
HETATM   34  C   UNL     1     -10.355  19.143  65.199  1.00  0.00     1.012 A  
ENDBRANCH  28  29
ENDBRANCH  27  28
ENDBRANCH  26  27
ENDBRANCH  25  26
ENDBRANCH  24  25
ENDBRANCH  23  24
ENDBRANCH  22  23
ENDBRANCH  21  22
ENDBRANCH  20  21
ENDBRANCH  19  20
ENDBRANCH  18  19
ENDBRANCH  16  18
ENDBRANCH  15  16
ENDBRANCH  12  15
ENDBRANCH  10  12
ENDBRANCH   2   4
TORSDOF 16
ENDMDL
MODEL      461
REMARK 921   NORMALIZED FREE ENERGY PREDICTED BY IDOCK:   41.97 KCAL/MOL
REMARK 922        TOTAL FREE ENERGY PREDICTED BY IDOCK:   78.88 KCAL/MOL
REMARK 923 INTER-LIGAND FREE ENERGY PREDICTED BY IDOCK:   77.96 KCAL/MOL
REMARK 924 INTRA-LIGAND FREE ENERGY PREDICTED BY IDOCK:    0.92 KCAL/MOL
REMARK 927      BINDING AFFINITY PREDICTED BY RF-SCORE:    0.00 PKD
ROOT
HETATM    1  O   UNL     1     -12.700   5.950  64.751  1.00  0.00     3.953 OA 
HETATM    2  C   UNL     1     -12.595   7.248  65.337  1.00  0.00    13.405 C  
HETATM    3  H   UNL     1     -13.238   5.387  65.296  1.00  0.00     0.000 HD 
ENDROOT
BRANCH   2   4
HETATM    4  C   UNL     1     -11.742   8.141  64.474  1.00  0.00    16.616 A  
HETATM    5  C   UNL     1     -12.278   8.981  63.490  1.00  0.00    17.580 A  
HETATM    6  O   UNL     1     -13.615   8.995  63.205  1.00  0.00    11.611 OA 
HETATM    7  C   UNL     1     -11.469   9.822  62.734  1.00  0.00     6.562 A  
HETATM    8  C   UNL     1     -10.091   9.820  62.934  1.00  0.00     1.319 A  
HETATM    9  H   UNL     1     -13.979   9.565  62.538  1.00  0.00     0.000 HD 
HETATM   10  C   UNL     1      -9.511   8.990  63.907  1.00  0.00     0.953 A  
HETATM   11  C   UNL     1     -10.352   8.174  64.685  1.00  0.00     5.367 A  
BRANCH  10  12
HETATM   12  C   UNL     1      -8.009   8.938  64.111  1.00  0.00    -0.148 C  
HETATM   13  O   UNL     1      -7.454  10.261  64.034  1.00  0.00    -0.207 OA 
HETATM   14  H   UNL     1      -6.513  10.229  64.162  1.00  0.00     0.000 HD 
BRANCH  12  15
HETATM   15  C   UNL     1      -7.625   8.313  65.469  1.00  0.00    -0.087 C  
BRANCH  15  16
HETATM   16  N   UNL     1      -8.783   8.258  66.376  1.00  0.00    -0.135 NA 
HETATM   17  H   UNL     1      -8.784   7.410  66.943  1.00  0.00     0.000 HD 
BRANCH  16  18
HETATM   18  C   UNL     1      -8.834   9.463  67.197  1.00  0.00    -0.127 C  
BRANCH  18  19
HETATM   19  C   UNL     1      -9.315   9.119  68.601  1.00  0.00    -0.135 C  
BRANCH  19  20
HETATM   20  C   UNL     1      -8.166   8.546  69.427  1.00  0.00    -0.114 C  
BRANCH  20  21
HETATM   21  C   UNL     1      -7.859   9.444  70.617  1.00  0.00    -0.178 C  
BRANCH  21  22
HETATM   22  C   UNL     1      -6.855  10.531  70.250  1.00  0.00    -0.097 C  
BRANCH  22  23
HETATM   23  C   UNL     1      -7.249  11.852  70.892  1.00  0.00     3.865 C  
BRANCH  23  24
HETATM   24  O   UNL     1      -6.075  12.637  71.060  1.00  0.00    -0.206 OA 
BRANCH  24  25
HETATM   25  C   UNL     1      -5.461  12.932  69.808  1.00  0.00    -0.095 C  
BRANCH  25  26
HETATM   26  C   UNL     1      -6.547  13.295  68.803  1.00  0.00    -0.099 C  
BRANCH  26  27
HETATM   27  C   UNL     1      -7.029  14.731  69.010  1.00  0.00    -0.118 C  
BRANCH  27  28
HETATM   28  C   UNL     1      -8.294  15.030  68.208  1.00  0.00    -0.145 C  
BRANCH  28  29
HETATM   29  C   UNL     1      -9.514  14.791  69.066  1.00  0.00    -0.167 A  
HETATM   30  C   UNL     1     -10.459  13.826  68.700  1.00  0.00    -0.245 A  
HETATM   31  C   UNL     1     -11.624  13.662  69.449  1.00  0.00    -0.368 A  
HETATM   32  C   UNL     1     -11.856  14.463  70.565  1.00  0.00    -0.367 A  
HETATM   33  C   UNL     1     -10.919  15.425  70.939  1.00  0.00    -0.330 A  
HETATM   34  C   UNL     1      -9.752  15.591  70.193  1.00  0.00     0.100 A  
ENDBRANCH  28  29
ENDBRANCH  27  28
ENDBRANCH  26  27
ENDBRANCH  25  26
ENDBRANCH  24  25
ENDBRANCH  23  24
ENDBRANCH  22  23
ENDBRANCH  21  22
ENDBRANCH  20  21
ENDBRANCH  19  20
ENDBRANCH  18  19
ENDBRANCH  16  18
ENDBRANCH  15  16
ENDBRANCH  12  15
ENDBRANCH  10  12
ENDBRANCH   2   4
TORSDOF 16
ENDMDL
