MODEL        1
REMARK 921   NORMALIZED FREE ENERGY PREDICTED BY IDOCK:   -7.37 KCAL/MOL
REMARK 922        TOTAL FREE ENERGY PREDICTED BY IDOCK:   -9.01 KCAL/MOL
REMARK 923 INTER-LIGAND FREE ENERGY PREDICTED BY IDOCK:   -8.66 KCAL/MOL
REMARK 924 INTRA-LIGAND FREE ENERGY PREDICTED BY IDOCK:   -0.35 KCAL/MOL
REMARK 927      BINDING AFFINITY PREDICTED BY RF-SCORE:    0.00 PKD
ROOT
HETATM    1  O   UNL     1      -7.767  15.638  67.147  1.00  0.00    -0.186 OA 
HETATM    2  C   UNL     1      -8.373  16.350  68.116  1.00  0.00    -0.186 C  
HETATM    3  C   UNL     1      -9.133  17.544  67.648  1.00  0.00    -0.243 A  
HETATM    4  O   UNL     1      -8.253  16.082  69.301  1.00  0.00    -0.236 OA 
HETATM    5  C   UNL     1      -9.258  18.603  68.560  1.00  0.00    -0.377 A  
HETATM    6  C   UNL     1     -10.005  19.736  68.239  1.00  0.00    -0.557 A  
HETATM    7  C   UNL     1     -10.646  19.819  67.006  1.00  0.00    -0.586 A  
HETATM    8  C   UNL     1     -10.530  18.777  66.087  1.00  0.00    -0.499 A  
HETATM    9  C   UNL     1      -9.764  17.643  66.398  1.00  0.00    -0.294 A  
ENDROOT
BRANCH   9  10
HETATM   10  O   UNL     1      -9.715  16.537  65.521  1.00  0.00    -0.524 OA 
BRANCH  10  11
HETATM   11  C   UNL     1     -10.887  16.183  64.872  1.00  0.00    -0.334 C  
HETATM   12  O   UNL     1     -11.516  16.934  64.141  1.00  0.00    -1.174 OA 
BRANCH  11  13
HETATM   13  C   UNL     1     -11.368  14.845  65.315  1.00  0.00    -0.358 A  
HETATM   14  C   UNL     1     -11.013  14.434  66.611  1.00  0.00    -0.318 A  
HETATM   15  C   UNL     1     -11.280  13.131  67.035  1.00  0.00    -0.325 A  
HETATM   16  C   UNL     1     -11.915  12.236  66.176  1.00  0.00    -0.323 A  
HETATM   17  C   UNL     1     -12.312  12.648  64.903  1.00  0.00    -0.563 A  
HETATM   18  C   UNL     1     -12.042  13.950  64.476  1.00  0.00    -0.443 A  
HETATM   19  O   UNL     1     -12.448  14.338  63.232  1.00  0.00    -1.133 OA 
HETATM   20  H   UNL     1     -12.906  13.731  62.662  1.00  0.00     0.000 HD 
ENDBRANCH  11  13
ENDBRANCH  10  11
ENDBRANCH   9  10
TORSDOF 3
ENDMDL
MODEL        2
REMARK 921   NORMALIZED FREE ENERGY PREDICTED BY IDOCK:   -7.23 KCAL/MOL
REMARK 922        TOTAL FREE ENERGY PREDICTED BY IDOCK:   -8.85 KCAL/MOL
REMARK 923 INTER-LIGAND FREE ENERGY PREDICTED BY IDOCK:   -8.03 KCAL/MOL
REMARK 924 INTRA-LIGAND FREE ENERGY PREDICTED BY IDOCK:   -0.81 KCAL/MOL
REMARK 927      BINDING AFFINITY PREDICTED BY RF-SCORE:    0.00 PKD
ROOT
HETATM    1  O   UNL     1     -10.515  17.048  66.549  1.00  0.00    -0.305 OA 
HETATM    2  C   UNL     1     -10.983  16.403  65.463  1.00  0.00    -0.119 C  
HETATM    3  C   UNL     1     -11.224  14.943  65.646  1.00  0.00    -0.347 A  
HETATM    4  O   UNL     1     -11.134  16.955  64.385  1.00  0.00    -1.128 OA 
HETATM    5  C   UNL     1     -11.120  14.144  64.497  1.00  0.00    -0.340 A  
HETATM    6  C   UNL     1     -11.390  12.777  64.553  1.00  0.00    -0.378 A  
HETATM    7  C   UNL     1     -11.779  12.194  65.755  1.00  0.00    -0.391 A  
HETATM    8  C   UNL     1     -11.885  12.974  66.907  1.00  0.00    -0.442 A  
HETATM    9  C   UNL     1     -11.597  14.345  66.860  1.00  0.00    -0.388 A  
ENDROOT
BRANCH   9  10
HETATM   10  O   UNL     1     -11.792  15.169  67.992  1.00  0.00    -0.331 OA 
BRANCH  10  11
HETATM   11  C   UNL     1     -11.208  14.768  69.182  1.00  0.00    -0.271 C  
HETATM   12  O   UNL     1     -10.006  14.601  69.330  1.00  0.00    -0.188 OA 
BRANCH  11  13
HETATM   13  C   UNL     1     -12.237  14.402  70.195  1.00  0.00    -0.401 A  
HETATM   14  C   UNL     1     -13.044  15.441  70.690  1.00  0.00    -0.405 A  
HETATM   15  C   UNL     1     -13.911  15.210  71.760  1.00  0.00    -0.627 A  
HETATM   16  C   UNL     1     -13.991  13.941  72.330  1.00  0.00    -0.663 A  
HETATM   17  C   UNL     1     -13.227  12.893  71.815  1.00  0.00    -0.479 A  
HETATM   18  C   UNL     1     -12.355  13.123  70.748  1.00  0.00    -0.321 A  
HETATM   19  O   UNL     1     -11.624  12.082  70.251  1.00  0.00    -0.509 OA 
HETATM   20  H   UNL     1     -11.705  11.213  70.627  1.00  0.00     0.000 HD 
ENDBRANCH  11  13
ENDBRANCH  10  11
ENDBRANCH   9  10
TORSDOF 3
ENDMDL
MODEL        3
REMARK 921   NORMALIZED FREE ENERGY PREDICTED BY IDOCK:   -7.19 KCAL/MOL
REMARK 922        TOTAL FREE ENERGY PREDICTED BY IDOCK:   -8.80 KCAL/MOL
REMARK 923 INTER-LIGAND FREE ENERGY PREDICTED BY IDOCK:   -8.00 KCAL/MOL
REMARK 924 INTRA-LIGAND FREE ENERGY PREDICTED BY IDOCK:   -0.80 KCAL/MOL
REMARK 927      BINDING AFFINITY PREDICTED BY RF-SCORE:    0.00 PKD
ROOT
HETATM    1  O   UNL     1     -12.953  13.657  65.201  1.00  0.00    -0.734 OA 
HETATM    2  C   UNL     1     -12.570  12.540  64.554  1.00  0.00    -0.421 C  
HETATM    3  C   UNL     1     -11.473  11.771  65.207  1.00  0.00    -0.250 A  
HETATM    4  O   UNL     1     -13.037  12.213  63.474  1.00  0.00    -0.785 OA 
HETATM    5  C   UNL     1     -10.655  11.008  64.361  1.00  0.00    -0.395 A  
HETATM    6  C   UNL     1      -9.641  10.205  64.883  1.00  0.00    -0.369 A  
HETATM    7  C   UNL     1      -9.441  10.146  66.259  1.00  0.00    -0.229 A  
HETATM    8  C   UNL     1     -10.244  10.900  67.115  1.00  0.00    -0.249 A  
HETATM    9  C   UNL     1     -11.252  11.724  66.593  1.00  0.00    -0.323 A  
ENDROOT
BRANCH   9  10
HETATM   10  O   UNL     1     -12.138  12.418  67.447  1.00  0.00    -0.505 OA 
BRANCH  10  11
HETATM   11  C   UNL     1     -11.594  13.372  68.292  1.00  0.00    -0.344 C  
HETATM   12  O   UNL     1     -10.698  14.138  67.970  1.00  0.00    -0.236 OA 
BRANCH  11  13
HETATM   13  C   UNL     1     -12.115  13.226  69.680  1.00  0.00    -0.331 A  
HETATM   14  C   UNL     1     -12.159  11.927  70.213  1.00  0.00    -0.409 A  
HETATM   15  C   UNL     1     -12.789  11.688  71.436  1.00  0.00    -0.461 A  
HETATM   16  C   UNL     1     -13.364  12.745  72.141  1.00  0.00    -0.593 A  
HETATM   17  C   UNL     1     -13.285  14.045  71.641  1.00  0.00    -0.442 A  
HETATM   18  C   UNL     1     -12.659  14.285  70.415  1.00  0.00    -0.343 A  
HETATM   19  O   UNL     1     -12.583  15.566  69.948  1.00  0.00    -0.582 OA 
HETATM   20  H   UNL     1     -12.952  16.285  70.448  1.00  0.00     0.000 HD 
ENDBRANCH  11  13
ENDBRANCH  10  11
ENDBRANCH   9  10
TORSDOF 3
ENDMDL
MODEL        4
REMARK 921   NORMALIZED FREE ENERGY PREDICTED BY IDOCK:   -7.04 KCAL/MOL
REMARK 922        TOTAL FREE ENERGY PREDICTED BY IDOCK:   -8.62 KCAL/MOL
REMARK 923 INTER-LIGAND FREE ENERGY PREDICTED BY IDOCK:   -8.04 KCAL/MOL
REMARK 924 INTRA-LIGAND FREE ENERGY PREDICTED BY IDOCK:   -0.58 KCAL/MOL
REMARK 927      BINDING AFFINITY PREDICTED BY RF-SCORE:    0.00 PKD
ROOT
HETATM    1  O   UNL     1     -11.921  11.097  67.607  1.00  0.00    -0.613 OA 
HETATM    2  C   UNL     1     -10.654  10.823  67.242  1.00  0.00    -0.257 C  
HETATM    3  C   UNL     1     -10.397  10.842  65.773  1.00  0.00    -0.303 A  
HETATM    4  O   UNL     1      -9.790  10.513  68.047  1.00  0.00    -0.145 OA 
HETATM    5  C   UNL     1      -9.355  10.026  65.310  1.00  0.00    -0.294 A  
HETATM    6  C   UNL     1      -8.997  10.023  63.962  1.00  0.00    -0.270 A  
HETATM    7  C   UNL     1      -9.669  10.845  63.063  1.00  0.00    -0.380 A  
HETATM    8  C   UNL     1     -10.709  11.661  63.506  1.00  0.00    -0.495 A  
HETATM    9  C   UNL     1     -11.086  11.654  64.857  1.00  0.00    -0.253 A  
ENDROOT
BRANCH   9  10
HETATM   10  O   UNL     1     -12.070  12.544  65.343  1.00  0.00    -0.433 OA 
BRANCH  10  11
HETATM   11  C   UNL     1     -12.138  13.800  64.762  1.00  0.00    -0.410 C  
HETATM   12  O   UNL     1     -12.671  14.026  63.685  1.00  0.00    -0.778 OA 
BRANCH  11  13
HETATM   13  C   UNL     1     -11.335  14.794  65.526  1.00  0.00    -0.343 A  
HETATM   14  C   UNL     1     -10.923  14.426  66.818  1.00  0.00    -0.314 A  
HETATM   15  C   UNL     1     -10.315  15.361  67.658  1.00  0.00    -0.262 A  
HETATM   16  C   UNL     1     -10.101  16.663  67.208  1.00  0.00    -0.279 A  
HETATM   17  C   UNL     1     -10.465  17.025  65.911  1.00  0.00    -0.282 A  
HETATM   18  C   UNL     1     -11.077  16.092  65.072  1.00  0.00    -0.336 A  
HETATM   19  O   UNL     1     -11.416  16.462  63.802  1.00  0.00    -1.590 OA 
HETATM   20  H   UNL     1     -11.240  17.343  63.493  1.00  0.00     0.000 HD 
ENDBRANCH  11  13
ENDBRANCH  10  11
ENDBRANCH   9  10
TORSDOF 3
ENDMDL
MODEL        5
REMARK 921   NORMALIZED FREE ENERGY PREDICTED BY IDOCK:   -7.00 KCAL/MOL
REMARK 922        TOTAL FREE ENERGY PREDICTED BY IDOCK:   -8.58 KCAL/MOL
REMARK 923 INTER-LIGAND FREE ENERGY PREDICTED BY IDOCK:   -7.24 KCAL/MOL
REMARK 924 INTRA-LIGAND FREE ENERGY PREDICTED BY IDOCK:   -1.34 KCAL/MOL
REMARK 927      BINDING AFFINITY PREDICTED BY RF-SCORE:    0.00 PKD
ROOT
HETATM    1  O   UNL     1     -12.151  11.386  67.612  1.00  0.00    -0.630 OA 
HETATM    2  C   UNL     1     -10.855  11.163  67.324  1.00  0.00    -0.274 C  
HETATM    3  C   UNL     1     -10.536  11.053  65.871  1.00  0.00    -0.270 A  
HETATM    4  O   UNL     1     -10.008  10.995  68.187  1.00  0.00    -0.168 OA 
HETATM    5  C   UNL     1      -9.425  10.267  65.533  1.00  0.00    -0.277 A  
HETATM    6  C   UNL     1      -9.009  10.154  64.207  1.00  0.00    -0.267 A  
HETATM    7  C   UNL     1      -9.692  10.835  63.204  1.00  0.00    -0.394 A  
HETATM    8  C   UNL     1     -10.801  11.618  63.522  1.00  0.00    -0.497 A  
HETATM    9  C   UNL     1     -11.235  11.721  64.852  1.00  0.00    -0.266 A  
ENDROOT
BRANCH   9  10
HETATM   10  O   UNL     1     -12.294  12.586  65.207  1.00  0.00    -0.544 OA 
BRANCH  10  11
HETATM   11  C   UNL     1     -12.200  13.908  64.806  1.00  0.00    -0.415 C  
HETATM   12  O   UNL     1     -12.693  14.345  63.776  1.00  0.00    -0.785 OA 
BRANCH  11  13
HETATM   13  C   UNL     1     -11.284  14.680  65.691  1.00  0.00    -0.342 A  
HETATM   14  C   UNL     1     -10.162  15.273  65.089  1.00  0.00    -0.374 A  
HETATM   15  C   UNL     1      -9.171  15.865  65.874  1.00  0.00    -0.332 A  
HETATM   16  C   UNL     1      -9.301  15.884  67.262  1.00  0.00    -0.218 A  
HETATM   17  C   UNL     1     -10.435  15.338  67.866  1.00  0.00    -0.253 A  
HETATM   18  C   UNL     1     -11.424  14.741  67.082  1.00  0.00    -0.364 A  
HETATM   19  O   UNL     1     -12.531  14.222  67.691  1.00  0.00    -0.570 OA 
HETATM   20  H   UNL     1     -12.626  14.263  68.635  1.00  0.00     0.000 HD 
ENDBRANCH  11  13
ENDBRANCH  10  11
ENDBRANCH   9  10
TORSDOF 3
ENDMDL
MODEL        6
REMARK 921   NORMALIZED FREE ENERGY PREDICTED BY IDOCK:   -6.98 KCAL/MOL
REMARK 922        TOTAL FREE ENERGY PREDICTED BY IDOCK:   -8.56 KCAL/MOL
REMARK 923 INTER-LIGAND FREE ENERGY PREDICTED BY IDOCK:   -7.85 KCAL/MOL
REMARK 924 INTRA-LIGAND FREE ENERGY PREDICTED BY IDOCK:   -0.70 KCAL/MOL
REMARK 927      BINDING AFFINITY PREDICTED BY RF-SCORE:    0.00 PKD
ROOT
HETATM    1  O   UNL     1     -12.485  14.676  64.242  1.00  0.00    -0.648 OA 
HETATM    2  C   UNL     1     -12.411  13.489  64.874  1.00  0.00    -0.407 C  
HETATM    3  C   UNL     1     -11.122  13.221  65.574  1.00  0.00    -0.299 A  
HETATM    4  O   UNL     1     -13.306  12.660  64.824  1.00  0.00    -0.787 OA 
HETATM    5  C   UNL     1     -10.755  11.874  65.714  1.00  0.00    -0.327 A  
HETATM    6  C   UNL     1      -9.599  11.518  66.409  1.00  0.00    -0.230 A  
HETATM    7  C   UNL     1      -8.803  12.504  66.983  1.00  0.00    -0.212 A  
HETATM    8  C   UNL     1      -9.151  13.848  66.851  1.00  0.00    -0.257 A  
HETATM    9  C   UNL     1     -10.303  14.213  66.137  1.00  0.00    -0.300 A  
ENDROOT
BRANCH   9  10
HETATM   10  O   UNL     1     -10.725  15.559  66.076  1.00  0.00    -0.316 OA 
BRANCH  10  11
HETATM   11  C   UNL     1     -10.963  16.209  67.277  1.00  0.00    -0.175 C  
HETATM   12  O   UNL     1     -11.618  15.733  68.192  1.00  0.00    -0.344 OA 
BRANCH  11  13
HETATM   13  C   UNL     1     -10.471  17.614  67.238  1.00  0.00    -0.338 A  
HETATM   14  C   UNL     1      -9.971  18.150  68.437  1.00  0.00    -0.392 A  
HETATM   15  C   UNL     1      -9.651  19.506  68.524  1.00  0.00    -0.476 A  
HETATM   16  C   UNL     1      -9.812  20.332  67.412  1.00  0.00    -0.586 A  
HETATM   17  C   UNL     1     -10.265  19.799  66.205  1.00  0.00    -0.618 A  
HETATM   18  C   UNL     1     -10.590  18.444  66.118  1.00  0.00    -0.315 A  
HETATM   19  O   UNL     1     -11.021  17.939  64.924  1.00  0.00    -0.827 OA 
HETATM   20  H   UNL     1     -11.102  18.503  64.163  1.00  0.00     0.000 HD 
ENDBRANCH  11  13
ENDBRANCH  10  11
ENDBRANCH   9  10
TORSDOF 3
ENDMDL
MODEL        7
REMARK 921   NORMALIZED FREE ENERGY PREDICTED BY IDOCK:   -6.96 KCAL/MOL
REMARK 922        TOTAL FREE ENERGY PREDICTED BY IDOCK:   -8.53 KCAL/MOL
REMARK 923 INTER-LIGAND FREE ENERGY PREDICTED BY IDOCK:   -7.80 KCAL/MOL
REMARK 924 INTRA-LIGAND FREE ENERGY PREDICTED BY IDOCK:   -0.72 KCAL/MOL
REMARK 927      BINDING AFFINITY PREDICTED BY RF-SCORE:    0.00 PKD
ROOT
HETATM    1  O   UNL     1     -12.217  13.651  69.785  1.00  0.00    -0.321 OA 
HETATM    2  C   UNL     1     -12.126  14.994  69.760  1.00  0.00    -0.314 C  
HETATM    3  C   UNL     1     -11.368  15.559  68.607  1.00  0.00    -0.348 A  
HETATM    4  O   UNL     1     -12.572  15.700  70.651  1.00  0.00    -0.437 OA 
HETATM    5  C   UNL     1     -10.741  16.796  68.818  1.00  0.00    -0.341 A  
HETATM    6  C   UNL     1     -10.061  17.436  67.782  1.00  0.00    -0.323 A  
HETATM    7  C   UNL     1     -10.010  16.852  66.519  1.00  0.00    -0.309 A  
HETATM    8  C   UNL     1     -10.626  15.621  66.294  1.00  0.00    -0.310 A  
HETATM    9  C   UNL     1     -11.295  14.965  67.337  1.00  0.00    -0.347 A  
ENDROOT
BRANCH   9  10
HETATM   10  O   UNL     1     -12.007  13.767  67.105  1.00  0.00    -0.385 OA 
BRANCH  10  11
HETATM   11  C   UNL     1     -12.365  13.480  65.797  1.00  0.00    -0.468 C  
HETATM   12  O   UNL     1     -13.313  13.993  65.221  1.00  0.00    -0.741 OA 
BRANCH  11  13
HETATM   13  C   UNL     1     -11.560  12.352  65.251  1.00  0.00    -0.419 A  
HETATM   14  C   UNL     1     -11.008  11.453  66.179  1.00  0.00    -0.294 A  
HETATM   15  C   UNL     1     -10.106  10.473  65.760  1.00  0.00    -0.329 A  
HETATM   16  C   UNL     1      -9.763  10.374  64.412  1.00  0.00    -0.396 A  
HETATM   17  C   UNL     1     -10.341  11.233  63.477  1.00  0.00    -0.463 A  
HETATM   18  C   UNL     1     -11.240  12.216  63.896  1.00  0.00    -0.415 A  
HETATM   19  O   UNL     1     -11.804  13.040  62.964  1.00  0.00    -0.841 OA 
HETATM   20  H   UNL     1     -11.587  12.948  62.044  1.00  0.00     0.000 HD 
ENDBRANCH  11  13
ENDBRANCH  10  11
ENDBRANCH   9  10
TORSDOF 3
ENDMDL
MODEL        8
REMARK 921   NORMALIZED FREE ENERGY PREDICTED BY IDOCK:   -6.94 KCAL/MOL
REMARK 922        TOTAL FREE ENERGY PREDICTED BY IDOCK:   -8.50 KCAL/MOL
REMARK 923 INTER-LIGAND FREE ENERGY PREDICTED BY IDOCK:   -7.82 KCAL/MOL
REMARK 924 INTRA-LIGAND FREE ENERGY PREDICTED BY IDOCK:   -0.68 KCAL/MOL
REMARK 927      BINDING AFFINITY PREDICTED BY RF-SCORE:    0.00 PKD
ROOT
HETATM    1  O   UNL     1     -12.367  14.374  65.494  1.00  0.00    -0.392 OA 
HETATM    2  C   UNL     1     -12.202  13.523  64.463  1.00  0.00    -0.398 C  
HETATM    3  C   UNL     1     -11.324  12.351  64.740  1.00  0.00    -0.360 A  
HETATM    4  O   UNL     1     -12.680  13.729  63.358  1.00  0.00    -0.795 OA 
HETATM    5  C   UNL     1     -10.650  11.801  63.639  1.00  0.00    -0.496 A  
HETATM    6  C   UNL     1      -9.855  10.664  63.785  1.00  0.00    -0.394 A  
HETATM    7  C   UNL     1      -9.734  10.057  65.031  1.00  0.00    -0.386 A  
HETATM    8  C   UNL     1     -10.395  10.592  66.136  1.00  0.00    -0.291 A  
HETATM    9  C   UNL     1     -11.180  11.746  65.999  1.00  0.00    -0.296 A  
ENDROOT
BRANCH   9  10
HETATM   10  O   UNL     1     -11.935  12.246  67.084  1.00  0.00    -0.564 OA 
BRANCH  10  11
HETATM   11  C   UNL     1     -11.236  12.752  68.168  1.00  0.00    -0.272 C  
HETATM   12  O   UNL     1     -10.107  13.214  68.097  1.00  0.00    -0.225 OA 
BRANCH  11  13
HETATM   13  C   UNL     1     -11.963  12.502  69.444  1.00  0.00    -0.315 A  
HETATM   14  C   UNL     1     -12.321  13.627  70.206  1.00  0.00    -0.392 A  
HETATM   15  C   UNL     1     -12.850  13.470  71.489  1.00  0.00    -0.440 A  
HETATM   16  C   UNL     1     -13.039  12.191  72.011  1.00  0.00    -0.462 A  
HETATM   17  C   UNL     1     -12.729  11.068  71.244  1.00  0.00    -0.537 A  
HETATM   18  C   UNL     1     -12.196  11.224  69.963  1.00  0.00    -0.314 A  
HETATM   19  O   UNL     1     -11.909  10.113  69.223  1.00  0.00    -0.491 OA 
HETATM   20  H   UNL     1     -12.067   9.244  69.576  1.00  0.00     0.000 HD 
ENDBRANCH  11  13
ENDBRANCH  10  11
ENDBRANCH   9  10
TORSDOF 3
ENDMDL
MODEL        9
REMARK 921   NORMALIZED FREE ENERGY PREDICTED BY IDOCK:   -6.93 KCAL/MOL
REMARK 922        TOTAL FREE ENERGY PREDICTED BY IDOCK:   -8.49 KCAL/MOL
REMARK 923 INTER-LIGAND FREE ENERGY PREDICTED BY IDOCK:   -7.74 KCAL/MOL
REMARK 924 INTRA-LIGAND FREE ENERGY PREDICTED BY IDOCK:   -0.75 KCAL/MOL
REMARK 927      BINDING AFFINITY PREDICTED BY RF-SCORE:    0.00 PKD
ROOT
HETATM    1  O   UNL     1     -12.463  14.276  65.566  1.00  0.00    -0.444 OA 
HETATM    2  C   UNL     1     -12.277  13.316  64.640  1.00  0.00    -0.407 C  
HETATM    3  C   UNL     1     -11.394  12.190  65.061  1.00  0.00    -0.379 A  
HETATM    4  O   UNL     1     -12.739  13.390  63.513  1.00  0.00    -0.703 OA 
HETATM    5  C   UNL     1     -10.700  11.525  64.040  1.00  0.00    -0.445 A  
HETATM    6  C   UNL     1      -9.899  10.419  64.326  1.00  0.00    -0.388 A  
HETATM    7  C   UNL     1      -9.793   9.958  65.634  1.00  0.00    -0.368 A  
HETATM    8  C   UNL     1     -10.474  10.609  66.662  1.00  0.00    -0.296 A  
HETATM    9  C   UNL     1     -11.266  11.733  66.383  1.00  0.00    -0.323 A  
ENDROOT
BRANCH   9  10
HETATM   10  O   UNL     1     -12.040  12.346  67.393  1.00  0.00    -0.505 OA 
BRANCH  10  11
HETATM   11  C   UNL     1     -11.363  12.978  68.423  1.00  0.00    -0.291 C  
HETATM   12  O   UNL     1     -10.341  13.631  68.268  1.00  0.00    -0.237 OA 
BRANCH  11  13
HETATM   13  C   UNL     1     -11.935  12.617  69.750  1.00  0.00    -0.365 A  
HETATM   14  C   UNL     1     -12.003  11.250  70.066  1.00  0.00    -0.447 A  
HETATM   15  C   UNL     1     -12.679  10.824  71.212  1.00  0.00    -0.546 A  
HETATM   16  C   UNL     1     -13.275  11.760  72.055  1.00  0.00    -0.460 A  
HETATM   17  C   UNL     1     -13.174  13.123  71.773  1.00  0.00    -0.494 A  
HETATM   18  C   UNL     1     -12.502  13.549  70.626  1.00  0.00    -0.333 A  
HETATM   19  O   UNL     1     -12.404  14.888  70.372  1.00  0.00    -0.307 OA 
HETATM   20  H   UNL     1     -12.789  15.521  70.967  1.00  0.00     0.000 HD 
ENDBRANCH  11  13
ENDBRANCH  10  11
ENDBRANCH   9  10
TORSDOF 3
ENDMDL
MODEL       10
REMARK 921   NORMALIZED FREE ENERGY PREDICTED BY IDOCK:   -6.89 KCAL/MOL
REMARK 922        TOTAL FREE ENERGY PREDICTED BY IDOCK:   -8.45 KCAL/MOL
REMARK 923 INTER-LIGAND FREE ENERGY PREDICTED BY IDOCK:   -7.80 KCAL/MOL
REMARK 924 INTRA-LIGAND FREE ENERGY PREDICTED BY IDOCK:   -0.65 KCAL/MOL
REMARK 927      BINDING AFFINITY PREDICTED BY RF-SCORE:    0.00 PKD
ROOT
HETATM    1  O   UNL     1     -10.414  17.013  66.435  1.00  0.00    -0.309 OA 
HETATM    2  C   UNL     1     -10.962  16.334  65.409  1.00  0.00    -0.197 C  
HETATM    3  C   UNL     1     -11.223  14.889  65.668  1.00  0.00    -0.347 A  
HETATM    4  O   UNL     1     -11.170  16.845  64.319  1.00  0.00    -1.204 OA 
HETATM    5  C   UNL     1     -11.208  14.041  64.551  1.00  0.00    -0.358 A  
HETATM    6  C   UNL     1     -11.502  12.684  64.682  1.00  0.00    -0.376 A  
HETATM    7  C   UNL     1     -11.827  12.161  65.931  1.00  0.00    -0.342 A  
HETATM    8  C   UNL     1     -11.844  12.990  67.052  1.00  0.00    -0.437 A  
HETATM    9  C   UNL     1     -11.530  14.352  66.929  1.00  0.00    -0.366 A  
ENDROOT
BRANCH   9  10
HETATM   10  O   UNL     1     -11.636  15.225  68.034  1.00  0.00    -0.339 OA 
BRANCH  10  11
HETATM   11  C   UNL     1     -10.815  14.982  69.122  1.00  0.00    -0.251 C  
HETATM   12  O   UNL     1      -9.606  14.818  69.042  1.00  0.00    -0.213 OA 
BRANCH  11  13
HETATM   13  C   UNL     1     -11.610  14.774  70.365  1.00  0.00    -0.333 A  
HETATM   14  C   UNL     1     -12.193  13.509  70.547  1.00  0.00    -0.433 A  
HETATM   15  C   UNL     1     -13.088  13.290  71.595  1.00  0.00    -0.453 A  
HETATM   16  C   UNL     1     -13.394  14.325  72.477  1.00  0.00    -0.595 A  
HETATM   17  C   UNL     1     -12.784  15.572  72.332  1.00  0.00    -0.488 A  
HETATM   18  C   UNL     1     -11.893  15.794  71.280  1.00  0.00    -0.437 A  
HETATM   19  O   UNL     1     -11.298  17.017  71.161  1.00  0.00    -0.327 OA 
HETATM   20  H   UNL     1     -11.490  17.710  71.783  1.00  0.00     0.000 HD 
ENDBRANCH  11  13
ENDBRANCH  10  11
ENDBRANCH   9  10
TORSDOF 3
ENDMDL
MODEL       11
REMARK 921   NORMALIZED FREE ENERGY PREDICTED BY IDOCK:   -6.88 KCAL/MOL
REMARK 922        TOTAL FREE ENERGY PREDICTED BY IDOCK:   -8.44 KCAL/MOL
REMARK 923 INTER-LIGAND FREE ENERGY PREDICTED BY IDOCK:   -7.62 KCAL/MOL
REMARK 924 INTRA-LIGAND FREE ENERGY PREDICTED BY IDOCK:   -0.82 KCAL/MOL
REMARK 927      BINDING AFFINITY PREDICTED BY RF-SCORE:    0.00 PKD
ROOT
HETATM    1  O   UNL     1     -10.855  13.746  64.333  1.00  0.00    -0.395 OA 
HETATM    2  C   UNL     1     -11.826  13.616  65.257  1.00  0.00    -0.349 C  
HETATM    3  C   UNL     1     -11.450  14.034  66.638  1.00  0.00    -0.377 A  
HETATM    4  O   UNL     1     -12.915  13.126  65.002  1.00  0.00    -0.729 OA 
HETATM    5  C   UNL     1     -12.129  13.401  67.690  1.00  0.00    -0.311 A  
HETATM    6  C   UNL     1     -11.893  13.768  69.014  1.00  0.00    -0.397 A  
HETATM    7  C   UNL     1     -10.985  14.782  69.303  1.00  0.00    -0.275 A  
HETATM    8  C   UNL     1     -10.299  15.420  68.270  1.00  0.00    -0.238 A  
HETATM    9  C   UNL     1     -10.518  15.041  66.937  1.00  0.00    -0.279 A  
ENDROOT
BRANCH   9  10
HETATM   10  O   UNL     1      -9.908  15.741  65.872  1.00  0.00    -0.300 OA 
BRANCH  10  11
HETATM   11  C   UNL     1     -10.489  16.935  65.476  1.00  0.00    -0.204 C  
HETATM   12  O   UNL     1     -11.236  17.044  64.515  1.00  0.00    -1.091 OA 
BRANCH  11  13
HETATM   13  C   UNL     1      -9.953  18.083  66.258  1.00  0.00    -0.338 A  
HETATM   14  C   UNL     1     -10.884  18.876  66.950  1.00  0.00    -0.347 A  
HETATM   15  C   UNL     1     -10.480  20.064  67.563  1.00  0.00    -0.487 A  
HETATM   16  C   UNL     1      -9.145  20.459  67.504  1.00  0.00    -0.447 A  
HETATM   17  C   UNL     1      -8.205  19.655  66.858  1.00  0.00    -0.323 A  
HETATM   18  C   UNL     1      -8.608  18.469  66.240  1.00  0.00    -0.205 A  
HETATM   19  O   UNL     1      -7.671  17.690  65.623  1.00  0.00    -0.527 OA 
HETATM   20  H   UNL     1      -6.758  17.952  65.611  1.00  0.00     0.000 HD 
ENDBRANCH  11  13
ENDBRANCH  10  11
ENDBRANCH   9  10
TORSDOF 3
ENDMDL
MODEL       12
REMARK 921   NORMALIZED FREE ENERGY PREDICTED BY IDOCK:   -6.86 KCAL/MOL
REMARK 922        TOTAL FREE ENERGY PREDICTED BY IDOCK:   -8.42 KCAL/MOL
REMARK 923 INTER-LIGAND FREE ENERGY PREDICTED BY IDOCK:   -7.59 KCAL/MOL
REMARK 924 INTRA-LIGAND FREE ENERGY PREDICTED BY IDOCK:   -0.82 KCAL/MOL
REMARK 927      BINDING AFFINITY PREDICTED BY RF-SCORE:    0.00 PKD
ROOT
HETATM    1  O   UNL     1     -12.753  14.209  65.783  1.00  0.00    -0.508 OA 
HETATM    2  C   UNL     1     -12.472  12.959  65.370  1.00  0.00    -0.454 C  
HETATM    3  C   UNL     1     -11.513  12.206  66.228  1.00  0.00    -0.433 A  
HETATM    4  O   UNL     1     -12.916  12.494  64.332  1.00  0.00    -0.748 OA 
HETATM    5  C   UNL     1     -10.748  11.218  65.591  1.00  0.00    -0.279 A  
HETATM    6  C   UNL     1      -9.868  10.417  66.320  1.00  0.00    -0.272 A  
HETATM    7  C   UNL     1      -9.753  10.587  67.696  1.00  0.00    -0.187 A  
HETATM    8  C   UNL     1     -10.504  11.567  68.345  1.00  0.00    -0.226 A  
HETATM    9  C   UNL     1     -11.376  12.387  67.613  1.00  0.00    -0.312 A  
ENDROOT
BRANCH   9  10
HETATM   10  O   UNL     1     -12.216  13.317  68.264  1.00  0.00    -0.266 OA 
BRANCH  10  11
HETATM   11  C   UNL     1     -11.609  14.366  68.936  1.00  0.00    -0.306 C  
HETATM   12  O   UNL     1     -10.723  15.060  68.458  1.00  0.00    -0.233 OA 
BRANCH  11  13
HETATM   13  C   UNL     1     -12.048  14.426  70.358  1.00  0.00    -0.399 A  
HETATM   14  C   UNL     1     -12.635  13.267  70.894  1.00  0.00    -0.386 A  
HETATM   15  C   UNL     1     -13.223  13.297  72.160  1.00  0.00    -0.562 A  
HETATM   16  C   UNL     1     -13.215  14.476  72.904  1.00  0.00    -0.612 A  
HETATM   17  C   UNL     1     -12.594  15.619  72.398  1.00  0.00    -0.510 A  
HETATM   18  C   UNL     1     -12.010  15.592  71.130  1.00  0.00    -0.382 A  
HETATM   19  O   UNL     1     -11.397  16.717  70.657  1.00  0.00    -0.518 OA 
HETATM   20  H   UNL     1     -11.371  17.509  71.181  1.00  0.00     0.000 HD 
ENDBRANCH  11  13
ENDBRANCH  10  11
ENDBRANCH   9  10
TORSDOF 3
ENDMDL
MODEL       13
REMARK 921   NORMALIZED FREE ENERGY PREDICTED BY IDOCK:   -6.84 KCAL/MOL
REMARK 922        TOTAL FREE ENERGY PREDICTED BY IDOCK:   -8.39 KCAL/MOL
REMARK 923 INTER-LIGAND FREE ENERGY PREDICTED BY IDOCK:   -7.60 KCAL/MOL
REMARK 924 INTRA-LIGAND FREE ENERGY PREDICTED BY IDOCK:   -0.79 KCAL/MOL
REMARK 927      BINDING AFFINITY PREDICTED BY RF-SCORE:    0.00 PKD
ROOT
HETATM    1  O   UNL     1     -11.196  19.310  67.612  1.00  0.00    -0.281 OA 
HETATM    2  C   UNL     1      -9.917  19.728  67.669  1.00  0.00    -0.406 C  
HETATM    3  C   UNL     1      -8.960  18.765  68.284  1.00  0.00    -0.355 A  
HETATM    4  O   UNL     1      -9.573  20.842  67.306  1.00  0.00    -0.457 OA 
HETATM    5  C   UNL     1      -7.828  19.317  68.901  1.00  0.00    -0.367 A  
HETATM    6  C   UNL     1      -6.843  18.496  69.450  1.00  0.00    -0.175 A  
HETATM    7  C   UNL     1      -6.972  17.113  69.377  1.00  0.00    -0.124 A  
HETATM    8  C   UNL     1      -8.093  16.547  68.769  1.00  0.00    -0.244 A  
HETATM    9  C   UNL     1      -9.095  17.368  68.233  1.00  0.00    -0.272 A  
ENDROOT
BRANCH   9  10
HETATM   10  O   UNL     1     -10.188  16.816  67.528  1.00  0.00    -0.273 OA 
BRANCH  10  11
HETATM   11  C   UNL     1      -9.940  16.305  66.264  1.00  0.00    -0.317 C  
HETATM   12  O   UNL     1      -9.115  16.769  65.491  1.00  0.00    -0.414 OA 
BRANCH  11  13
HETATM   13  C   UNL     1     -10.920  15.242  65.908  1.00  0.00    -0.325 A  
HETATM   14  C   UNL     1     -11.041  14.160  66.797  1.00  0.00    -0.314 A  
HETATM   15  C   UNL     1     -11.810  13.047  66.451  1.00  0.00    -0.465 A  
HETATM   16  C   UNL     1     -12.474  13.013  65.226  1.00  0.00    -0.555 A  
HETATM   17  C   UNL     1     -12.396  14.102  64.357  1.00  0.00    -0.410 A  
HETATM   18  C   UNL     1     -11.625  15.214  64.699  1.00  0.00    -0.357 A  
HETATM   19  O   UNL     1     -11.570  16.275  63.840  1.00  0.00    -1.489 OA 
HETATM   20  H   UNL     1     -12.048  16.256  63.019  1.00  0.00     0.000 HD 
ENDBRANCH  11  13
ENDBRANCH  10  11
ENDBRANCH   9  10
TORSDOF 3
ENDMDL
MODEL       14
REMARK 921   NORMALIZED FREE ENERGY PREDICTED BY IDOCK:   -6.83 KCAL/MOL
REMARK 922        TOTAL FREE ENERGY PREDICTED BY IDOCK:   -8.38 KCAL/MOL
REMARK 923 INTER-LIGAND FREE ENERGY PREDICTED BY IDOCK:   -7.56 KCAL/MOL
REMARK 924 INTRA-LIGAND FREE ENERGY PREDICTED BY IDOCK:   -0.82 KCAL/MOL
REMARK 927      BINDING AFFINITY PREDICTED BY RF-SCORE:    0.00 PKD
ROOT
HETATM    1  O   UNL     1     -11.056  10.614  70.680  1.00  0.00    -0.243 OA 
HETATM    2  C   UNL     1     -12.290  10.970  71.084  1.00  0.00    -0.359 C  
HETATM    3  C   UNL     1     -12.565  12.435  71.075  1.00  0.00    -0.349 A  
HETATM    4  O   UNL     1     -13.107  10.159  71.493  1.00  0.00    -0.374 OA 
HETATM    5  C   UNL     1     -13.520  12.897  71.993  1.00  0.00    -0.568 A  
HETATM    6  C   UNL     1     -13.892  14.241  72.019  1.00  0.00    -0.564 A  
HETATM    7  C   UNL     1     -13.323  15.137  71.119  1.00  0.00    -0.535 A  
HETATM    8  C   UNL     1     -12.370  14.695  70.202  1.00  0.00    -0.390 A  
HETATM    9  C   UNL     1     -11.978  13.348  70.184  1.00  0.00    -0.326 A  
ENDROOT
BRANCH   9  10
HETATM   10  O   UNL     1     -11.089  12.862  69.200  1.00  0.00    -0.243 OA 
BRANCH  10  11
HETATM   11  C   UNL     1     -11.616  12.564  67.954  1.00  0.00    -0.347 C  
HETATM   12  O   UNL     1     -12.274  11.563  67.713  1.00  0.00    -0.560 OA 
BRANCH  11  13
HETATM   13  C   UNL     1     -11.134  13.521  66.919  1.00  0.00    -0.309 A  
HETATM   14  C   UNL     1      -9.982  14.266  67.225  1.00  0.00    -0.252 A  
HETATM   15  C   UNL     1      -9.568  15.300  66.383  1.00  0.00    -0.317 A  
HETATM   16  C   UNL     1     -10.289  15.586  65.225  1.00  0.00    -0.416 A  
HETATM   17  C   UNL     1     -11.408  14.823  64.890  1.00  0.00    -0.411 A  
HETATM   18  C   UNL     1     -11.826  13.791  65.734  1.00  0.00    -0.372 A  
HETATM   19  O   UNL     1     -12.917  13.048  65.384  1.00  0.00    -0.626 OA 
HETATM   20  H   UNL     1     -13.387  13.231  64.578  1.00  0.00     0.000 HD 
ENDBRANCH  11  13
ENDBRANCH  10  11
ENDBRANCH   9  10
TORSDOF 3
ENDMDL
MODEL       15
REMARK 921   NORMALIZED FREE ENERGY PREDICTED BY IDOCK:   -6.82 KCAL/MOL
REMARK 922        TOTAL FREE ENERGY PREDICTED BY IDOCK:   -8.36 KCAL/MOL
REMARK 923 INTER-LIGAND FREE ENERGY PREDICTED BY IDOCK:   -7.39 KCAL/MOL
REMARK 924 INTRA-LIGAND FREE ENERGY PREDICTED BY IDOCK:   -0.97 KCAL/MOL
REMARK 927      BINDING AFFINITY PREDICTED BY RF-SCORE:    0.00 PKD
ROOT
HETATM    1  O   UNL     1     -13.287  14.468  70.709  1.00  0.00    -0.341 OA 
HETATM    2  C   UNL     1     -13.253  13.514  71.659  1.00  0.00    -0.366 C  
HETATM    3  C   UNL     1     -12.746  12.187  71.208  1.00  0.00    -0.363 A  
HETATM    4  O   UNL     1     -13.670  13.698  72.792  1.00  0.00    -0.707 OA 
HETATM    5  C   UNL     1     -13.223  11.066  71.904  1.00  0.00    -0.503 A  
HETATM    6  C   UNL     1     -12.760   9.786  71.599  1.00  0.00    -0.517 A  
HETATM    7  C   UNL     1     -11.804   9.613  70.602  1.00  0.00    -0.331 A  
HETATM    8  C   UNL     1     -11.321  10.716  69.898  1.00  0.00    -0.386 A  
HETATM    9  C   UNL     1     -11.798  12.003  70.189  1.00  0.00    -0.301 A  
ENDROOT
BRANCH   9  10
HETATM   10  O   UNL     1     -11.250  13.141  69.556  1.00  0.00    -0.192 OA 
BRANCH  10  11
HETATM   11  C   UNL     1     -10.409  12.929  68.475  1.00  0.00    -0.229 C  
HETATM   12  O   UNL     1      -9.191  12.876  68.559  1.00  0.00    -0.165 OA 
BRANCH  11  13
HETATM   13  C   UNL     1     -11.163  12.948  67.191  1.00  0.00    -0.329 A  
HETATM   14  C   UNL     1     -10.797  12.000  66.220  1.00  0.00    -0.316 A  
HETATM   15  C   UNL     1     -11.337  12.064  64.934  1.00  0.00    -0.366 A  
HETATM   16  C   UNL     1     -12.256  13.062  64.614  1.00  0.00    -0.477 A  
HETATM   17  C   UNL     1     -12.660  13.980  65.585  1.00  0.00    -0.542 A  
HETATM   18  C   UNL     1     -12.117  13.920  66.870  1.00  0.00    -0.430 A  
HETATM   19  O   UNL     1     -12.533  14.820  67.809  1.00  0.00    -0.533 OA 
HETATM   20  H   UNL     1     -13.181  15.480  67.591  1.00  0.00     0.000 HD 
ENDBRANCH  11  13
ENDBRANCH  10  11
ENDBRANCH   9  10
TORSDOF 3
ENDMDL
MODEL       16
REMARK 921   NORMALIZED FREE ENERGY PREDICTED BY IDOCK:   -6.77 KCAL/MOL
REMARK 922        TOTAL FREE ENERGY PREDICTED BY IDOCK:   -8.31 KCAL/MOL
REMARK 923 INTER-LIGAND FREE ENERGY PREDICTED BY IDOCK:   -7.62 KCAL/MOL
REMARK 924 INTRA-LIGAND FREE ENERGY PREDICTED BY IDOCK:   -0.69 KCAL/MOL
REMARK 927      BINDING AFFINITY PREDICTED BY RF-SCORE:    0.00 PKD
ROOT
HETATM    1  O   UNL     1     -12.017  10.793  68.327  1.00  0.00    -0.520 OA 
HETATM    2  C   UNL     1     -11.135  10.974  67.326  1.00  0.00    -0.294 C  
HETATM    3  C   UNL     1     -11.330  12.214  66.522  1.00  0.00    -0.405 A  
HETATM    4  O   UNL     1     -10.277  10.150  67.049  1.00  0.00    -0.211 OA 
HETATM    5  C   UNL     1     -10.890  12.172  65.191  1.00  0.00    -0.343 A  
HETATM    6  C   UNL     1     -10.971  13.302  64.377  1.00  0.00    -0.413 A  
HETATM    7  C   UNL     1     -11.483  14.491  64.889  1.00  0.00    -0.396 A  
HETATM    8  C   UNL     1     -11.927  14.549  66.209  1.00  0.00    -0.335 A  
HETATM    9  C   UNL     1     -11.865  13.411  67.026  1.00  0.00    -0.394 A  
ENDROOT
BRANCH   9  10
HETATM   10  O   UNL     1     -12.218  13.476  68.392  1.00  0.00    -0.315 OA 
BRANCH  10  11
HETATM   11  C   UNL     1     -11.372  14.173  69.239  1.00  0.00    -0.281 C  
HETATM   12  O   UNL     1     -10.207  14.436  68.975  1.00  0.00    -0.230 OA 
BRANCH  11  13
HETATM   13  C   UNL     1     -12.005  14.406  70.567  1.00  0.00    -0.395 A  
HETATM   14  C   UNL     1     -12.717  13.335  71.132  1.00  0.00    -0.404 A  
HETATM   15  C   UNL     1     -13.477  13.526  72.287  1.00  0.00    -0.669 A  
HETATM   16  C   UNL     1     -13.518  14.780  72.894  1.00  0.00    -0.541 A  
HETATM   17  C   UNL     1     -12.777  15.838  72.366  1.00  0.00    -0.537 A  
HETATM   18  C   UNL     1     -12.020  15.650  71.208  1.00  0.00    -0.415 A  
HETATM   19  O   UNL     1     -11.293  16.694  70.713  1.00  0.00    -0.521 OA 
HETATM   20  H   UNL     1     -11.303  17.539  71.148  1.00  0.00     0.000 HD 
ENDBRANCH  11  13
ENDBRANCH  10  11
ENDBRANCH   9  10
TORSDOF 3
ENDMDL
MODEL       17
REMARK 921   NORMALIZED FREE ENERGY PREDICTED BY IDOCK:   -6.75 KCAL/MOL
REMARK 922        TOTAL FREE ENERGY PREDICTED BY IDOCK:   -8.29 KCAL/MOL
REMARK 923 INTER-LIGAND FREE ENERGY PREDICTED BY IDOCK:   -7.70 KCAL/MOL
REMARK 924 INTRA-LIGAND FREE ENERGY PREDICTED BY IDOCK:   -0.58 KCAL/MOL
REMARK 927      BINDING AFFINITY PREDICTED BY RF-SCORE:    0.00 PKD
ROOT
HETATM    1  O   UNL     1     -13.048  13.931  65.416  1.00  0.00    -0.752 OA 
HETATM    2  C   UNL     1     -12.630  12.752  64.918  1.00  0.00    -0.470 C  
HETATM    3  C   UNL     1     -11.495  12.119  65.649  1.00  0.00    -0.408 A  
HETATM    4  O   UNL     1     -13.097  12.265  63.900  1.00  0.00    -0.772 OA 
HETATM    5  C   UNL     1     -10.659  11.279  64.899  1.00  0.00    -0.364 A  
HETATM    6  C   UNL     1      -9.608  10.591  65.506  1.00  0.00    -0.282 A  
HETATM    7  C   UNL     1      -9.389  10.725  66.874  1.00  0.00    -0.179 A  
HETATM    8  C   UNL     1     -10.210  11.558  67.634  1.00  0.00    -0.205 A  
HETATM    9  C   UNL     1     -11.256  12.266  67.025  1.00  0.00    -0.310 A  
ENDROOT
BRANCH   9  10
HETATM   10  O   UNL     1     -12.157  13.037  67.793  1.00  0.00    -0.318 OA 
BRANCH  10  11
HETATM   11  C   UNL     1     -11.618  13.936  68.699  1.00  0.00    -0.328 C  
HETATM   12  O   UNL     1     -10.556  14.517  68.533  1.00  0.00    -0.238 OA 
BRANCH  11  13
HETATM   13  C   UNL     1     -12.405  13.969  69.963  1.00  0.00    -0.397 A  
HETATM   14  C   UNL     1     -12.835  15.227  70.416  1.00  0.00    -0.360 A  
HETATM   15  C   UNL     1     -13.428  15.359  71.673  1.00  0.00    -0.593 A  
HETATM   16  C   UNL     1     -13.610  14.236  72.478  1.00  0.00    -0.620 A  
HETATM   17  C   UNL     1     -13.228  12.975  72.017  1.00  0.00    -0.543 A  
HETATM   18  C   UNL     1     -12.631  12.842  70.762  1.00  0.00    -0.232 A  
HETATM   19  O   UNL     1     -12.273  11.599  70.324  1.00  0.00    -0.331 OA 
HETATM   20  H   UNL     1     -12.426  10.834  70.867  1.00  0.00     0.000 HD 
ENDBRANCH  11  13
ENDBRANCH  10  11
ENDBRANCH   9  10
TORSDOF 3
ENDMDL
MODEL       18
REMARK 921   NORMALIZED FREE ENERGY PREDICTED BY IDOCK:   -6.74 KCAL/MOL
REMARK 922        TOTAL FREE ENERGY PREDICTED BY IDOCK:   -8.27 KCAL/MOL
REMARK 923 INTER-LIGAND FREE ENERGY PREDICTED BY IDOCK:   -8.02 KCAL/MOL
REMARK 924 INTRA-LIGAND FREE ENERGY PREDICTED BY IDOCK:   -0.25 KCAL/MOL
REMARK 927      BINDING AFFINITY PREDICTED BY RF-SCORE:    0.00 PKD
ROOT
HETATM    1  O   UNL     1     -12.015  15.579  68.990  1.00  0.00    -0.354 OA 
HETATM    2  C   UNL     1     -12.117  15.279  70.298  1.00  0.00    -0.350 C  
HETATM    3  C   UNL     1     -12.357  13.840  70.604  1.00  0.00    -0.445 A  
HETATM    4  O   UNL     1     -12.085  16.131  71.173  1.00  0.00    -0.399 OA 
HETATM    5  C   UNL     1     -13.043  13.560  71.796  1.00  0.00    -0.475 A  
HETATM    6  C   UNL     1     -13.260  12.243  72.201  1.00  0.00    -0.466 A  
HETATM    7  C   UNL     1     -12.784  11.190  71.425  1.00  0.00    -0.524 A  
HETATM    8  C   UNL     1     -12.103  11.450  70.236  1.00  0.00    -0.459 A  
HETATM    9  C   UNL     1     -11.898  12.773  69.815  1.00  0.00    -0.310 A  
ENDROOT
BRANCH   9  10
HETATM   10  O   UNL     1     -11.127  13.059  68.667  1.00  0.00    -0.245 OA 
BRANCH  10  11
HETATM   11  C   UNL     1     -11.559  12.534  67.460  1.00  0.00    -0.361 C  
HETATM   12  O   UNL     1     -11.889  11.368  67.301  1.00  0.00    -0.594 OA 
BRANCH  11  13
HETATM   13  C   UNL     1     -11.405  13.520  66.354  1.00  0.00    -0.335 A  
HETATM   14  C   UNL     1     -10.423  14.512  66.515  1.00  0.00    -0.285 A  
HETATM   15  C   UNL     1     -10.333  15.568  65.606  1.00  0.00    -0.407 A  
HETATM   16  C   UNL     1     -11.210  15.632  64.524  1.00  0.00    -0.337 A  
HETATM   17  C   UNL     1     -12.158  14.627  64.331  1.00  0.00    -0.481 A  
HETATM   18  C   UNL     1     -12.253  13.573  65.242  1.00  0.00    -0.441 A  
HETATM   19  O   UNL     1     -13.180  12.593  65.030  1.00  0.00    -0.753 OA 
HETATM   20  H   UNL     1     -13.756  12.629  64.275  1.00  0.00     0.000 HD 
ENDBRANCH  11  13
ENDBRANCH  10  11
ENDBRANCH   9  10
TORSDOF 3
ENDMDL
MODEL       19
REMARK 921   NORMALIZED FREE ENERGY PREDICTED BY IDOCK:   -6.70 KCAL/MOL
REMARK 922        TOTAL FREE ENERGY PREDICTED BY IDOCK:   -8.22 KCAL/MOL
REMARK 923 INTER-LIGAND FREE ENERGY PREDICTED BY IDOCK:   -7.61 KCAL/MOL
REMARK 924 INTRA-LIGAND FREE ENERGY PREDICTED BY IDOCK:   -0.61 KCAL/MOL
REMARK 927      BINDING AFFINITY PREDICTED BY RF-SCORE:    0.00 PKD
ROOT
HETATM    1  O   UNL     1     -11.627  10.701  70.646  1.00  0.00    -0.326 OA 
HETATM    2  C   UNL     1     -12.668  11.191  71.347  1.00  0.00    -0.418 C  
HETATM    3  C   UNL     1     -12.817  12.674  71.310  1.00  0.00    -0.344 A  
HETATM    4  O   UNL     1     -13.399  10.482  72.020  1.00  0.00    -0.434 OA 
HETATM    5  C   UNL     1     -13.438  13.267  72.420  1.00  0.00    -0.670 A  
HETATM    6  C   UNL     1     -13.680  14.640  72.452  1.00  0.00    -0.575 A  
HETATM    7  C   UNL     1     -13.315  15.435  71.370  1.00  0.00    -0.601 A  
HETATM    8  C   UNL     1     -12.694  14.862  70.260  1.00  0.00    -0.317 A  
HETATM    9  C   UNL     1     -12.431  13.485  70.231  1.00  0.00    -0.239 A  
ENDROOT
BRANCH   9  10
HETATM   10  O   UNL     1     -11.894  12.872  69.077  1.00  0.00    -0.299 OA 
BRANCH  10  11
HETATM   11  C   UNL     1     -10.980  13.600  68.334  1.00  0.00    -0.262 C  
HETATM   12  O   UNL     1      -9.998  14.151  68.809  1.00  0.00    -0.228 OA 
BRANCH  11  13
HETATM   13  C   UNL     1     -11.438  13.769  66.927  1.00  0.00    -0.368 A  
HETATM   14  C   UNL     1     -12.022  12.652  66.306  1.00  0.00    -0.439 A  
HETATM   15  C   UNL     1     -12.321  12.679  64.942  1.00  0.00    -0.563 A  
HETATM   16  C   UNL     1     -12.055  13.825  64.195  1.00  0.00    -0.478 A  
HETATM   17  C   UNL     1     -11.517  14.955  64.812  1.00  0.00    -0.410 A  
HETATM   18  C   UNL     1     -11.213  14.927  66.175  1.00  0.00    -0.325 A  
HETATM   19  O   UNL     1     -10.698  16.047  66.763  1.00  0.00    -0.317 OA 
HETATM   20  H   UNL     1     -10.546  16.834  66.252  1.00  0.00     0.000 HD 
ENDBRANCH  11  13
ENDBRANCH  10  11
ENDBRANCH   9  10
TORSDOF 3
ENDMDL
MODEL       20
REMARK 921   NORMALIZED FREE ENERGY PREDICTED BY IDOCK:   -6.70 KCAL/MOL
REMARK 922        TOTAL FREE ENERGY PREDICTED BY IDOCK:   -8.22 KCAL/MOL
REMARK 923 INTER-LIGAND FREE ENERGY PREDICTED BY IDOCK:   -7.49 KCAL/MOL
REMARK 924 INTRA-LIGAND FREE ENERGY PREDICTED BY IDOCK:   -0.73 KCAL/MOL
REMARK 927      BINDING AFFINITY PREDICTED BY RF-SCORE:    0.00 PKD
ROOT
HETATM    1  O   UNL     1     -10.560  12.697  66.516  1.00  0.00    -0.249 OA 
HETATM    2  C   UNL     1     -11.455  12.529  67.508  1.00  0.00    -0.336 C  
HETATM    3  C   UNL     1     -11.507  13.630  68.511  1.00  0.00    -0.347 A  
HETATM    4  O   UNL     1     -12.129  11.517  67.620  1.00  0.00    -0.623 OA 
HETATM    5  C   UNL     1     -11.923  13.278  69.804  1.00  0.00    -0.391 A  
HETATM    6  C   UNL     1     -12.065  14.248  70.796  1.00  0.00    -0.418 A  
HETATM    7  C   UNL     1     -11.804  15.584  70.504  1.00  0.00    -0.388 A  
HETATM    8  C   UNL     1     -11.388  15.950  69.224  1.00  0.00    -0.355 A  
HETATM    9  C   UNL     1     -11.225  14.976  68.228  1.00  0.00    -0.299 A  
ENDROOT
BRANCH   9  10
HETATM   10  O   UNL     1     -10.899  15.339  66.902  1.00  0.00    -0.310 OA 
BRANCH  10  11
HETATM   11  C   UNL     1      -9.645  15.882  66.678  1.00  0.00    -0.246 C  
HETATM   12  O   UNL     1      -8.611  15.229  66.665  1.00  0.00    -0.262 OA 
BRANCH  11  13
HETATM   13  C   UNL     1      -9.699  17.369  66.631  1.00  0.00    -0.296 A  
HETATM   14  C   UNL     1      -8.992  18.067  67.625  1.00  0.00    -0.251 A  
HETATM   15  C   UNL     1      -9.132  19.451  67.749  1.00  0.00    -0.373 A  
HETATM   16  C   UNL     1      -9.963  20.148  66.873  1.00  0.00    -0.600 A  
HETATM   17  C   UNL     1     -10.633  19.469  65.855  1.00  0.00    -0.572 A  
HETATM   18  C   UNL     1     -10.498  18.085  65.732  1.00  0.00    -0.198 A  
HETATM   19  O   UNL     1     -11.153  17.440  64.722  1.00  0.00    -0.973 OA 
HETATM   20  H   UNL     1     -11.695  17.926  64.111  1.00  0.00     0.000 HD 
ENDBRANCH  11  13
ENDBRANCH  10  11
ENDBRANCH   9  10
TORSDOF 3
ENDMDL
MODEL       21
REMARK 921   NORMALIZED FREE ENERGY PREDICTED BY IDOCK:   -6.67 KCAL/MOL
REMARK 922        TOTAL FREE ENERGY PREDICTED BY IDOCK:   -8.19 KCAL/MOL
REMARK 923 INTER-LIGAND FREE ENERGY PREDICTED BY IDOCK:   -7.43 KCAL/MOL
REMARK 924 INTRA-LIGAND FREE ENERGY PREDICTED BY IDOCK:   -0.76 KCAL/MOL
REMARK 927      BINDING AFFINITY PREDICTED BY RF-SCORE:    0.00 PKD
ROOT
HETATM    1  O   UNL     1     -13.112  12.600  65.063  1.00  0.00    -0.808 OA 
HETATM    2  C   UNL     1     -12.043  13.262  64.581  1.00  0.00    -0.408 C  
HETATM    3  C   UNL     1     -11.491  14.318  65.477  1.00  0.00    -0.329 A  
HETATM    4  O   UNL     1     -11.596  13.063  63.462  1.00  0.00    -0.467 OA 
HETATM    5  C   UNL     1     -10.832  15.386  64.852  1.00  0.00    -0.445 A  
HETATM    6  C   UNL     1     -10.227  16.391  65.607  1.00  0.00    -0.349 A  
HETATM    7  C   UNL     1     -10.263  16.332  66.997  1.00  0.00    -0.280 A  
HETATM    8  C   UNL     1     -10.917  15.278  67.635  1.00  0.00    -0.311 A  
HETATM    9  C   UNL     1     -11.543  14.275  66.880  1.00  0.00    -0.387 A  
ENDROOT
BRANCH   9  10
HETATM   10  O   UNL     1     -12.125  13.150  67.505  1.00  0.00    -0.339 OA 
BRANCH  10  11
HETATM   11  C   UNL     1     -11.401  12.535  68.514  1.00  0.00    -0.297 C  
HETATM   12  O   UNL     1     -10.324  11.981  68.341  1.00  0.00    -0.204 OA 
BRANCH  11  13
HETATM   13  C   UNL     1     -12.177  12.483  69.784  1.00  0.00    -0.199 A  
HETATM   14  C   UNL     1     -12.524  13.711  70.372  1.00  0.00    -0.364 A  
HETATM   15  C   UNL     1     -13.100  13.746  71.643  1.00  0.00    -0.456 A  
HETATM   16  C   UNL     1     -13.348  12.558  72.327  1.00  0.00    -0.475 A  
HETATM   17  C   UNL     1     -13.049  11.331  71.732  1.00  0.00    -0.527 A  
HETATM   18  C   UNL     1     -12.469  11.295  70.463  1.00  0.00    -0.310 A  
HETATM   19  O   UNL     1     -12.194  10.085  69.893  1.00  0.00    -0.481 OA 
HETATM   20  H   UNL     1     -12.392   9.278  70.354  1.00  0.00     0.000 HD 
ENDBRANCH  11  13
ENDBRANCH  10  11
ENDBRANCH   9  10
TORSDOF 3
ENDMDL
MODEL       22
REMARK 921   NORMALIZED FREE ENERGY PREDICTED BY IDOCK:   -6.65 KCAL/MOL
REMARK 922        TOTAL FREE ENERGY PREDICTED BY IDOCK:   -8.16 KCAL/MOL
REMARK 923 INTER-LIGAND FREE ENERGY PREDICTED BY IDOCK:   -7.69 KCAL/MOL
REMARK 924 INTRA-LIGAND FREE ENERGY PREDICTED BY IDOCK:   -0.47 KCAL/MOL
REMARK 927      BINDING AFFINITY PREDICTED BY RF-SCORE:    0.00 PKD
ROOT
HETATM    1  O   UNL     1     -11.527  10.629  70.803  1.00  0.00    -0.327 OA 
HETATM    2  C   UNL     1     -12.661  11.117  71.340  1.00  0.00    -0.418 C  
HETATM    3  C   UNL     1     -12.806  12.600  71.281  1.00  0.00    -0.344 A  
HETATM    4  O   UNL     1     -13.484  10.408  71.898  1.00  0.00    -0.372 OA 
HETATM    5  C   UNL     1     -13.586  13.192  72.285  1.00  0.00    -0.677 A  
HETATM    6  C   UNL     1     -13.833  14.565  72.279  1.00  0.00    -0.587 A  
HETATM    7  C   UNL     1     -13.312  15.360  71.263  1.00  0.00    -0.598 A  
HETATM    8  C   UNL     1     -12.532  14.788  70.258  1.00  0.00    -0.393 A  
HETATM    9  C   UNL     1     -12.265  13.411  70.270  1.00  0.00    -0.335 A  
ENDROOT
BRANCH   9  10
HETATM   10  O   UNL     1     -11.561  12.798  69.210  1.00  0.00    -0.282 OA 
BRANCH  10  11
HETATM   11  C   UNL     1     -10.721  13.599  68.453  1.00  0.00    -0.258 C  
HETATM   12  O   UNL     1      -9.871  14.338  68.929  1.00  0.00    -0.213 OA 
BRANCH  11  13
HETATM   13  C   UNL     1     -11.102  13.574  67.014  1.00  0.00    -0.310 A  
HETATM   14  C   UNL     1     -11.026  14.789  66.311  1.00  0.00    -0.330 A  
HETATM   15  C   UNL     1     -11.525  14.884  65.011  1.00  0.00    -0.379 A  
HETATM   16  C   UNL     1     -12.088  13.765  64.399  1.00  0.00    -0.474 A  
HETATM   17  C   UNL     1     -12.127  12.544  65.072  1.00  0.00    -0.504 A  
HETATM   18  C   UNL     1     -11.632  12.448  66.374  1.00  0.00    -0.384 A  
HETATM   19  O   UNL     1     -11.669  11.242  67.012  1.00  0.00    -0.503 OA 
HETATM   20  H   UNL     1     -12.029  10.477  66.577  1.00  0.00     0.000 HD 
ENDBRANCH  11  13
ENDBRANCH  10  11
ENDBRANCH   9  10
TORSDOF 3
ENDMDL
MODEL       23
REMARK 921   NORMALIZED FREE ENERGY PREDICTED BY IDOCK:   -6.64 KCAL/MOL
REMARK 922        TOTAL FREE ENERGY PREDICTED BY IDOCK:   -8.15 KCAL/MOL
REMARK 923 INTER-LIGAND FREE ENERGY PREDICTED BY IDOCK:   -7.50 KCAL/MOL
REMARK 924 INTRA-LIGAND FREE ENERGY PREDICTED BY IDOCK:   -0.65 KCAL/MOL
REMARK 927      BINDING AFFINITY PREDICTED BY RF-SCORE:    0.00 PKD
ROOT
HETATM    1  O   UNL     1     -11.281  14.218  68.145  1.00  0.00    -0.255 OA 
HETATM    2  C   UNL     1     -11.645  15.117  69.080  1.00  0.00    -0.330 C  
HETATM    3  C   UNL     1     -12.429  14.565  70.221  1.00  0.00    -0.405 A  
HETATM    4  O   UNL     1     -11.412  16.311  68.970  1.00  0.00    -0.328 OA 
HETATM    5  C   UNL     1     -13.310  15.450  70.861  1.00  0.00    -0.476 A  
HETATM    6  C   UNL     1     -14.040  15.046  71.978  1.00  0.00    -0.633 A  
HETATM    7  C   UNL     1     -13.889  13.756  72.478  1.00  0.00    -0.626 A  
HETATM    8  C   UNL     1     -13.019  12.862  71.852  1.00  0.00    -0.405 A  
HETATM    9  C   UNL     1     -12.297  13.258  70.717  1.00  0.00    -0.344 A  
ENDROOT
BRANCH   9  10
HETATM   10  O   UNL     1     -11.339  12.401  70.129  1.00  0.00    -0.036 OA 
BRANCH  10  11
HETATM   11  C   UNL     1     -11.798  11.218  69.571  1.00  0.00    -0.357 C  
HETATM   12  O   UNL     1     -12.402  11.154  68.510  1.00  0.00    -0.561 OA 
BRANCH  11  13
HETATM   13  C   UNL     1     -11.614  10.072  70.504  1.00  0.00    -0.403 A  
HETATM   14  C   UNL     1     -12.771   9.540  71.099  1.00  0.00    -0.371 A  
HETATM   15  C   UNL     1     -12.667   8.582  72.109  1.00  0.00    -0.423 A  
HETATM   16  C   UNL     1     -11.411   8.137  72.520  1.00  0.00    -0.470 A  
HETATM   17  C   UNL     1     -10.259   8.627  71.903  1.00  0.00    -0.404 A  
HETATM   18  C   UNL     1     -10.361   9.589  70.896  1.00  0.00    -0.302 A  
HETATM   19  O   UNL     1      -9.222  10.047  70.298  1.00  0.00    -0.373 OA 
HETATM   20  H   UNL     1      -8.371   9.718  70.564  1.00  0.00     0.000 HD 
ENDBRANCH  11  13
ENDBRANCH  10  11
ENDBRANCH   9  10
TORSDOF 3
ENDMDL
MODEL       24
REMARK 921   NORMALIZED FREE ENERGY PREDICTED BY IDOCK:   -6.61 KCAL/MOL
REMARK 922        TOTAL FREE ENERGY PREDICTED BY IDOCK:   -8.11 KCAL/MOL
REMARK 923 INTER-LIGAND FREE ENERGY PREDICTED BY IDOCK:   -7.32 KCAL/MOL
REMARK 924 INTRA-LIGAND FREE ENERGY PREDICTED BY IDOCK:   -0.80 KCAL/MOL
REMARK 927      BINDING AFFINITY PREDICTED BY RF-SCORE:    0.00 PKD
ROOT
HETATM    1  O   UNL     1     -11.378  14.014  68.960  1.00  0.00    -0.251 OA 
HETATM    2  C   UNL     1     -11.097  12.995  68.124  1.00  0.00    -0.256 C  
HETATM    3  C   UNL     1     -11.439  13.234  66.693  1.00  0.00    -0.384 A  
HETATM    4  O   UNL     1     -10.659  11.926  68.516  1.00  0.00    -0.209 OA 
HETATM    5  C   UNL     1     -11.739  12.100  65.924  1.00  0.00    -0.393 A  
HETATM    6  C   UNL     1     -12.009  12.214  64.560  1.00  0.00    -0.415 A  
HETATM    7  C   UNL     1     -11.971  13.462  63.947  1.00  0.00    -0.520 A  
HETATM    8  C   UNL     1     -11.678  14.601  64.697  1.00  0.00    -0.431 A  
HETATM    9  C   UNL     1     -11.424  14.494  66.072  1.00  0.00    -0.348 A  
ENDROOT
BRANCH   9  10
HETATM   10  O   UNL     1     -11.029  15.620  66.828  1.00  0.00    -0.310 OA 
BRANCH  10  11
HETATM   11  C   UNL     1      -9.747  16.106  66.629  1.00  0.00    -0.244 C  
HETATM   12  O   UNL     1      -8.754  15.398  66.545  1.00  0.00    -0.279 OA 
BRANCH  11  13
HETATM   13  C   UNL     1      -9.714  17.593  66.705  1.00  0.00    -0.304 A  
HETATM   14  C   UNL     1      -8.982  18.163  67.760  1.00  0.00    -0.266 A  
HETATM   15  C   UNL     1      -9.042  19.538  67.997  1.00  0.00    -0.386 A  
HETATM   16  C   UNL     1      -9.819  20.353  67.175  1.00  0.00    -0.601 A  
HETATM   17  C   UNL     1     -10.512  19.802  66.097  1.00  0.00    -0.613 A  
HETATM   18  C   UNL     1     -10.456  18.426  65.861  1.00  0.00    -0.321 A  
HETATM   19  O   UNL     1     -11.133  17.907  64.794  1.00  0.00    -0.785 OA 
HETATM   20  H   UNL     1     -11.638  18.473  64.221  1.00  0.00     0.000 HD 
ENDBRANCH  11  13
ENDBRANCH  10  11
ENDBRANCH   9  10
TORSDOF 3
ENDMDL
MODEL       25
REMARK 921   NORMALIZED FREE ENERGY PREDICTED BY IDOCK:   -6.59 KCAL/MOL
REMARK 922        TOTAL FREE ENERGY PREDICTED BY IDOCK:   -8.09 KCAL/MOL
REMARK 923 INTER-LIGAND FREE ENERGY PREDICTED BY IDOCK:   -7.19 KCAL/MOL
REMARK 924 INTRA-LIGAND FREE ENERGY PREDICTED BY IDOCK:   -0.90 KCAL/MOL
REMARK 927      BINDING AFFINITY PREDICTED BY RF-SCORE:    0.00 PKD
ROOT
HETATM    1  O   UNL     1     -11.633  10.469  67.996  1.00  0.00    -0.442 OA 
HETATM    2  C   UNL     1     -10.738  10.767  67.035  1.00  0.00    -0.265 C  
HETATM    3  C   UNL     1     -11.080  11.948  66.192  1.00  0.00    -0.374 A  
HETATM    4  O   UNL     1      -9.750  10.082  66.821  1.00  0.00    -0.174 OA 
HETATM    5  C   UNL     1     -10.570  11.951  64.885  1.00  0.00    -0.333 A  
HETATM    6  C   UNL     1     -10.782  13.040  64.040  1.00  0.00    -0.387 A  
HETATM    7  C   UNL     1     -11.496  14.144  64.495  1.00  0.00    -0.380 A  
HETATM    8  C   UNL     1     -12.013  14.156  65.790  1.00  0.00    -0.410 A  
HETATM    9  C   UNL     1     -11.819  13.055  66.638  1.00  0.00    -0.393 A  
ENDROOT
BRANCH   9  10
HETATM   10  O   UNL     1     -12.249  13.089  67.983  1.00  0.00    -0.240 OA 
BRANCH  10  11
HETATM   11  C   UNL     1     -11.566  13.924  68.852  1.00  0.00    -0.316 C  
HETATM   12  O   UNL     1     -10.431  14.333  68.654  1.00  0.00    -0.238 OA 
BRANCH  11  13
HETATM   13  C   UNL     1     -12.318  14.115  70.123  1.00  0.00    -0.413 A  
HETATM   14  C   UNL     1     -12.627  15.435  70.492  1.00  0.00    -0.471 A  
HETATM   15  C   UNL     1     -13.177  15.706  71.746  1.00  0.00    -0.548 A  
HETATM   16  C   UNL     1     -13.436  14.662  72.633  1.00  0.00    -0.580 A  
HETATM   17  C   UNL     1     -13.175  13.344  72.258  1.00  0.00    -0.570 A  
HETATM   18  C   UNL     1     -12.621  13.071  71.005  1.00  0.00    -0.299 A  
HETATM   19  O   UNL     1     -12.382  11.774  70.652  1.00  0.00    -0.358 OA 
HETATM   20  H   UNL     1     -12.588  11.065  71.251  1.00  0.00     0.000 HD 
ENDBRANCH  11  13
ENDBRANCH  10  11
ENDBRANCH   9  10
TORSDOF 3
ENDMDL
MODEL       26
REMARK 921   NORMALIZED FREE ENERGY PREDICTED BY IDOCK:   -6.58 KCAL/MOL
REMARK 922        TOTAL FREE ENERGY PREDICTED BY IDOCK:   -8.08 KCAL/MOL
REMARK 923 INTER-LIGAND FREE ENERGY PREDICTED BY IDOCK:   -7.25 KCAL/MOL
REMARK 924 INTRA-LIGAND FREE ENERGY PREDICTED BY IDOCK:   -0.83 KCAL/MOL
REMARK 927      BINDING AFFINITY PREDICTED BY RF-SCORE:    0.00 PKD
ROOT
HETATM    1  O   UNL     1      -9.464   9.204  70.956  1.00  0.00    -0.252 OA 
HETATM    2  C   UNL     1     -10.272   8.215  70.528  1.00  0.00    -0.198 C  
HETATM    3  C   UNL     1     -11.668   8.264  71.049  1.00  0.00    -0.293 A  
HETATM    4  O   UNL     1      -9.876   7.303  69.819  1.00  0.00    -0.175 OA 
HETATM    5  C   UNL     1     -12.341   7.038  71.150  1.00  0.00    -0.423 A  
HETATM    6  C   UNL     1     -13.671   6.986  71.567  1.00  0.00    -0.355 A  
HETATM    7  C   UNL     1     -14.348   8.162  71.876  1.00  0.00    -0.566 A  
HETATM    8  C   UNL     1     -13.693   9.390  71.784  1.00  0.00    -0.418 A  
HETATM    9  C   UNL     1     -12.349   9.445  71.384  1.00  0.00    -0.357 A  
ENDROOT
BRANCH   9  10
HETATM   10  O   UNL     1     -11.699  10.684  71.191  1.00  0.00    -0.305 OA 
BRANCH  10  11
HETATM   11  C   UNL     1     -12.228  11.542  70.240  1.00  0.00    -0.332 C  
HETATM   12  O   UNL     1     -12.290  11.285  69.047  1.00  0.00    -0.446 OA 
BRANCH  11  13
HETATM   13  C   UNL     1     -12.547  12.872  70.829  1.00  0.00    -0.314 A  
HETATM   14  C   UNL     1     -13.165  12.881  72.091  1.00  0.00    -0.552 A  
HETATM   15  C   UNL     1     -13.647  14.075  72.632  1.00  0.00    -0.623 A  
HETATM   16  C   UNL     1     -13.502  15.267  71.925  1.00  0.00    -0.547 A  
HETATM   17  C   UNL     1     -12.849  15.276  70.692  1.00  0.00    -0.462 A  
HETATM   18  C   UNL     1     -12.370  14.082  70.148  1.00  0.00    -0.345 A  
HETATM   19  O   UNL     1     -11.724  14.112  68.945  1.00  0.00    -0.292 OA 
HETATM   20  H   UNL     1     -11.604  14.933  68.482  1.00  0.00     0.000 HD 
ENDBRANCH  11  13
ENDBRANCH  10  11
ENDBRANCH   9  10
TORSDOF 3
ENDMDL
MODEL       27
REMARK 921   NORMALIZED FREE ENERGY PREDICTED BY IDOCK:   -6.57 KCAL/MOL
REMARK 922        TOTAL FREE ENERGY PREDICTED BY IDOCK:   -8.07 KCAL/MOL
REMARK 923 INTER-LIGAND FREE ENERGY PREDICTED BY IDOCK:   -7.23 KCAL/MOL
REMARK 924 INTRA-LIGAND FREE ENERGY PREDICTED BY IDOCK:   -0.84 KCAL/MOL
REMARK 927      BINDING AFFINITY PREDICTED BY RF-SCORE:    0.00 PKD
ROOT
HETATM    1  O   UNL     1     -10.391   9.260  66.471  1.00  0.00    -0.258 OA 
HETATM    2  C   UNL     1      -9.886  10.087  65.536  1.00  0.00    -0.303 C  
HETATM    3  C   UNL     1     -10.745  11.254  65.187  1.00  0.00    -0.312 A  
HETATM    4  O   UNL     1      -8.831   9.864  64.962  1.00  0.00    -0.162 OA 
HETATM    5  C   UNL     1     -10.599  11.772  63.891  1.00  0.00    -0.445 A  
HETATM    6  C   UNL     1     -11.312  12.902  63.491  1.00  0.00    -0.408 A  
HETATM    7  C   UNL     1     -12.171  13.534  64.385  1.00  0.00    -0.440 A  
HETATM    8  C   UNL     1     -12.330  13.030  65.675  1.00  0.00    -0.504 A  
HETATM    9  C   UNL     1     -11.630  11.883  66.077  1.00  0.00    -0.227 A  
ENDROOT
BRANCH   9  10
HETATM   10  O   UNL     1     -11.702  11.416  67.408  1.00  0.00    -0.574 OA 
BRANCH  10  11
HETATM   11  C   UNL     1     -11.060  12.162  68.383  1.00  0.00    -0.245 C  
HETATM   12  O   UNL     1      -9.899  12.536  68.303  1.00  0.00    -0.222 OA 
BRANCH  11  13
HETATM   13  C   UNL     1     -11.903  12.299  69.603  1.00  0.00    -0.393 A  
HETATM   14  C   UNL     1     -12.116  13.599  70.092  1.00  0.00    -0.431 A  
HETATM   15  C   UNL     1     -12.750  13.796  71.320  1.00  0.00    -0.450 A  
HETATM   16  C   UNL     1     -13.189  12.699  72.060  1.00  0.00    -0.531 A  
HETATM   17  C   UNL     1     -13.023  11.407  71.561  1.00  0.00    -0.505 A  
HETATM   18  C   UNL     1     -12.385  11.208  70.335  1.00  0.00    -0.344 A  
HETATM   19  O   UNL     1     -12.242   9.936  69.859  1.00  0.00    -0.476 OA 
HETATM   20  H   UNL     1     -12.570   9.195  70.356  1.00  0.00     0.000 HD 
ENDBRANCH  11  13
ENDBRANCH  10  11
ENDBRANCH   9  10
TORSDOF 3
ENDMDL
MODEL       28
REMARK 921   NORMALIZED FREE ENERGY PREDICTED BY IDOCK:   -6.56 KCAL/MOL
REMARK 922        TOTAL FREE ENERGY PREDICTED BY IDOCK:   -8.06 KCAL/MOL
REMARK 923 INTER-LIGAND FREE ENERGY PREDICTED BY IDOCK:   -7.16 KCAL/MOL
REMARK 924 INTRA-LIGAND FREE ENERGY PREDICTED BY IDOCK:   -0.90 KCAL/MOL
REMARK 927      BINDING AFFINITY PREDICTED BY RF-SCORE:    0.00 PKD
ROOT
HETATM    1  O   UNL     1     -10.966  18.121  67.087  1.00  0.00    -0.263 OA 
HETATM    2  C   UNL     1     -10.508  17.717  68.287  1.00  0.00    -0.375 C  
HETATM    3  C   UNL     1     -11.090  16.441  68.793  1.00  0.00    -0.337 A  
HETATM    4  O   UNL     1      -9.725  18.379  68.949  1.00  0.00    -0.341 OA 
HETATM    5  C   UNL     1     -11.138  16.284  70.186  1.00  0.00    -0.346 A  
HETATM    6  C   UNL     1     -11.606  15.100  70.755  1.00  0.00    -0.361 A  
HETATM    7  C   UNL     1     -12.020  14.053  69.937  1.00  0.00    -0.399 A  
HETATM    8  C   UNL     1     -11.982  14.193  68.550  1.00  0.00    -0.367 A  
HETATM    9  C   UNL     1     -11.530  15.389  67.973  1.00  0.00    -0.326 A  
ENDROOT
BRANCH   9  10
HETATM   10  O   UNL     1     -11.391  15.513  66.573  1.00  0.00    -0.185 OA 
BRANCH  10  11
HETATM   11  C   UNL     1     -10.339  14.841  65.973  1.00  0.00    -0.305 C  
HETATM   12  O   UNL     1      -9.175  15.212  66.023  1.00  0.00    -0.301 OA 
BRANCH  11  13
HETATM   13  C   UNL     1     -10.827  13.719  65.123  1.00  0.00    -0.349 A  
HETATM   14  C   UNL     1     -10.186  12.478  65.272  1.00  0.00    -0.302 A  
HETATM   15  C   UNL     1     -10.470  11.428  64.396  1.00  0.00    -0.388 A  
HETATM   16  C   UNL     1     -11.406  11.605  63.379  1.00  0.00    -0.380 A  
HETATM   17  C   UNL     1     -12.081  12.820  63.251  1.00  0.00    -0.524 A  
HETATM   18  C   UNL     1     -11.794  13.872  64.123  1.00  0.00    -0.385 A  
HETATM   19  O   UNL     1     -12.473  15.049  63.990  1.00  0.00    -0.931 OA 
HETATM   20  H   UNL     1     -13.130  15.153  63.311  1.00  0.00     0.000 HD 
ENDBRANCH  11  13
ENDBRANCH  10  11
ENDBRANCH   9  10
TORSDOF 3
ENDMDL
MODEL       29
REMARK 921   NORMALIZED FREE ENERGY PREDICTED BY IDOCK:   -6.56 KCAL/MOL
REMARK 922        TOTAL FREE ENERGY PREDICTED BY IDOCK:   -8.05 KCAL/MOL
REMARK 923 INTER-LIGAND FREE ENERGY PREDICTED BY IDOCK:   -7.30 KCAL/MOL
REMARK 924 INTRA-LIGAND FREE ENERGY PREDICTED BY IDOCK:   -0.75 KCAL/MOL
REMARK 927      BINDING AFFINITY PREDICTED BY RF-SCORE:    0.00 PKD
ROOT
HETATM    1  O   UNL     1     -12.376  14.239  66.650  1.00  0.00    -0.446 OA 
HETATM    2  C   UNL     1     -12.313  13.768  65.390  1.00  0.00    -0.475 C  
HETATM    3  C   UNL     1     -11.414  12.595  65.193  1.00  0.00    -0.363 A  
HETATM    4  O   UNL     1     -12.896  14.302  64.459  1.00  0.00    -0.637 OA 
HETATM    5  C   UNL     1     -10.851  12.447  63.917  1.00  0.00    -0.465 A  
HETATM    6  C   UNL     1     -10.048  11.347  63.615  1.00  0.00    -0.421 A  
HETATM    7  C   UNL     1      -9.807  10.377  64.583  1.00  0.00    -0.405 A  
HETATM    8  C   UNL     1     -10.356  10.511  65.858  1.00  0.00    -0.275 A  
HETATM    9  C   UNL     1     -11.150  11.624  66.172  1.00  0.00    -0.280 A  
ENDROOT
BRANCH   9  10
HETATM   10  O   UNL     1     -11.795  11.728  67.425  1.00  0.00    -0.590 OA 
BRANCH  10  11
HETATM   11  C   UNL     1     -10.998  11.951  68.536  1.00  0.00    -0.235 C  
HETATM   12  O   UNL     1     -10.122  12.802  68.589  1.00  0.00    -0.209 OA 
BRANCH  11  13
HETATM   13  C   UNL     1     -11.228  10.916  69.583  1.00  0.00    -0.348 A  
HETATM   14  C   UNL     1     -12.497  10.885  70.184  1.00  0.00    -0.356 A  
HETATM   15  C   UNL     1     -12.735  10.061  71.286  1.00  0.00    -0.500 A  
HETATM   16  C   UNL     1     -11.714   9.252  71.783  1.00  0.00    -0.456 A  
HETATM   17  C   UNL     1     -10.464   9.242  71.164  1.00  0.00    -0.401 A  
HETATM   18  C   UNL     1     -10.223  10.069  70.065  1.00  0.00    -0.255 A  
HETATM   19  O   UNL     1      -8.997  10.037  69.465  1.00  0.00    -0.185 OA 
HETATM   20  H   UNL     1      -8.314   9.462  69.793  1.00  0.00     0.000 HD 
ENDBRANCH  11  13
ENDBRANCH  10  11
ENDBRANCH   9  10
TORSDOF 3
ENDMDL
MODEL       30
REMARK 921   NORMALIZED FREE ENERGY PREDICTED BY IDOCK:   -6.55 KCAL/MOL
REMARK 922        TOTAL FREE ENERGY PREDICTED BY IDOCK:   -8.05 KCAL/MOL
REMARK 923 INTER-LIGAND FREE ENERGY PREDICTED BY IDOCK:   -7.27 KCAL/MOL
REMARK 924 INTRA-LIGAND FREE ENERGY PREDICTED BY IDOCK:   -0.79 KCAL/MOL
REMARK 927      BINDING AFFINITY PREDICTED BY RF-SCORE:    0.00 PKD
ROOT
HETATM    1  O   UNL     1     -13.450  15.787  70.981  1.00  0.00    -0.581 OA 
HETATM    2  C   UNL     1     -12.943  14.636  71.462  1.00  0.00    -0.339 C  
HETATM    3  C   UNL     1     -12.366  13.718  70.439  1.00  0.00    -0.423 A  
HETATM    4  O   UNL     1     -13.011  14.331  72.642  1.00  0.00    -0.420 OA 
HETATM    5  C   UNL     1     -12.385  12.350  70.745  1.00  0.00    -0.377 A  
HETATM    6  C   UNL     1     -11.811  11.417  69.880  1.00  0.00    -0.435 A  
HETATM    7  C   UNL     1     -11.202  11.844  68.704  1.00  0.00    -0.311 A  
HETATM    8  C   UNL     1     -11.177  13.201  68.383  1.00  0.00    -0.305 A  
HETATM    9  C   UNL     1     -11.769  14.140  69.240  1.00  0.00    -0.323 A  
ENDROOT
BRANCH   9  10
HETATM   10  O   UNL     1     -11.668  15.526  68.981  1.00  0.00    -0.346 OA 
BRANCH  10  11
HETATM   11  C   UNL     1     -10.421  16.113  69.123  1.00  0.00    -0.265 C  
HETATM   12  O   UNL     1      -9.588  15.755  69.942  1.00  0.00    -0.226 OA 
BRANCH  11  13
HETATM   13  C   UNL     1     -10.299  17.334  68.279  1.00  0.00    -0.361 A  
HETATM   14  C   UNL     1     -10.103  18.555  68.945  1.00  0.00    -0.348 A  
HETATM   15  C   UNL     1     -10.149  19.759  68.239  1.00  0.00    -0.575 A  
HETATM   16  C   UNL     1     -10.372  19.750  66.863  1.00  0.00    -0.601 A  
HETATM   17  C   UNL     1     -10.522  18.539  66.185  1.00  0.00    -0.447 A  
HETATM   18  C   UNL     1     -10.481  17.335  66.891  1.00  0.00    -0.272 A  
HETATM   19  O   UNL     1     -10.619  16.160  66.209  1.00  0.00    -0.310 OA 
HETATM   20  H   UNL     1     -10.743  16.161  65.267  1.00  0.00     0.000 HD 
ENDBRANCH  11  13
ENDBRANCH  10  11
ENDBRANCH   9  10
TORSDOF 3
ENDMDL
MODEL       31
REMARK 921   NORMALIZED FREE ENERGY PREDICTED BY IDOCK:   -6.53 KCAL/MOL
REMARK 922        TOTAL FREE ENERGY PREDICTED BY IDOCK:   -8.03 KCAL/MOL
REMARK 923 INTER-LIGAND FREE ENERGY PREDICTED BY IDOCK:   -7.28 KCAL/MOL
REMARK 924 INTRA-LIGAND FREE ENERGY PREDICTED BY IDOCK:   -0.75 KCAL/MOL
REMARK 927      BINDING AFFINITY PREDICTED BY RF-SCORE:    0.00 PKD
ROOT
HETATM    1  O   UNL     1     -11.214  18.713  67.499  1.00  0.00    -0.162 OA 
HETATM    2  C   UNL     1     -10.161  19.327  66.927  1.00  0.00    -0.374 C  
HETATM    3  C   UNL     1      -8.925  18.501  66.819  1.00  0.00    -0.293 A  
HETATM    4  O   UNL     1     -10.190  20.499  66.584  1.00  0.00    -0.357 OA 
HETATM    5  C   UNL     1      -7.706  19.197  66.814  1.00  0.00    -0.259 A  
HETATM    6  C   UNL     1      -6.498  18.518  66.653  1.00  0.00    -0.209 A  
HETATM    7  C   UNL     1      -6.495  17.137  66.483  1.00  0.00    -0.268 A  
HETATM    8  C   UNL     1      -7.697  16.430  66.488  1.00  0.00    -0.295 A  
HETATM    9  C   UNL     1      -8.913  17.105  66.669  1.00  0.00    -0.253 A  
ENDROOT
BRANCH   9  10
HETATM   10  O   UNL     1     -10.146  16.420  66.580  1.00  0.00    -0.270 OA 
BRANCH  10  11
HETATM   11  C   UNL     1     -10.625  16.131  65.312  1.00  0.00    -0.369 C  
HETATM   12  O   UNL     1     -10.953  16.980  64.496  1.00  0.00    -1.031 OA 
BRANCH  11  13
HETATM   13  C   UNL     1     -10.851  14.669  65.140  1.00  0.00    -0.414 A  
HETATM   14  C   UNL     1     -10.018  13.803  65.869  1.00  0.00    -0.308 A  
HETATM   15  C   UNL     1     -10.054  12.427  65.634  1.00  0.00    -0.277 A  
HETATM   16  C   UNL     1     -10.931  11.906  64.683  1.00  0.00    -0.370 A  
HETATM   17  C   UNL     1     -11.794  12.754  63.987  1.00  0.00    -0.506 A  
HETATM   18  C   UNL     1     -11.756  14.130  64.218  1.00  0.00    -0.345 A  
HETATM   19  O   UNL     1     -12.616  14.942  63.536  1.00  0.00    -0.920 OA 
HETATM   20  H   UNL     1     -13.230  14.577  62.910  1.00  0.00     0.000 HD 
ENDBRANCH  11  13
ENDBRANCH  10  11
ENDBRANCH   9  10
TORSDOF 3
ENDMDL
MODEL       32
REMARK 921   NORMALIZED FREE ENERGY PREDICTED BY IDOCK:   -6.51 KCAL/MOL
REMARK 922        TOTAL FREE ENERGY PREDICTED BY IDOCK:   -8.00 KCAL/MOL
REMARK 923 INTER-LIGAND FREE ENERGY PREDICTED BY IDOCK:   -7.55 KCAL/MOL
REMARK 924 INTRA-LIGAND FREE ENERGY PREDICTED BY IDOCK:   -0.45 KCAL/MOL
REMARK 927      BINDING AFFINITY PREDICTED BY RF-SCORE:    0.00 PKD
ROOT
HETATM    1  O   UNL     1     -11.096  17.042  64.548  1.00  0.00    -1.098 OA 
HETATM    2  C   UNL     1     -10.441  17.380  65.675  1.00  0.00    -0.165 C  
HETATM    3  C   UNL     1     -10.805  16.586  66.883  1.00  0.00    -0.083 A  
HETATM    4  O   UNL     1      -9.655  18.313  65.725  1.00  0.00    -0.478 OA 
HETATM    5  C   UNL     1     -10.650  17.227  68.122  1.00  0.00    -0.386 A  
HETATM    6  C   UNL     1     -10.904  16.547  69.313  1.00  0.00    -0.326 A  
HETATM    7  C   UNL     1     -11.304  15.214  69.281  1.00  0.00    -0.313 A  
HETATM    8  C   UNL     1     -11.466  14.563  68.058  1.00  0.00    -0.345 A  
HETATM    9  C   UNL     1     -11.230  15.248  66.857  1.00  0.00    -0.256 A  
ENDROOT
BRANCH   9  10
HETATM   10  O   UNL     1     -11.293  14.579  65.614  1.00  0.00    -0.326 OA 
BRANCH  10  11
HETATM   11  C   UNL     1     -12.170  13.512  65.507  1.00  0.00    -0.451 C  
HETATM   12  O   UNL     1     -13.379  13.603  65.666  1.00  0.00    -0.480 OA 
BRANCH  11  13
HETATM   13  C   UNL     1     -11.439  12.224  65.348  1.00  0.00    -0.402 A  
HETATM   14  C   UNL     1     -11.207  11.473  66.513  1.00  0.00    -0.324 A  
HETATM   15  C   UNL     1     -10.385  10.345  66.471  1.00  0.00    -0.287 A  
HETATM   16  C   UNL     1      -9.805   9.951  65.267  1.00  0.00    -0.373 A  
HETATM   17  C   UNL     1     -10.067  10.664  64.096  1.00  0.00    -0.402 A  
HETATM   18  C   UNL     1     -10.885  11.795  64.137  1.00  0.00    -0.360 A  
HETATM   19  O   UNL     1     -11.139  12.473  62.979  1.00  0.00    -0.695 OA 
HETATM   20  H   UNL     1     -10.762  12.181  62.157  1.00  0.00     0.000 HD 
ENDBRANCH  11  13
ENDBRANCH  10  11
ENDBRANCH   9  10
TORSDOF 3
ENDMDL
MODEL       33
REMARK 921   NORMALIZED FREE ENERGY PREDICTED BY IDOCK:   -6.50 KCAL/MOL
REMARK 922        TOTAL FREE ENERGY PREDICTED BY IDOCK:   -7.99 KCAL/MOL
REMARK 923 INTER-LIGAND FREE ENERGY PREDICTED BY IDOCK:   -7.65 KCAL/MOL
REMARK 924 INTRA-LIGAND FREE ENERGY PREDICTED BY IDOCK:   -0.34 KCAL/MOL
REMARK 927      BINDING AFFINITY PREDICTED BY RF-SCORE:    0.00 PKD
ROOT
HETATM    1  O   UNL     1     -11.782  15.782  68.456  1.00  0.00    -0.383 OA 
HETATM    2  C   UNL     1     -11.841  14.458  68.217  1.00  0.00    -0.326 C  
HETATM    3  C   UNL     1     -11.662  14.061  66.791  1.00  0.00    -0.430 A  
HETATM    4  O   UNL     1     -12.090  13.643  69.091  1.00  0.00    -0.345 OA 
HETATM    5  C   UNL     1     -12.280  12.866  66.394  1.00  0.00    -0.301 A  
HETATM    6  C   UNL     1     -12.120  12.377  65.097  1.00  0.00    -0.464 A  
HETATM    7  C   UNL     1     -11.330  13.071  64.186  1.00  0.00    -0.442 A  
HETATM    8  C   UNL     1     -10.710  14.263  64.564  1.00  0.00    -0.280 A  
HETATM    9  C   UNL     1     -10.884  14.768  65.861  1.00  0.00    -0.330 A  
ENDROOT
BRANCH   9  10
HETATM   10  O   UNL     1     -10.188  15.919  66.292  1.00  0.00    -0.280 OA 
BRANCH  10  11
HETATM   11  C   UNL     1     -10.513  17.125  65.691  1.00  0.00    -0.197 C  
HETATM   12  O   UNL     1     -11.145  17.220  64.649  1.00  0.00    -1.052 OA 
BRANCH  11  13
HETATM   13  C   UNL     1      -9.850  18.268  66.378  1.00  0.00    -0.358 A  
HETATM   14  C   UNL     1     -10.676  19.146  67.101  1.00  0.00    -0.567 A  
HETATM   15  C   UNL     1     -10.156  20.329  67.628  1.00  0.00    -0.515 A  
HETATM   16  C   UNL     1      -8.807  20.636  67.452  1.00  0.00    -0.331 A  
HETATM   17  C   UNL     1      -7.970  19.748  66.776  1.00  0.00    -0.323 A  
HETATM   18  C   UNL     1      -8.489  18.566  66.244  1.00  0.00    -0.207 A  
HETATM   19  O   UNL     1      -7.652  17.705  65.595  1.00  0.00    -0.521 OA 
HETATM   20  H   UNL     1      -6.728  17.908  65.504  1.00  0.00     0.000 HD 
ENDBRANCH  11  13
ENDBRANCH  10  11
ENDBRANCH   9  10
TORSDOF 3
ENDMDL
MODEL       34
REMARK 921   NORMALIZED FREE ENERGY PREDICTED BY IDOCK:   -6.48 KCAL/MOL
REMARK 922        TOTAL FREE ENERGY PREDICTED BY IDOCK:   -7.97 KCAL/MOL
REMARK 923 INTER-LIGAND FREE ENERGY PREDICTED BY IDOCK:   -7.49 KCAL/MOL
REMARK 924 INTRA-LIGAND FREE ENERGY PREDICTED BY IDOCK:   -0.48 KCAL/MOL
REMARK 927      BINDING AFFINITY PREDICTED BY RF-SCORE:    0.00 PKD
ROOT
HETATM    1  O   UNL     1     -11.090  15.651  67.378  1.00  0.00    -0.316 OA 
HETATM    2  C   UNL     1     -11.132  16.044  68.665  1.00  0.00    -0.349 C  
HETATM    3  C   UNL     1     -11.763  15.076  69.606  1.00  0.00    -0.353 A  
HETATM    4  O   UNL     1     -10.744  17.143  69.030  1.00  0.00    -0.309 OA 
HETATM    5  C   UNL     1     -12.364  15.618  70.752  1.00  0.00    -0.466 A  
HETATM    6  C   UNL     1     -12.926  14.789  71.723  1.00  0.00    -0.410 A  
HETATM    7  C   UNL     1     -12.883  13.407  71.565  1.00  0.00    -0.427 A  
HETATM    8  C   UNL     1     -12.292  12.851  70.431  1.00  0.00    -0.333 A  
HETATM    9  C   UNL     1     -11.743  13.681  69.442  1.00  0.00    -0.324 A  
ENDROOT
BRANCH   9  10
HETATM   10  O   UNL     1     -11.054  13.136  68.336  1.00  0.00    -0.242 OA 
BRANCH  10  11
HETATM   11  C   UNL     1     -11.611  12.027  67.720  1.00  0.00    -0.330 C  
HETATM   12  O   UNL     1     -11.944  11.012  68.314  1.00  0.00    -0.593 OA 
BRANCH  11  13
HETATM   13  C   UNL     1     -11.589  12.163  66.237  1.00  0.00    -0.424 A  
HETATM   14  C   UNL     1     -10.769  11.272  65.525  1.00  0.00    -0.283 A  
HETATM   15  C   UNL     1     -10.564  11.444  64.155  1.00  0.00    -0.430 A  
HETATM   16  C   UNL     1     -11.188  12.494  63.484  1.00  0.00    -0.525 A  
HETATM   17  C   UNL     1     -12.041  13.357  64.174  1.00  0.00    -0.491 A  
HETATM   18  C   UNL     1     -12.243  13.189  65.546  1.00  0.00    -0.461 A  
HETATM   19  O   UNL     1     -13.090  14.036  66.201  1.00  0.00    -0.426 OA 
HETATM   20  H   UNL     1     -13.534  14.733  65.731  1.00  0.00     0.000 HD 
ENDBRANCH  11  13
ENDBRANCH  10  11
ENDBRANCH   9  10
TORSDOF 3
ENDMDL
MODEL       35
REMARK 921   NORMALIZED FREE ENERGY PREDICTED BY IDOCK:   -6.45 KCAL/MOL
REMARK 922        TOTAL FREE ENERGY PREDICTED BY IDOCK:   -7.94 KCAL/MOL
REMARK 923 INTER-LIGAND FREE ENERGY PREDICTED BY IDOCK:   -7.06 KCAL/MOL
REMARK 924 INTRA-LIGAND FREE ENERGY PREDICTED BY IDOCK:   -0.87 KCAL/MOL
REMARK 927      BINDING AFFINITY PREDICTED BY RF-SCORE:    0.00 PKD
ROOT
HETATM    1  O   UNL     1     -13.247  12.353  64.654  1.00  0.00    -0.822 OA 
HETATM    2  C   UNL     1     -12.267  13.185  64.256  1.00  0.00    -0.396 C  
HETATM    3  C   UNL     1     -11.667  14.023  65.334  1.00  0.00    -0.344 A  
HETATM    4  O   UNL     1     -11.936  13.300  63.087  1.00  0.00    -0.476 OA 
HETATM    5  C   UNL     1     -11.127  15.256  64.940  1.00  0.00    -0.435 A  
HETATM    6  C   UNL     1     -10.488  16.083  65.864  1.00  0.00    -0.373 A  
HETATM    7  C   UNL     1     -10.371  15.681  67.191  1.00  0.00    -0.285 A  
HETATM    8  C   UNL     1     -10.905  14.459  67.600  1.00  0.00    -0.276 A  
HETATM    9  C   UNL     1     -11.565  13.633  66.679  1.00  0.00    -0.364 A  
ENDROOT
BRANCH   9  10
HETATM   10  O   UNL     1     -12.025  12.350  67.052  1.00  0.00    -0.541 OA 
BRANCH  10  11
HETATM   11  C   UNL     1     -11.076  11.356  67.224  1.00  0.00    -0.303 C  
HETATM   12  O   UNL     1     -10.339  10.955  66.336  1.00  0.00    -0.237 OA 
BRANCH  11  13
HETATM   13  C   UNL     1     -11.190  10.726  68.569  1.00  0.00    -0.340 A  
HETATM   14  C   UNL     1     -12.201  11.208  69.418  1.00  0.00    -0.329 A  
HETATM   15  C   UNL     1     -12.264  10.789  70.748  1.00  0.00    -0.480 A  
HETATM   16  C   UNL     1     -11.330   9.876  71.235  1.00  0.00    -0.404 A  
HETATM   17  C   UNL     1     -10.350   9.357  70.387  1.00  0.00    -0.318 A  
HETATM   18  C   UNL     1     -10.283   9.779  69.058  1.00  0.00    -0.203 A  
HETATM   19  O   UNL     1      -9.325   9.251  68.241  1.00  0.00    -0.134 OA 
HETATM   20  H   UNL     1      -8.709   8.608  68.573  1.00  0.00     0.000 HD 
ENDBRANCH  11  13
ENDBRANCH  10  11
ENDBRANCH   9  10
TORSDOF 3
ENDMDL
MODEL       36
REMARK 921   NORMALIZED FREE ENERGY PREDICTED BY IDOCK:   -6.45 KCAL/MOL
REMARK 922        TOTAL FREE ENERGY PREDICTED BY IDOCK:   -7.93 KCAL/MOL
REMARK 923 INTER-LIGAND FREE ENERGY PREDICTED BY IDOCK:   -7.12 KCAL/MOL
REMARK 924 INTRA-LIGAND FREE ENERGY PREDICTED BY IDOCK:   -0.81 KCAL/MOL
REMARK 927      BINDING AFFINITY PREDICTED BY RF-SCORE:    0.00 PKD
ROOT
HETATM    1  O   UNL     1     -12.553  14.575  64.425  1.00  0.00    -0.665 OA 
HETATM    2  C   UNL     1     -11.620  15.543  64.503  1.00  0.00    -0.283 C  
HETATM    3  C   UNL     1     -10.543  15.310  65.507  1.00  0.00    -0.390 A  
HETATM    4  O   UNL     1     -11.683  16.571  63.848  1.00  0.00    -1.148 OA 
HETATM    5  C   UNL     1      -9.937  16.452  66.050  1.00  0.00    -0.369 A  
HETATM    6  C   UNL     1      -8.878  16.338  66.950  1.00  0.00    -0.242 A  
HETATM    7  C   UNL     1      -8.404  15.080  67.309  1.00  0.00    -0.228 A  
HETATM    8  C   UNL     1      -8.998  13.933  66.781  1.00  0.00    -0.206 A  
HETATM    9  C   UNL     1     -10.075  14.042  65.890  1.00  0.00    -0.321 A  
ENDROOT
BRANCH   9  10
HETATM   10  O   UNL     1     -10.625  12.898  65.270  1.00  0.00    -0.284 OA 
BRANCH  10  11
HETATM   11  C   UNL     1     -11.272  11.981  66.081  1.00  0.00    -0.343 C  
HETATM   12  O   UNL     1     -12.256  12.243  66.758  1.00  0.00    -0.558 OA 
BRANCH  11  13
HETATM   13  C   UNL     1     -10.520  10.697  66.155  1.00  0.00    -0.260 A  
HETATM   14  C   UNL     1      -9.676  10.388  65.075  1.00  0.00    -0.362 A  
HETATM   15  C   UNL     1      -9.071   9.132  64.991  1.00  0.00    -0.215 A  
HETATM   16  C   UNL     1      -9.290   8.186  65.990  1.00  0.00    -0.184 A  
HETATM   17  C   UNL     1     -10.089   8.501  67.090  1.00  0.00    -0.331 A  
HETATM   18  C   UNL     1     -10.699   9.754  67.173  1.00  0.00    -0.202 A  
HETATM   19  O   UNL     1     -11.469  10.047  68.262  1.00  0.00    -0.530 OA 
HETATM   20  H   UNL     1     -11.591   9.407  68.953  1.00  0.00     0.000 HD 
ENDBRANCH  11  13
ENDBRANCH  10  11
ENDBRANCH   9  10
TORSDOF 3
ENDMDL
MODEL       37
REMARK 921   NORMALIZED FREE ENERGY PREDICTED BY IDOCK:   -6.45 KCAL/MOL
REMARK 922        TOTAL FREE ENERGY PREDICTED BY IDOCK:   -7.93 KCAL/MOL
REMARK 923 INTER-LIGAND FREE ENERGY PREDICTED BY IDOCK:   -7.33 KCAL/MOL
REMARK 924 INTRA-LIGAND FREE ENERGY PREDICTED BY IDOCK:   -0.60 KCAL/MOL
REMARK 927      BINDING AFFINITY PREDICTED BY RF-SCORE:    0.00 PKD
ROOT
HETATM    1  O   UNL     1     -11.569  14.929  65.025  1.00  0.00    -0.363 OA 
HETATM    2  C   UNL     1     -11.855  13.889  64.219  1.00  0.00    -0.412 C  
HETATM    3  C   UNL     1     -10.994  12.685  64.406  1.00  0.00    -0.386 A  
HETATM    4  O   UNL     1     -12.711  13.945  63.351  1.00  0.00    -0.806 OA 
HETATM    5  C   UNL     1     -10.824  11.860  63.285  1.00  0.00    -0.408 A  
HETATM    6  C   UNL     1     -10.089  10.677  63.375  1.00  0.00    -0.266 A  
HETATM    7  C   UNL     1      -9.526  10.301  64.591  1.00  0.00    -0.351 A  
HETATM    8  C   UNL     1      -9.683  11.112  65.714  1.00  0.00    -0.266 A  
HETATM    9  C   UNL     1     -10.406  12.311  65.624  1.00  0.00    -0.257 A  
ENDROOT
BRANCH   9  10
HETATM   10  O   UNL     1     -10.659  13.095  66.772  1.00  0.00    -0.261 OA 
BRANCH  10  11
HETATM   11  C   UNL     1     -11.532  12.582  67.716  1.00  0.00    -0.321 C  
HETATM   12  O   UNL     1     -12.108  11.509  67.602  1.00  0.00    -0.623 OA 
BRANCH  11  13
HETATM   13  C   UNL     1     -11.810  13.573  68.793  1.00  0.00    -0.390 A  
HETATM   14  C   UNL     1     -11.670  14.932  68.462  1.00  0.00    -0.338 A  
HETATM   15  C   UNL     1     -11.747  15.910  69.455  1.00  0.00    -0.331 A  
HETATM   16  C   UNL     1     -11.979  15.541  70.779  1.00  0.00    -0.420 A  
HETATM   17  C   UNL     1     -12.165  14.199  71.109  1.00  0.00    -0.435 A  
HETATM   18  C   UNL     1     -12.084  13.218  70.118  1.00  0.00    -0.333 A  
HETATM   19  O   UNL     1     -12.279  11.911  70.459  1.00  0.00    -0.362 OA 
HETATM   20  H   UNL     1     -12.465  11.670  71.360  1.00  0.00     0.000 HD 
ENDBRANCH  11  13
ENDBRANCH  10  11
ENDBRANCH   9  10
TORSDOF 3
ENDMDL
MODEL       38
REMARK 921   NORMALIZED FREE ENERGY PREDICTED BY IDOCK:   -6.41 KCAL/MOL
REMARK 922        TOTAL FREE ENERGY PREDICTED BY IDOCK:   -7.89 KCAL/MOL
REMARK 923 INTER-LIGAND FREE ENERGY PREDICTED BY IDOCK:   -7.00 KCAL/MOL
REMARK 924 INTRA-LIGAND FREE ENERGY PREDICTED BY IDOCK:   -0.89 KCAL/MOL
REMARK 927      BINDING AFFINITY PREDICTED BY RF-SCORE:    0.00 PKD
ROOT
HETATM    1  O   UNL     1     -12.071  13.724  69.607  1.00  0.00    -0.318 OA 
HETATM    2  C   UNL     1     -11.919  15.062  69.588  1.00  0.00    -0.321 C  
HETATM    3  C   UNL     1     -11.290  15.613  68.353  1.00  0.00    -0.365 A  
HETATM    4  O   UNL     1     -12.211  15.771  70.538  1.00  0.00    -0.387 OA 
HETATM    5  C   UNL     1     -10.582  16.815  68.495  1.00  0.00    -0.354 A  
HETATM    6  C   UNL     1     -10.012  17.442  67.388  1.00  0.00    -0.305 A  
HETATM    7  C   UNL     1     -10.153  16.880  66.122  1.00  0.00    -0.347 A  
HETATM    8  C   UNL     1     -10.851  15.684  65.964  1.00  0.00    -0.276 A  
HETATM    9  C   UNL     1     -11.411  15.039  67.077  1.00  0.00    -0.318 A  
ENDROOT
BRANCH   9  10
HETATM   10  O   UNL     1     -12.204  13.880  66.924  1.00  0.00    -0.424 OA 
BRANCH  10  11
HETATM   11  C   UNL     1     -12.290  13.328  65.656  1.00  0.00    -0.465 C  
HETATM   12  O   UNL     1     -13.192  13.567  64.867  1.00  0.00    -0.661 OA 
BRANCH  11  13
HETATM   13  C   UNL     1     -11.248  12.283  65.449  1.00  0.00    -0.372 A  
HETATM   14  C   UNL     1     -10.579  12.284  64.214  1.00  0.00    -0.387 A  
HETATM   15  C   UNL     1      -9.715  11.239  63.880  1.00  0.00    -0.311 A  
HETATM   16  C   UNL     1      -9.501  10.198  64.782  1.00  0.00    -0.355 A  
HETATM   17  C   UNL     1     -10.126  10.212  66.029  1.00  0.00    -0.317 A  
HETATM   18  C   UNL     1     -10.994  11.254  66.363  1.00  0.00    -0.227 A  
HETATM   19  O   UNL     1     -11.588  11.256  67.592  1.00  0.00    -0.490 OA 
HETATM   20  H   UNL     1     -11.415  10.557  68.213  1.00  0.00     0.000 HD 
ENDBRANCH  11  13
ENDBRANCH  10  11
ENDBRANCH   9  10
TORSDOF 3
ENDMDL
MODEL       39
REMARK 921   NORMALIZED FREE ENERGY PREDICTED BY IDOCK:   -6.41 KCAL/MOL
REMARK 922        TOTAL FREE ENERGY PREDICTED BY IDOCK:   -7.88 KCAL/MOL
REMARK 923 INTER-LIGAND FREE ENERGY PREDICTED BY IDOCK:   -7.22 KCAL/MOL
REMARK 924 INTRA-LIGAND FREE ENERGY PREDICTED BY IDOCK:   -0.67 KCAL/MOL
REMARK 927      BINDING AFFINITY PREDICTED BY RF-SCORE:    0.00 PKD
ROOT
HETATM    1  O   UNL     1     -13.486  15.579  70.844  1.00  0.00    -0.507 OA 
HETATM    2  C   UNL     1     -13.300  14.639  71.790  1.00  0.00    -0.360 C  
HETATM    3  C   UNL     1     -12.843  13.312  71.288  1.00  0.00    -0.398 A  
HETATM    4  O   UNL     1     -13.552  14.834  72.969  1.00  0.00    -0.526 OA 
HETATM    5  C   UNL     1     -13.198  12.195  72.059  1.00  0.00    -0.496 A  
HETATM    6  C   UNL     1     -12.764  10.918  71.706  1.00  0.00    -0.435 A  
HETATM    7  C   UNL     1     -11.960  10.742  70.584  1.00  0.00    -0.466 A  
HETATM    8  C   UNL     1     -11.600  11.841  69.804  1.00  0.00    -0.372 A  
HETATM    9  C   UNL     1     -12.049  13.126  70.144  1.00  0.00    -0.321 A  
ENDROOT
BRANCH   9  10
HETATM   10  O   UNL     1     -11.616  14.262  69.425  1.00  0.00    -0.269 OA 
BRANCH  10  11
HETATM   11  C   UNL     1     -10.484  14.126  68.638  1.00  0.00    -0.250 C  
HETATM   12  O   UNL     1      -9.346  14.321  69.041  1.00  0.00    -0.110 OA 
BRANCH  11  13
HETATM   13  C   UNL     1     -10.840  13.886  67.212  1.00  0.00    -0.292 A  
HETATM   14  C   UNL     1     -12.131  14.264  66.804  1.00  0.00    -0.446 A  
HETATM   15  C   UNL     1     -12.597  13.919  65.534  1.00  0.00    -0.560 A  
HETATM   16  C   UNL     1     -11.775  13.210  64.660  1.00  0.00    -0.404 A  
HETATM   17  C   UNL     1     -10.476  12.871  65.040  1.00  0.00    -0.337 A  
HETATM   18  C   UNL     1     -10.010  13.212  66.311  1.00  0.00    -0.285 A  
HETATM   19  O   UNL     1      -8.732  12.881  66.661  1.00  0.00    -0.382 OA 
HETATM   20  H   UNL     1      -8.167  12.422  66.048  1.00  0.00     0.000 HD 
ENDBRANCH  11  13
ENDBRANCH  10  11
ENDBRANCH   9  10
TORSDOF 3
ENDMDL
MODEL       40
REMARK 921   NORMALIZED FREE ENERGY PREDICTED BY IDOCK:   -6.38 KCAL/MOL
REMARK 922        TOTAL FREE ENERGY PREDICTED BY IDOCK:   -7.85 KCAL/MOL
REMARK 923 INTER-LIGAND FREE ENERGY PREDICTED BY IDOCK:   -7.61 KCAL/MOL
REMARK 924 INTRA-LIGAND FREE ENERGY PREDICTED BY IDOCK:   -0.24 KCAL/MOL
REMARK 927      BINDING AFFINITY PREDICTED BY RF-SCORE:    0.00 PKD
ROOT
HETATM    1  O   UNL     1     -11.205  10.963  69.992  1.00  0.00    -0.281 OA 
HETATM    2  C   UNL     1     -12.376  11.219  70.607  1.00  0.00    -0.383 C  
HETATM    3  C   UNL     1     -12.598  12.644  70.983  1.00  0.00    -0.354 A  
HETATM    4  O   UNL     1     -13.171  10.340  70.899  1.00  0.00    -0.395 OA 
HETATM    5  C   UNL     1     -13.431  12.877  72.087  1.00  0.00    -0.619 A  
HETATM    6  C   UNL     1     -13.751  14.177  72.478  1.00  0.00    -0.626 A  
HETATM    7  C   UNL     1     -13.250  15.261  71.762  1.00  0.00    -0.512 A  
HETATM    8  C   UNL     1     -12.418  15.047  70.663  1.00  0.00    -0.422 A  
HETATM    9  C   UNL     1     -12.078  13.742  70.277  1.00  0.00    -0.355 A  
ENDROOT
BRANCH   9  10
HETATM   10  O   UNL     1     -11.318  13.503  69.111  1.00  0.00    -0.260 OA 
BRANCH  10  11
HETATM   11  C   UNL     1     -11.712  14.146  67.949  1.00  0.00    -0.367 C  
HETATM   12  O   UNL     1     -12.132  15.294  67.913  1.00  0.00    -0.133 OA 
BRANCH  11  13
HETATM   13  C   UNL     1     -11.723  13.211  66.790  1.00  0.00    -0.439 A  
HETATM   14  C   UNL     1     -10.812  12.141  66.822  1.00  0.00    -0.289 A  
HETATM   15  C   UNL     1     -10.644  11.324  65.703  1.00  0.00    -0.303 A  
HETATM   16  C   UNL     1     -11.394  11.559  64.551  1.00  0.00    -0.250 A  
HETATM   17  C   UNL     1     -12.333  12.591  64.525  1.00  0.00    -0.545 A  
HETATM   18  C   UNL     1     -12.499  13.411  65.643  1.00  0.00    -0.464 A  
HETATM   19  O   UNL     1     -13.431  14.409  65.602  1.00  0.00    -0.612 OA 
HETATM   20  H   UNL     1     -13.958  14.545  64.823  1.00  0.00     0.000 HD 
ENDBRANCH  11  13
ENDBRANCH  10  11
ENDBRANCH   9  10
TORSDOF 3
ENDMDL
MODEL       41
REMARK 921   NORMALIZED FREE ENERGY PREDICTED BY IDOCK:   -6.33 KCAL/MOL
REMARK 922        TOTAL FREE ENERGY PREDICTED BY IDOCK:   -7.79 KCAL/MOL
REMARK 923 INTER-LIGAND FREE ENERGY PREDICTED BY IDOCK:   -7.01 KCAL/MOL
REMARK 924 INTRA-LIGAND FREE ENERGY PREDICTED BY IDOCK:   -0.78 KCAL/MOL
REMARK 927      BINDING AFFINITY PREDICTED BY RF-SCORE:    0.00 PKD
ROOT
HETATM    1  O   UNL     1     -11.069  14.048  68.944  1.00  0.00    -0.250 OA 
HETATM    2  C   UNL     1     -10.921  13.060  68.042  1.00  0.00    -0.250 C  
HETATM    3  C   UNL     1     -11.427  13.366  66.674  1.00  0.00    -0.376 A  
HETATM    4  O   UNL     1     -10.468  11.964  68.335  1.00  0.00    -0.203 OA 
HETATM    5  C   UNL     1     -11.850  12.273  65.904  1.00  0.00    -0.420 A  
HETATM    6  C   UNL     1     -12.281  12.450  64.589  1.00  0.00    -0.499 A  
HETATM    7  C   UNL     1     -12.283  13.722  64.024  1.00  0.00    -0.429 A  
HETATM    8  C   UNL     1     -11.868  14.821  64.776  1.00  0.00    -0.425 A  
HETATM    9  C   UNL     1     -11.452  14.650  66.105  1.00  0.00    -0.339 A  
ENDROOT
BRANCH   9  10
HETATM   10  O   UNL     1     -10.936  15.734  66.850  1.00  0.00    -0.300 OA 
BRANCH  10  11
HETATM   11  C   UNL     1      -9.672  16.193  66.519  1.00  0.00    -0.263 C  
HETATM   12  O   UNL     1      -8.754  15.468  66.162  1.00  0.00    -0.304 OA 
BRANCH  11  13
HETATM   13  C   UNL     1      -9.527  17.645  66.819  1.00  0.00    -0.285 A  
HETATM   14  C   UNL     1     -10.529  18.238  67.605  1.00  0.00    -0.431 A  
HETATM   15  C   UNL     1     -10.555  19.623  67.786  1.00  0.00    -0.530 A  
HETATM   16  C   UNL     1      -9.573  20.420  67.200  1.00  0.00    -0.587 A  
HETATM   17  C   UNL     1      -8.548  19.834  66.456  1.00  0.00    -0.396 A  
HETATM   18  C   UNL     1      -8.523  18.451  66.270  1.00  0.00    -0.196 A  
HETATM   19  O   UNL     1      -7.506  17.895  65.548  1.00  0.00    -0.524 OA 
HETATM   20  H   UNL     1      -6.824  18.443  65.175  1.00  0.00     0.000 HD 
ENDBRANCH  11  13
ENDBRANCH  10  11
ENDBRANCH   9  10
TORSDOF 3
ENDMDL
MODEL       42
REMARK 921   NORMALIZED FREE ENERGY PREDICTED BY IDOCK:   -6.30 KCAL/MOL
REMARK 922        TOTAL FREE ENERGY PREDICTED BY IDOCK:   -7.75 KCAL/MOL
REMARK 923 INTER-LIGAND FREE ENERGY PREDICTED BY IDOCK:   -7.03 KCAL/MOL
REMARK 924 INTRA-LIGAND FREE ENERGY PREDICTED BY IDOCK:   -0.72 KCAL/MOL
REMARK 927      BINDING AFFINITY PREDICTED BY RF-SCORE:    0.00 PKD
ROOT
HETATM    1  O   UNL     1     -12.668  14.118  65.888  1.00  0.00    -0.487 OA 
HETATM    2  C   UNL     1     -12.353  13.214  64.942  1.00  0.00    -0.441 C  
HETATM    3  C   UNL     1     -11.440  12.122  65.384  1.00  0.00    -0.387 A  
HETATM    4  O   UNL     1     -12.731  13.314  63.785  1.00  0.00    -0.686 OA 
HETATM    5  C   UNL     1     -10.630  11.545  64.394  1.00  0.00    -0.392 A  
HETATM    6  C   UNL     1      -9.788  10.474  64.696  1.00  0.00    -0.404 A  
HETATM    7  C   UNL     1      -9.755   9.960  65.989  1.00  0.00    -0.310 A  
HETATM    8  C   UNL     1     -10.552  10.524  66.986  1.00  0.00    -0.310 A  
HETATM    9  C   UNL     1     -11.386  11.612  66.692  1.00  0.00    -0.270 A  
ENDROOT
BRANCH   9  10
HETATM   10  O   UNL     1     -12.271  12.133  67.662  1.00  0.00    -0.462 OA 
BRANCH  10  11
HETATM   11  C   UNL     1     -11.742  12.458  68.900  1.00  0.00    -0.324 C  
HETATM   12  O   UNL     1     -11.819  11.738  69.885  1.00  0.00    -0.313 OA 
BRANCH  11  13
HETATM   13  C   UNL     1     -11.229  13.856  68.920  1.00  0.00    -0.304 A  
HETATM   14  C   UNL     1      -9.960  14.079  68.360  1.00  0.00    -0.236 A  
HETATM   15  C   UNL     1      -9.340  15.323  68.492  1.00  0.00    -0.200 A  
HETATM   16  C   UNL     1      -9.988  16.355  69.168  1.00  0.00    -0.273 A  
HETATM   17  C   UNL     1     -11.268  16.157  69.687  1.00  0.00    -0.331 A  
HETATM   18  C   UNL     1     -11.887  14.912  69.560  1.00  0.00    -0.325 A  
HETATM   19  O   UNL     1     -13.144  14.740  70.066  1.00  0.00    -0.581 OA 
HETATM   20  H   UNL     1     -13.591  15.457  70.501  1.00  0.00     0.000 HD 
ENDBRANCH  11  13
ENDBRANCH  10  11
ENDBRANCH   9  10
TORSDOF 3
ENDMDL
MODEL       43
REMARK 921   NORMALIZED FREE ENERGY PREDICTED BY IDOCK:   -6.29 KCAL/MOL
REMARK 922        TOTAL FREE ENERGY PREDICTED BY IDOCK:   -7.74 KCAL/MOL
REMARK 923 INTER-LIGAND FREE ENERGY PREDICTED BY IDOCK:   -7.09 KCAL/MOL
REMARK 924 INTRA-LIGAND FREE ENERGY PREDICTED BY IDOCK:   -0.65 KCAL/MOL
REMARK 927      BINDING AFFINITY PREDICTED BY RF-SCORE:    0.00 PKD
ROOT
HETATM    1  O   UNL     1     -13.895  15.795  71.254  1.00  0.00    -0.547 OA 
HETATM    2  C   UNL     1     -13.559  14.791  72.086  1.00  0.00    -0.415 C  
HETATM    3  C   UNL     1     -13.109  13.536  71.419  1.00  0.00    -0.385 A  
HETATM    4  O   UNL     1     -13.677  14.874  73.299  1.00  0.00    -0.454 OA 
HETATM    5  C   UNL     1     -13.323  12.342  72.124  1.00  0.00    -0.508 A  
HETATM    6  C   UNL     1     -12.880  11.122  71.612  1.00  0.00    -0.524 A  
HETATM    7  C   UNL     1     -12.209  11.083  70.394  1.00  0.00    -0.461 A  
HETATM    8  C   UNL     1     -11.991  12.260  69.679  1.00  0.00    -0.347 A  
HETATM    9  C   UNL     1     -12.450  13.487  70.180  1.00  0.00    -0.209 A  
ENDROOT
BRANCH   9  10
HETATM   10  O   UNL     1     -12.154  14.700  69.519  1.00  0.00    -0.305 OA 
BRANCH  10  11
HETATM   11  C   UNL     1     -10.960  14.771  68.819  1.00  0.00    -0.259 C  
HETATM   12  O   UNL     1      -9.858  14.765  69.347  1.00  0.00    -0.168 OA 
BRANCH  11  13
HETATM   13  C   UNL     1     -11.197  15.028  67.371  1.00  0.00    -0.337 A  
HETATM   14  C   UNL     1     -11.972  14.087  66.672  1.00  0.00    -0.473 A  
HETATM   15  C   UNL     1     -12.096  14.168  65.284  1.00  0.00    -0.407 A  
HETATM   16  C   UNL     1     -11.462  15.195  64.587  1.00  0.00    -0.363 A  
HETATM   17  C   UNL     1     -10.728  16.160  65.277  1.00  0.00    -0.386 A  
HETATM   18  C   UNL     1     -10.599  16.078  66.666  1.00  0.00    -0.297 A  
HETATM   19  O   UNL     1      -9.886  17.039  67.324  1.00  0.00    -0.249 OA 
HETATM   20  H   UNL     1      -9.480  17.752  66.845  1.00  0.00     0.000 HD 
ENDBRANCH  11  13
ENDBRANCH  10  11
ENDBRANCH   9  10
TORSDOF 3
ENDMDL
MODEL       44
REMARK 921   NORMALIZED FREE ENERGY PREDICTED BY IDOCK:   -6.28 KCAL/MOL
REMARK 922        TOTAL FREE ENERGY PREDICTED BY IDOCK:   -7.73 KCAL/MOL
REMARK 923 INTER-LIGAND FREE ENERGY PREDICTED BY IDOCK:   -6.61 KCAL/MOL
REMARK 924 INTRA-LIGAND FREE ENERGY PREDICTED BY IDOCK:   -1.11 KCAL/MOL
REMARK 927      BINDING AFFINITY PREDICTED BY RF-SCORE:    0.00 PKD
ROOT
HETATM    1  O   UNL     1      -9.988  11.369  67.969  1.00  0.00    -0.173 OA 
HETATM    2  C   UNL     1     -11.189  11.827  68.371  1.00  0.00    -0.251 C  
HETATM    3  C   UNL     1     -11.215  13.255  68.798  1.00  0.00    -0.317 A  
HETATM    4  O   UNL     1     -12.175  11.110  68.448  1.00  0.00    -0.610 OA 
HETATM    5  C   UNL     1     -12.191  13.609  69.741  1.00  0.00    -0.350 A  
HETATM    6  C   UNL     1     -12.336  14.933  70.155  1.00  0.00    -0.376 A  
HETATM    7  C   UNL     1     -11.514  15.921  69.622  1.00  0.00    -0.346 A  
HETATM    8  C   UNL     1     -10.536  15.587  68.686  1.00  0.00    -0.243 A  
HETATM    9  C   UNL     1     -10.374  14.254  68.280  1.00  0.00    -0.242 A  
ENDROOT
BRANCH   9  10
HETATM   10  O   UNL     1      -9.457  13.910  67.262  1.00  0.00    -0.223 OA 
BRANCH  10  11
HETATM   11  C   UNL     1      -9.549  14.596  66.061  1.00  0.00    -0.290 C  
HETATM   12  O   UNL     1      -9.098  15.718  65.880  1.00  0.00    -0.337 OA 
BRANCH  11  13
HETATM   13  C   UNL     1     -10.409  13.869  65.087  1.00  0.00    -0.403 A  
HETATM   14  C   UNL     1     -11.562  14.532  64.633  1.00  0.00    -0.413 A  
HETATM   15  C   UNL     1     -12.504  13.856  63.855  1.00  0.00    -0.221 A  
HETATM   16  C   UNL     1     -12.293  12.521  63.512  1.00  0.00    -0.623 A  
HETATM   17  C   UNL     1     -11.129  11.868  63.919  1.00  0.00    -0.483 A  
HETATM   18  C   UNL     1     -10.189  12.542  64.702  1.00  0.00    -0.290 A  
HETATM   19  O   UNL     1      -9.051  11.890  65.081  1.00  0.00    -0.421 OA 
HETATM   20  H   UNL     1      -8.901  10.989  64.820  1.00  0.00     0.000 HD 
ENDBRANCH  11  13
ENDBRANCH  10  11
ENDBRANCH   9  10
TORSDOF 3
ENDMDL
MODEL       45
REMARK 921   NORMALIZED FREE ENERGY PREDICTED BY IDOCK:   -6.27 KCAL/MOL
REMARK 922        TOTAL FREE ENERGY PREDICTED BY IDOCK:   -7.72 KCAL/MOL
REMARK 923 INTER-LIGAND FREE ENERGY PREDICTED BY IDOCK:   -7.18 KCAL/MOL
REMARK 924 INTRA-LIGAND FREE ENERGY PREDICTED BY IDOCK:   -0.54 KCAL/MOL
REMARK 927      BINDING AFFINITY PREDICTED BY RF-SCORE:    0.00 PKD
ROOT
HETATM    1  O   UNL     1      -9.979  16.563  64.973  1.00  0.00    -0.358 OA 
HETATM    2  C   UNL     1     -11.125  15.924  64.670  1.00  0.00    -0.354 C  
HETATM    3  C   UNL     1     -11.315  14.606  65.342  1.00  0.00    -0.344 A  
HETATM    4  O   UNL     1     -11.923  16.356  63.853  1.00  0.00    -1.023 OA 
HETATM    5  C   UNL     1     -12.108  13.668  64.664  1.00  0.00    -0.449 A  
HETATM    6  C   UNL     1     -12.396  12.430  65.239  1.00  0.00    -0.357 A  
HETATM    7  C   UNL     1     -11.905  12.120  66.503  1.00  0.00    -0.322 A  
HETATM    8  C   UNL     1     -11.112  13.040  67.190  1.00  0.00    -0.304 A  
HETATM    9  C   UNL     1     -10.804  14.279  66.608  1.00  0.00    -0.301 A  
ENDROOT
BRANCH   9  10
HETATM   10  O   UNL     1     -10.086  15.261  67.327  1.00  0.00    -0.233 OA 
BRANCH  10  11
HETATM   11  C   UNL     1     -10.817  16.145  68.104  1.00  0.00    -0.329 C  
HETATM   12  O   UNL     1     -11.904  15.883  68.596  1.00  0.00    -0.388 OA 
BRANCH  11  13
HETATM   13  C   UNL     1     -10.194  17.498  68.116  1.00  0.00    -0.359 A  
HETATM   14  C   UNL     1     -10.989  18.572  67.683  1.00  0.00    -0.185 A  
HETATM   15  C   UNL     1     -10.428  19.838  67.505  1.00  0.00    -0.569 A  
HETATM   16  C   UNL     1      -9.075  20.043  67.773  1.00  0.00    -0.416 A  
HETATM   17  C   UNL     1      -8.288  18.993  68.247  1.00  0.00    -0.369 A  
HETATM   18  C   UNL     1      -8.847  17.725  68.421  1.00  0.00    -0.285 A  
HETATM   19  O   UNL     1      -8.063  16.713  68.897  1.00  0.00    -0.234 OA 
HETATM   20  H   UNL     1      -7.149  16.868  69.104  1.00  0.00     0.000 HD 
ENDBRANCH  11  13
ENDBRANCH  10  11
ENDBRANCH   9  10
TORSDOF 3
ENDMDL
MODEL       46
REMARK 921   NORMALIZED FREE ENERGY PREDICTED BY IDOCK:   -6.25 KCAL/MOL
REMARK 922        TOTAL FREE ENERGY PREDICTED BY IDOCK:   -7.70 KCAL/MOL
REMARK 923 INTER-LIGAND FREE ENERGY PREDICTED BY IDOCK:   -7.08 KCAL/MOL
REMARK 924 INTRA-LIGAND FREE ENERGY PREDICTED BY IDOCK:   -0.62 KCAL/MOL
REMARK 927      BINDING AFFINITY PREDICTED BY RF-SCORE:    0.00 PKD
ROOT
HETATM    1  O   UNL     1     -11.627  12.521  68.160  1.00  0.00    -0.297 OA 
HETATM    2  C   UNL     1     -11.757  13.734  68.729  1.00  0.00    -0.356 C  
HETATM    3  C   UNL     1     -12.472  13.749  70.037  1.00  0.00    -0.301 A  
HETATM    4  O   UNL     1     -11.380  14.760  68.185  1.00  0.00    -0.280 OA 
HETATM    5  C   UNL     1     -13.147  14.933  70.368  1.00  0.00    -0.206 A  
HETATM    6  C   UNL     1     -13.792  15.068  71.597  1.00  0.00    -0.571 A  
HETATM    7  C   UNL     1     -13.760  14.023  72.516  1.00  0.00    -0.651 A  
HETATM    8  C   UNL     1     -13.096  12.838  72.203  1.00  0.00    -0.454 A  
HETATM    9  C   UNL     1     -12.462  12.690  70.960  1.00  0.00    -0.260 A  
ENDROOT
BRANCH   9  10
HETATM   10  O   UNL     1     -11.702  11.537  70.664  1.00  0.00    -0.272 OA 
BRANCH  10  11
HETATM   11  C   UNL     1     -12.283  10.306  70.922  1.00  0.00    -0.365 C  
HETATM   12  O   UNL     1     -13.463  10.054  70.727  1.00  0.00    -0.316 OA 
BRANCH  11  13
HETATM   13  C   UNL     1     -11.335   9.396  71.623  1.00  0.00    -0.452 A  
HETATM   14  C   UNL     1      -9.986   9.454  71.233  1.00  0.00    -0.274 A  
HETATM   15  C   UNL     1      -9.070   8.519  71.720  1.00  0.00    -0.304 A  
HETATM   16  C   UNL     1      -9.491   7.532  72.610  1.00  0.00    -0.212 A  
HETATM   17  C   UNL     1     -10.818   7.495  73.039  1.00  0.00    -0.445 A  
HETATM   18  C   UNL     1     -11.736   8.427  72.549  1.00  0.00    -0.359 A  
HETATM   19  O   UNL     1     -13.028   8.381  72.989  1.00  0.00    -0.704 OA 
HETATM   20  H   UNL     1     -13.300   7.722  73.617  1.00  0.00     0.000 HD 
ENDBRANCH  11  13
ENDBRANCH  10  11
ENDBRANCH   9  10
TORSDOF 3
ENDMDL
MODEL       47
REMARK 921   NORMALIZED FREE ENERGY PREDICTED BY IDOCK:   -6.24 KCAL/MOL
REMARK 922        TOTAL FREE ENERGY PREDICTED BY IDOCK:   -7.68 KCAL/MOL
REMARK 923 INTER-LIGAND FREE ENERGY PREDICTED BY IDOCK:   -6.80 KCAL/MOL
REMARK 924 INTRA-LIGAND FREE ENERGY PREDICTED BY IDOCK:   -0.88 KCAL/MOL
REMARK 927      BINDING AFFINITY PREDICTED BY RF-SCORE:    0.00 PKD
ROOT
HETATM    1  O   UNL     1     -12.153  12.002  66.123  1.00  0.00    -0.582 OA 
HETATM    2  C   UNL     1     -11.413  13.122  66.227  1.00  0.00    -0.334 C  
HETATM    3  C   UNL     1     -11.580  13.879  67.500  1.00  0.00    -0.392 A  
HETATM    4  O   UNL     1     -10.705  13.529  65.319  1.00  0.00    -0.298 OA 
HETATM    5  C   UNL     1     -11.348  15.261  67.441  1.00  0.00    -0.285 A  
HETATM    6  C   UNL     1     -11.418  16.046  68.592  1.00  0.00    -0.377 A  
HETATM    7  C   UNL     1     -11.709  15.457  69.818  1.00  0.00    -0.352 A  
HETATM    8  C   UNL     1     -11.945  14.084  69.894  1.00  0.00    -0.399 A  
HETATM    9  C   UNL     1     -11.895  13.293  68.737  1.00  0.00    -0.334 A  
ENDROOT
BRANCH   9  10
HETATM   10  O   UNL     1     -12.034  11.889  68.809  1.00  0.00    -0.309 OA 
BRANCH  10  11
HETATM   11  C   UNL     1     -11.005  11.175  69.400  1.00  0.00    -0.244 C  
HETATM   12  O   UNL     1      -9.841  11.222  69.031  1.00  0.00    -0.178 OA 
BRANCH  11  13
HETATM   13  C   UNL     1     -11.524  10.220  70.419  1.00  0.00    -0.415 A  
HETATM   14  C   UNL     1     -12.836  10.427  70.878  1.00  0.00    -0.482 A  
HETATM   15  C   UNL     1     -13.333   9.682  71.950  1.00  0.00    -0.526 A  
HETATM   16  C   UNL     1     -12.531   8.719  72.559  1.00  0.00    -0.368 A  
HETATM   17  C   UNL     1     -11.243   8.475  72.080  1.00  0.00    -0.432 A  
HETATM   18  C   UNL     1     -10.743   9.222  71.011  1.00  0.00    -0.316 A  
HETATM   19  O   UNL     1      -9.485   8.961  70.550  1.00  0.00    -0.175 OA 
HETATM   20  H   UNL     1      -8.954   8.283  70.952  1.00  0.00     0.000 HD 
ENDBRANCH  11  13
ENDBRANCH  10  11
ENDBRANCH   9  10
TORSDOF 3
ENDMDL
MODEL       48
REMARK 921   NORMALIZED FREE ENERGY PREDICTED BY IDOCK:   -6.22 KCAL/MOL
REMARK 922        TOTAL FREE ENERGY PREDICTED BY IDOCK:   -7.66 KCAL/MOL
REMARK 923 INTER-LIGAND FREE ENERGY PREDICTED BY IDOCK:   -6.99 KCAL/MOL
REMARK 924 INTRA-LIGAND FREE ENERGY PREDICTED BY IDOCK:   -0.67 KCAL/MOL
REMARK 927      BINDING AFFINITY PREDICTED BY RF-SCORE:    0.00 PKD
ROOT
HETATM    1  O   UNL     1      -9.313  16.182  67.578  1.00  0.00    -0.215 OA 
HETATM    2  C   UNL     1     -10.127  16.458  66.541  1.00  0.00    -0.295 C  
HETATM    3  C   UNL     1     -10.947  15.313  66.052  1.00  0.00    -0.317 A  
HETATM    4  O   UNL     1     -10.145  17.549  65.993  1.00  0.00    -0.451 OA 
HETATM    5  C   UNL     1     -11.320  15.343  64.700  1.00  0.00    -0.361 A  
HETATM    6  C   UNL     1     -12.139  14.350  64.164  1.00  0.00    -0.405 A  
HETATM    7  C   UNL     1     -12.605  13.321  64.977  1.00  0.00    -0.483 A  
HETATM    8  C   UNL     1     -12.242  13.274  66.323  1.00  0.00    -0.440 A  
HETATM    9  C   UNL     1     -11.402  14.260  66.862  1.00  0.00    -0.343 A  
ENDROOT
BRANCH   9  10
HETATM   10  O   UNL     1     -11.103  14.285  68.242  1.00  0.00    -0.243 OA 
BRANCH  10  11
HETATM   11  C   UNL     1     -10.894  13.069  68.872  1.00  0.00    -0.206 C  
HETATM   12  O   UNL     1     -10.094  12.228  68.486  1.00  0.00    -0.216 OA 
BRANCH  11  13
HETATM   13  C   UNL     1     -11.881  12.848  69.965  1.00  0.00    -0.356 A  
HETATM   14  C   UNL     1     -12.386  13.990  70.611  1.00  0.00    -0.446 A  
HETATM   15  C   UNL     1     -13.181  13.860  71.751  1.00  0.00    -0.455 A  
HETATM   16  C   UNL     1     -13.491  12.594  72.244  1.00  0.00    -0.541 A  
HETATM   17  C   UNL     1     -13.032  11.454  71.583  1.00  0.00    -0.523 A  
HETATM   18  C   UNL     1     -12.233  11.581  70.445  1.00  0.00    -0.355 A  
HETATM   19  O   UNL     1     -11.803  10.454  69.805  1.00  0.00    -0.343 OA 
HETATM   20  H   UNL     1     -12.041   9.594  70.131  1.00  0.00     0.000 HD 
ENDBRANCH  11  13
ENDBRANCH  10  11
ENDBRANCH   9  10
TORSDOF 3
ENDMDL
MODEL       49
REMARK 921   NORMALIZED FREE ENERGY PREDICTED BY IDOCK:   -6.21 KCAL/MOL
REMARK 922        TOTAL FREE ENERGY PREDICTED BY IDOCK:   -7.65 KCAL/MOL
REMARK 923 INTER-LIGAND FREE ENERGY PREDICTED BY IDOCK:   -6.73 KCAL/MOL
REMARK 924 INTRA-LIGAND FREE ENERGY PREDICTED BY IDOCK:   -0.92 KCAL/MOL
REMARK 927      BINDING AFFINITY PREDICTED BY RF-SCORE:    0.00 PKD
ROOT
HETATM    1  O   UNL     1      -6.688  18.167  64.994  1.00  0.00    -0.330 OA 
HETATM    2  C   UNL     1      -6.828  18.904  66.113  1.00  0.00    -0.238 C  
HETATM    3  C   UNL     1      -8.234  19.120  66.560  1.00  0.00    -0.315 A  
HETATM    4  O   UNL     1      -5.880  19.417  66.686  1.00  0.00    -0.166 OA 
HETATM    5  C   UNL     1      -8.484  20.292  67.289  1.00  0.00    -0.415 A  
HETATM    6  C   UNL     1      -9.753  20.554  67.804  1.00  0.00    -0.433 A  
HETATM    7  C   UNL     1     -10.785  19.640  67.608  1.00  0.00    -0.500 A  
HETATM    8  C   UNL     1     -10.554  18.471  66.883  1.00  0.00    -0.406 A  
HETATM    9  C   UNL     1      -9.284  18.213  66.346  1.00  0.00    -0.255 A  
ENDROOT
BRANCH   9  10
HETATM   10  O   UNL     1      -9.005  16.991  65.695  1.00  0.00    -0.492 OA 
BRANCH  10  11
HETATM   11  C   UNL     1      -8.990  15.842  66.470  1.00  0.00    -0.296 C  
HETATM   12  O   UNL     1      -8.052  15.511  67.180  1.00  0.00    -0.179 OA 
BRANCH  11  13
HETATM   13  C   UNL     1     -10.178  14.987  66.193  1.00  0.00    -0.311 A  
HETATM   14  C   UNL     1     -10.756  15.089  64.916  1.00  0.00    -0.420 A  
HETATM   15  C   UNL     1     -11.966  14.451  64.638  1.00  0.00    -0.475 A  
HETATM   16  C   UNL     1     -12.597  13.695  65.624  1.00  0.00    -0.531 A  
HETATM   17  C   UNL     1     -12.007  13.551  66.881  1.00  0.00    -0.447 A  
HETATM   18  C   UNL     1     -10.800  14.192  67.162  1.00  0.00    -0.290 A  
HETATM   19  O   UNL     1     -10.232  14.030  68.394  1.00  0.00    -0.228 OA 
HETATM   20  H   UNL     1     -10.655  13.490  69.052  1.00  0.00     0.000 HD 
ENDBRANCH  11  13
ENDBRANCH  10  11
ENDBRANCH   9  10
TORSDOF 3
ENDMDL
MODEL       50
REMARK 921   NORMALIZED FREE ENERGY PREDICTED BY IDOCK:   -6.21 KCAL/MOL
REMARK 922        TOTAL FREE ENERGY PREDICTED BY IDOCK:   -7.65 KCAL/MOL
REMARK 923 INTER-LIGAND FREE ENERGY PREDICTED BY IDOCK:   -6.89 KCAL/MOL
REMARK 924 INTRA-LIGAND FREE ENERGY PREDICTED BY IDOCK:   -0.76 KCAL/MOL
REMARK 927      BINDING AFFINITY PREDICTED BY RF-SCORE:    0.00 PKD
ROOT
HETATM    1  O   UNL     1     -11.868  16.050  69.836  1.00  0.00    -0.315 OA 
HETATM    2  C   UNL     1     -11.780  14.935  69.086  1.00  0.00    -0.309 C  
HETATM    3  C   UNL     1     -11.397  15.156  67.662  1.00  0.00    -0.327 A  
HETATM    4  O   UNL     1     -12.058  13.828  69.518  1.00  0.00    -0.324 OA 
HETATM    5  C   UNL     1     -11.854  14.204  66.738  1.00  0.00    -0.449 A  
HETATM    6  C   UNL     1     -11.497  14.288  65.392  1.00  0.00    -0.332 A  
HETATM    7  C   UNL     1     -10.668  15.318  64.957  1.00  0.00    -0.461 A  
HETATM    8  C   UNL     1     -10.207  16.274  65.862  1.00  0.00    -0.384 A  
HETATM    9  C   UNL     1     -10.579  16.205  67.213  1.00  0.00    -0.305 A  
ENDROOT
BRANCH   9  10
HETATM   10  O   UNL     1     -10.045  17.105  68.161  1.00  0.00    -0.280 OA 
BRANCH  10  11
HETATM   11  C   UNL     1     -10.119  18.457  67.871  1.00  0.00    -0.362 C  
HETATM   12  O   UNL     1     -11.140  19.021  67.505  1.00  0.00    -0.381 OA 
BRANCH  11  13
HETATM   13  C   UNL     1      -8.772  19.091  67.895  1.00  0.00    -0.333 A  
HETATM   14  C   UNL     1      -7.912  18.726  68.945  1.00  0.00    -0.281 A  
HETATM   15  C   UNL     1      -6.703  19.400  69.132  1.00  0.00    -0.368 A  
HETATM   16  C   UNL     1      -6.338  20.428  68.265  1.00  0.00    -0.346 A  
HETATM   17  C   UNL     1      -7.164  20.767  67.192  1.00  0.00    -0.394 A  
HETATM   18  C   UNL     1      -8.376  20.097  67.007  1.00  0.00    -0.328 A  
HETATM   19  O   UNL     1      -9.166  20.435  65.945  1.00  0.00    -0.608 OA 
HETATM   20  H   UNL     1      -8.897  21.119  65.342  1.00  0.00     0.000 HD 
ENDBRANCH  11  13
ENDBRANCH  10  11
ENDBRANCH   9  10
TORSDOF 3
ENDMDL
MODEL       51
REMARK 921   NORMALIZED FREE ENERGY PREDICTED BY IDOCK:   -6.20 KCAL/MOL
REMARK 922        TOTAL FREE ENERGY PREDICTED BY IDOCK:   -7.64 KCAL/MOL
REMARK 923 INTER-LIGAND FREE ENERGY PREDICTED BY IDOCK:   -6.73 KCAL/MOL
REMARK 924 INTRA-LIGAND FREE ENERGY PREDICTED BY IDOCK:   -0.90 KCAL/MOL
REMARK 927      BINDING AFFINITY PREDICTED BY RF-SCORE:    0.00 PKD
ROOT
HETATM    1  O   UNL     1     -10.433  17.802  69.101  1.00  0.00    -0.312 OA 
HETATM    2  C   UNL     1      -9.935  18.934  68.568  1.00  0.00    -0.406 C  
HETATM    3  C   UNL     1      -8.728  18.756  67.711  1.00  0.00    -0.309 A  
HETATM    4  O   UNL     1     -10.395  20.037  68.819  1.00  0.00    -0.433 OA 
HETATM    5  C   UNL     1      -7.851  19.848  67.634  1.00  0.00    -0.325 A  
HETATM    6  C   UNL     1      -6.727  19.802  66.809  1.00  0.00    -0.210 A  
HETATM    7  C   UNL     1      -6.473  18.669  66.042  1.00  0.00    -0.261 A  
HETATM    8  C   UNL     1      -7.335  17.573  66.109  1.00  0.00    -0.347 A  
HETATM    9  C   UNL     1      -8.456  17.607  66.952  1.00  0.00    -0.241 A  
ENDROOT
BRANCH   9  10
HETATM   10  O   UNL     1      -9.391  16.549  66.960  1.00  0.00    -0.221 OA 
BRANCH  10  11
HETATM   11  C   UNL     1     -10.256  16.452  65.882  1.00  0.00    -0.359 C  
HETATM   12  O   UNL     1     -10.557  17.393  65.162  1.00  0.00    -0.681 OA 
BRANCH  11  13
HETATM   13  C   UNL     1     -10.899  15.110  65.821  1.00  0.00    -0.358 A  
HETATM   14  C   UNL     1     -10.742  14.379  64.632  1.00  0.00    -0.357 A  
HETATM   15  C   UNL     1     -11.452  13.193  64.435  1.00  0.00    -0.407 A  
HETATM   16  C   UNL     1     -12.308  12.721  65.429  1.00  0.00    -0.528 A  
HETATM   17  C   UNL     1     -12.435  13.417  66.632  1.00  0.00    -0.212 A  
HETATM   18  C   UNL     1     -11.730  14.606  66.828  1.00  0.00    -0.341 A  
HETATM   19  O   UNL     1     -11.859  15.266  68.016  1.00  0.00    -0.426 OA 
HETATM   20  H   UNL     1     -12.423  14.924  68.700  1.00  0.00     0.000 HD 
ENDBRANCH  11  13
ENDBRANCH  10  11
ENDBRANCH   9  10
TORSDOF 3
ENDMDL
MODEL       52
REMARK 921   NORMALIZED FREE ENERGY PREDICTED BY IDOCK:   -6.18 KCAL/MOL
REMARK 922        TOTAL FREE ENERGY PREDICTED BY IDOCK:   -7.62 KCAL/MOL
REMARK 923 INTER-LIGAND FREE ENERGY PREDICTED BY IDOCK:   -6.80 KCAL/MOL
REMARK 924 INTRA-LIGAND FREE ENERGY PREDICTED BY IDOCK:   -0.82 KCAL/MOL
REMARK 927      BINDING AFFINITY PREDICTED BY RF-SCORE:    0.00 PKD
ROOT
HETATM    1  O   UNL     1      -9.109  10.636  66.834  1.00  0.00    -0.153 OA 
HETATM    2  C   UNL     1      -9.187  10.951  65.527  1.00  0.00    -0.209 C  
HETATM    3  C   UNL     1     -10.468  11.585  65.102  1.00  0.00    -0.340 A  
HETATM    4  O   UNL     1      -8.303  10.678  64.731  1.00  0.00    -0.156 OA 
HETATM    5  C   UNL     1     -10.848  11.389  63.766  1.00  0.00    -0.468 A  
HETATM    6  C   UNL     1     -11.997  11.993  63.256  1.00  0.00    -0.477 A  
HETATM    7  C   UNL     1     -12.773  12.812  64.072  1.00  0.00    -0.297 A  
HETATM    8  C   UNL     1     -12.410  13.015  65.403  1.00  0.00    -0.538 A  
HETATM    9  C   UNL     1     -11.266  12.394  65.926  1.00  0.00    -0.336 A  
ENDROOT
BRANCH   9  10
HETATM   10  O   UNL     1     -10.828  12.666  67.242  1.00  0.00    -0.239 OA 
BRANCH  10  11
HETATM   11  C   UNL     1     -11.648  12.262  68.284  1.00  0.00    -0.331 C  
HETATM   12  O   UNL     1     -12.150  11.151  68.365  1.00  0.00    -0.605 OA 
BRANCH  11  13
HETATM   13  C   UNL     1     -11.974  13.400  69.188  1.00  0.00    -0.363 A  
HETATM   14  C   UNL     1     -11.787  14.696  68.678  1.00  0.00    -0.346 A  
HETATM   15  C   UNL     1     -11.907  15.807  69.515  1.00  0.00    -0.359 A  
HETATM   16  C   UNL     1     -12.229  15.633  70.860  1.00  0.00    -0.466 A  
HETATM   17  C   UNL     1     -12.461  14.353  71.365  1.00  0.00    -0.433 A  
HETATM   18  C   UNL     1     -12.337  13.240  70.530  1.00  0.00    -0.316 A  
HETATM   19  O   UNL     1     -12.578  11.997  71.040  1.00  0.00    -0.364 OA 
HETATM   20  H   UNL     1     -12.825  11.888  71.951  1.00  0.00     0.000 HD 
ENDBRANCH  11  13
ENDBRANCH  10  11
ENDBRANCH   9  10
TORSDOF 3
ENDMDL
MODEL       53
REMARK 921   NORMALIZED FREE ENERGY PREDICTED BY IDOCK:   -6.18 KCAL/MOL
REMARK 922        TOTAL FREE ENERGY PREDICTED BY IDOCK:   -7.61 KCAL/MOL
REMARK 923 INTER-LIGAND FREE ENERGY PREDICTED BY IDOCK:   -6.87 KCAL/MOL
REMARK 924 INTRA-LIGAND FREE ENERGY PREDICTED BY IDOCK:   -0.74 KCAL/MOL
REMARK 927      BINDING AFFINITY PREDICTED BY RF-SCORE:    0.00 PKD
ROOT
HETATM    1  O   UNL     1     -12.517  14.110  63.704  1.00  0.00    -0.819 OA 
HETATM    2  C   UNL     1     -12.346  12.779  63.822  1.00  0.00    -0.446 C  
HETATM    3  C   UNL     1     -11.199  12.360  64.678  1.00  0.00    -0.356 A  
HETATM    4  O   UNL     1     -13.034  11.971  63.219  1.00  0.00    -0.736 OA 
HETATM    5  C   UNL     1     -10.615  11.120  64.376  1.00  0.00    -0.411 A  
HETATM    6  C   UNL     1      -9.578  10.611  65.158  1.00  0.00    -0.304 A  
HETATM    7  C   UNL     1      -9.121  11.330  66.259  1.00  0.00    -0.209 A  
HETATM    8  C   UNL     1      -9.689  12.565  66.571  1.00  0.00    -0.249 A  
HETATM    9  C   UNL     1     -10.719  13.090  65.777  1.00  0.00    -0.274 A  
ENDROOT
BRANCH   9  10
HETATM   10  O   UNL     1     -11.372  14.291  66.133  1.00  0.00    -0.328 OA 
BRANCH  10  11
HETATM   11  C   UNL     1     -11.308  14.683  67.460  1.00  0.00    -0.348 C  
HETATM   12  O   UNL     1     -11.988  14.192  68.350  1.00  0.00    -0.347 OA 
BRANCH  11  13
HETATM   13  C   UNL     1     -10.444  15.884  67.629  1.00  0.00    -0.289 A  
HETATM   14  C   UNL     1     -10.354  16.766  66.539  1.00  0.00    -0.301 A  
HETATM   15  C   UNL     1      -9.437  17.819  66.557  1.00  0.00    -0.300 A  
HETATM   16  C   UNL     1      -8.617  18.007  67.668  1.00  0.00    -0.247 A  
HETATM   17  C   UNL     1      -8.731  17.164  68.774  1.00  0.00    -0.235 A  
HETATM   18  C   UNL     1      -9.645  16.108  68.756  1.00  0.00    -0.235 A  
HETATM   19  O   UNL     1      -9.750  15.301  69.852  1.00  0.00    -0.434 OA 
HETATM   20  H   UNL     1      -9.207  15.453  70.617  1.00  0.00     0.000 HD 
ENDBRANCH  11  13
ENDBRANCH  10  11
ENDBRANCH   9  10
TORSDOF 3
ENDMDL
MODEL       54
REMARK 921   NORMALIZED FREE ENERGY PREDICTED BY IDOCK:   -6.13 KCAL/MOL
REMARK 922        TOTAL FREE ENERGY PREDICTED BY IDOCK:   -7.55 KCAL/MOL
REMARK 923 INTER-LIGAND FREE ENERGY PREDICTED BY IDOCK:   -6.66 KCAL/MOL
REMARK 924 INTRA-LIGAND FREE ENERGY PREDICTED BY IDOCK:   -0.89 KCAL/MOL
REMARK 927      BINDING AFFINITY PREDICTED BY RF-SCORE:    0.00 PKD
ROOT
HETATM    1  O   UNL     1     -10.053  10.253  68.709  1.00  0.00    -0.170 OA 
HETATM    2  C   UNL     1     -10.488   8.982  68.612  1.00  0.00    -0.200 C  
HETATM    3  C   UNL     1     -10.706   8.284  69.912  1.00  0.00    -0.234 A  
HETATM    4  O   UNL     1     -10.630   8.415  67.540  1.00  0.00    -0.255 OA 
HETATM    5  C   UNL     1     -10.566   6.888  69.903  1.00  0.00    -0.256 A  
HETATM    6  C   UNL     1     -10.812   6.140  71.053  1.00  0.00    -0.338 A  
HETATM    7  C   UNL     1     -11.212   6.777  72.224  1.00  0.00    -0.295 A  
HETATM    8  C   UNL     1     -11.354   8.164  72.251  1.00  0.00    -0.429 A  
HETATM    9  C   UNL     1     -11.090   8.923  71.102  1.00  0.00    -0.285 A  
ENDROOT
BRANCH   9  10
HETATM   10  O   UNL     1     -11.321  10.317  71.082  1.00  0.00    -0.314 OA 
BRANCH  10  11
HETATM   11  C   UNL     1     -12.639  10.745  71.080  1.00  0.00    -0.428 C  
HETATM   12  O   UNL     1     -13.593  10.018  70.845  1.00  0.00    -0.297 OA 
BRANCH  11  13
HETATM   13  C   UNL     1     -12.727  12.225  71.227  1.00  0.00    -0.351 A  
HETATM   14  C   UNL     1     -13.559  12.717  72.247  1.00  0.00    -0.563 A  
HETATM   15  C   UNL     1     -13.826  14.085  72.339  1.00  0.00    -0.653 A  
HETATM   16  C   UNL     1     -13.253  14.969  71.427  1.00  0.00    -0.497 A  
HETATM   17  C   UNL     1     -12.389  14.494  70.439  1.00  0.00    -0.400 A  
HETATM   18  C   UNL     1     -12.125  13.126  70.342  1.00  0.00    -0.317 A  
HETATM   19  O   UNL     1     -11.268  12.682  69.376  1.00  0.00    -0.382 OA 
HETATM   20  H   UNL     1     -10.859  13.294  68.775  1.00  0.00     0.000 HD 
ENDBRANCH  11  13
ENDBRANCH  10  11
ENDBRANCH   9  10
TORSDOF 3
ENDMDL
MODEL       55
REMARK 921   NORMALIZED FREE ENERGY PREDICTED BY IDOCK:   -6.08 KCAL/MOL
REMARK 922        TOTAL FREE ENERGY PREDICTED BY IDOCK:   -7.50 KCAL/MOL
REMARK 923 INTER-LIGAND FREE ENERGY PREDICTED BY IDOCK:   -7.01 KCAL/MOL
REMARK 924 INTRA-LIGAND FREE ENERGY PREDICTED BY IDOCK:   -0.49 KCAL/MOL
REMARK 927      BINDING AFFINITY PREDICTED BY RF-SCORE:    0.00 PKD
ROOT
HETATM    1  O   UNL     1     -11.170  15.849  64.355  1.00  0.00    -0.450 OA 
HETATM    2  C   UNL     1     -11.865  14.710  64.531  1.00  0.00    -0.431 C  
HETATM    3  C   UNL     1     -11.452  13.886  65.703  1.00  0.00    -0.321 A  
HETATM    4  O   UNL     1     -12.728  14.339  63.751  1.00  0.00    -0.779 OA 
HETATM    5  C   UNL     1     -11.676  12.505  65.607  1.00  0.00    -0.473 A  
HETATM    6  C   UNL     1     -11.382  11.659  66.676  1.00  0.00    -0.338 A  
HETATM    7  C   UNL     1     -10.870  12.185  67.858  1.00  0.00    -0.254 A  
HETATM    8  C   UNL     1     -10.638  13.556  67.970  1.00  0.00    -0.247 A  
HETATM    9  C   UNL     1     -10.915  14.409  66.891  1.00  0.00    -0.308 A  
ENDROOT
BRANCH   9  10
HETATM   10  O   UNL     1     -10.779  15.809  67.018  1.00  0.00    -0.315 OA 
BRANCH  10  11
HETATM   11  C   UNL     1      -9.500  16.336  66.947  1.00  0.00    -0.230 C  
HETATM   12  O   UNL     1      -8.487  15.659  66.847  1.00  0.00    -0.206 OA 
BRANCH  11  13
HETATM   13  C   UNL     1      -9.507  17.807  67.182  1.00  0.00    -0.265 A  
HETATM   14  C   UNL     1     -10.534  18.547  66.574  1.00  0.00    -0.435 A  
HETATM   15  C   UNL     1     -10.512  19.943  66.606  1.00  0.00    -0.580 A  
HETATM   16  C   UNL     1      -9.474  20.607  67.259  1.00  0.00    -0.520 A  
HETATM   17  C   UNL     1      -8.474  19.880  67.905  1.00  0.00    -0.332 A  
HETATM   18  C   UNL     1      -8.493  18.484  67.870  1.00  0.00    -0.275 A  
HETATM   19  O   UNL     1      -7.511  17.789  68.517  1.00  0.00    -0.252 OA 
HETATM   20  H   UNL     1      -6.823  18.249  68.984  1.00  0.00     0.000 HD 
ENDBRANCH  11  13
ENDBRANCH  10  11
ENDBRANCH   9  10
TORSDOF 3
ENDMDL
MODEL       56
REMARK 921   NORMALIZED FREE ENERGY PREDICTED BY IDOCK:   -6.06 KCAL/MOL
REMARK 922        TOTAL FREE ENERGY PREDICTED BY IDOCK:   -7.48 KCAL/MOL
REMARK 923 INTER-LIGAND FREE ENERGY PREDICTED BY IDOCK:   -6.69 KCAL/MOL
REMARK 924 INTRA-LIGAND FREE ENERGY PREDICTED BY IDOCK:   -0.78 KCAL/MOL
REMARK 927      BINDING AFFINITY PREDICTED BY RF-SCORE:    0.00 PKD
ROOT
HETATM    1  O   UNL     1     -11.993  15.944  68.602  1.00  0.00    -0.338 OA 
HETATM    2  C   UNL     1     -11.794  15.291  69.763  1.00  0.00    -0.332 C  
HETATM    3  C   UNL     1     -11.998  13.815  69.705  1.00  0.00    -0.406 A  
HETATM    4  O   UNL     1     -11.531  15.868  70.806  1.00  0.00    -0.349 OA 
HETATM    5  C   UNL     1     -12.393  13.192  70.898  1.00  0.00    -0.393 A  
HETATM    6  C   UNL     1     -12.548  11.807  70.962  1.00  0.00    -0.409 A  
HETATM    7  C   UNL     1     -12.300  11.028  69.836  1.00  0.00    -0.356 A  
HETATM    8  C   UNL     1     -11.910  11.632  68.641  1.00  0.00    -0.370 A  
HETATM    9  C   UNL     1     -11.770  13.025  68.567  1.00  0.00    -0.342 A  
ENDROOT
BRANCH   9  10
HETATM   10  O   UNL     1     -11.282  13.646  67.395  1.00  0.00    -0.284 OA 
BRANCH  10  11
HETATM   11  C   UNL     1     -10.045  13.237  66.924  1.00  0.00    -0.250 C  
HETATM   12  O   UNL     1      -8.979  13.619  67.384  1.00  0.00    -0.197 OA 
BRANCH  11  13
HETATM   13  C   UNL     1     -10.181  12.419  65.686  1.00  0.00    -0.285 A  
HETATM   14  C   UNL     1      -9.839  11.059  65.778  1.00  0.00    -0.282 A  
HETATM   15  C   UNL     1      -9.776  10.269  64.629  1.00  0.00    -0.398 A  
HETATM   16  C   UNL     1     -10.070  10.826  63.385  1.00  0.00    -0.345 A  
HETATM   17  C   UNL     1     -10.455  12.164  63.290  1.00  0.00    -0.360 A  
HETATM   18  C   UNL     1     -10.513  12.956  64.438  1.00  0.00    -0.396 A  
HETATM   19  O   UNL     1     -10.902  14.261  64.326  1.00  0.00    -0.602 OA 
HETATM   20  H   UNL     1     -11.128  14.625  63.478  1.00  0.00     0.000 HD 
ENDBRANCH  11  13
ENDBRANCH  10  11
ENDBRANCH   9  10
TORSDOF 3
ENDMDL
MODEL       57
REMARK 921   NORMALIZED FREE ENERGY PREDICTED BY IDOCK:   -6.02 KCAL/MOL
REMARK 922        TOTAL FREE ENERGY PREDICTED BY IDOCK:   -7.43 KCAL/MOL
REMARK 923 INTER-LIGAND FREE ENERGY PREDICTED BY IDOCK:   -6.70 KCAL/MOL
REMARK 924 INTRA-LIGAND FREE ENERGY PREDICTED BY IDOCK:   -0.73 KCAL/MOL
REMARK 927      BINDING AFFINITY PREDICTED BY RF-SCORE:    0.00 PKD
ROOT
HETATM    1  O   UNL     1     -11.521  13.444  69.154  1.00  0.00    -0.266 OA 
HETATM    2  C   UNL     1     -11.707  12.962  67.911  1.00  0.00    -0.357 C  
HETATM    3  C   UNL     1     -11.577  13.963  66.814  1.00  0.00    -0.398 A  
HETATM    4  O   UNL     1     -12.028  11.803  67.696  1.00  0.00    -0.599 OA 
HETATM    5  C   UNL     1     -12.308  13.708  65.645  1.00  0.00    -0.518 A  
HETATM    6  C   UNL     1     -12.203  14.553  64.540  1.00  0.00    -0.483 A  
HETATM    7  C   UNL     1     -11.356  15.656  64.587  1.00  0.00    -0.355 A  
HETATM    8  C   UNL     1     -10.624  15.926  65.743  1.00  0.00    -0.368 A  
HETATM    9  C   UNL     1     -10.740  15.090  66.863  1.00  0.00    -0.308 A  
ENDROOT
BRANCH   9  10
HETATM   10  O   UNL     1      -9.935  15.290  68.007  1.00  0.00    -0.222 OA 
BRANCH  10  11
HETATM   11  C   UNL     1     -10.159  16.435  68.754  1.00  0.00    -0.247 C  
HETATM   12  O   UNL     1     -11.114  16.586  69.501  1.00  0.00    -0.314 OA 
BRANCH  11  13
HETATM   13  C   UNL     1      -9.191  17.511  68.400  1.00  0.00    -0.279 A  
HETATM   14  C   UNL     1      -7.834  17.262  68.664  1.00  0.00    -0.272 A  
HETATM   15  C   UNL     1      -6.890  18.281  68.519  1.00  0.00    -0.255 A  
HETATM   16  C   UNL     1      -7.291  19.546  68.094  1.00  0.00    -0.334 A  
HETATM   17  C   UNL     1      -8.630  19.789  67.785  1.00  0.00    -0.373 A  
HETATM   18  C   UNL     1      -9.576  18.773  67.934  1.00  0.00    -0.308 A  
HETATM   19  O   UNL     1     -10.879  19.027  67.617  1.00  0.00    -0.438 OA 
HETATM   20  H   UNL     1     -11.141  19.884  67.301  1.00  0.00     0.000 HD 
ENDBRANCH  11  13
ENDBRANCH  10  11
ENDBRANCH   9  10
TORSDOF 3
ENDMDL
MODEL       58
REMARK 921   NORMALIZED FREE ENERGY PREDICTED BY IDOCK:   -6.01 KCAL/MOL
REMARK 922        TOTAL FREE ENERGY PREDICTED BY IDOCK:   -7.41 KCAL/MOL
REMARK 923 INTER-LIGAND FREE ENERGY PREDICTED BY IDOCK:   -7.01 KCAL/MOL
REMARK 924 INTRA-LIGAND FREE ENERGY PREDICTED BY IDOCK:   -0.40 KCAL/MOL
REMARK 927      BINDING AFFINITY PREDICTED BY RF-SCORE:    0.00 PKD
ROOT
HETATM    1  O   UNL     1     -13.686  15.714  71.007  1.00  0.00    -0.582 OA 
HETATM    2  C   UNL     1     -13.426  14.677  71.826  1.00  0.00    -0.373 C  
HETATM    3  C   UNL     1     -12.867  13.466  71.161  1.00  0.00    -0.372 A  
HETATM    4  O   UNL     1     -13.692  14.698  73.017  1.00  0.00    -0.555 OA 
HETATM    5  C   UNL     1     -13.133  12.235  71.778  1.00  0.00    -0.449 A  
HETATM    6  C   UNL     1     -12.600  11.051  71.268  1.00  0.00    -0.517 A  
HETATM    7  C   UNL     1     -11.786  11.085  70.140  1.00  0.00    -0.442 A  
HETATM    8  C   UNL     1     -11.514  12.301  69.512  1.00  0.00    -0.318 A  
HETATM    9  C   UNL     1     -12.062  13.492  70.010  1.00  0.00    -0.341 A  
ENDROOT
BRANCH   9  10
HETATM   10  O   UNL     1     -11.720  14.741  69.447  1.00  0.00    -0.289 OA 
BRANCH  10  11
HETATM   11  C   UNL     1     -11.521  14.792  68.077  1.00  0.00    -0.331 C  
HETATM   12  O   UNL     1     -12.157  14.129  67.270  1.00  0.00    -0.417 OA 
BRANCH  11  13
HETATM   13  C   UNL     1     -10.330  15.617  67.733  1.00  0.00    -0.266 A  
HETATM   14  C   UNL     1     -10.019  16.682  68.595  1.00  0.00    -0.261 A  
HETATM   15  C   UNL     1      -9.025  17.600  68.251  1.00  0.00    -0.276 A  
HETATM   16  C   UNL     1      -8.325  17.452  67.055  1.00  0.00    -0.239 A  
HETATM   17  C   UNL     1      -8.595  16.371  66.215  1.00  0.00    -0.375 A  
HETATM   18  C   UNL     1      -9.592  15.455  66.555  1.00  0.00    -0.275 A  
HETATM   19  O   UNL     1      -9.834  14.397  65.726  1.00  0.00    -0.336 OA 
HETATM   20  H   UNL     1      -9.333  14.287  64.926  1.00  0.00     0.000 HD 
ENDBRANCH  11  13
ENDBRANCH  10  11
ENDBRANCH   9  10
TORSDOF 3
ENDMDL
MODEL       59
REMARK 921   NORMALIZED FREE ENERGY PREDICTED BY IDOCK:   -6.01 KCAL/MOL
REMARK 922        TOTAL FREE ENERGY PREDICTED BY IDOCK:   -7.41 KCAL/MOL
REMARK 923 INTER-LIGAND FREE ENERGY PREDICTED BY IDOCK:   -6.59 KCAL/MOL
REMARK 924 INTRA-LIGAND FREE ENERGY PREDICTED BY IDOCK:   -0.82 KCAL/MOL
REMARK 927      BINDING AFFINITY PREDICTED BY RF-SCORE:    0.00 PKD
ROOT
HETATM    1  O   UNL     1     -13.117  12.648  65.065  1.00  0.00    -0.808 OA 
HETATM    2  C   UNL     1     -12.344  13.575  64.468  1.00  0.00    -0.355 C  
HETATM    3  C   UNL     1     -11.279  14.165  65.328  1.00  0.00    -0.326 A  
HETATM    4  O   UNL     1     -12.541  13.958  63.325  1.00  0.00    -0.824 OA 
HETATM    5  C   UNL     1     -10.871  15.469  65.011  1.00  0.00    -0.468 A  
HETATM    6  C   UNL     1      -9.837  16.085  65.717  1.00  0.00    -0.357 A  
HETATM    7  C   UNL     1      -9.191  15.398  66.740  1.00  0.00    -0.273 A  
HETATM    8  C   UNL     1      -9.585  14.102  67.070  1.00  0.00    -0.264 A  
HETATM    9  C   UNL     1     -10.637  13.486  66.376  1.00  0.00    -0.283 A  
ENDROOT
BRANCH   9  10
HETATM   10  O   UNL     1     -10.986  12.140  66.628  1.00  0.00    -0.256 OA 
BRANCH  10  11
HETATM   11  C   UNL     1     -10.074  11.164  66.260  1.00  0.00    -0.232 C  
HETATM   12  O   UNL     1      -9.429  11.190  65.222  1.00  0.00    -0.215 OA 
BRANCH  11  13
HETATM   13  C   UNL     1     -10.113  10.006  67.196  1.00  0.00    -0.265 A  
HETATM   14  C   UNL     1     -10.189   8.724  66.625  1.00  0.00    -0.340 A  
HETATM   15  C   UNL     1     -10.399   7.605  67.432  1.00  0.00    -0.347 A  
HETATM   16  C   UNL     1     -10.518   7.755  68.813  1.00  0.00    -0.201 A  
HETATM   17  C   UNL     1     -10.398   9.018  69.393  1.00  0.00    -0.217 A  
HETATM   18  C   UNL     1     -10.192  10.139  68.586  1.00  0.00    -0.176 A  
HETATM   19  O   UNL     1     -10.066  11.366  69.174  1.00  0.00    -0.383 OA 
HETATM   20  H   UNL     1     -10.120  11.456  70.118  1.00  0.00     0.000 HD 
ENDBRANCH  11  13
ENDBRANCH  10  11
ENDBRANCH   9  10
TORSDOF 3
ENDMDL
MODEL       60
REMARK 921   NORMALIZED FREE ENERGY PREDICTED BY IDOCK:   -6.00 KCAL/MOL
REMARK 922        TOTAL FREE ENERGY PREDICTED BY IDOCK:   -7.41 KCAL/MOL
REMARK 923 INTER-LIGAND FREE ENERGY PREDICTED BY IDOCK:   -6.88 KCAL/MOL
REMARK 924 INTRA-LIGAND FREE ENERGY PREDICTED BY IDOCK:   -0.53 KCAL/MOL
REMARK 927      BINDING AFFINITY PREDICTED BY RF-SCORE:    0.00 PKD
ROOT
HETATM    1  O   UNL     1     -13.460  13.865  65.700  1.00  0.00    -0.590 OA 
HETATM    2  C   UNL     1     -12.278  14.056  65.085  1.00  0.00    -0.436 C  
HETATM    3  C   UNL     1     -11.198  14.619  65.945  1.00  0.00    -0.336 A  
HETATM    4  O   UNL     1     -12.116  13.850  63.893  1.00  0.00    -0.481 OA 
HETATM    5  C   UNL     1     -10.209  15.372  65.294  1.00  0.00    -0.390 A  
HETATM    6  C   UNL     1      -9.123  15.887  66.002  1.00  0.00    -0.363 A  
HETATM    7  C   UNL     1      -9.006  15.645  67.367  1.00  0.00    -0.205 A  
HETATM    8  C   UNL     1      -9.982  14.900  68.031  1.00  0.00    -0.220 A  
HETATM    9  C   UNL     1     -11.085  14.396  67.327  1.00  0.00    -0.311 A  
ENDROOT
BRANCH   9  10
HETATM   10  O   UNL     1     -12.031  13.559  67.960  1.00  0.00    -0.355 OA 
BRANCH  10  11
HETATM   11  C   UNL     1     -12.284  13.783  69.304  1.00  0.00    -0.264 C  
HETATM   12  O   UNL     1     -12.452  14.891  69.791  1.00  0.00    -0.270 OA 
BRANCH  11  13
HETATM   13  C   UNL     1     -12.152  12.528  70.095  1.00  0.00    -0.368 A  
HETATM   14  C   UNL     1     -11.345  11.513  69.555  1.00  0.00    -0.342 A  
HETATM   15  C   UNL     1     -11.307  10.250  70.150  1.00  0.00    -0.388 A  
HETATM   16  C   UNL     1     -12.060   9.999  71.296  1.00  0.00    -0.487 A  
HETATM   17  C   UNL     1     -12.829  11.014  71.866  1.00  0.00    -0.412 A  
HETATM   18  C   UNL     1     -12.871  12.276  71.269  1.00  0.00    -0.239 A  
HETATM   19  O   UNL     1     -13.620  13.260  71.848  1.00  0.00    -0.421 OA 
HETATM   20  H   UNL     1     -14.109  13.089  72.645  1.00  0.00     0.000 HD 
ENDBRANCH  11  13
ENDBRANCH  10  11
ENDBRANCH   9  10
TORSDOF 3
ENDMDL
MODEL       61
REMARK 921   NORMALIZED FREE ENERGY PREDICTED BY IDOCK:   -5.96 KCAL/MOL
REMARK 922        TOTAL FREE ENERGY PREDICTED BY IDOCK:   -7.36 KCAL/MOL
REMARK 923 INTER-LIGAND FREE ENERGY PREDICTED BY IDOCK:   -6.68 KCAL/MOL
REMARK 924 INTRA-LIGAND FREE ENERGY PREDICTED BY IDOCK:   -0.68 KCAL/MOL
REMARK 927      BINDING AFFINITY PREDICTED BY RF-SCORE:    0.00 PKD
ROOT
HETATM    1  O   UNL     1      -8.638  10.559  68.677  1.00  0.00    -0.124 OA 
HETATM    2  C   UNL     1      -9.488   9.654  69.199  1.00  0.00    -0.171 C  
HETATM    3  C   UNL     1     -10.644  10.224  69.948  1.00  0.00    -0.324 A  
HETATM    4  O   UNL     1      -9.294   8.450  69.126  1.00  0.00    -0.150 OA 
HETATM    5  C   UNL     1     -11.184   9.426  70.967  1.00  0.00    -0.412 A  
HETATM    6  C   UNL     1     -12.306   9.845  71.683  1.00  0.00    -0.496 A  
HETATM    7  C   UNL     1     -12.908  11.062  71.379  1.00  0.00    -0.548 A  
HETATM    8  C   UNL     1     -12.382  11.870  70.371  1.00  0.00    -0.334 A  
HETATM    9  C   UNL     1     -11.243  11.462  69.662  1.00  0.00    -0.230 A  
ENDROOT
BRANCH   9  10
HETATM   10  O   UNL     1     -10.754  12.218  68.573  1.00  0.00    -0.223 OA 
BRANCH  10  11
HETATM   11  C   UNL     1     -11.383  12.056  67.349  1.00  0.00    -0.327 C  
HETATM   12  O   UNL     1     -11.908  11.014  66.985  1.00  0.00    -0.322 OA 
BRANCH  11  13
HETATM   13  C   UNL     1     -11.184  13.246  66.476  1.00  0.00    -0.329 A  
HETATM   14  C   UNL     1     -10.136  14.119  66.815  1.00  0.00    -0.262 A  
HETATM   15  C   UNL     1      -9.993  15.339  66.150  1.00  0.00    -0.325 A  
HETATM   16  C   UNL     1     -10.882  15.687  65.135  1.00  0.00    -0.448 A  
HETATM   17  C   UNL     1     -11.898  14.806  64.762  1.00  0.00    -0.425 A  
HETATM   18  C   UNL     1     -12.045  13.588  65.428  1.00  0.00    -0.415 A  
HETATM   19  O   UNL     1     -13.039  12.735  65.041  1.00  0.00    -0.811 OA 
HETATM   20  H   UNL     1     -13.624  12.967  64.329  1.00  0.00     0.000 HD 
ENDBRANCH  11  13
ENDBRANCH  10  11
ENDBRANCH   9  10
TORSDOF 3
ENDMDL
MODEL       62
REMARK 921   NORMALIZED FREE ENERGY PREDICTED BY IDOCK:   -5.93 KCAL/MOL
REMARK 922        TOTAL FREE ENERGY PREDICTED BY IDOCK:   -7.32 KCAL/MOL
REMARK 923 INTER-LIGAND FREE ENERGY PREDICTED BY IDOCK:   -6.54 KCAL/MOL
REMARK 924 INTRA-LIGAND FREE ENERGY PREDICTED BY IDOCK:   -0.78 KCAL/MOL
REMARK 927      BINDING AFFINITY PREDICTED BY RF-SCORE:    0.00 PKD
ROOT
HETATM    1  O   UNL     1     -10.421  13.254  67.552  1.00  0.00    -0.233 OA 
HETATM    2  C   UNL     1     -11.554  13.066  68.255  1.00  0.00    -0.340 C  
HETATM    3  C   UNL     1     -11.732  13.968  69.429  1.00  0.00    -0.365 A  
HETATM    4  O   UNL     1     -12.350  12.177  67.996  1.00  0.00    -0.292 OA 
HETATM    5  C   UNL     1     -12.503  13.470  70.489  1.00  0.00    -0.373 A  
HETATM    6  C   UNL     1     -12.779  14.261  71.604  1.00  0.00    -0.430 A  
HETATM    7  C   UNL     1     -12.297  15.565  71.667  1.00  0.00    -0.471 A  
HETATM    8  C   UNL     1     -11.526  16.075  70.622  1.00  0.00    -0.427 A  
HETATM    9  C   UNL     1     -11.230  15.277  69.508  1.00  0.00    -0.281 A  
ENDROOT
BRANCH   9  10
HETATM   10  O   UNL     1     -10.534  15.807  68.398  1.00  0.00    -0.234 OA 
BRANCH  10  11
HETATM   11  C   UNL     1      -9.318  16.425  68.641  1.00  0.00    -0.233 C  
HETATM   12  O   UNL     1      -8.425  15.932  69.316  1.00  0.00    -0.242 OA 
BRANCH  11  13
HETATM   13  C   UNL     1      -9.309  17.823  68.128  1.00  0.00    -0.281 A  
HETATM   14  C   UNL     1     -10.380  18.208  67.304  1.00  0.00    -0.399 A  
HETATM   15  C   UNL     1     -10.357  19.441  66.648  1.00  0.00    -0.555 A  
HETATM   16  C   UNL     1      -9.275  20.302  66.824  1.00  0.00    -0.452 A  
HETATM   17  C   UNL     1      -8.228  19.947  67.676  1.00  0.00    -0.349 A  
HETATM   18  C   UNL     1      -8.248  18.712  68.328  1.00  0.00    -0.323 A  
HETATM   19  O   UNL     1      -7.220  18.388  69.167  1.00  0.00    -0.263 OA 
HETATM   20  H   UNL     1      -6.499  18.992  69.303  1.00  0.00     0.000 HD 
ENDBRANCH  11  13
ENDBRANCH  10  11
ENDBRANCH   9  10
TORSDOF 3
ENDMDL
MODEL       63
REMARK 921   NORMALIZED FREE ENERGY PREDICTED BY IDOCK:   -5.92 KCAL/MOL
REMARK 922        TOTAL FREE ENERGY PREDICTED BY IDOCK:   -7.31 KCAL/MOL
REMARK 923 INTER-LIGAND FREE ENERGY PREDICTED BY IDOCK:   -6.95 KCAL/MOL
REMARK 924 INTRA-LIGAND FREE ENERGY PREDICTED BY IDOCK:   -0.36 KCAL/MOL
REMARK 927      BINDING AFFINITY PREDICTED BY RF-SCORE:    0.00 PKD
ROOT
HETATM    1  O   UNL     1     -13.460  12.336  64.665  1.00  0.00    -0.620 OA 
HETATM    2  C   UNL     1     -12.407  13.058  64.239  1.00  0.00    -0.366 C  
HETATM    3  C   UNL     1     -11.824  13.989  65.247  1.00  0.00    -0.363 A  
HETATM    4  O   UNL     1     -11.997  13.009  63.089  1.00  0.00    -0.534 OA 
HETATM    5  C   UNL     1     -11.184  15.132  64.746  1.00  0.00    -0.396 A  
HETATM    6  C   UNL     1     -10.552  16.030  65.607  1.00  0.00    -0.392 A  
HETATM    7  C   UNL     1     -10.543  15.790  66.977  1.00  0.00    -0.316 A  
HETATM    8  C   UNL     1     -11.177  14.659  67.492  1.00  0.00    -0.343 A  
HETATM    9  C   UNL     1     -11.829  13.763  66.633  1.00  0.00    -0.412 A  
ENDROOT
BRANCH   9  10
HETATM   10  O   UNL     1     -12.392  12.563  67.124  1.00  0.00    -0.376 OA 
BRANCH  10  11
HETATM   11  C   UNL     1     -11.679  11.873  68.092  1.00  0.00    -0.320 C  
HETATM   12  O   UNL     1     -11.600  12.223  69.261  1.00  0.00    -0.284 OA 
BRANCH  11  13
HETATM   13  C   UNL     1     -10.890  10.761  67.493  1.00  0.00    -0.342 A  
HETATM   14  C   UNL     1     -10.274  11.009  66.255  1.00  0.00    -0.295 A  
HETATM   15  C   UNL     1      -9.662   9.969  65.552  1.00  0.00    -0.355 A  
HETATM   16  C   UNL     1      -9.646   8.682  66.087  1.00  0.00    -0.305 A  
HETATM   17  C   UNL     1     -10.214   8.437  67.338  1.00  0.00    -0.328 A  
HETATM   18  C   UNL     1     -10.831   9.474  68.040  1.00  0.00    -0.168 A  
HETATM   19  O   UNL     1     -11.372   9.217  69.267  1.00  0.00    -0.436 OA 
HETATM   20  H   UNL     1     -11.332   8.343  69.638  1.00  0.00     0.000 HD 
ENDBRANCH  11  13
ENDBRANCH  10  11
ENDBRANCH   9  10
TORSDOF 3
ENDMDL
MODEL       64
REMARK 921   NORMALIZED FREE ENERGY PREDICTED BY IDOCK:   -5.92 KCAL/MOL
REMARK 922        TOTAL FREE ENERGY PREDICTED BY IDOCK:   -7.31 KCAL/MOL
REMARK 923 INTER-LIGAND FREE ENERGY PREDICTED BY IDOCK:   -7.11 KCAL/MOL
REMARK 924 INTRA-LIGAND FREE ENERGY PREDICTED BY IDOCK:   -0.20 KCAL/MOL
REMARK 927      BINDING AFFINITY PREDICTED BY RF-SCORE:    0.00 PKD
ROOT
HETATM    1  O   UNL     1      -9.443   9.971  68.636  1.00  0.00    -0.147 OA 
HETATM    2  C   UNL     1     -10.491   9.427  69.283  1.00  0.00    -0.218 C  
HETATM    3  C   UNL     1     -11.315  10.384  70.076  1.00  0.00    -0.384 A  
HETATM    4  O   UNL     1     -10.716   8.227  69.280  1.00  0.00    -0.211 OA 
HETATM    5  C   UNL     1     -11.991   9.856  71.186  1.00  0.00    -0.473 A  
HETATM    6  C   UNL     1     -12.836  10.657  71.954  1.00  0.00    -0.487 A  
HETATM    7  C   UNL     1     -13.026  11.993  71.613  1.00  0.00    -0.439 A  
HETATM    8  C   UNL     1     -12.360  12.534  70.513  1.00  0.00    -0.345 A  
HETATM    9  C   UNL     1     -11.494  11.738  69.750  1.00  0.00    -0.245 A  
ENDROOT
BRANCH   9  10
HETATM   10  O   UNL     1     -10.888  12.241  68.577  1.00  0.00    -0.219 OA 
BRANCH  10  11
HETATM   11  C   UNL     1     -11.662  13.037  67.749  1.00  0.00    -0.359 C  
HETATM   12  O   UNL     1     -12.362  13.957  68.146  1.00  0.00    -0.250 OA 
BRANCH  11  13
HETATM   13  C   UNL     1     -11.667  12.522  66.351  1.00  0.00    -0.458 A  
HETATM   14  C   UNL     1     -10.690  11.568  66.018  1.00  0.00    -0.332 A  
HETATM   15  C   UNL     1     -10.522  11.165  64.692  1.00  0.00    -0.400 A  
HETATM   16  C   UNL     1     -11.337  11.698  63.695  1.00  0.00    -0.485 A  
HETATM   17  C   UNL     1     -12.340  12.611  64.023  1.00  0.00    -0.528 A  
HETATM   18  C   UNL     1     -12.506  13.018  65.348  1.00  0.00    -0.476 A  
HETATM   19  O   UNL     1     -13.500  13.904  65.651  1.00  0.00    -0.655 OA 
HETATM   20  H   UNL     1     -14.070  14.242  64.969  1.00  0.00     0.000 HD 
ENDBRANCH  11  13
ENDBRANCH  10  11
ENDBRANCH   9  10
TORSDOF 3
ENDMDL
MODEL       65
REMARK 921   NORMALIZED FREE ENERGY PREDICTED BY IDOCK:   -5.92 KCAL/MOL
REMARK 922        TOTAL FREE ENERGY PREDICTED BY IDOCK:   -7.31 KCAL/MOL
REMARK 923 INTER-LIGAND FREE ENERGY PREDICTED BY IDOCK:   -6.71 KCAL/MOL
REMARK 924 INTRA-LIGAND FREE ENERGY PREDICTED BY IDOCK:   -0.60 KCAL/MOL
REMARK 927      BINDING AFFINITY PREDICTED BY RF-SCORE:    0.00 PKD
ROOT
HETATM    1  O   UNL     1     -11.207  11.067  70.432  1.00  0.00    -0.232 OA 
HETATM    2  C   UNL     1     -12.443  11.334  70.896  1.00  0.00    -0.394 C  
HETATM    3  C   UNL     1     -12.745  12.778  71.109  1.00  0.00    -0.355 A  
HETATM    4  O   UNL     1     -13.239  10.455  71.188  1.00  0.00    -0.373 OA 
HETATM    5  C   UNL     1     -13.697  13.079  72.095  1.00  0.00    -0.547 A  
HETATM    6  C   UNL     1     -14.093  14.396  72.325  1.00  0.00    -0.609 A  
HETATM    7  C   UNL     1     -13.551  15.428  71.564  1.00  0.00    -0.604 A  
HETATM    8  C   UNL     1     -12.602  15.146  70.582  1.00  0.00    -0.450 A  
HETATM    9  C   UNL     1     -12.186  13.825  70.359  1.00  0.00    -0.363 A  
ENDROOT
BRANCH   9  10
HETATM   10  O   UNL     1     -11.300  13.510  69.305  1.00  0.00    -0.259 OA 
BRANCH  10  11
HETATM   11  C   UNL     1     -11.481  14.167  68.100  1.00  0.00    -0.310 C  
HETATM   12  O   UNL     1     -12.398  13.933  67.326  1.00  0.00    -0.347 OA 
BRANCH  11  13
HETATM   13  C   UNL     1     -10.331  15.062  67.792  1.00  0.00    -0.245 A  
HETATM   14  C   UNL     1      -9.621  15.589  68.885  1.00  0.00    -0.220 A  
HETATM   15  C   UNL     1      -8.643  16.565  68.685  1.00  0.00    -0.243 A  
HETATM   16  C   UNL     1      -8.356  17.009  67.395  1.00  0.00    -0.206 A  
HETATM   17  C   UNL     1      -9.023  16.458  66.300  1.00  0.00    -0.368 A  
HETATM   18  C   UNL     1     -10.005  15.485  66.499  1.00  0.00    -0.269 A  
HETATM   19  O   UNL     1     -10.640  14.950  65.414  1.00  0.00    -0.318 OA 
HETATM   20  H   UNL     1     -10.418  15.238  64.536  1.00  0.00     0.000 HD 
ENDBRANCH  11  13
ENDBRANCH  10  11
ENDBRANCH   9  10
TORSDOF 3
ENDMDL
MODEL       66
REMARK 921   NORMALIZED FREE ENERGY PREDICTED BY IDOCK:   -5.91 KCAL/MOL
REMARK 922        TOTAL FREE ENERGY PREDICTED BY IDOCK:   -7.29 KCAL/MOL
REMARK 923 INTER-LIGAND FREE ENERGY PREDICTED BY IDOCK:   -6.50 KCAL/MOL
REMARK 924 INTRA-LIGAND FREE ENERGY PREDICTED BY IDOCK:   -0.79 KCAL/MOL
REMARK 927      BINDING AFFINITY PREDICTED BY RF-SCORE:    0.00 PKD
ROOT
HETATM    1  O   UNL     1      -8.933   9.945  69.948  1.00  0.00    -0.211 OA 
HETATM    2  C   UNL     1      -9.743   8.869  69.953  1.00  0.00    -0.177 C  
HETATM    3  C   UNL     1     -11.014   9.033  70.715  1.00  0.00    -0.315 A  
HETATM    4  O   UNL     1      -9.433   7.810  69.431  1.00  0.00    -0.156 OA 
HETATM    5  C   UNL     1     -11.576   7.866  71.253  1.00  0.00    -0.304 A  
HETATM    6  C   UNL     1     -12.796   7.907  71.927  1.00  0.00    -0.331 A  
HETATM    7  C   UNL     1     -13.475   9.115  72.061  1.00  0.00    -0.510 A  
HETATM    8  C   UNL     1     -12.930  10.285  71.535  1.00  0.00    -0.556 A  
HETATM    9  C   UNL     1     -11.694  10.252  70.872  1.00  0.00    -0.379 A  
ENDROOT
BRANCH   9  10
HETATM   10  O   UNL     1     -11.173  11.407  70.248  1.00  0.00    -0.147 OA 
BRANCH  10  11
HETATM   11  C   UNL     1     -11.781  11.830  69.077  1.00  0.00    -0.328 C  
HETATM   12  O   UNL     1     -12.135  11.078  68.181  1.00  0.00    -0.610 OA 
BRANCH  11  13
HETATM   13  C   UNL     1     -11.788  13.316  68.977  1.00  0.00    -0.365 A  
HETATM   14  C   UNL     1     -11.451  13.875  67.733  1.00  0.00    -0.354 A  
HETATM   15  C   UNL     1     -11.270  15.254  67.606  1.00  0.00    -0.320 A  
HETATM   16  C   UNL     1     -11.441  16.083  68.713  1.00  0.00    -0.375 A  
HETATM   17  C   UNL     1     -11.821  15.542  69.941  1.00  0.00    -0.380 A  
HETATM   18  C   UNL     1     -11.997  14.163  70.072  1.00  0.00    -0.340 A  
HETATM   19  O   UNL     1     -12.380  13.653  71.279  1.00  0.00    -0.345 OA 
HETATM   20  H   UNL     1     -12.522  14.229  72.023  1.00  0.00     0.000 HD 
ENDBRANCH  11  13
ENDBRANCH  10  11
ENDBRANCH   9  10
TORSDOF 3
ENDMDL
MODEL       67
REMARK 921   NORMALIZED FREE ENERGY PREDICTED BY IDOCK:   -5.88 KCAL/MOL
REMARK 922        TOTAL FREE ENERGY PREDICTED BY IDOCK:   -7.26 KCAL/MOL
REMARK 923 INTER-LIGAND FREE ENERGY PREDICTED BY IDOCK:   -5.99 KCAL/MOL
REMARK 924 INTRA-LIGAND FREE ENERGY PREDICTED BY IDOCK:   -1.27 KCAL/MOL
REMARK 927      BINDING AFFINITY PREDICTED BY RF-SCORE:    0.00 PKD
ROOT
HETATM    1  O   UNL     1     -12.175  15.439  66.301  1.00  0.00     0.417 OA 
HETATM    2  C   UNL     1     -10.910  15.457  65.841  1.00  0.00    -0.325 C  
HETATM    3  C   UNL     1      -9.898  14.826  66.737  1.00  0.00    -0.263 A  
HETATM    4  O   UNL     1     -10.597  16.009  64.798  1.00  0.00    -0.600 OA 
HETATM    5  C   UNL     1      -8.587  15.314  66.639  1.00  0.00    -0.305 A  
HETATM    6  C   UNL     1      -7.557  14.746  67.389  1.00  0.00    -0.228 A  
HETATM    7  C   UNL     1      -7.824  13.676  68.238  1.00  0.00    -0.141 A  
HETATM    8  C   UNL     1      -9.124  13.180  68.349  1.00  0.00    -0.134 A  
HETATM    9  C   UNL     1     -10.166  13.760  67.611  1.00  0.00    -0.242 A  
ENDROOT
BRANCH   9  10
HETATM   10  O   UNL     1     -11.467  13.211  67.635  1.00  0.00    -0.286 OA 
BRANCH  10  11
HETATM   11  C   UNL     1     -11.616  11.902  67.207  1.00  0.00    -0.293 C  
HETATM   12  O   UNL     1     -11.859  10.964  67.953  1.00  0.00    -0.590 OA 
BRANCH  11  13
HETATM   13  C   UNL     1     -11.274  11.761  65.765  1.00  0.00    -0.337 A  
HETATM   14  C   UNL     1     -10.084  11.081  65.453  1.00  0.00    -0.326 A  
HETATM   15  C   UNL     1      -9.610  11.056  64.140  1.00  0.00    -0.306 A  
HETATM   16  C   UNL     1     -10.326  11.694  63.129  1.00  0.00    -0.383 A  
HETATM   17  C   UNL     1     -11.532  12.333  63.421  1.00  0.00    -0.512 A  
HETATM   18  C   UNL     1     -12.005  12.363  64.735  1.00  0.00    -0.398 A  
HETATM   19  O   UNL     1     -13.193  12.983  64.999  1.00  0.00    -0.739 OA 
HETATM   20  H   UNL     1     -13.690  13.391  64.299  1.00  0.00     0.000 HD 
ENDBRANCH  11  13
ENDBRANCH  10  11
ENDBRANCH   9  10
TORSDOF 3
ENDMDL
MODEL       68
REMARK 921   NORMALIZED FREE ENERGY PREDICTED BY IDOCK:   -5.87 KCAL/MOL
REMARK 922        TOTAL FREE ENERGY PREDICTED BY IDOCK:   -7.25 KCAL/MOL
REMARK 923 INTER-LIGAND FREE ENERGY PREDICTED BY IDOCK:   -6.44 KCAL/MOL
REMARK 924 INTRA-LIGAND FREE ENERGY PREDICTED BY IDOCK:   -0.81 KCAL/MOL
REMARK 927      BINDING AFFINITY PREDICTED BY RF-SCORE:    0.00 PKD
ROOT
HETATM    1  O   UNL     1     -11.606  10.510  67.793  1.00  0.00    -0.462 OA 
HETATM    2  C   UNL     1     -11.338  11.734  68.288  1.00  0.00    -0.282 C  
HETATM    3  C   UNL     1     -11.986  12.048  69.593  1.00  0.00    -0.360 A  
HETATM    4  O   UNL     1     -10.669  12.556  67.682  1.00  0.00    -0.212 OA 
HETATM    5  C   UNL     1     -12.249  13.401  69.851  1.00  0.00    -0.337 A  
HETATM    6  C   UNL     1     -12.795  13.802  71.071  1.00  0.00    -0.376 A  
HETATM    7  C   UNL     1     -13.074  12.855  72.052  1.00  0.00    -0.483 A  
HETATM    8  C   UNL     1     -12.822  11.505  71.810  1.00  0.00    -0.441 A  
HETATM    9  C   UNL     1     -12.290  11.094  70.579  1.00  0.00    -0.364 A  
ENDROOT
BRANCH   9  10
HETATM   10  O   UNL     1     -11.937   9.745  70.353  1.00  0.00    -0.235 OA 
BRANCH  10  11
HETATM   11  C   UNL     1     -10.769   9.284  70.937  1.00  0.00    -0.301 C  
HETATM   12  O   UNL     1      -9.672   9.796  70.765  1.00  0.00    -0.192 OA 
BRANCH  11  13
HETATM   13  C   UNL     1     -10.992   7.997  71.652  1.00  0.00    -0.288 A  
HETATM   14  C   UNL     1     -10.472   7.890  72.954  1.00  0.00    -0.422 A  
HETATM   15  C   UNL     1     -10.492   6.665  73.622  1.00  0.00    -0.353 A  
HETATM   16  C   UNL     1     -11.044   5.544  73.003  1.00  0.00    -0.350 A  
HETATM   17  C   UNL     1     -11.604   5.651  71.730  1.00  0.00    -0.033 A  
HETATM   18  C   UNL     1     -11.581   6.876  71.059  1.00  0.00    -0.328 A  
HETATM   19  O   UNL     1     -12.144   6.963  69.817  1.00  0.00    -0.623 OA 
HETATM   20  H   UNL     1     -12.544   6.202  69.414  1.00  0.00     0.000 HD 
ENDBRANCH  11  13
ENDBRANCH  10  11
ENDBRANCH   9  10
TORSDOF 3
ENDMDL
MODEL       69
REMARK 921   NORMALIZED FREE ENERGY PREDICTED BY IDOCK:   -5.86 KCAL/MOL
REMARK 922        TOTAL FREE ENERGY PREDICTED BY IDOCK:   -7.24 KCAL/MOL
REMARK 923 INTER-LIGAND FREE ENERGY PREDICTED BY IDOCK:   -6.43 KCAL/MOL
REMARK 924 INTRA-LIGAND FREE ENERGY PREDICTED BY IDOCK:   -0.81 KCAL/MOL
REMARK 927      BINDING AFFINITY PREDICTED BY RF-SCORE:    0.00 PKD
ROOT
HETATM    1  O   UNL     1      -8.073  10.508  69.109  1.00  0.00    -0.135 OA 
HETATM    2  C   UNL     1      -8.772   9.537  69.725  1.00  0.00    -0.194 C  
HETATM    3  C   UNL     1     -10.161   9.906  70.121  1.00  0.00    -0.326 A  
HETATM    4  O   UNL     1      -8.286   8.451  70.002  1.00  0.00    -0.118 OA 
HETATM    5  C   UNL     1     -10.697   9.230  71.227  1.00  0.00    -0.422 A  
HETATM    6  C   UNL     1     -12.010   9.460  71.636  1.00  0.00    -0.465 A  
HETATM    7  C   UNL     1     -12.808  10.361  70.937  1.00  0.00    -0.482 A  
HETATM    8  C   UNL     1     -12.290  11.044  69.837  1.00  0.00    -0.356 A  
HETATM    9  C   UNL     1     -10.964  10.830  69.433  1.00  0.00    -0.254 A  
ENDROOT
BRANCH   9  10
HETATM   10  O   UNL     1     -10.453  11.438  68.264  1.00  0.00    -0.184 OA 
BRANCH  10  11
HETATM   11  C   UNL     1     -10.803  10.877  67.047  1.00  0.00    -0.266 C  
HETATM   12  O   UNL     1     -10.657   9.695  66.773  1.00  0.00    -0.209 OA 
BRANCH  11  13
HETATM   13  C   UNL     1     -11.212  11.922  66.067  1.00  0.00    -0.377 A  
HETATM   14  C   UNL     1     -11.827  13.076  66.582  1.00  0.00    -0.455 A  
HETATM   15  C   UNL     1     -12.389  14.019  65.719  1.00  0.00    -0.506 A  
HETATM   16  C   UNL     1     -12.326  13.825  64.340  1.00  0.00    -0.389 A  
HETATM   17  C   UNL     1     -11.677  12.705  63.819  1.00  0.00    -0.566 A  
HETATM   18  C   UNL     1     -11.119  11.759  64.680  1.00  0.00    -0.303 A  
HETATM   19  O   UNL     1     -10.478  10.675  64.151  1.00  0.00    -0.426 OA 
HETATM   20  H   UNL     1     -10.415  10.565  63.209  1.00  0.00     0.000 HD 
ENDBRANCH  11  13
ENDBRANCH  10  11
ENDBRANCH   9  10
TORSDOF 3
ENDMDL
MODEL       70
REMARK 921   NORMALIZED FREE ENERGY PREDICTED BY IDOCK:   -5.84 KCAL/MOL
REMARK 922        TOTAL FREE ENERGY PREDICTED BY IDOCK:   -7.21 KCAL/MOL
REMARK 923 INTER-LIGAND FREE ENERGY PREDICTED BY IDOCK:   -6.52 KCAL/MOL
REMARK 924 INTRA-LIGAND FREE ENERGY PREDICTED BY IDOCK:   -0.70 KCAL/MOL
REMARK 927      BINDING AFFINITY PREDICTED BY RF-SCORE:    0.00 PKD
ROOT
HETATM    1  O   UNL     1     -12.021  11.322  68.023  1.00  0.00    -0.621 OA 
HETATM    2  C   UNL     1     -11.475  12.358  68.689  1.00  0.00    -0.303 C  
HETATM    3  C   UNL     1     -12.126  12.693  69.988  1.00  0.00    -0.339 A  
HETATM    4  O   UNL     1     -10.557  13.021  68.235  1.00  0.00    -0.233 OA 
HETATM    5  C   UNL     1     -12.033  14.028  70.408  1.00  0.00    -0.398 A  
HETATM    6  C   UNL     1     -12.555  14.427  71.639  1.00  0.00    -0.429 A  
HETATM    7  C   UNL     1     -13.166  13.492  72.469  1.00  0.00    -0.551 A  
HETATM    8  C   UNL     1     -13.271  12.161  72.066  1.00  0.00    -0.496 A  
HETATM    9  C   UNL     1     -12.764  11.759  70.821  1.00  0.00    -0.167 A  
ENDROOT
BRANCH   9  10
HETATM   10  O   UNL     1     -12.773  10.400  70.437  1.00  0.00    -0.305 OA 
BRANCH  10  11
HETATM   11  C   UNL     1     -12.609   9.453  71.436  1.00  0.00    -0.348 C  
HETATM   12  O   UNL     1     -13.427   9.244  72.319  1.00  0.00    -0.430 OA 
BRANCH  11  13
HETATM   13  C   UNL     1     -11.246   8.854  71.395  1.00  0.00    -0.382 A  
HETATM   14  C   UNL     1     -10.638   8.564  72.629  1.00  0.00    -0.217 A  
HETATM   15  C   UNL     1      -9.302   8.161  72.678  1.00  0.00    -0.342 A  
HETATM   16  C   UNL     1      -8.570   8.030  71.499  1.00  0.00    -0.157 A  
HETATM   17  C   UNL     1      -9.179   8.272  70.267  1.00  0.00    -0.155 A  
HETATM   18  C   UNL     1     -10.513   8.679  70.216  1.00  0.00    -0.210 A  
HETATM   19  O   UNL     1     -11.094   8.900  69.000  1.00  0.00    -0.432 OA 
HETATM   20  H   UNL     1     -10.597   8.782  68.199  1.00  0.00     0.000 HD 
ENDBRANCH  11  13
ENDBRANCH  10  11
ENDBRANCH   9  10
TORSDOF 3
ENDMDL
MODEL       71
REMARK 921   NORMALIZED FREE ENERGY PREDICTED BY IDOCK:   -5.83 KCAL/MOL
REMARK 922        TOTAL FREE ENERGY PREDICTED BY IDOCK:   -7.21 KCAL/MOL
REMARK 923 INTER-LIGAND FREE ENERGY PREDICTED BY IDOCK:   -5.98 KCAL/MOL
REMARK 924 INTRA-LIGAND FREE ENERGY PREDICTED BY IDOCK:   -1.22 KCAL/MOL
REMARK 927      BINDING AFFINITY PREDICTED BY RF-SCORE:    0.00 PKD
ROOT
HETATM    1  O   UNL     1      -8.694  16.467  65.737  1.00  0.00    -0.460 OA 
HETATM    2  C   UNL     1     -10.032  16.404  65.594  1.00  0.00    -0.238 C  
HETATM    3  C   UNL     1     -10.583  15.040  65.358  1.00  0.00    -0.398 A  
HETATM    4  O   UNL     1     -10.740  17.399  65.590  1.00  0.00    -0.458 OA 
HETATM    5  C   UNL     1     -11.783  14.967  64.636  1.00  0.00    -0.406 A  
HETATM    6  C   UNL     1     -12.411  13.740  64.417  1.00  0.00    -0.389 A  
HETATM    7  C   UNL     1     -11.851  12.573  64.928  1.00  0.00    -0.438 A  
HETATM    8  C   UNL     1     -10.657  12.627  65.646  1.00  0.00    -0.299 A  
HETATM    9  C   UNL     1     -10.012  13.856  65.852  1.00  0.00    -0.300 A  
ENDROOT
BRANCH   9  10
HETATM   10  O   UNL     1      -8.855  13.944  66.658  1.00  0.00    -0.191 OA 
BRANCH  10  11
HETATM   11  C   UNL     1      -8.951  13.490  67.964  1.00  0.00    -0.189 C  
HETATM   12  O   UNL     1      -8.398  12.481  68.378  1.00  0.00    -0.167 OA 
BRANCH  11  13
HETATM   13  C   UNL     1      -9.942  14.283  68.742  1.00  0.00    -0.205 A  
HETATM   14  C   UNL     1     -11.171  13.665  69.030  1.00  0.00    -0.316 A  
HETATM   15  C   UNL     1     -12.211  14.399  69.604  1.00  0.00    -0.353 A  
HETATM   16  C   UNL     1     -12.027  15.746  69.908  1.00  0.00    -0.346 A  
HETATM   17  C   UNL     1     -10.795  16.357  69.668  1.00  0.00    -0.346 A  
HETATM   18  C   UNL     1      -9.756  15.626  69.090  1.00  0.00    -0.249 A  
HETATM   19  O   UNL     1      -8.554  16.237  68.872  1.00  0.00    -0.236 OA 
HETATM   20  H   UNL     1      -8.427  17.149  69.109  1.00  0.00     0.000 HD 
ENDBRANCH  11  13
ENDBRANCH  10  11
ENDBRANCH   9  10
TORSDOF 3
ENDMDL
MODEL       72
REMARK 921   NORMALIZED FREE ENERGY PREDICTED BY IDOCK:   -5.80 KCAL/MOL
REMARK 922        TOTAL FREE ENERGY PREDICTED BY IDOCK:   -7.17 KCAL/MOL
REMARK 923 INTER-LIGAND FREE ENERGY PREDICTED BY IDOCK:   -6.36 KCAL/MOL
REMARK 924 INTRA-LIGAND FREE ENERGY PREDICTED BY IDOCK:   -0.81 KCAL/MOL
REMARK 927      BINDING AFFINITY PREDICTED BY RF-SCORE:    0.00 PKD
ROOT
HETATM    1  O   UNL     1      -8.888  13.096  67.984  1.00  0.00    -0.176 OA 
HETATM    2  C   UNL     1      -9.040  12.450  66.812  1.00  0.00    -0.212 C  
HETATM    3  C   UNL     1     -10.150  12.947  65.950  1.00  0.00    -0.295 A  
HETATM    4  O   UNL     1      -8.363  11.482  66.503  1.00  0.00    -0.170 OA 
HETATM    5  C   UNL     1     -10.730  12.014  65.077  1.00  0.00    -0.341 A  
HETATM    6  C   UNL     1     -11.732  12.398  64.187  1.00  0.00    -0.476 A  
HETATM    7  C   UNL     1     -12.159  13.722  64.150  1.00  0.00    -0.478 A  
HETATM    8  C   UNL     1     -11.595  14.662  65.013  1.00  0.00    -0.385 A  
HETATM    9  C   UNL     1     -10.600  14.277  65.923  1.00  0.00    -0.302 A  
ENDROOT
BRANCH   9  10
HETATM   10  O   UNL     1      -9.950  15.232  66.736  1.00  0.00    -0.234 OA 
BRANCH  10  11
HETATM   11  C   UNL     1     -10.712  15.883  67.692  1.00  0.00    -0.312 C  
HETATM   12  O   UNL     1     -11.574  15.337  68.365  1.00  0.00    -0.331 OA 
BRANCH  11  13
HETATM   13  C   UNL     1     -10.469  17.352  67.671  1.00  0.00    -0.368 A  
HETATM   14  C   UNL     1     -10.275  17.950  66.414  1.00  0.00    -0.372 A  
HETATM   15  C   UNL     1      -9.875  19.284  66.322  1.00  0.00    -0.456 A  
HETATM   16  C   UNL     1      -9.682  20.034  67.481  1.00  0.00    -0.539 A  
HETATM   17  C   UNL     1      -9.916  19.462  68.732  1.00  0.00    -0.522 A  
HETATM   18  C   UNL     1     -10.312  18.126  68.826  1.00  0.00    -0.253 A  
HETATM   19  O   UNL     1     -10.547  17.587  70.058  1.00  0.00    -0.137 OA 
HETATM   20  H   UNL     1     -10.440  18.113  70.843  1.00  0.00     0.000 HD 
ENDBRANCH  11  13
ENDBRANCH  10  11
ENDBRANCH   9  10
TORSDOF 3
ENDMDL
MODEL       73
REMARK 921   NORMALIZED FREE ENERGY PREDICTED BY IDOCK:   -5.80 KCAL/MOL
REMARK 922        TOTAL FREE ENERGY PREDICTED BY IDOCK:   -7.17 KCAL/MOL
REMARK 923 INTER-LIGAND FREE ENERGY PREDICTED BY IDOCK:   -6.57 KCAL/MOL
REMARK 924 INTRA-LIGAND FREE ENERGY PREDICTED BY IDOCK:   -0.60 KCAL/MOL
REMARK 927      BINDING AFFINITY PREDICTED BY RF-SCORE:    0.00 PKD
ROOT
HETATM    1  O   UNL     1      -8.421  13.259  68.499  1.00  0.00    -0.148 OA 
HETATM    2  C   UNL     1      -8.482  14.123  67.468  1.00  0.00    -0.187 C  
HETATM    3  C   UNL     1      -9.774  14.137  66.725  1.00  0.00    -0.283 A  
HETATM    4  O   UNL     1      -7.527  14.799  67.119  1.00  0.00    -0.179 OA 
HETATM    5  C   UNL     1      -9.715  14.513  65.375  1.00  0.00    -0.163 A  
HETATM    6  C   UNL     1     -10.879  14.618  64.612  1.00  0.00    -0.332 A  
HETATM    7  C   UNL     1     -12.116  14.359  65.194  1.00  0.00    -0.395 A  
HETATM    8  C   UNL     1     -12.193  13.982  66.535  1.00  0.00    -0.485 A  
HETATM    9  C   UNL     1     -11.024  13.857  67.301  1.00  0.00    -0.290 A  
ENDROOT
BRANCH   9  10
HETATM   10  O   UNL     1     -11.088  13.571  68.683  1.00  0.00    -0.247 OA 
BRANCH  10  11
HETATM   11  C   UNL     1     -11.353  14.626  69.541  1.00  0.00    -0.280 C  
HETATM   12  O   UNL     1     -10.692  15.653  69.585  1.00  0.00    -0.232 OA 
BRANCH  11  13
HETATM   13  C   UNL     1     -12.428  14.277  70.512  1.00  0.00    -0.428 A  
HETATM   14  C   UNL     1     -13.265  15.321  70.941  1.00  0.00    -0.506 A  
HETATM   15  C   UNL     1     -14.182  15.110  71.972  1.00  0.00    -0.673 A  
HETATM   16  C   UNL     1     -14.280  13.854  72.570  1.00  0.00    -0.375 A  
HETATM   17  C   UNL     1     -13.485  12.800  72.120  1.00  0.00    -0.591 A  
HETATM   18  C   UNL     1     -12.564  13.011  71.091  1.00  0.00    -0.297 A  
HETATM   19  O   UNL     1     -11.802  11.964  70.657  1.00  0.00    -0.479 OA 
HETATM   20  H   UNL     1     -11.895  11.104  71.050  1.00  0.00     0.000 HD 
ENDBRANCH  11  13
ENDBRANCH  10  11
ENDBRANCH   9  10
TORSDOF 3
ENDMDL
MODEL       74
REMARK 921   NORMALIZED FREE ENERGY PREDICTED BY IDOCK:   -5.78 KCAL/MOL
REMARK 922        TOTAL FREE ENERGY PREDICTED BY IDOCK:   -7.14 KCAL/MOL
REMARK 923 INTER-LIGAND FREE ENERGY PREDICTED BY IDOCK:   -5.96 KCAL/MOL
REMARK 924 INTRA-LIGAND FREE ENERGY PREDICTED BY IDOCK:   -1.18 KCAL/MOL
REMARK 927      BINDING AFFINITY PREDICTED BY RF-SCORE:    0.00 PKD
ROOT
HETATM    1  O   UNL     1     -11.981  12.034  70.712  1.00  0.00    -0.288 OA 
HETATM    2  C   UNL     1     -12.846  11.392  71.520  1.00  0.00    -0.403 C  
HETATM    3  C   UNL     1     -12.803   9.903  71.441  1.00  0.00    -0.505 A  
HETATM    4  O   UNL     1     -13.656  11.981  72.218  1.00  0.00    -0.397 OA 
HETATM    5  C   UNL     1     -13.992   9.227  71.751  1.00  0.00    -0.324 A  
HETATM    6  C   UNL     1     -14.036   7.833  71.768  1.00  0.00    -0.519 A  
HETATM    7  C   UNL     1     -12.888   7.098  71.486  1.00  0.00    -0.434 A  
HETATM    8  C   UNL     1     -11.698   7.755  71.173  1.00  0.00    -0.304 A  
HETATM    9  C   UNL     1     -11.654   9.157  71.136  1.00  0.00    -0.317 A  
ENDROOT
BRANCH   9  10
HETATM   10  O   UNL     1     -10.437   9.840  70.918  1.00  0.00    -0.302 OA 
BRANCH  10  11
HETATM   11  C   UNL     1      -9.509   9.241  70.082  1.00  0.00    -0.226 C  
HETATM   12  O   UNL     1      -8.497   8.678  70.477  1.00  0.00    -0.127 OA 
BRANCH  11  13
HETATM   13  C   UNL     1      -9.810   9.520  68.650  1.00  0.00    -0.173 A  
HETATM   14  C   UNL     1      -9.944   8.411  67.797  1.00  0.00    -0.236 A  
HETATM   15  C   UNL     1     -10.057   8.593  66.417  1.00  0.00    -0.294 A  
HETATM   16  C   UNL     1     -10.053   9.881  65.883  1.00  0.00    -0.316 A  
HETATM   17  C   UNL     1      -9.966  10.989  66.726  1.00  0.00    -0.240 A  
HETATM   18  C   UNL     1      -9.849  10.808  68.106  1.00  0.00    -0.158 A  
HETATM   19  O   UNL     1      -9.776  11.905  68.916  1.00  0.00    -0.396 OA 
HETATM   20  H   UNL     1      -9.802  12.780  68.546  1.00  0.00     0.000 HD 
ENDBRANCH  11  13
ENDBRANCH  10  11
ENDBRANCH   9  10
TORSDOF 3
ENDMDL
MODEL       75
REMARK 921   NORMALIZED FREE ENERGY PREDICTED BY IDOCK:   -5.77 KCAL/MOL
REMARK 922        TOTAL FREE ENERGY PREDICTED BY IDOCK:   -7.13 KCAL/MOL
REMARK 923 INTER-LIGAND FREE ENERGY PREDICTED BY IDOCK:   -6.96 KCAL/MOL
REMARK 924 INTRA-LIGAND FREE ENERGY PREDICTED BY IDOCK:   -0.17 KCAL/MOL
REMARK 927      BINDING AFFINITY PREDICTED BY RF-SCORE:    0.00 PKD
ROOT
HETATM    1  O   UNL     1     -11.573  14.199  68.532  1.00  0.00    -0.278 OA 
HETATM    2  C   UNL     1     -11.050  14.885  69.566  1.00  0.00    -0.281 C  
HETATM    3  C   UNL     1     -11.845  14.838  70.827  1.00  0.00    -0.370 A  
HETATM    4  O   UNL     1     -10.035  15.556  69.465  1.00  0.00    -0.249 OA 
HETATM    5  C   UNL     1     -11.715  15.937  71.689  1.00  0.00    -0.563 A  
HETATM    6  C   UNL     1     -12.368  15.958  72.921  1.00  0.00    -0.593 A  
HETATM    7  C   UNL     1     -13.150  14.875  73.311  1.00  0.00    -0.585 A  
HETATM    8  C   UNL     1     -13.292  13.775  72.465  1.00  0.00    -0.656 A  
HETATM    9  C   UNL     1     -12.652  13.758  71.217  1.00  0.00    -0.362 A  
ENDROOT
BRANCH   9  10
HETATM   10  O   UNL     1     -12.704  12.614  70.389  1.00  0.00    -0.075 OA 
BRANCH  10  11
HETATM   11  C   UNL     1     -12.587  11.376  71.001  1.00  0.00    -0.386 C  
HETATM   12  O   UNL     1     -13.143  11.077  72.047  1.00  0.00    -0.496 OA 
BRANCH  11  13
HETATM   13  C   UNL     1     -11.568  10.530  70.319  1.00  0.00    -0.417 A  
HETATM   14  C   UNL     1     -11.235  10.870  68.997  1.00  0.00    -0.327 A  
HETATM   15  C   UNL     1     -10.421  10.029  68.237  1.00  0.00    -0.246 A  
HETATM   16  C   UNL     1      -9.921   8.853  68.796  1.00  0.00    -0.195 A  
HETATM   17  C   UNL     1     -10.209   8.531  70.122  1.00  0.00    -0.202 A  
HETATM   18  C   UNL     1     -11.027   9.369  70.882  1.00  0.00    -0.320 A  
HETATM   19  O   UNL     1     -11.289   9.042  72.182  1.00  0.00    -0.357 OA 
HETATM   20  H   UNL     1     -10.921   8.253  72.564  1.00  0.00     0.000 HD 
ENDBRANCH  11  13
ENDBRANCH  10  11
ENDBRANCH   9  10
TORSDOF 3
ENDMDL
MODEL       76
REMARK 921   NORMALIZED FREE ENERGY PREDICTED BY IDOCK:   -5.76 KCAL/MOL
REMARK 922        TOTAL FREE ENERGY PREDICTED BY IDOCK:   -7.12 KCAL/MOL
REMARK 923 INTER-LIGAND FREE ENERGY PREDICTED BY IDOCK:   -6.46 KCAL/MOL
REMARK 924 INTRA-LIGAND FREE ENERGY PREDICTED BY IDOCK:   -0.66 KCAL/MOL
REMARK 927      BINDING AFFINITY PREDICTED BY RF-SCORE:    0.00 PKD
ROOT
HETATM    1  O   UNL     1     -10.308   8.397  68.613  1.00  0.00    -0.203 OA 
HETATM    2  C   UNL     1     -10.731   7.231  69.136  1.00  0.00    -0.185 C  
HETATM    3  C   UNL     1     -10.631   7.124  70.619  1.00  0.00    -0.243 A  
HETATM    4  O   UNL     1     -11.108   6.298  68.443  1.00  0.00    -0.323 OA 
HETATM    5  C   UNL     1     -10.473   5.832  71.144  1.00  0.00    -0.301 A  
HETATM    6  C   UNL     1     -10.432   5.622  72.522  1.00  0.00    -0.255 A  
HETATM    7  C   UNL     1     -10.562   6.700  73.393  1.00  0.00    -0.333 A  
HETATM    8  C   UNL     1     -10.717   7.991  72.888  1.00  0.00    -0.403 A  
HETATM    9  C   UNL     1     -10.739   8.210  71.503  1.00  0.00    -0.233 A  
ENDROOT
BRANCH   9  10
HETATM   10  O   UNL     1     -10.993   9.495  70.973  1.00  0.00    -0.298 OA 
BRANCH  10  11
HETATM   11  C   UNL     1     -12.271  10.007  71.125  1.00  0.00    -0.380 C  
HETATM   12  O   UNL     1     -13.249   9.330  71.410  1.00  0.00    -0.345 OA 
BRANCH  11  13
HETATM   13  C   UNL     1     -12.330  11.442  70.730  1.00  0.00    -0.483 A  
HETATM   14  C   UNL     1     -11.682  11.803  69.537  1.00  0.00    -0.408 A  
HETATM   15  C   UNL     1     -11.548  13.148  69.187  1.00  0.00    -0.368 A  
HETATM   16  C   UNL     1     -12.073  14.138  70.016  1.00  0.00    -0.409 A  
HETATM   17  C   UNL     1     -12.758  13.787  71.180  1.00  0.00    -0.438 A  
HETATM   18  C   UNL     1     -12.889  12.442  71.533  1.00  0.00    -0.274 A  
HETATM   19  O   UNL     1     -13.573  12.117  72.669  1.00  0.00    -0.576 OA 
HETATM   20  H   UNL     1     -13.953  12.797  73.215  1.00  0.00     0.000 HD 
ENDBRANCH  11  13
ENDBRANCH  10  11
ENDBRANCH   9  10
TORSDOF 3
ENDMDL
MODEL       77
REMARK 921   NORMALIZED FREE ENERGY PREDICTED BY IDOCK:   -5.73 KCAL/MOL
REMARK 922        TOTAL FREE ENERGY PREDICTED BY IDOCK:   -7.09 KCAL/MOL
REMARK 923 INTER-LIGAND FREE ENERGY PREDICTED BY IDOCK:   -6.47 KCAL/MOL
REMARK 924 INTRA-LIGAND FREE ENERGY PREDICTED BY IDOCK:   -0.62 KCAL/MOL
REMARK 927      BINDING AFFINITY PREDICTED BY RF-SCORE:    0.00 PKD
ROOT
HETATM    1  O   UNL     1     -12.012  14.574  64.298  1.00  0.00    -0.444 OA 
HETATM    2  C   UNL     1     -12.346  13.461  64.977  1.00  0.00    -0.436 C  
HETATM    3  C   UNL     1     -11.452  13.121  66.120  1.00  0.00    -0.366 A  
HETATM    4  O   UNL     1     -13.274  12.740  64.643  1.00  0.00    -0.776 OA 
HETATM    5  C   UNL     1     -11.362  11.763  66.461  1.00  0.00    -0.370 A  
HETATM    6  C   UNL     1     -10.601  11.352  67.556  1.00  0.00    -0.252 A  
HETATM    7  C   UNL     1      -9.931  12.294  68.329  1.00  0.00    -0.216 A  
HETATM    8  C   UNL     1     -10.007  13.648  68.002  1.00  0.00    -0.247 A  
HETATM    9  C   UNL     1     -10.756  14.065  66.892  1.00  0.00    -0.285 A  
ENDROOT
BRANCH   9  10
HETATM   10  O   UNL     1     -10.925  15.438  66.603  1.00  0.00    -0.313 OA 
BRANCH  10  11
HETATM   11  C   UNL     1     -10.769  16.334  67.648  1.00  0.00    -0.311 C  
HETATM   12  O   UNL     1     -11.518  16.396  68.612  1.00  0.00    -0.349 OA 
BRANCH  11  13
HETATM   13  C   UNL     1      -9.687  17.317  67.361  1.00  0.00    -0.258 A  
HETATM   14  C   UNL     1      -8.618  16.876  66.562  1.00  0.00    -0.305 A  
HETATM   15  C   UNL     1      -7.489  17.679  66.390  1.00  0.00    -0.324 A  
HETATM   16  C   UNL     1      -7.426  18.931  67.000  1.00  0.00    -0.226 A  
HETATM   17  C   UNL     1      -8.502  19.396  67.757  1.00  0.00    -0.345 A  
HETATM   18  C   UNL     1      -9.630  18.592  67.934  1.00  0.00    -0.310 A  
HETATM   19  O   UNL     1     -10.677  19.069  68.670  1.00  0.00    -0.333 OA 
HETATM   20  H   UNL     1     -10.638  19.935  69.059  1.00  0.00     0.000 HD 
ENDBRANCH  11  13
ENDBRANCH  10  11
ENDBRANCH   9  10
TORSDOF 3
ENDMDL
MODEL       78
REMARK 921   NORMALIZED FREE ENERGY PREDICTED BY IDOCK:   -5.73 KCAL/MOL
REMARK 922        TOTAL FREE ENERGY PREDICTED BY IDOCK:   -7.08 KCAL/MOL
REMARK 923 INTER-LIGAND FREE ENERGY PREDICTED BY IDOCK:   -6.42 KCAL/MOL
REMARK 924 INTRA-LIGAND FREE ENERGY PREDICTED BY IDOCK:   -0.66 KCAL/MOL
REMARK 927      BINDING AFFINITY PREDICTED BY RF-SCORE:    0.00 PKD
ROOT
HETATM    1  O   UNL     1      -8.404  13.307  67.871  1.00  0.00    -0.139 OA 
HETATM    2  C   UNL     1      -7.745  14.422  67.501  1.00  0.00    -0.192 C  
HETATM    3  C   UNL     1      -8.586  15.648  67.382  1.00  0.00    -0.192 A  
HETATM    4  O   UNL     1      -6.558  14.420  67.215  1.00  0.00    -0.283 OA 
HETATM    5  C   UNL     1      -8.144  16.623  66.475  1.00  0.00    -0.337 A  
HETATM    6  C   UNL     1      -8.827  17.831  66.339  1.00  0.00    -0.256 A  
HETATM    7  C   UNL     1      -9.954  18.084  67.116  1.00  0.00    -0.326 A  
HETATM    8  C   UNL     1     -10.408  17.124  68.020  1.00  0.00    -0.353 A  
HETATM    9  C   UNL     1      -9.736  15.900  68.148  1.00  0.00    -0.212 A  
ENDROOT
BRANCH   9  10
HETATM   10  O   UNL     1     -10.122  14.956  69.126  1.00  0.00    -0.229 OA 
BRANCH  10  11
HETATM   11  C   UNL     1     -11.414  14.461  69.061  1.00  0.00    -0.283 C  
HETATM   12  O   UNL     1     -12.044  14.331  68.021  1.00  0.00    -0.338 OA 
BRANCH  11  13
HETATM   13  C   UNL     1     -11.991  14.274  70.421  1.00  0.00    -0.402 A  
HETATM   14  C   UNL     1     -12.528  13.010  70.720  1.00  0.00    -0.384 A  
HETATM   15  C   UNL     1     -13.236  12.808  71.906  1.00  0.00    -0.511 A  
HETATM   16  C   UNL     1     -13.398  13.858  72.808  1.00  0.00    -0.567 A  
HETATM   17  C   UNL     1     -12.829  15.104  72.541  1.00  0.00    -0.449 A  
HETATM   18  C   UNL     1     -12.125  15.310  71.352  1.00  0.00    -0.354 A  
HETATM   19  O   UNL     1     -11.567  16.533  71.114  1.00  0.00    -0.612 OA 
HETATM   20  H   UNL     1     -11.658  17.236  71.746  1.00  0.00     0.000 HD 
ENDBRANCH  11  13
ENDBRANCH  10  11
ENDBRANCH   9  10
TORSDOF 3
ENDMDL
MODEL       79
REMARK 921   NORMALIZED FREE ENERGY PREDICTED BY IDOCK:   -5.70 KCAL/MOL
REMARK 922        TOTAL FREE ENERGY PREDICTED BY IDOCK:   -7.05 KCAL/MOL
REMARK 923 INTER-LIGAND FREE ENERGY PREDICTED BY IDOCK:   -6.43 KCAL/MOL
REMARK 924 INTRA-LIGAND FREE ENERGY PREDICTED BY IDOCK:   -0.62 KCAL/MOL
REMARK 927      BINDING AFFINITY PREDICTED BY RF-SCORE:    0.00 PKD
ROOT
HETATM    1  O   UNL     1     -12.518  12.007  65.260  1.00  0.00    -0.427 OA 
HETATM    2  C   UNL     1     -11.921  13.170  65.584  1.00  0.00    -0.415 C  
HETATM    3  C   UNL     1     -11.859  13.469  67.043  1.00  0.00    -0.447 A  
HETATM    4  O   UNL     1     -11.518  13.958  64.743  1.00  0.00    -0.335 OA 
HETATM    5  C   UNL     1     -11.824  14.825  67.402  1.00  0.00    -0.320 A  
HETATM    6  C   UNL     1     -11.702  15.206  68.738  1.00  0.00    -0.366 A  
HETATM    7  C   UNL     1     -11.602  14.235  69.731  1.00  0.00    -0.350 A  
HETATM    8  C   UNL     1     -11.639  12.883  69.391  1.00  0.00    -0.363 A  
HETATM    9  C   UNL     1     -11.780  12.495  68.051  1.00  0.00    -0.355 A  
ENDROOT
BRANCH   9  10
HETATM   10  O   UNL     1     -11.720  11.133  67.678  1.00  0.00    -0.573 OA 
BRANCH  10  11
HETATM   11  C   UNL     1     -10.466  10.556  67.567  1.00  0.00    -0.239 C  
HETATM   12  O   UNL     1      -9.499  11.114  67.071  1.00  0.00    -0.174 OA 
BRANCH  11  13
HETATM   13  C   UNL     1     -10.494   9.121  67.967  1.00  0.00    -0.276 A  
HETATM   14  C   UNL     1     -10.569   8.171  66.935  1.00  0.00    -0.311 A  
HETATM   15  C   UNL     1     -10.769   6.821  67.232  1.00  0.00    -0.423 A  
HETATM   16  C   UNL     1     -10.879   6.410  68.560  1.00  0.00    -0.382 A  
HETATM   17  C   UNL     1     -10.760   7.341  69.593  1.00  0.00    -0.249 A  
HETATM   18  C   UNL     1     -10.564   8.691  69.297  1.00  0.00    -0.192 A  
HETATM   19  O   UNL     1     -10.439   9.585  70.322  1.00  0.00    -0.227 OA 
HETATM   20  H   UNL     1     -10.486   9.293  71.225  1.00  0.00     0.000 HD 
ENDBRANCH  11  13
ENDBRANCH  10  11
ENDBRANCH   9  10
TORSDOF 3
ENDMDL
MODEL       80
REMARK 921   NORMALIZED FREE ENERGY PREDICTED BY IDOCK:   -5.70 KCAL/MOL
REMARK 922        TOTAL FREE ENERGY PREDICTED BY IDOCK:   -7.04 KCAL/MOL
REMARK 923 INTER-LIGAND FREE ENERGY PREDICTED BY IDOCK:   -6.37 KCAL/MOL
REMARK 924 INTRA-LIGAND FREE ENERGY PREDICTED BY IDOCK:   -0.68 KCAL/MOL
REMARK 927      BINDING AFFINITY PREDICTED BY RF-SCORE:    0.00 PKD
ROOT
HETATM    1  O   UNL     1     -13.784   9.513  71.016  1.00  0.00    -0.265 OA 
HETATM    2  C   UNL     1     -12.763   9.306  71.869  1.00  0.00    -0.394 C  
HETATM    3  C   UNL     1     -11.402   9.401  71.267  1.00  0.00    -0.436 A  
HETATM    4  O   UNL     1     -12.935   8.996  73.037  1.00  0.00    -0.277 OA 
HETATM    5  C   UNL     1     -10.393   8.647  71.884  1.00  0.00    -0.405 A  
HETATM    6  C   UNL     1      -9.074   8.718  71.434  1.00  0.00    -0.313 A  
HETATM    7  C   UNL     1      -8.748   9.552  70.369  1.00  0.00    -0.265 A  
HETATM    8  C   UNL     1      -9.740  10.305  69.742  1.00  0.00    -0.183 A  
HETATM    9  C   UNL     1     -11.070  10.224  70.179  1.00  0.00    -0.319 A  
ENDROOT
BRANCH   9  10
HETATM   10  O   UNL     1     -12.071  11.051  69.622  1.00  0.00    -0.318 OA 
BRANCH  10  11
HETATM   11  C   UNL     1     -12.108  12.374  70.034  1.00  0.00    -0.263 C  
HETATM   12  O   UNL     1     -12.617  12.748  71.080  1.00  0.00    -0.371 OA 
BRANCH  11  13
HETATM   13  C   UNL     1     -11.610  13.287  68.968  1.00  0.00    -0.359 A  
HETATM   14  C   UNL     1     -11.113  14.536  69.377  1.00  0.00    -0.297 A  
HETATM   15  C   UNL     1     -10.788  15.510  68.431  1.00  0.00    -0.273 A  
HETATM   16  C   UNL     1     -10.940  15.238  67.072  1.00  0.00    -0.324 A  
HETATM   17  C   UNL     1     -11.390  13.984  66.655  1.00  0.00    -0.345 A  
HETATM   18  C   UNL     1     -11.720  13.011  67.601  1.00  0.00    -0.366 A  
HETATM   19  O   UNL     1     -12.147  11.787  67.173  1.00  0.00    -0.592 OA 
HETATM   20  H   UNL     1     -12.222  11.599  66.244  1.00  0.00     0.000 HD 
ENDBRANCH  11  13
ENDBRANCH  10  11
ENDBRANCH   9  10
TORSDOF 3
ENDMDL
MODEL       81
REMARK 921   NORMALIZED FREE ENERGY PREDICTED BY IDOCK:   -5.66 KCAL/MOL
REMARK 922        TOTAL FREE ENERGY PREDICTED BY IDOCK:   -7.00 KCAL/MOL
REMARK 923 INTER-LIGAND FREE ENERGY PREDICTED BY IDOCK:   -6.41 KCAL/MOL
REMARK 924 INTRA-LIGAND FREE ENERGY PREDICTED BY IDOCK:   -0.60 KCAL/MOL
REMARK 927      BINDING AFFINITY PREDICTED BY RF-SCORE:    0.00 PKD
ROOT
HETATM    1  O   UNL     1      -8.112  13.826  67.324  1.00  0.00    -0.175 OA 
HETATM    2  C   UNL     1      -8.216  14.575  68.438  1.00  0.00    -0.150 C  
HETATM    3  C   UNL     1      -9.603  14.770  68.946  1.00  0.00    -0.210 A  
HETATM    4  O   UNL     1      -7.253  15.114  68.960  1.00  0.00    -0.126 OA 
HETATM    5  C   UNL     1      -9.844  15.947  69.670  1.00  0.00    -0.238 A  
HETATM    6  C   UNL     1     -11.094  16.190  70.241  1.00  0.00    -0.375 A  
HETATM    7  C   UNL     1     -12.114  15.254  70.103  1.00  0.00    -0.394 A  
HETATM    8  C   UNL     1     -11.892  14.079  69.384  1.00  0.00    -0.381 A  
HETATM    9  C   UNL     1     -10.643  13.839  68.793  1.00  0.00    -0.239 A  
ENDROOT
BRANCH   9  10
HETATM   10  O   UNL     1     -10.370  12.613  68.145  1.00  0.00    -0.220 OA 
BRANCH  10  11
HETATM   11  C   UNL     1     -11.419  11.987  67.492  1.00  0.00    -0.333 C  
HETATM   12  O   UNL     1     -12.118  11.121  67.998  1.00  0.00    -0.635 OA 
BRANCH  11  13
HETATM   13  C   UNL     1     -11.473  12.377  66.056  1.00  0.00    -0.431 A  
HETATM   14  C   UNL     1     -12.243  13.506  65.728  1.00  0.00    -0.505 A  
HETATM   15  C   UNL     1     -12.480  13.833  64.391  1.00  0.00    -0.317 A  
HETATM   16  C   UNL     1     -11.938  13.047  63.376  1.00  0.00    -0.592 A  
HETATM   17  C   UNL     1     -11.134  11.951  63.692  1.00  0.00    -0.517 A  
HETATM   18  C   UNL     1     -10.900  11.620  65.028  1.00  0.00    -0.288 A  
HETATM   19  O   UNL     1     -10.102  10.550  65.317  1.00  0.00    -0.279 OA 
HETATM   20  H   UNL     1      -9.713  10.036  64.619  1.00  0.00     0.000 HD 
ENDBRANCH  11  13
ENDBRANCH  10  11
ENDBRANCH   9  10
TORSDOF 3
ENDMDL
MODEL       82
REMARK 921   NORMALIZED FREE ENERGY PREDICTED BY IDOCK:   -5.65 KCAL/MOL
REMARK 922        TOTAL FREE ENERGY PREDICTED BY IDOCK:   -7.00 KCAL/MOL
REMARK 923 INTER-LIGAND FREE ENERGY PREDICTED BY IDOCK:   -5.67 KCAL/MOL
REMARK 924 INTRA-LIGAND FREE ENERGY PREDICTED BY IDOCK:   -1.33 KCAL/MOL
REMARK 927      BINDING AFFINITY PREDICTED BY RF-SCORE:    0.00 PKD
ROOT
HETATM    1  O   UNL     1     -11.723  11.404  63.985  1.00  0.00    -0.222 OA 
HETATM    2  C   UNL     1     -10.812  12.394  64.039  1.00  0.00    -0.397 C  
HETATM    3  C   UNL     1     -11.022  13.392  65.126  1.00  0.00    -0.315 A  
HETATM    4  O   UNL     1      -9.916  12.509  63.218  1.00  0.00    -0.348 OA 
HETATM    5  C   UNL     1     -10.532  14.685  64.890  1.00  0.00    -0.415 A  
HETATM    6  C   UNL     1     -10.623  15.673  65.871  1.00  0.00    -0.354 A  
HETATM    7  C   UNL     1     -11.195  15.375  67.105  1.00  0.00    -0.256 A  
HETATM    8  C   UNL     1     -11.689  14.095  67.355  1.00  0.00    -0.422 A  
HETATM    9  C   UNL     1     -11.616  13.104  66.365  1.00  0.00    -0.349 A  
ENDROOT
BRANCH   9  10
HETATM   10  O   UNL     1     -12.022  11.777  66.633  1.00  0.00    -0.561 OA 
BRANCH  10  11
HETATM   11  C   UNL     1     -11.516  11.173  67.773  1.00  0.00    -0.272 C  
HETATM   12  O   UNL     1     -12.165  10.986  68.791  1.00  0.00    -0.546 OA 
BRANCH  11  13
HETATM   13  C   UNL     1     -10.049  10.943  67.657  1.00  0.00    -0.206 A  
HETATM   14  C   UNL     1      -9.221  11.630  68.561  1.00  0.00    -0.163 A  
HETATM   15  C   UNL     1      -7.833  11.599  68.409  1.00  0.00    -0.137 A  
HETATM   16  C   UNL     1      -7.264  10.871  67.366  1.00  0.00    -0.094 A  
HETATM   17  C   UNL     1      -8.076  10.149  66.491  1.00  0.00    -0.121 A  
HETATM   18  C   UNL     1      -9.464  10.182  66.639  1.00  0.00    -0.170 A  
HETATM   19  O   UNL     1     -10.241   9.460  65.779  1.00  0.00    -0.317 OA 
HETATM   20  H   UNL     1      -9.844   8.943  65.088  1.00  0.00     0.000 HD 
ENDBRANCH  11  13
ENDBRANCH  10  11
ENDBRANCH   9  10
TORSDOF 3
ENDMDL
MODEL       83
REMARK 921   NORMALIZED FREE ENERGY PREDICTED BY IDOCK:   -5.65 KCAL/MOL
REMARK 922        TOTAL FREE ENERGY PREDICTED BY IDOCK:   -6.99 KCAL/MOL
REMARK 923 INTER-LIGAND FREE ENERGY PREDICTED BY IDOCK:   -6.20 KCAL/MOL
REMARK 924 INTRA-LIGAND FREE ENERGY PREDICTED BY IDOCK:   -0.79 KCAL/MOL
REMARK 927      BINDING AFFINITY PREDICTED BY RF-SCORE:    0.00 PKD
ROOT
HETATM    1  O   UNL     1      -7.028  13.436  67.536  1.00  0.00    -0.156 OA 
HETATM    2  C   UNL     1      -7.974  12.481  67.472  1.00  0.00    -0.175 C  
HETATM    3  C   UNL     1      -9.323  12.889  67.957  1.00  0.00    -0.213 A  
HETATM    4  O   UNL     1      -7.734  11.341  67.107  1.00  0.00    -0.132 OA 
HETATM    5  C   UNL     1     -10.138  11.868  68.470  1.00  0.00    -0.211 A  
HETATM    6  C   UNL     1     -11.440  12.138  68.890  1.00  0.00    -0.350 A  
HETATM    7  C   UNL     1     -11.948  13.430  68.793  1.00  0.00    -0.359 A  
HETATM    8  C   UNL     1     -11.150  14.458  68.288  1.00  0.00    -0.275 A  
HETATM    9  C   UNL     1      -9.834  14.195  67.882  1.00  0.00    -0.224 A  
ENDROOT
BRANCH   9  10
HETATM   10  O   UNL     1      -9.045  15.199  67.278  1.00  0.00    -0.185 OA 
BRANCH  10  11
HETATM   11  C   UNL     1      -9.647  15.991  66.314  1.00  0.00    -0.307 C  
HETATM   12  O   UNL     1      -9.913  15.608  65.184  1.00  0.00    -0.357 OA 
BRANCH  11  13
HETATM   13  C   UNL     1      -9.767  17.404  66.771  1.00  0.00    -0.293 A  
HETATM   14  C   UNL     1      -9.204  17.722  68.019  1.00  0.00    -0.273 A  
HETATM   15  C   UNL     1      -9.422  18.977  68.590  1.00  0.00    -0.457 A  
HETATM   16  C   UNL     1     -10.187  19.926  67.915  1.00  0.00    -0.571 A  
HETATM   17  C   UNL     1     -10.712  19.635  66.655  1.00  0.00    -0.552 A  
HETATM   18  C   UNL     1     -10.499  18.379  66.084  1.00  0.00    -0.395 A  
HETATM   19  O   UNL     1     -11.011  18.116  64.846  1.00  0.00    -0.718 OA 
HETATM   20  H   UNL     1     -11.508  18.779  64.379  1.00  0.00     0.000 HD 
ENDBRANCH  11  13
ENDBRANCH  10  11
ENDBRANCH   9  10
TORSDOF 3
ENDMDL
MODEL       84
REMARK 921   NORMALIZED FREE ENERGY PREDICTED BY IDOCK:   -5.64 KCAL/MOL
REMARK 922        TOTAL FREE ENERGY PREDICTED BY IDOCK:   -6.97 KCAL/MOL
REMARK 923 INTER-LIGAND FREE ENERGY PREDICTED BY IDOCK:   -5.61 KCAL/MOL
REMARK 924 INTRA-LIGAND FREE ENERGY PREDICTED BY IDOCK:   -1.36 KCAL/MOL
REMARK 927      BINDING AFFINITY PREDICTED BY RF-SCORE:    0.00 PKD
ROOT
HETATM    1  O   UNL     1      -9.014  10.474  66.739  1.00  0.00    -0.136 OA 
HETATM    2  C   UNL     1      -8.381  11.277  67.615  1.00  0.00    -0.123 C  
HETATM    3  C   UNL     1      -8.392  12.727  67.271  1.00  0.00    -0.187 A  
HETATM    4  O   UNL     1      -7.780  10.846  68.587  1.00  0.00    -0.105 OA 
HETATM    5  C   UNL     1      -7.317  13.491  67.749  1.00  0.00    -0.166 A  
HETATM    6  C   UNL     1      -7.269  14.868  67.534  1.00  0.00    -0.227 A  
HETATM    7  C   UNL     1      -8.302  15.500  66.847  1.00  0.00    -0.290 A  
HETATM    8  C   UNL     1      -9.377  14.755  66.362  1.00  0.00    -0.320 A  
HETATM    9  C   UNL     1      -9.420  13.367  66.560  1.00  0.00    -0.245 A  
ENDROOT
BRANCH   9  10
HETATM   10  O   UNL     1     -10.545  12.611  66.163  1.00  0.00    -0.252 OA 
BRANCH  10  11
HETATM   11  C   UNL     1     -11.793  13.074  66.547  1.00  0.00    -0.403 C  
HETATM   12  O   UNL     1     -12.537  13.715  65.818  1.00  0.00    -0.476 OA 
BRANCH  11  13
HETATM   13  C   UNL     1     -12.034  12.842  67.998  1.00  0.00    -0.323 A  
HETATM   14  C   UNL     1     -12.231  13.978  68.803  1.00  0.00    -0.237 A  
HETATM   15  C   UNL     1     -12.293  13.855  70.192  1.00  0.00    -0.400 A  
HETATM   16  C   UNL     1     -12.175  12.599  70.785  1.00  0.00    -0.331 A  
HETATM   17  C   UNL     1     -12.025  11.461  69.992  1.00  0.00    -0.442 A  
HETATM   18  C   UNL     1     -11.959  11.583  68.603  1.00  0.00    -0.246 A  
HETATM   19  O   UNL     1     -11.823  10.456  67.843  1.00  0.00    -0.702 OA 
HETATM   20  H   UNL     1     -11.772   9.600  68.253  1.00  0.00     0.000 HD 
ENDBRANCH  11  13
ENDBRANCH  10  11
ENDBRANCH   9  10
TORSDOF 3
ENDMDL
MODEL       85
REMARK 921   NORMALIZED FREE ENERGY PREDICTED BY IDOCK:   -5.62 KCAL/MOL
REMARK 922        TOTAL FREE ENERGY PREDICTED BY IDOCK:   -6.95 KCAL/MOL
REMARK 923 INTER-LIGAND FREE ENERGY PREDICTED BY IDOCK:   -6.19 KCAL/MOL
REMARK 924 INTRA-LIGAND FREE ENERGY PREDICTED BY IDOCK:   -0.76 KCAL/MOL
REMARK 927      BINDING AFFINITY PREDICTED BY RF-SCORE:    0.00 PKD
ROOT
HETATM    1  O   UNL     1      -9.836   9.779  64.228  1.00  0.00    -0.106 OA 
HETATM    2  C   UNL     1      -9.918  11.004  63.674  1.00  0.00    -0.361 C  
HETATM    3  C   UNL     1     -10.867  11.941  64.339  1.00  0.00    -0.384 A  
HETATM    4  O   UNL     1      -9.311  11.308  62.659  1.00  0.00    -0.348 OA 
HETATM    5  C   UNL     1     -11.435  12.935  63.529  1.00  0.00    -0.470 A  
HETATM    6  C   UNL     1     -12.285  13.898  64.072  1.00  0.00    -0.413 A  
HETATM    7  C   UNL     1     -12.570  13.885  65.434  1.00  0.00    -0.538 A  
HETATM    8  C   UNL     1     -12.016  12.901  66.253  1.00  0.00    -0.472 A  
HETATM    9  C   UNL     1     -11.175  11.920  65.709  1.00  0.00    -0.312 A  
ENDROOT
BRANCH   9  10
HETATM   10  O   UNL     1     -10.528  10.976  66.537  1.00  0.00    -0.241 OA 
BRANCH  10  11
HETATM   11  C   UNL     1      -9.616  11.457  67.463  1.00  0.00    -0.167 C  
HETATM   12  O   UNL     1      -8.750  12.280  67.203  1.00  0.00    -0.179 OA 
BRANCH  11  13
HETATM   13  C   UNL     1      -9.715  10.720  68.753  1.00  0.00    -0.197 A  
HETATM   14  C   UNL     1      -8.521  10.209  69.290  1.00  0.00    -0.167 A  
HETATM   15  C   UNL     1      -8.553   9.365  70.403  1.00  0.00    -0.266 A  
HETATM   16  C   UNL     1      -9.773   9.041  70.995  1.00  0.00    -0.348 A  
HETATM   17  C   UNL     1     -10.959   9.581  70.496  1.00  0.00    -0.348 A  
HETATM   18  C   UNL     1     -10.929  10.421  69.381  1.00  0.00    -0.251 A  
HETATM   19  O   UNL     1     -12.099  10.948  68.915  1.00  0.00    -0.623 OA 
HETATM   20  H   UNL     1     -12.923  10.745  69.341  1.00  0.00     0.000 HD 
ENDBRANCH  11  13
ENDBRANCH  10  11
ENDBRANCH   9  10
TORSDOF 3
ENDMDL
MODEL       86
REMARK 921   NORMALIZED FREE ENERGY PREDICTED BY IDOCK:   -5.62 KCAL/MOL
REMARK 922        TOTAL FREE ENERGY PREDICTED BY IDOCK:   -6.95 KCAL/MOL
REMARK 923 INTER-LIGAND FREE ENERGY PREDICTED BY IDOCK:   -6.16 KCAL/MOL
REMARK 924 INTRA-LIGAND FREE ENERGY PREDICTED BY IDOCK:   -0.79 KCAL/MOL
REMARK 927      BINDING AFFINITY PREDICTED BY RF-SCORE:    0.00 PKD
ROOT
HETATM    1  O   UNL     1     -11.298   5.181  73.208  1.00  0.00    -0.321 OA 
HETATM    2  C   UNL     1     -10.247   4.709  72.511  1.00  0.00    -0.185 C  
HETATM    3  C   UNL     1     -10.302   4.945  71.040  1.00  0.00    -0.217 A  
HETATM    4  O   UNL     1      -9.344   4.073  73.032  1.00  0.00    -0.109 OA 
HETATM    5  C   UNL     1      -9.621   4.021  70.233  1.00  0.00    -0.271 A  
HETATM    6  C   UNL     1      -9.561   4.191  68.850  1.00  0.00    -0.222 A  
HETATM    7  C   UNL     1     -10.170   5.294  68.258  1.00  0.00    -0.200 A  
HETATM    8  C   UNL     1     -10.853   6.220  69.046  1.00  0.00    -0.400 A  
HETATM    9  C   UNL     1     -10.933   6.044  70.435  1.00  0.00    -0.328 A  
ENDROOT
BRANCH   9  10
HETATM   10  O   UNL     1     -11.535   7.021  71.259  1.00  0.00    -0.261 OA 
BRANCH  10  11
HETATM   11  C   UNL     1     -10.806   8.167  71.528  1.00  0.00    -0.238 C  
HETATM   12  O   UNL     1      -9.676   8.163  71.995  1.00  0.00    -0.186 OA 
BRANCH  11  13
HETATM   13  C   UNL     1     -11.633   9.392  71.341  1.00  0.00    -0.451 A  
HETATM   14  C   UNL     1     -11.219  10.298  70.350  1.00  0.00    -0.407 A  
HETATM   15  C   UNL     1     -11.839  11.543  70.230  1.00  0.00    -0.431 A  
HETATM   16  C   UNL     1     -12.885  11.885  71.086  1.00  0.00    -0.346 A  
HETATM   17  C   UNL     1     -13.332  10.974  72.044  1.00  0.00    -0.393 A  
HETATM   18  C   UNL     1     -12.710   9.730  72.168  1.00  0.00    -0.326 A  
HETATM   19  O   UNL     1     -13.169   8.848  73.104  1.00  0.00    -0.867 OA 
HETATM   20  H   UNL     1     -13.901   9.077  73.665  1.00  0.00     0.000 HD 
ENDBRANCH  11  13
ENDBRANCH  10  11
ENDBRANCH   9  10
TORSDOF 3
ENDMDL
MODEL       87
REMARK 921   NORMALIZED FREE ENERGY PREDICTED BY IDOCK:   -5.61 KCAL/MOL
REMARK 922        TOTAL FREE ENERGY PREDICTED BY IDOCK:   -6.94 KCAL/MOL
REMARK 923 INTER-LIGAND FREE ENERGY PREDICTED BY IDOCK:   -6.21 KCAL/MOL
REMARK 924 INTRA-LIGAND FREE ENERGY PREDICTED BY IDOCK:   -0.74 KCAL/MOL
REMARK 927      BINDING AFFINITY PREDICTED BY RF-SCORE:    0.00 PKD
ROOT
HETATM    1  O   UNL     1     -12.453  13.430  65.661  1.00  0.00    -0.456 OA 
HETATM    2  C   UNL     1     -11.302  14.110  65.497  1.00  0.00    -0.319 C  
HETATM    3  C   UNL     1     -11.078  15.223  66.463  1.00  0.00    -0.271 A  
HETATM    4  O   UNL     1     -10.528  13.880  64.581  1.00  0.00    -0.425 OA 
HETATM    5  C   UNL     1     -10.282  16.289  66.015  1.00  0.00    -0.376 A  
HETATM    6  C   UNL     1      -9.962  17.346  66.866  1.00  0.00    -0.300 A  
HETATM    7  C   UNL     1     -10.424  17.346  68.179  1.00  0.00    -0.389 A  
HETATM    8  C   UNL     1     -11.219  16.296  68.639  1.00  0.00    -0.354 A  
HETATM    9  C   UNL     1     -11.559  15.239  67.782  1.00  0.00    -0.265 A  
ENDROOT
BRANCH   9  10
HETATM   10  O   UNL     1     -12.279  14.121  68.257  1.00  0.00    -0.317 OA 
BRANCH  10  11
HETATM   11  C   UNL     1     -11.687  13.353  69.247  1.00  0.00    -0.330 C  
HETATM   12  O   UNL     1     -11.715  13.635  70.436  1.00  0.00    -0.257 OA 
BRANCH  11  13
HETATM   13  C   UNL     1     -10.875  12.249  68.663  1.00  0.00    -0.268 A  
HETATM   14  C   UNL     1      -9.551  12.551  68.305  1.00  0.00    -0.209 A  
HETATM   15  C   UNL     1      -8.783  11.622  67.599  1.00  0.00    -0.156 A  
HETATM   16  C   UNL     1      -9.326  10.383  67.262  1.00  0.00    -0.164 A  
HETATM   17  C   UNL     1     -10.625  10.058  67.653  1.00  0.00    -0.323 A  
HETATM   18  C   UNL     1     -11.396  10.988  68.355  1.00  0.00    -0.295 A  
HETATM   19  O   UNL     1     -12.661  10.647  68.739  1.00  0.00    -0.733 OA 
HETATM   20  H   UNL     1     -13.014   9.789  68.530  1.00  0.00     0.000 HD 
ENDBRANCH  11  13
ENDBRANCH  10  11
ENDBRANCH   9  10
TORSDOF 3
ENDMDL
MODEL       88
REMARK 921   NORMALIZED FREE ENERGY PREDICTED BY IDOCK:   -5.60 KCAL/MOL
REMARK 922        TOTAL FREE ENERGY PREDICTED BY IDOCK:   -6.93 KCAL/MOL
REMARK 923 INTER-LIGAND FREE ENERGY PREDICTED BY IDOCK:   -6.58 KCAL/MOL
REMARK 924 INTRA-LIGAND FREE ENERGY PREDICTED BY IDOCK:   -0.35 KCAL/MOL
REMARK 927      BINDING AFFINITY PREDICTED BY RF-SCORE:    0.00 PKD
ROOT
HETATM    1  O   UNL     1     -12.770   8.567  72.336  1.00  0.00    -0.369 OA 
HETATM    2  C   UNL     1     -11.516   8.083  72.416  1.00  0.00    -0.389 C  
HETATM    3  C   UNL     1     -10.597   8.514  71.323  1.00  0.00    -0.296 A  
HETATM    4  O   UNL     1     -11.169   7.294  73.280  1.00  0.00    -0.290 OA 
HETATM    5  C   UNL     1      -9.549   7.637  71.006  1.00  0.00    -0.169 A  
HETATM    6  C   UNL     1      -8.601   7.979  70.042  1.00  0.00    -0.134 A  
HETATM    7  C   UNL     1      -8.682   9.207  69.392  1.00  0.00    -0.140 A  
HETATM    8  C   UNL     1      -9.720  10.089  69.693  1.00  0.00    -0.255 A  
HETATM    9  C   UNL     1     -10.687   9.742  70.648  1.00  0.00    -0.326 A  
ENDROOT
BRANCH   9  10
HETATM   10  O   UNL     1     -11.687  10.661  71.037  1.00  0.00    -0.325 OA 
BRANCH  10  11
HETATM   11  C   UNL     1     -12.207  11.492  70.058  1.00  0.00    -0.278 C  
HETATM   12  O   UNL     1     -12.272  11.194  68.874  1.00  0.00    -0.522 OA 
BRANCH  11  13
HETATM   13  C   UNL     1     -12.512  12.844  70.602  1.00  0.00    -0.333 A  
HETATM   14  C   UNL     1     -12.044  13.948  69.869  1.00  0.00    -0.406 A  
HETATM   15  C   UNL     1     -12.141  15.237  70.397  1.00  0.00    -0.388 A  
HETATM   16  C   UNL     1     -12.719  15.434  71.650  1.00  0.00    -0.480 A  
HETATM   17  C   UNL     1     -13.227  14.349  72.365  1.00  0.00    -0.528 A  
HETATM   18  C   UNL     1     -13.127  13.059  71.840  1.00  0.00    -0.384 A  
HETATM   19  O   UNL     1     -13.640  12.011  72.550  1.00  0.00    -0.564 OA 
HETATM   20  H   UNL     1     -14.058  12.157  73.391  1.00  0.00     0.000 HD 
ENDBRANCH  11  13
ENDBRANCH  10  11
ENDBRANCH   9  10
TORSDOF 3
ENDMDL
MODEL       89
REMARK 921   NORMALIZED FREE ENERGY PREDICTED BY IDOCK:   -5.59 KCAL/MOL
REMARK 922        TOTAL FREE ENERGY PREDICTED BY IDOCK:   -6.92 KCAL/MOL
REMARK 923 INTER-LIGAND FREE ENERGY PREDICTED BY IDOCK:   -5.65 KCAL/MOL
REMARK 924 INTRA-LIGAND FREE ENERGY PREDICTED BY IDOCK:   -1.27 KCAL/MOL
REMARK 927      BINDING AFFINITY PREDICTED BY RF-SCORE:    0.00 PKD
ROOT
HETATM    1  O   UNL     1      -9.499  10.667  67.606  1.00  0.00    -0.152 OA 
HETATM    2  C   UNL     1      -9.264  10.909  66.302  1.00  0.00    -0.177 C  
HETATM    3  C   UNL     1     -10.402  11.515  65.553  1.00  0.00    -0.322 A  
HETATM    4  O   UNL     1      -8.221  10.593  65.752  1.00  0.00    -0.158 OA 
HETATM    5  C   UNL     1     -10.461  11.244  64.178  1.00  0.00    -0.431 A  
HETATM    6  C   UNL     1     -11.450  11.816  63.380  1.00  0.00    -0.424 A  
HETATM    7  C   UNL     1     -12.387  12.677  63.944  1.00  0.00    -0.546 A  
HETATM    8  C   UNL     1     -12.345  12.956  65.310  1.00  0.00    -0.544 A  
HETATM    9  C   UNL     1     -11.363  12.367  66.121  1.00  0.00    -0.352 A  
ENDROOT
BRANCH   9  10
HETATM   10  O   UNL     1     -11.243  12.713  67.486  1.00  0.00    -0.258 OA 
BRANCH  10  11
HETATM   11  C   UNL     1     -11.360  14.053  67.818  1.00  0.00    -0.303 C  
HETATM   12  O   UNL     1     -12.388  14.565  68.236  1.00  0.00    -0.163 OA 
BRANCH  11  13
HETATM   13  C   UNL     1     -10.137  14.814  67.438  1.00  0.00    -0.231 A  
HETATM   14  C   UNL     1     -10.312  15.928  66.601  1.00  0.00    -0.302 A  
HETATM   15  C   UNL     1      -9.204  16.588  66.065  1.00  0.00    -0.295 A  
HETATM   16  C   UNL     1      -7.917  16.151  66.375  1.00  0.00    -0.252 A  
HETATM   17  C   UNL     1      -7.733  15.073  67.242  1.00  0.00    -0.233 A  
HETATM   18  C   UNL     1      -8.841  14.409  67.774  1.00  0.00    -0.186 A  
HETATM   19  O   UNL     1      -8.640  13.364  68.630  1.00  0.00    -0.322 OA 
HETATM   20  H   UNL     1      -7.760  13.089  68.858  1.00  0.00     0.000 HD 
ENDBRANCH  11  13
ENDBRANCH  10  11
ENDBRANCH   9  10
TORSDOF 3
ENDMDL
MODEL       90
REMARK 921   NORMALIZED FREE ENERGY PREDICTED BY IDOCK:   -5.59 KCAL/MOL
REMARK 922        TOTAL FREE ENERGY PREDICTED BY IDOCK:   -6.92 KCAL/MOL
REMARK 923 INTER-LIGAND FREE ENERGY PREDICTED BY IDOCK:   -6.21 KCAL/MOL
REMARK 924 INTRA-LIGAND FREE ENERGY PREDICTED BY IDOCK:   -0.71 KCAL/MOL
REMARK 927      BINDING AFFINITY PREDICTED BY RF-SCORE:    0.00 PKD
ROOT
HETATM    1  O   UNL     1      -8.336  10.304  69.697  1.00  0.00    -0.169 OA 
HETATM    2  C   UNL     1      -9.039   9.292  70.239  1.00  0.00    -0.237 C  
HETATM    3  C   UNL     1     -10.446   9.620  70.607  1.00  0.00    -0.379 A  
HETATM    4  O   UNL     1      -8.545   8.202  70.479  1.00  0.00    -0.125 OA 
HETATM    5  C   UNL     1     -11.007   8.881  71.659  1.00  0.00    -0.415 A  
HETATM    6  C   UNL     1     -12.336   9.070  72.035  1.00  0.00    -0.455 A  
HETATM    7  C   UNL     1     -13.126   9.993  71.355  1.00  0.00    -0.512 A  
HETATM    8  C   UNL     1     -12.584  10.738  70.308  1.00  0.00    -0.350 A  
HETATM    9  C   UNL     1     -11.242  10.565  69.939  1.00  0.00    -0.307 A  
ENDROOT
BRANCH   9  10
HETATM   10  O   UNL     1     -10.703  11.239  68.820  1.00  0.00    -0.184 OA 
BRANCH  10  11
HETATM   11  C   UNL     1     -10.992  10.726  67.566  1.00  0.00    -0.312 C  
HETATM   12  O   UNL     1     -11.036   9.532  67.310  1.00  0.00    -0.203 OA 
BRANCH  11  13
HETATM   13  C   UNL     1     -11.067  11.807  66.544  1.00  0.00    -0.364 A  
HETATM   14  C   UNL     1     -10.519  11.531  65.280  1.00  0.00    -0.336 A  
HETATM   15  C   UNL     1     -10.399  12.545  64.327  1.00  0.00    -0.396 A  
HETATM   16  C   UNL     1     -10.840  13.834  64.623  1.00  0.00    -0.416 A  
HETATM   17  C   UNL     1     -11.428  14.106  65.859  1.00  0.00    -0.338 A  
HETATM   18  C   UNL     1     -11.544  13.094  66.814  1.00  0.00    -0.366 A  
HETATM   19  O   UNL     1     -12.133  13.378  68.014  1.00  0.00    -0.342 OA 
HETATM   20  H   UNL     1     -12.457  14.252  68.198  1.00  0.00     0.000 HD 
ENDBRANCH  11  13
ENDBRANCH  10  11
ENDBRANCH   9  10
TORSDOF 3
ENDMDL
MODEL       91
REMARK 921   NORMALIZED FREE ENERGY PREDICTED BY IDOCK:   -5.59 KCAL/MOL
REMARK 922        TOTAL FREE ENERGY PREDICTED BY IDOCK:   -6.92 KCAL/MOL
REMARK 923 INTER-LIGAND FREE ENERGY PREDICTED BY IDOCK:   -6.44 KCAL/MOL
REMARK 924 INTRA-LIGAND FREE ENERGY PREDICTED BY IDOCK:   -0.47 KCAL/MOL
REMARK 927      BINDING AFFINITY PREDICTED BY RF-SCORE:    0.00 PKD
ROOT
HETATM    1  O   UNL     1     -11.258   8.409  72.320  1.00  0.00    -0.333 OA 
HETATM    2  C   UNL     1     -10.425   7.864  71.413  1.00  0.00    -0.206 C  
HETATM    3  C   UNL     1     -10.575   8.378  70.021  1.00  0.00    -0.235 A  
HETATM    4  O   UNL     1      -9.648   6.964  71.690  1.00  0.00    -0.162 OA 
HETATM    5  C   UNL     1     -10.218   7.499  68.988  1.00  0.00    -0.208 A  
HETATM    6  C   UNL     1     -10.263   7.909  67.656  1.00  0.00    -0.289 A  
HETATM    7  C   UNL     1     -10.655   9.207  67.341  1.00  0.00    -0.315 A  
HETATM    8  C   UNL     1     -11.015  10.093  68.356  1.00  0.00    -0.293 A  
HETATM    9  C   UNL     1     -10.990   9.680  69.696  1.00  0.00    -0.229 A  
ENDROOT
BRANCH   9  10
HETATM   10  O   UNL     1     -11.257  10.590  70.743  1.00  0.00    -0.300 OA 
BRANCH  10  11
HETATM   11  C   UNL     1     -12.574  10.973  70.937  1.00  0.00    -0.391 C  
HETATM   12  O   UNL     1     -13.531  10.230  70.778  1.00  0.00    -0.278 OA 
BRANCH  11  13
HETATM   13  C   UNL     1     -12.681  12.437  71.190  1.00  0.00    -0.336 A  
HETATM   14  C   UNL     1     -13.621  12.854  72.147  1.00  0.00    -0.589 A  
HETATM   15  C   UNL     1     -13.900  14.211  72.317  1.00  0.00    -0.643 A  
HETATM   16  C   UNL     1     -13.230  15.161  71.546  1.00  0.00    -0.512 A  
HETATM   17  C   UNL     1     -12.262  14.759  70.626  1.00  0.00    -0.385 A  
HETATM   18  C   UNL     1     -11.986  13.401  70.451  1.00  0.00    -0.285 A  
HETATM   19  O   UNL     1     -11.026  13.028  69.554  1.00  0.00    -0.454 OA 
HETATM   20  H   UNL     1     -10.554  13.683  69.052  1.00  0.00     0.000 HD 
ENDBRANCH  11  13
ENDBRANCH  10  11
ENDBRANCH   9  10
TORSDOF 3
ENDMDL
MODEL       92
REMARK 921   NORMALIZED FREE ENERGY PREDICTED BY IDOCK:   -5.54 KCAL/MOL
REMARK 922        TOTAL FREE ENERGY PREDICTED BY IDOCK:   -6.86 KCAL/MOL
REMARK 923 INTER-LIGAND FREE ENERGY PREDICTED BY IDOCK:   -6.44 KCAL/MOL
REMARK 924 INTRA-LIGAND FREE ENERGY PREDICTED BY IDOCK:   -0.42 KCAL/MOL
REMARK 927      BINDING AFFINITY PREDICTED BY RF-SCORE:    0.00 PKD
ROOT
HETATM    1  O   UNL     1     -12.296  11.165  69.869  1.00  0.00    -0.303 OA 
HETATM    2  C   UNL     1     -11.333  10.235  69.719  1.00  0.00    -0.273 C  
HETATM    3  C   UNL     1     -10.842  10.047  68.324  1.00  0.00    -0.286 A  
HETATM    4  O   UNL     1     -10.936   9.545  70.645  1.00  0.00    -0.255 OA 
HETATM    5  C   UNL     1     -10.337   8.778  68.005  1.00  0.00    -0.273 A  
HETATM    6  C   UNL     1      -9.796   8.522  66.745  1.00  0.00    -0.327 A  
HETATM    7  C   UNL     1      -9.742   9.536  65.793  1.00  0.00    -0.357 A  
HETATM    8  C   UNL     1     -10.242  10.803  66.093  1.00  0.00    -0.308 A  
HETATM    9  C   UNL     1     -10.804  11.060  67.352  1.00  0.00    -0.274 A  
ENDROOT
BRANCH   9  10
HETATM   10  O   UNL     1     -11.226  12.361  67.708  1.00  0.00    -0.241 OA 
BRANCH  10  11
HETATM   11  C   UNL     1     -11.844  13.122  66.730  1.00  0.00    -0.385 C  
HETATM   12  O   UNL     1     -12.516  12.653  65.823  1.00  0.00    -0.607 OA 
BRANCH  11  13
HETATM   13  C   UNL     1     -11.443  14.554  66.824  1.00  0.00    -0.376 A  
HETATM   14  C   UNL     1     -10.846  15.127  65.688  1.00  0.00    -0.367 A  
HETATM   15  C   UNL     1     -10.291  16.406  65.754  1.00  0.00    -0.388 A  
HETATM   16  C   UNL     1     -10.343  17.127  66.946  1.00  0.00    -0.308 A  
HETATM   17  C   UNL     1     -10.974  16.584  68.066  1.00  0.00    -0.320 A  
HETATM   18  C   UNL     1     -11.525  15.303  68.003  1.00  0.00    -0.341 A  
HETATM   19  O   UNL     1     -12.149  14.793  69.106  1.00  0.00    -0.447 OA 
HETATM   20  H   UNL     1     -12.205  15.302  69.907  1.00  0.00     0.000 HD 
ENDBRANCH  11  13
ENDBRANCH  10  11
ENDBRANCH   9  10
TORSDOF 3
ENDMDL
MODEL       93
REMARK 921   NORMALIZED FREE ENERGY PREDICTED BY IDOCK:   -5.53 KCAL/MOL
REMARK 922        TOTAL FREE ENERGY PREDICTED BY IDOCK:   -6.84 KCAL/MOL
REMARK 923 INTER-LIGAND FREE ENERGY PREDICTED BY IDOCK:   -6.07 KCAL/MOL
REMARK 924 INTRA-LIGAND FREE ENERGY PREDICTED BY IDOCK:   -0.78 KCAL/MOL
REMARK 927      BINDING AFFINITY PREDICTED BY RF-SCORE:    0.00 PKD
ROOT
HETATM    1  O   UNL     1     -11.174  10.563  70.583  1.00  0.00    -0.316 OA 
HETATM    2  C   UNL     1     -10.665   9.328  70.759  1.00  0.00    -0.284 C  
HETATM    3  C   UNL     1     -10.756   8.429  69.573  1.00  0.00    -0.181 A  
HETATM    4  O   UNL     1     -10.223   8.946  71.830  1.00  0.00    -0.324 OA 
HETATM    5  C   UNL     1     -10.819   7.053  69.837  1.00  0.00    -0.280 A  
HETATM    6  C   UNL     1     -10.842   6.127  68.793  1.00  0.00    -0.402 A  
HETATM    7  C   UNL     1     -10.791   6.567  67.474  1.00  0.00    -0.433 A  
HETATM    8  C   UNL     1     -10.731   7.932  67.194  1.00  0.00    -0.306 A  
HETATM    9  C   UNL     1     -10.727   8.867  68.240  1.00  0.00    -0.082 A  
ENDROOT
BRANCH   9  10
HETATM   10  O   UNL     1     -10.568  10.247  67.980  1.00  0.00    -0.198 OA 
BRANCH  10  11
HETATM   11  C   UNL     1      -9.633  10.614  67.026  1.00  0.00    -0.169 C  
HETATM   12  O   UNL     1      -8.425  10.604  67.214  1.00  0.00    -0.125 OA 
BRANCH  11  13
HETATM   13  C   UNL     1     -10.290  11.183  65.816  1.00  0.00    -0.316 A  
HETATM   14  C   UNL     1      -9.718  10.869  64.571  1.00  0.00    -0.334 A  
HETATM   15  C   UNL     1     -10.171  11.497  63.409  1.00  0.00    -0.462 A  
HETATM   16  C   UNL     1     -11.205  12.428  63.480  1.00  0.00    -0.540 A  
HETATM   17  C   UNL     1     -11.810  12.712  64.705  1.00  0.00    -0.437 A  
HETATM   18  C   UNL     1     -11.355  12.088  65.868  1.00  0.00    -0.337 A  
HETATM   19  O   UNL     1     -11.967  12.371  67.056  1.00  0.00    -0.541 OA 
HETATM   20  H   UNL     1     -12.690  12.986  67.092  1.00  0.00     0.000 HD 
ENDBRANCH  11  13
ENDBRANCH  10  11
ENDBRANCH   9  10
TORSDOF 3
ENDMDL
MODEL       94
REMARK 921   NORMALIZED FREE ENERGY PREDICTED BY IDOCK:   -5.51 KCAL/MOL
REMARK 922        TOTAL FREE ENERGY PREDICTED BY IDOCK:   -6.83 KCAL/MOL
REMARK 923 INTER-LIGAND FREE ENERGY PREDICTED BY IDOCK:   -5.96 KCAL/MOL
REMARK 924 INTRA-LIGAND FREE ENERGY PREDICTED BY IDOCK:   -0.87 KCAL/MOL
REMARK 927      BINDING AFFINITY PREDICTED BY RF-SCORE:    0.00 PKD
ROOT
HETATM    1  O   UNL     1     -11.934   4.931  72.907  1.00  0.00    -0.153 OA 
HETATM    2  C   UNL     1     -10.837   4.945  73.688  1.00  0.00    -0.309 C  
HETATM    3  C   UNL     1      -9.838   6.002  73.362  1.00  0.00    -0.166 A  
HETATM    4  O   UNL     1     -10.639   4.112  74.558  1.00  0.00    -0.233 OA 
HETATM    5  C   UNL     1      -8.502   5.720  73.685  1.00  0.00    -0.116 A  
HETATM    6  C   UNL     1      -7.502   6.670  73.477  1.00  0.00    -0.083 A  
HETATM    7  C   UNL     1      -7.828   7.918  72.955  1.00  0.00    -0.169 A  
HETATM    8  C   UNL     1      -9.150   8.214  72.625  1.00  0.00    -0.317 A  
HETATM    9  C   UNL     1     -10.157   7.255  72.815  1.00  0.00    -0.210 A  
ENDROOT
BRANCH   9  10
HETATM   10  O   UNL     1     -11.514   7.569  72.579  1.00  0.00    -0.306 OA 
BRANCH  10  11
HETATM   11  C   UNL     1     -11.877   7.903  71.285  1.00  0.00    -0.296 C  
HETATM   12  O   UNL     1     -11.749   7.156  70.326  1.00  0.00    -0.262 OA 
BRANCH  11  13
HETATM   13  C   UNL     1     -12.276   9.335  71.186  1.00  0.00    -0.373 A  
HETATM   14  C   UNL     1     -11.628  10.113  70.212  1.00  0.00    -0.379 A  
HETATM   15  C   UNL     1     -11.822  11.495  70.171  1.00  0.00    -0.440 A  
HETATM   16  C   UNL     1     -12.674  12.106  71.089  1.00  0.00    -0.351 A  
HETATM   17  C   UNL     1     -13.357  11.335  72.031  1.00  0.00    -0.386 A  
HETATM   18  C   UNL     1     -13.160   9.953  72.077  1.00  0.00    -0.448 A  
HETATM   19  O   UNL     1     -13.846   9.215  72.998  1.00  0.00    -0.959 OA 
HETATM   20  H   UNL     1     -14.446   9.635  73.603  1.00  0.00     0.000 HD 
ENDBRANCH  11  13
ENDBRANCH  10  11
ENDBRANCH   9  10
TORSDOF 3
ENDMDL
MODEL       95
REMARK 921   NORMALIZED FREE ENERGY PREDICTED BY IDOCK:   -5.51 KCAL/MOL
REMARK 922        TOTAL FREE ENERGY PREDICTED BY IDOCK:   -6.82 KCAL/MOL
REMARK 923 INTER-LIGAND FREE ENERGY PREDICTED BY IDOCK:   -6.07 KCAL/MOL
REMARK 924 INTRA-LIGAND FREE ENERGY PREDICTED BY IDOCK:   -0.75 KCAL/MOL
REMARK 927      BINDING AFFINITY PREDICTED BY RF-SCORE:    0.00 PKD
ROOT
HETATM    1  O   UNL     1     -10.584  13.334  66.933  1.00  0.00    -0.262 OA 
HETATM    2  C   UNL     1     -11.476  12.756  67.760  1.00  0.00    -0.326 C  
HETATM    3  C   UNL     1     -11.811  13.540  68.983  1.00  0.00    -0.385 A  
HETATM    4  O   UNL     1     -11.930  11.640  67.561  1.00  0.00    -0.622 OA 
HETATM    5  C   UNL     1     -12.213  12.803  70.107  1.00  0.00    -0.320 A  
HETATM    6  C   UNL     1     -12.607  13.449  71.279  1.00  0.00    -0.411 A  
HETATM    7  C   UNL     1     -12.615  14.839  71.338  1.00  0.00    -0.394 A  
HETATM    8  C   UNL     1     -12.216  15.587  70.230  1.00  0.00    -0.432 A  
HETATM    9  C   UNL     1     -11.801  14.943  69.055  1.00  0.00    -0.301 A  
ENDROOT
BRANCH   9  10
HETATM   10  O   UNL     1     -11.487  15.681  67.893  1.00  0.00    -0.329 OA 
BRANCH  10  11
HETATM   11  C   UNL     1     -10.628  16.759  68.033  1.00  0.00    -0.347 C  
HETATM   12  O   UNL     1     -10.993  17.925  68.051  1.00  0.00    -0.276 OA 
BRANCH  11  13
HETATM   13  C   UNL     1      -9.204  16.326  67.984  1.00  0.00    -0.196 A  
HETATM   14  C   UNL     1      -8.577  16.046  69.210  1.00  0.00    -0.224 A  
HETATM   15  C   UNL     1      -7.204  15.800  69.260  1.00  0.00    -0.211 A  
HETATM   16  C   UNL     1      -6.451  15.816  68.087  1.00  0.00    -0.138 A  
HETATM   17  C   UNL     1      -7.072  16.048  66.859  1.00  0.00    -0.182 A  
HETATM   18  C   UNL     1      -8.445  16.298  66.808  1.00  0.00    -0.247 A  
HETATM   19  O   UNL     1      -9.037  16.512  65.596  1.00  0.00    -0.466 OA 
HETATM   20  H   UNL     1      -8.521  16.493  64.798  1.00  0.00     0.000 HD 
ENDBRANCH  11  13
ENDBRANCH  10  11
ENDBRANCH   9  10
TORSDOF 3
ENDMDL
MODEL       96
REMARK 921   NORMALIZED FREE ENERGY PREDICTED BY IDOCK:   -5.49 KCAL/MOL
REMARK 922        TOTAL FREE ENERGY PREDICTED BY IDOCK:   -6.81 KCAL/MOL
REMARK 923 INTER-LIGAND FREE ENERGY PREDICTED BY IDOCK:   -5.98 KCAL/MOL
REMARK 924 INTRA-LIGAND FREE ENERGY PREDICTED BY IDOCK:   -0.83 KCAL/MOL
REMARK 927      BINDING AFFINITY PREDICTED BY RF-SCORE:    0.00 PKD
ROOT
HETATM    1  O   UNL     1      -9.942   5.380  69.476  1.00  0.00    -0.179 OA 
HETATM    2  C   UNL     1      -9.946   4.549  70.536  1.00  0.00    -0.208 C  
HETATM    3  C   UNL     1      -9.965   5.218  71.868  1.00  0.00    -0.240 A  
HETATM    4  O   UNL     1      -9.871   3.336  70.421  1.00  0.00    -0.121 OA 
HETATM    5  C   UNL     1      -9.387   4.509  72.931  1.00  0.00    -0.145 A  
HETATM    6  C   UNL     1      -9.412   5.023  74.228  1.00  0.00    -0.133 A  
HETATM    7  C   UNL     1     -10.026   6.246  74.479  1.00  0.00    -0.356 A  
HETATM    8  C   UNL     1     -10.603   6.965  73.433  1.00  0.00    -0.372 A  
HETATM    9  C   UNL     1     -10.565   6.462  72.124  1.00  0.00    -0.220 A  
ENDROOT
BRANCH   9  10
HETATM   10  O   UNL     1     -11.228   7.127  71.069  1.00  0.00    -0.253 OA 
BRANCH  10  11
HETATM   11  C   UNL     1     -12.509   7.594  71.314  1.00  0.00    -0.298 C  
HETATM   12  O   UNL     1     -13.481   6.870  71.472  1.00  0.00    -0.316 OA 
BRANCH  11  13
HETATM   13  C   UNL     1     -12.579   9.077  71.186  1.00  0.00    -0.263 A  
HETATM   14  C   UNL     1     -11.711   9.680  70.260  1.00  0.00    -0.213 A  
HETATM   15  C   UNL     1     -11.596  11.070  70.205  1.00  0.00    -0.421 A  
HETATM   16  C   UNL     1     -12.358  11.866  71.059  1.00  0.00    -0.362 A  
HETATM   17  C   UNL     1     -13.256  11.277  71.950  1.00  0.00    -0.491 A  
HETATM   18  C   UNL     1     -13.368   9.887  72.010  1.00  0.00    -0.432 A  
HETATM   19  O   UNL     1     -14.260   9.329  72.881  1.00  0.00    -0.954 OA 
HETATM   20  H   UNL     1     -14.796   9.880  73.441  1.00  0.00     0.000 HD 
ENDBRANCH  11  13
ENDBRANCH  10  11
ENDBRANCH   9  10
TORSDOF 3
ENDMDL
MODEL       97
REMARK 921   NORMALIZED FREE ENERGY PREDICTED BY IDOCK:   -5.49 KCAL/MOL
REMARK 922        TOTAL FREE ENERGY PREDICTED BY IDOCK:   -6.80 KCAL/MOL
REMARK 923 INTER-LIGAND FREE ENERGY PREDICTED BY IDOCK:   -5.96 KCAL/MOL
REMARK 924 INTRA-LIGAND FREE ENERGY PREDICTED BY IDOCK:   -0.84 KCAL/MOL
REMARK 927      BINDING AFFINITY PREDICTED BY RF-SCORE:    0.00 PKD
ROOT
HETATM    1  O   UNL     1      -8.920  10.398  68.097  1.00  0.00    -0.128 OA 
HETATM    2  C   UNL     1      -9.958   9.687  67.616  1.00  0.00    -0.174 C  
HETATM    3  C   UNL     1     -10.083   8.302  68.153  1.00  0.00    -0.238 A  
HETATM    4  O   UNL     1     -10.704  10.117  66.750  1.00  0.00    -0.200 OA 
HETATM    5  C   UNL     1     -10.702   7.361  67.317  1.00  0.00    -0.379 A  
HETATM    6  C   UNL     1     -10.923   6.055  67.754  1.00  0.00    -0.333 A  
HETATM    7  C   UNL     1     -10.539   5.678  69.038  1.00  0.00    -0.316 A  
HETATM    8  C   UNL     1      -9.920   6.600  69.881  1.00  0.00    -0.188 A  
HETATM    9  C   UNL     1      -9.678   7.910  69.439  1.00  0.00    -0.170 A  
ENDROOT
BRANCH   9  10
HETATM   10  O   UNL     1      -9.143   8.884  70.311  1.00  0.00    -0.156 OA 
BRANCH  10  11
HETATM   11  C   UNL     1      -9.628   8.916  71.608  1.00  0.00    -0.293 C  
HETATM   12  O   UNL     1      -8.959   8.641  72.594  1.00  0.00    -0.351 OA 
BRANCH  11  13
HETATM   13  C   UNL     1     -11.098   9.156  71.631  1.00  0.00    -0.445 A  
HETATM   14  C   UNL     1     -11.564  10.327  71.010  1.00  0.00    -0.430 A  
HETATM   15  C   UNL     1     -12.902  10.706  71.136  1.00  0.00    -0.518 A  
HETATM   16  C   UNL     1     -13.785   9.912  71.867  1.00  0.00    -0.297 A  
HETATM   17  C   UNL     1     -13.341   8.724  72.448  1.00  0.00    -0.442 A  
HETATM   18  C   UNL     1     -12.002   8.346  72.327  1.00  0.00    -0.389 A  
HETATM   19  O   UNL     1     -11.589   7.175  72.894  1.00  0.00    -0.517 OA 
HETATM   20  H   UNL     1     -12.203   6.625  73.368  1.00  0.00     0.000 HD 
ENDBRANCH  11  13
ENDBRANCH  10  11
ENDBRANCH   9  10
TORSDOF 3
ENDMDL
MODEL       98
REMARK 921   NORMALIZED FREE ENERGY PREDICTED BY IDOCK:   -5.49 KCAL/MOL
REMARK 922        TOTAL FREE ENERGY PREDICTED BY IDOCK:   -6.80 KCAL/MOL
REMARK 923 INTER-LIGAND FREE ENERGY PREDICTED BY IDOCK:   -6.56 KCAL/MOL
REMARK 924 INTRA-LIGAND FREE ENERGY PREDICTED BY IDOCK:   -0.24 KCAL/MOL
REMARK 927      BINDING AFFINITY PREDICTED BY RF-SCORE:    0.00 PKD
ROOT
HETATM    1  O   UNL     1     -11.209  10.053  68.570  1.00  0.00    -0.211 OA 
HETATM    2  C   UNL     1     -11.831  10.740  69.547  1.00  0.00    -0.308 C  
HETATM    3  C   UNL     1     -11.861  12.219  69.364  1.00  0.00    -0.370 A  
HETATM    4  O   UNL     1     -12.279  10.201  70.547  1.00  0.00    -0.280 OA 
HETATM    5  C   UNL     1     -11.926  12.992  70.533  1.00  0.00    -0.294 A  
HETATM    6  C   UNL     1     -12.023  14.382  70.464  1.00  0.00    -0.395 A  
HETATM    7  C   UNL     1     -12.067  15.015  69.225  1.00  0.00    -0.282 A  
HETATM    8  C   UNL     1     -12.001  14.261  68.053  1.00  0.00    -0.353 A  
HETATM    9  C   UNL     1     -11.885  12.865  68.117  1.00  0.00    -0.336 A  
ENDROOT
BRANCH   9  10
HETATM   10  O   UNL     1     -11.915  12.078  66.944  1.00  0.00    -0.612 OA 
BRANCH  10  11
HETATM   11  C   UNL     1     -11.391  12.634  65.789  1.00  0.00    -0.333 C  
HETATM   12  O   UNL     1     -11.717  13.727  65.348  1.00  0.00    -0.317 OA 
BRANCH  11  13
HETATM   13  C   UNL     1     -10.519  11.665  65.069  1.00  0.00    -0.336 A  
HETATM   14  C   UNL     1      -9.434  11.128  65.782  1.00  0.00    -0.248 A  
HETATM   15  C   UNL     1      -8.478  10.348  65.129  1.00  0.00    -0.177 A  
HETATM   16  C   UNL     1      -8.607  10.086  63.766  1.00  0.00    -0.202 A  
HETATM   17  C   UNL     1      -9.705  10.576  63.059  1.00  0.00    -0.337 A  
HETATM   18  C   UNL     1     -10.660  11.361  63.710  1.00  0.00    -0.403 A  
HETATM   19  O   UNL     1     -11.734  11.822  63.004  1.00  0.00    -0.771 OA 
HETATM   20  H   UNL     1     -11.829  11.616  62.081  1.00  0.00     0.000 HD 
ENDBRANCH  11  13
ENDBRANCH  10  11
ENDBRANCH   9  10
TORSDOF 3
ENDMDL
MODEL       99
REMARK 921   NORMALIZED FREE ENERGY PREDICTED BY IDOCK:   -5.48 KCAL/MOL
REMARK 922        TOTAL FREE ENERGY PREDICTED BY IDOCK:   -6.80 KCAL/MOL
REMARK 923 INTER-LIGAND FREE ENERGY PREDICTED BY IDOCK:   -6.05 KCAL/MOL
REMARK 924 INTRA-LIGAND FREE ENERGY PREDICTED BY IDOCK:   -0.75 KCAL/MOL
REMARK 927      BINDING AFFINITY PREDICTED BY RF-SCORE:    0.00 PKD
ROOT
HETATM    1  O   UNL     1     -10.248  12.787  66.285  1.00  0.00    -0.244 OA 
HETATM    2  C   UNL     1      -9.267  12.693  67.203  1.00  0.00    -0.214 C  
HETATM    3  C   UNL     1      -8.307  13.833  67.227  1.00  0.00    -0.186 A  
HETATM    4  O   UNL     1      -9.128  11.714  67.919  1.00  0.00    -0.159 OA 
HETATM    5  C   UNL     1      -7.009  13.548  67.678  1.00  0.00    -0.176 A  
HETATM    6  C   UNL     1      -6.058  14.561  67.797  1.00  0.00    -0.133 A  
HETATM    7  C   UNL     1      -6.396  15.873  67.478  1.00  0.00    -0.198 A  
HETATM    8  C   UNL     1      -7.680  16.173  67.025  1.00  0.00    -0.256 A  
HETATM    9  C   UNL     1      -8.635  15.155  66.886  1.00  0.00    -0.257 A  
ENDROOT
BRANCH   9  10
HETATM   10  O   UNL     1      -9.968  15.453  66.523  1.00  0.00    -0.249 OA 
BRANCH  10  11
HETATM   11  C   UNL     1     -10.728  16.181  67.425  1.00  0.00    -0.291 C  
HETATM   12  O   UNL     1     -11.584  15.692  68.147  1.00  0.00    -0.353 OA 
BRANCH  11  13
HETATM   13  C   UNL     1     -10.491  17.644  67.275  1.00  0.00    -0.338 A  
HETATM   14  C   UNL     1     -10.239  18.374  68.449  1.00  0.00    -0.407 A  
HETATM   15  C   UNL     1     -10.176  19.768  68.411  1.00  0.00    -0.568 A  
HETATM   16  C   UNL     1     -10.348  20.440  67.202  1.00  0.00    -0.322 A  
HETATM   17  C   UNL     1     -10.554  19.721  66.024  1.00  0.00    -0.573 A  
HETATM   18  C   UNL     1     -10.621  18.327  66.061  1.00  0.00    -0.296 A  
HETATM   19  O   UNL     1     -10.812  17.640  64.896  1.00  0.00    -0.831 OA 
HETATM   20  H   UNL     1     -10.900  18.104  64.071  1.00  0.00     0.000 HD 
ENDBRANCH  11  13
ENDBRANCH  10  11
ENDBRANCH   9  10
TORSDOF 3
ENDMDL
MODEL      100
REMARK 921   NORMALIZED FREE ENERGY PREDICTED BY IDOCK:   -5.48 KCAL/MOL
REMARK 922        TOTAL FREE ENERGY PREDICTED BY IDOCK:   -6.78 KCAL/MOL
REMARK 923 INTER-LIGAND FREE ENERGY PREDICTED BY IDOCK:   -6.07 KCAL/MOL
REMARK 924 INTRA-LIGAND FREE ENERGY PREDICTED BY IDOCK:   -0.71 KCAL/MOL
REMARK 927      BINDING AFFINITY PREDICTED BY RF-SCORE:    0.00 PKD
ROOT
HETATM    1  O   UNL     1     -10.585  16.972  67.233  1.00  0.00    -0.321 OA 
HETATM    2  C   UNL     1     -10.550  17.111  68.572  1.00  0.00    -0.361 C  
HETATM    3  C   UNL     1     -11.152  15.987  69.344  1.00  0.00    -0.331 A  
HETATM    4  O   UNL     1     -10.119  18.115  69.117  1.00  0.00    -0.341 OA 
HETATM    5  C   UNL     1     -11.678  16.307  70.605  1.00  0.00    -0.186 A  
HETATM    6  C   UNL     1     -12.206  15.314  71.430  1.00  0.00    -0.414 A  
HETATM    7  C   UNL     1     -12.203  13.987  71.009  1.00  0.00    -0.430 A  
HETATM    8  C   UNL     1     -11.686  13.653  69.757  1.00  0.00    -0.364 A  
HETATM    9  C   UNL     1     -11.171  14.650  68.916  1.00  0.00    -0.267 A  
ENDROOT
BRANCH   9  10
HETATM   10  O   UNL     1     -10.555  14.320  67.689  1.00  0.00    -0.250 OA 
BRANCH  10  11
HETATM   11  C   UNL     1     -11.170  13.358  66.904  1.00  0.00    -0.308 C  
HETATM   12  O   UNL     1     -12.253  13.512  66.358  1.00  0.00    -0.415 OA 
BRANCH  11  13
HETATM   13  C   UNL     1     -10.432  12.065  66.954  1.00  0.00    -0.251 A  
HETATM   14  C   UNL     1      -9.134  12.049  66.415  1.00  0.00    -0.193 A  
HETATM   15  C   UNL     1      -8.447  10.842  66.271  1.00  0.00    -0.166 A  
HETATM   16  C   UNL     1      -9.042   9.649  66.678  1.00  0.00    -0.176 A  
HETATM   17  C   UNL     1     -10.311   9.661  67.256  1.00  0.00    -0.310 A  
HETATM   18  C   UNL     1     -11.002  10.867  67.397  1.00  0.00    -0.293 A  
HETATM   19  O   UNL     1     -12.239  10.860  67.975  1.00  0.00    -0.695 OA 
HETATM   20  H   UNL     1     -12.627  10.046  68.276  1.00  0.00     0.000 HD 
ENDBRANCH  11  13
ENDBRANCH  10  11
ENDBRANCH   9  10
TORSDOF 3
ENDMDL
MODEL      101
REMARK 921   NORMALIZED FREE ENERGY PREDICTED BY IDOCK:   -5.47 KCAL/MOL
REMARK 922        TOTAL FREE ENERGY PREDICTED BY IDOCK:   -6.78 KCAL/MOL
REMARK 923 INTER-LIGAND FREE ENERGY PREDICTED BY IDOCK:   -6.13 KCAL/MOL
REMARK 924 INTRA-LIGAND FREE ENERGY PREDICTED BY IDOCK:   -0.65 KCAL/MOL
REMARK 927      BINDING AFFINITY PREDICTED BY RF-SCORE:    0.00 PKD
ROOT
HETATM    1  O   UNL     1      -7.152  16.049  67.731  1.00  0.00    -0.123 OA 
HETATM    2  C   UNL     1      -7.321  17.249  68.319  1.00  0.00    -0.214 C  
HETATM    3  C   UNL     1      -8.287  18.159  67.640  1.00  0.00    -0.244 A  
HETATM    4  O   UNL     1      -6.680  17.597  69.298  1.00  0.00    -0.254 OA 
HETATM    5  C   UNL     1      -8.072  19.535  67.808  1.00  0.00    -0.331 A  
HETATM    6  C   UNL     1      -8.958  20.467  67.265  1.00  0.00    -0.460 A  
HETATM    7  C   UNL     1     -10.075  20.032  66.558  1.00  0.00    -0.606 A  
HETATM    8  C   UNL     1     -10.302  18.668  66.380  1.00  0.00    -0.472 A  
HETATM    9  C   UNL     1      -9.404  17.728  66.907  1.00  0.00    -0.269 A  
ENDROOT
BRANCH   9  10
HETATM   10  O   UNL     1      -9.668  16.343  66.822  1.00  0.00    -0.234 OA 
BRANCH  10  11
HETATM   11  C   UNL     1     -10.698  15.839  67.600  1.00  0.00    -0.310 C  
HETATM   12  O   UNL     1     -11.212  16.446  68.528  1.00  0.00    -0.358 OA 
BRANCH  11  13
HETATM   13  C   UNL     1     -10.975  14.412  67.275  1.00  0.00    -0.301 A  
HETATM   14  C   UNL     1     -11.153  14.089  65.919  1.00  0.00    -0.301 A  
HETATM   15  C   UNL     1     -11.581  12.812  65.550  1.00  0.00    -0.400 A  
HETATM   16  C   UNL     1     -11.818  11.848  66.528  1.00  0.00    -0.132 A  
HETATM   17  C   UNL     1     -11.600  12.146  67.873  1.00  0.00    -0.413 A  
HETATM   18  C   UNL     1     -11.176  13.424  68.245  1.00  0.00    -0.279 A  
HETATM   19  O   UNL     1     -10.958  13.694  69.565  1.00  0.00    -0.427 OA 
HETATM   20  H   UNL     1     -11.095  13.023  70.224  1.00  0.00     0.000 HD 
ENDBRANCH  11  13
ENDBRANCH  10  11
ENDBRANCH   9  10
TORSDOF 3
ENDMDL
MODEL      102
REMARK 921   NORMALIZED FREE ENERGY PREDICTED BY IDOCK:   -5.44 KCAL/MOL
REMARK 922        TOTAL FREE ENERGY PREDICTED BY IDOCK:   -6.74 KCAL/MOL
REMARK 923 INTER-LIGAND FREE ENERGY PREDICTED BY IDOCK:   -5.46 KCAL/MOL
REMARK 924 INTRA-LIGAND FREE ENERGY PREDICTED BY IDOCK:   -1.28 KCAL/MOL
REMARK 927      BINDING AFFINITY PREDICTED BY RF-SCORE:    0.00 PKD
ROOT
HETATM    1  O   UNL     1      -9.850  14.099  67.797  1.00  0.00    -0.223 OA 
HETATM    2  C   UNL     1     -11.085  13.675  67.467  1.00  0.00    -0.277 C  
HETATM    3  C   UNL     1     -11.212  13.087  66.102  1.00  0.00    -0.320 A  
HETATM    4  O   UNL     1     -12.049  13.821  68.202  1.00  0.00    -0.364 OA 
HETATM    5  C   UNL     1     -12.471  13.188  65.493  1.00  0.00    -0.516 A  
HETATM    6  C   UNL     1     -12.708  12.614  64.244  1.00  0.00    -0.394 A  
HETATM    7  C   UNL     1     -11.690  11.922  63.595  1.00  0.00    -0.572 A  
HETATM    8  C   UNL     1     -10.431  11.815  64.185  1.00  0.00    -0.394 A  
HETATM    9  C   UNL     1     -10.183  12.406  65.432  1.00  0.00    -0.278 A  
ENDROOT
BRANCH   9  10
HETATM   10  O   UNL     1      -8.946  12.226  66.090  1.00  0.00    -0.138 OA 
BRANCH  10  11
HETATM   11  C   UNL     1      -8.429  10.941  66.137  1.00  0.00    -0.171 C  
HETATM   12  O   UNL     1      -7.671  10.479  65.297  1.00  0.00    -0.145 OA 
BRANCH  11  13
HETATM   13  C   UNL     1      -9.047  10.149  67.237  1.00  0.00    -0.151 A  
HETATM   14  C   UNL     1      -9.660   8.935  66.884  1.00  0.00    -0.248 A  
HETATM   15  C   UNL     1     -10.405   8.222  67.825  1.00  0.00    -0.296 A  
HETATM   16  C   UNL     1     -10.530   8.707  69.126  1.00  0.00    -0.223 A  
HETATM   17  C   UNL     1      -9.887   9.888  69.498  1.00  0.00    -0.241 A  
HETATM   18  C   UNL     1      -9.145  10.605  68.556  1.00  0.00    -0.159 A  
HETATM   19  O   UNL     1      -8.514  11.753  68.942  1.00  0.00    -0.350 OA 
HETATM   20  H   UNL     1      -8.580  12.062  69.838  1.00  0.00     0.000 HD 
ENDBRANCH  11  13
ENDBRANCH  10  11
ENDBRANCH   9  10
TORSDOF 3
ENDMDL
MODEL      103
REMARK 921   NORMALIZED FREE ENERGY PREDICTED BY IDOCK:   -5.42 KCAL/MOL
REMARK 922        TOTAL FREE ENERGY PREDICTED BY IDOCK:   -6.73 KCAL/MOL
REMARK 923 INTER-LIGAND FREE ENERGY PREDICTED BY IDOCK:   -6.41 KCAL/MOL
REMARK 924 INTRA-LIGAND FREE ENERGY PREDICTED BY IDOCK:   -0.32 KCAL/MOL
REMARK 927      BINDING AFFINITY PREDICTED BY RF-SCORE:    0.00 PKD
ROOT
HETATM    1  O   UNL     1     -11.324  16.105  68.019  1.00  0.00    -0.326 OA 
HETATM    2  C   UNL     1     -10.940  16.270  69.299  1.00  0.00    -0.317 C  
HETATM    3  C   UNL     1     -11.742  15.517  70.306  1.00  0.00    -0.367 A  
HETATM    4  O   UNL     1     -10.045  17.034  69.624  1.00  0.00    -0.106 OA 
HETATM    5  C   UNL     1     -11.809  16.071  71.593  1.00  0.00    -0.582 A  
HETATM    6  C   UNL     1     -12.482  15.409  72.620  1.00  0.00    -0.480 A  
HETATM    7  C   UNL     1     -13.086  14.179  72.375  1.00  0.00    -0.525 A  
HETATM    8  C   UNL     1     -13.031  13.615  71.100  1.00  0.00    -0.353 A  
HETATM    9  C   UNL     1     -12.372  14.286  70.060  1.00  0.00    -0.346 A  
ENDROOT
BRANCH   9  10
HETATM   10  O   UNL     1     -12.221  13.687  68.789  1.00  0.00    -0.339 OA 
BRANCH  10  11
HETATM   11  C   UNL     1     -11.593  12.454  68.735  1.00  0.00    -0.326 C  
HETATM   12  O   UNL     1     -11.321  11.782  69.719  1.00  0.00    -0.244 OA 
BRANCH  11  13
HETATM   13  C   UNL     1     -11.139  12.137  67.352  1.00  0.00    -0.330 A  
HETATM   14  C   UNL     1     -11.335  13.126  66.373  1.00  0.00    -0.349 A  
HETATM   15  C   UNL     1     -11.094  12.843  65.027  1.00  0.00    -0.320 A  
HETATM   16  C   UNL     1     -10.642  11.579  64.652  1.00  0.00    -0.369 A  
HETATM   17  C   UNL     1     -10.400  10.606  65.622  1.00  0.00    -0.285 A  
HETATM   18  C   UNL     1     -10.645  10.886  66.968  1.00  0.00    -0.257 A  
HETATM   19  O   UNL     1     -10.393   9.924  67.903  1.00  0.00    -0.184 OA 
HETATM   20  H   UNL     1     -10.057   9.073  67.642  1.00  0.00     0.000 HD 
ENDBRANCH  11  13
ENDBRANCH  10  11
ENDBRANCH   9  10
TORSDOF 3
ENDMDL
MODEL      104
REMARK 921   NORMALIZED FREE ENERGY PREDICTED BY IDOCK:   -5.42 KCAL/MOL
REMARK 922        TOTAL FREE ENERGY PREDICTED BY IDOCK:   -6.72 KCAL/MOL
REMARK 923 INTER-LIGAND FREE ENERGY PREDICTED BY IDOCK:   -6.12 KCAL/MOL
REMARK 924 INTRA-LIGAND FREE ENERGY PREDICTED BY IDOCK:   -0.60 KCAL/MOL
REMARK 927      BINDING AFFINITY PREDICTED BY RF-SCORE:    0.00 PKD
ROOT
HETATM    1  O   UNL     1      -8.338  12.803  67.787  1.00  0.00    -0.151 OA 
HETATM    2  C   UNL     1      -7.787  14.010  67.555  1.00  0.00    -0.184 C  
HETATM    3  C   UNL     1      -8.756  15.132  67.396  1.00  0.00    -0.205 A  
HETATM    4  O   UNL     1      -6.584  14.168  67.415  1.00  0.00    -0.282 OA 
HETATM    5  C   UNL     1      -8.341  16.208  66.599  1.00  0.00    -0.321 A  
HETATM    6  C   UNL     1      -9.151  17.333  66.441  1.00  0.00    -0.281 A  
HETATM    7  C   UNL     1     -10.381  17.399  67.089  1.00  0.00    -0.325 A  
HETATM    8  C   UNL     1     -10.811  16.336  67.883  1.00  0.00    -0.330 A  
HETATM    9  C   UNL     1     -10.008  15.195  68.029  1.00  0.00    -0.221 A  
ENDROOT
BRANCH   9  10
HETATM   10  O   UNL     1     -10.381  14.152  68.906  1.00  0.00    -0.236 OA 
BRANCH  10  11
HETATM   11  C   UNL     1     -11.362  13.274  68.474  1.00  0.00    -0.284 C  
HETATM   12  O   UNL     1     -11.671  13.120  67.301  1.00  0.00    -0.336 OA 
BRANCH  11  13
HETATM   13  C   UNL     1     -12.100  12.679  69.622  1.00  0.00    -0.277 A  
HETATM   14  C   UNL     1     -12.496  13.552  70.650  1.00  0.00    -0.405 A  
HETATM   15  C   UNL     1     -13.039  13.048  71.833  1.00  0.00    -0.483 A  
HETATM   16  C   UNL     1     -13.205  11.673  71.992  1.00  0.00    -0.443 A  
HETATM   17  C   UNL     1     -12.858  10.802  70.959  1.00  0.00    -0.480 A  
HETATM   18  C   UNL     1     -12.310  11.304  69.777  1.00  0.00    -0.209 A  
HETATM   19  O   UNL     1     -11.986  10.436  68.773  1.00  0.00    -0.668 OA 
HETATM   20  H   UNL     1     -12.129   9.503  68.878  1.00  0.00     0.000 HD 
ENDBRANCH  11  13
ENDBRANCH  10  11
ENDBRANCH   9  10
TORSDOF 3
ENDMDL
MODEL      105
REMARK 921   NORMALIZED FREE ENERGY PREDICTED BY IDOCK:   -5.41 KCAL/MOL
REMARK 922        TOTAL FREE ENERGY PREDICTED BY IDOCK:   -6.71 KCAL/MOL
REMARK 923 INTER-LIGAND FREE ENERGY PREDICTED BY IDOCK:   -5.90 KCAL/MOL
REMARK 924 INTRA-LIGAND FREE ENERGY PREDICTED BY IDOCK:   -0.81 KCAL/MOL
REMARK 927      BINDING AFFINITY PREDICTED BY RF-SCORE:    0.00 PKD
ROOT
HETATM    1  O   UNL     1      -6.746  18.149  65.809  1.00  0.00    -0.262 OA 
HETATM    2  C   UNL     1      -7.460  17.123  66.311  1.00  0.00    -0.309 C  
HETATM    3  C   UNL     1      -6.955  16.566  67.598  1.00  0.00    -0.158 A  
HETATM    4  O   UNL     1      -8.413  16.636  65.724  1.00  0.00    -0.433 OA 
HETATM    5  C   UNL     1      -7.238  15.216  67.849  1.00  0.00    -0.158 A  
HETATM    6  C   UNL     1      -6.863  14.620  69.053  1.00  0.00    -0.111 A  
HETATM    7  C   UNL     1      -6.210  15.371  70.026  1.00  0.00    -0.146 A  
HETATM    8  C   UNL     1      -5.918  16.714  69.792  1.00  0.00    -0.222 A  
HETATM    9  C   UNL     1      -6.276  17.313  68.575  1.00  0.00    -0.160 A  
ENDROOT
BRANCH   9  10
HETATM   10  O   UNL     1      -6.077  18.695  68.358  1.00  0.00    -0.205 OA 
BRANCH  10  11
HETATM   11  C   UNL     1      -6.899  19.574  69.044  1.00  0.00    -0.349 C  
HETATM   12  O   UNL     1      -6.636  20.038  70.143  1.00  0.00    -0.349 OA 
BRANCH  11  13
HETATM   13  C   UNL     1      -8.209  19.741  68.354  1.00  0.00    -0.296 A  
HETATM   14  C   UNL     1      -9.300  19.021  68.870  1.00  0.00    -0.362 A  
HETATM   15  C   UNL     1     -10.514  18.991  68.182  1.00  0.00    -0.402 A  
HETATM   16  C   UNL     1     -10.652  19.691  66.984  1.00  0.00    -0.602 A  
HETATM   17  C   UNL     1      -9.588  20.445  66.487  1.00  0.00    -0.431 A  
HETATM   18  C   UNL     1      -8.372  20.472  67.172  1.00  0.00    -0.276 A  
HETATM   19  O   UNL     1      -7.346  21.225  66.676  1.00  0.00    -0.670 OA 
HETATM   20  H   UNL     1      -7.457  21.722  65.874  1.00  0.00     0.000 HD 
ENDBRANCH  11  13
ENDBRANCH  10  11
ENDBRANCH   9  10
TORSDOF 3
ENDMDL
MODEL      106
REMARK 921   NORMALIZED FREE ENERGY PREDICTED BY IDOCK:   -5.40 KCAL/MOL
REMARK 922        TOTAL FREE ENERGY PREDICTED BY IDOCK:   -6.70 KCAL/MOL
REMARK 923 INTER-LIGAND FREE ENERGY PREDICTED BY IDOCK:   -6.17 KCAL/MOL
REMARK 924 INTRA-LIGAND FREE ENERGY PREDICTED BY IDOCK:   -0.53 KCAL/MOL
REMARK 927      BINDING AFFINITY PREDICTED BY RF-SCORE:    0.00 PKD
ROOT
HETATM    1  O   UNL     1     -10.946  18.977  67.526  1.00  0.00    -0.443 OA 
HETATM    2  C   UNL     1      -9.995  19.650  66.851  1.00  0.00    -0.400 C  
HETATM    3  C   UNL     1      -8.672  19.737  67.532  1.00  0.00    -0.388 A  
HETATM    4  O   UNL     1     -10.215  20.210  65.789  1.00  0.00    -0.448 OA 
HETATM    5  C   UNL     1      -7.881  20.853  67.222  1.00  0.00    -0.233 A  
HETATM    6  C   UNL     1      -6.601  20.991  67.759  1.00  0.00    -0.385 A  
HETATM    7  C   UNL     1      -6.092  20.009  68.604  1.00  0.00    -0.312 A  
HETATM    8  C   UNL     1      -6.866  18.895  68.925  1.00  0.00    -0.329 A  
HETATM    9  C   UNL     1      -8.161  18.760  68.402  1.00  0.00    -0.341 A  
ENDROOT
BRANCH   9  10
HETATM   10  O   UNL     1      -8.922  17.593  68.637  1.00  0.00    -0.286 OA 
BRANCH  10  11
HETATM   11  C   UNL     1      -8.788  16.551  67.734  1.00  0.00    -0.197 C  
HETATM   12  O   UNL     1      -7.882  16.467  66.918  1.00  0.00    -0.179 OA 
BRANCH  11  13
HETATM   13  C   UNL     1      -9.972  15.648  67.769  1.00  0.00    -0.223 A  
HETATM   14  C   UNL     1     -10.403  15.207  69.032  1.00  0.00    -0.244 A  
HETATM   15  C   UNL     1     -11.394  14.229  69.136  1.00  0.00    -0.312 A  
HETATM   16  C   UNL     1     -11.973  13.700  67.984  1.00  0.00    -0.385 A  
HETATM   17  C   UNL     1     -11.585  14.165  66.728  1.00  0.00    -0.409 A  
HETATM   18  C   UNL     1     -10.590  15.139  66.621  1.00  0.00    -0.304 A  
HETATM   19  O   UNL     1     -10.231  15.590  65.383  1.00  0.00    -0.356 OA 
HETATM   20  H   UNL     1     -10.650  15.244  64.604  1.00  0.00     0.000 HD 
ENDBRANCH  11  13
ENDBRANCH  10  11
ENDBRANCH   9  10
TORSDOF 3
ENDMDL
MODEL      107
REMARK 921   NORMALIZED FREE ENERGY PREDICTED BY IDOCK:   -5.39 KCAL/MOL
REMARK 922        TOTAL FREE ENERGY PREDICTED BY IDOCK:   -6.68 KCAL/MOL
REMARK 923 INTER-LIGAND FREE ENERGY PREDICTED BY IDOCK:   -6.26 KCAL/MOL
REMARK 924 INTRA-LIGAND FREE ENERGY PREDICTED BY IDOCK:   -0.42 KCAL/MOL
REMARK 927      BINDING AFFINITY PREDICTED BY RF-SCORE:    0.00 PKD
ROOT
HETATM    1  O   UNL     1     -12.123  14.219  67.319  1.00  0.00    -0.411 OA 
HETATM    2  C   UNL     1     -11.325  15.150  66.763  1.00  0.00    -0.248 C  
HETATM    3  C   UNL     1     -10.909  16.257  67.671  1.00  0.00    -0.293 A  
HETATM    4  O   UNL     1     -11.017  15.131  65.581  1.00  0.00    -0.334 OA 
HETATM    5  C   UNL     1     -10.622  17.489  67.064  1.00  0.00    -0.245 A  
HETATM    6  C   UNL     1     -10.164  18.567  67.822  1.00  0.00    -0.412 A  
HETATM    7  C   UNL     1      -9.976  18.422  69.193  1.00  0.00    -0.206 A  
HETATM    8  C   UNL     1     -10.260  17.205  69.812  1.00  0.00     0.151 A  
HETATM    9  C   UNL     1     -10.738  16.124  69.058  1.00  0.00    -0.287 A  
ENDROOT
BRANCH   9  10
HETATM   10  O   UNL     1     -10.937  14.856  69.650  1.00  0.00    -0.262 OA 
BRANCH  10  11
HETATM   11  C   UNL     1     -12.090  14.674  70.397  1.00  0.00    -0.319 C  
HETATM   12  O   UNL     1     -12.810  15.586  70.775  1.00  0.00    -0.458 OA 
BRANCH  11  13
HETATM   13  C   UNL     1     -12.239  13.255  70.824  1.00  0.00    -0.390 A  
HETATM   14  C   UNL     1     -11.537  12.287  70.085  1.00  0.00    -0.177 A  
HETATM   15  C   UNL     1     -11.758  10.928  70.314  1.00  0.00    -0.437 A  
HETATM   16  C   UNL     1     -12.667  10.526  71.291  1.00  0.00    -0.532 A  
HETATM   17  C   UNL     1     -13.335  11.479  72.061  1.00  0.00    -0.397 A  
HETATM   18  C   UNL     1     -13.119  12.839  71.830  1.00  0.00    -0.356 A  
HETATM   19  O   UNL     1     -13.773  13.756  72.600  1.00  0.00    -0.647 OA 
HETATM   20  H   UNL     1     -14.371  13.474  73.284  1.00  0.00     0.000 HD 
ENDBRANCH  11  13
ENDBRANCH  10  11
ENDBRANCH   9  10
TORSDOF 3
ENDMDL
MODEL      108
REMARK 921   NORMALIZED FREE ENERGY PREDICTED BY IDOCK:   -5.38 KCAL/MOL
REMARK 922        TOTAL FREE ENERGY PREDICTED BY IDOCK:   -6.68 KCAL/MOL
REMARK 923 INTER-LIGAND FREE ENERGY PREDICTED BY IDOCK:   -6.40 KCAL/MOL
REMARK 924 INTRA-LIGAND FREE ENERGY PREDICTED BY IDOCK:   -0.27 KCAL/MOL
REMARK 927      BINDING AFFINITY PREDICTED BY RF-SCORE:    0.00 PKD
ROOT
HETATM    1  O   UNL     1     -12.225  12.454  66.785  1.00  0.00    -0.551 OA 
HETATM    2  C   UNL     1     -12.152  12.303  65.449  1.00  0.00    -0.276 C  
HETATM    3  C   UNL     1     -10.971  11.536  64.958  1.00  0.00    -0.305 A  
HETATM    4  O   UNL     1     -12.955  12.815  64.684  1.00  0.00    -0.742 OA 
HETATM    5  C   UNL     1     -10.519  11.843  63.666  1.00  0.00    -0.493 A  
HETATM    6  C   UNL     1      -9.461  11.137  63.095  1.00  0.00    -0.371 A  
HETATM    7  C   UNL     1      -8.850  10.107  63.804  1.00  0.00    -0.245 A  
HETATM    8  C   UNL     1      -9.285   9.791  65.091  1.00  0.00    -0.297 A  
HETATM    9  C   UNL     1     -10.336  10.511  65.677  1.00  0.00    -0.204 A  
ENDROOT
BRANCH   9  10
HETATM   10  O   UNL     1     -10.855  10.142  66.939  1.00  0.00    -0.201 OA 
BRANCH  10  11
HETATM   11  C   UNL     1     -10.477   8.911  67.450  1.00  0.00    -0.277 C  
HETATM   12  O   UNL     1     -10.394   7.891  66.781  1.00  0.00    -0.309 OA 
BRANCH  11  13
HETATM   13  C   UNL     1     -10.358   8.954  68.934  1.00  0.00    -0.229 A  
HETATM   14  C   UNL     1      -9.336   8.185  69.516  1.00  0.00    -0.155 A  
HETATM   15  C   UNL     1      -9.267   8.040  70.903  1.00  0.00    -0.163 A  
HETATM   16  C   UNL     1     -10.205   8.672  71.716  1.00  0.00    -0.378 A  
HETATM   17  C   UNL     1     -11.196   9.475  71.150  1.00  0.00    -0.446 A  
HETATM   18  C   UNL     1     -11.269   9.618  69.763  1.00  0.00    -0.174 A  
HETATM   19  O   UNL     1     -12.239  10.416  69.228  1.00  0.00    -0.588 OA 
HETATM   20  H   UNL     1     -12.858  10.867  69.791  1.00  0.00     0.000 HD 
ENDBRANCH  11  13
ENDBRANCH  10  11
ENDBRANCH   9  10
TORSDOF 3
ENDMDL
MODEL      109
REMARK 921   NORMALIZED FREE ENERGY PREDICTED BY IDOCK:   -5.38 KCAL/MOL
REMARK 922        TOTAL FREE ENERGY PREDICTED BY IDOCK:   -6.67 KCAL/MOL
REMARK 923 INTER-LIGAND FREE ENERGY PREDICTED BY IDOCK:   -5.94 KCAL/MOL
REMARK 924 INTRA-LIGAND FREE ENERGY PREDICTED BY IDOCK:   -0.73 KCAL/MOL
REMARK 927      BINDING AFFINITY PREDICTED BY RF-SCORE:    0.00 PKD
ROOT
HETATM    1  O   UNL     1     -12.619  14.768  69.975  1.00  0.00    -0.301 OA 
HETATM    2  C   UNL     1     -12.668  14.047  71.111  1.00  0.00    -0.364 C  
HETATM    3  C   UNL     1     -12.544  12.572  70.934  1.00  0.00    -0.331 A  
HETATM    4  O   UNL     1     -12.868  14.553  72.204  1.00  0.00    -0.314 OA 
HETATM    5  C   UNL     1     -13.160  11.771  71.907  1.00  0.00    -0.482 A  
HETATM    6  C   UNL     1     -13.046  10.382  71.863  1.00  0.00    -0.563 A  
HETATM    7  C   UNL     1     -12.306   9.776  70.853  1.00  0.00    -0.379 A  
HETATM    8  C   UNL     1     -11.689  10.557  69.875  1.00  0.00    -0.372 A  
HETATM    9  C   UNL     1     -11.816  11.954  69.904  1.00  0.00    -0.343 A  
ENDROOT
BRANCH   9  10
HETATM   10  O   UNL     1     -11.119  12.766  68.981  1.00  0.00    -0.251 OA 
BRANCH  10  11
HETATM   11  C   UNL     1     -11.316  12.516  67.633  1.00  0.00    -0.306 C  
HETATM   12  O   UNL     1     -12.389  12.653  67.063  1.00  0.00    -0.399 OA 
BRANCH  11  13
HETATM   13  C   UNL     1     -10.111  11.897  67.015  1.00  0.00    -0.226 A  
HETATM   14  C   UNL     1     -10.324  11.003  65.953  1.00  0.00    -0.315 A  
HETATM   15  C   UNL     1      -9.263  10.257  65.436  1.00  0.00    -0.236 A  
HETATM   16  C   UNL     1      -7.982  10.410  65.964  1.00  0.00    -0.144 A  
HETATM   17  C   UNL     1      -7.752  11.329  66.989  1.00  0.00    -0.147 A  
HETATM   18  C   UNL     1      -8.813  12.072  67.510  1.00  0.00    -0.172 A  
HETATM   19  O   UNL     1      -8.567  12.975  68.505  1.00  0.00    -0.293 OA 
HETATM   20  H   UNL     1      -7.686  13.094  68.841  1.00  0.00     0.000 HD 
ENDBRANCH  11  13
ENDBRANCH  10  11
ENDBRANCH   9  10
TORSDOF 3
ENDMDL
MODEL      110
REMARK 921   NORMALIZED FREE ENERGY PREDICTED BY IDOCK:   -5.37 KCAL/MOL
REMARK 922        TOTAL FREE ENERGY PREDICTED BY IDOCK:   -6.66 KCAL/MOL
REMARK 923 INTER-LIGAND FREE ENERGY PREDICTED BY IDOCK:   -6.24 KCAL/MOL
REMARK 924 INTRA-LIGAND FREE ENERGY PREDICTED BY IDOCK:   -0.42 KCAL/MOL
REMARK 927      BINDING AFFINITY PREDICTED BY RF-SCORE:    0.00 PKD
ROOT
HETATM    1  O   UNL     1     -11.733  14.128  68.836  1.00  0.00    -0.292 OA 
HETATM    2  C   UNL     1     -11.473  12.824  69.048  1.00  0.00    -0.309 C  
HETATM    3  C   UNL     1     -10.802  12.117  67.920  1.00  0.00    -0.254 A  
HETATM    4  O   UNL     1     -11.822  12.240  70.063  1.00  0.00    -0.327 OA 
HETATM    5  C   UNL     1     -11.040  10.738  67.816  1.00  0.00    -0.381 A  
HETATM    6  C   UNL     1     -10.408   9.978  66.833  1.00  0.00    -0.297 A  
HETATM    7  C   UNL     1      -9.520  10.584  65.949  1.00  0.00    -0.236 A  
HETATM    8  C   UNL     1      -9.273  11.954  66.038  1.00  0.00    -0.176 A  
HETATM    9  C   UNL     1      -9.921  12.727  67.013  1.00  0.00    -0.231 A  
ENDROOT
BRANCH   9  10
HETATM   10  O   UNL     1      -9.611  14.095  67.181  1.00  0.00    -0.229 OA 
BRANCH  10  11
HETATM   11  C   UNL     1      -9.967  14.961  66.159  1.00  0.00    -0.303 C  
HETATM   12  O   UNL     1     -10.334  14.596  65.052  1.00  0.00    -0.403 OA 
BRANCH  11  13
HETATM   13  C   UNL     1      -9.679  16.376  66.524  1.00  0.00    -0.287 A  
HETATM   14  C   UNL     1      -8.911  16.594  67.681  1.00  0.00    -0.206 A  
HETATM   15  C   UNL     1      -8.743  17.887  68.180  1.00  0.00    -0.268 A  
HETATM   16  C   UNL     1      -9.324  18.969  67.522  1.00  0.00    -0.341 A  
HETATM   17  C   UNL     1     -10.049  18.767  66.347  1.00  0.00    -0.443 A  
HETATM   18  C   UNL     1     -10.223  17.474  65.848  1.00  0.00    -0.242 A  
HETATM   19  O   UNL     1     -10.926  17.297  64.691  1.00  0.00    -1.013 OA 
HETATM   20  H   UNL     1     -11.296  18.043  64.232  1.00  0.00     0.000 HD 
ENDBRANCH  11  13
ENDBRANCH  10  11
ENDBRANCH   9  10
TORSDOF 3
ENDMDL
MODEL      111
REMARK 921   NORMALIZED FREE ENERGY PREDICTED BY IDOCK:   -5.37 KCAL/MOL
REMARK 922        TOTAL FREE ENERGY PREDICTED BY IDOCK:   -6.66 KCAL/MOL
REMARK 923 INTER-LIGAND FREE ENERGY PREDICTED BY IDOCK:   -6.48 KCAL/MOL
REMARK 924 INTRA-LIGAND FREE ENERGY PREDICTED BY IDOCK:   -0.18 KCAL/MOL
REMARK 927      BINDING AFFINITY PREDICTED BY RF-SCORE:    0.00 PKD
ROOT
HETATM    1  O   UNL     1     -11.779  10.609  70.265  1.00  0.00    -0.287 OA 
HETATM    2  C   UNL     1     -10.995   9.914  69.419  1.00  0.00    -0.230 C  
HETATM    3  C   UNL     1     -10.675  10.605  68.137  1.00  0.00    -0.267 A  
HETATM    4  O   UNL     1     -10.627   8.773  69.650  1.00  0.00    -0.219 OA 
HETATM    5  C   UNL     1     -10.412   9.781  67.032  1.00  0.00    -0.295 A  
HETATM    6  C   UNL     1     -10.041  10.331  65.805  1.00  0.00    -0.325 A  
HETATM    7  C   UNL     1      -9.917  11.711  65.671  1.00  0.00    -0.274 A  
HETATM    8  C   UNL     1     -10.178  12.544  66.758  1.00  0.00    -0.243 A  
HETATM    9  C   UNL     1     -10.569  11.997  67.989  1.00  0.00    -0.208 A  
ENDROOT
BRANCH   9  10
HETATM   10  O   UNL     1     -10.742  12.817  69.127  1.00  0.00    -0.150 OA 
BRANCH  10  11
HETATM   11  C   UNL     1     -11.758  13.758  69.088  1.00  0.00    -0.334 C  
HETATM   12  O   UNL     1     -12.256  14.182  68.055  1.00  0.00    -0.310 OA 
BRANCH  11  13
HETATM   13  C   UNL     1     -12.038  14.309  70.443  1.00  0.00    -0.409 A  
HETATM   14  C   UNL     1     -12.898  13.566  71.270  1.00  0.00    -0.420 A  
HETATM   15  C   UNL     1     -13.342  14.096  72.482  1.00  0.00    -0.616 A  
HETATM   16  C   UNL     1     -12.920  15.362  72.884  1.00  0.00    -0.577 A  
HETATM   17  C   UNL     1     -12.031  16.089  72.091  1.00  0.00    -0.629 A  
HETATM   18  C   UNL     1     -11.589  15.561  70.876  1.00  0.00    -0.375 A  
HETATM   19  O   UNL     1     -10.710  16.282  70.119  1.00  0.00    -0.308 OA 
HETATM   20  H   UNL     1     -10.405  17.133  70.414  1.00  0.00     0.000 HD 
ENDBRANCH  11  13
ENDBRANCH  10  11
ENDBRANCH   9  10
TORSDOF 3
ENDMDL
MODEL      112
REMARK 921   NORMALIZED FREE ENERGY PREDICTED BY IDOCK:   -5.36 KCAL/MOL
REMARK 922        TOTAL FREE ENERGY PREDICTED BY IDOCK:   -6.65 KCAL/MOL
REMARK 923 INTER-LIGAND FREE ENERGY PREDICTED BY IDOCK:   -5.95 KCAL/MOL
REMARK 924 INTRA-LIGAND FREE ENERGY PREDICTED BY IDOCK:   -0.70 KCAL/MOL
REMARK 927      BINDING AFFINITY PREDICTED BY RF-SCORE:    0.00 PKD
ROOT
HETATM    1  O   UNL     1     -10.838  18.849  67.348  1.00  0.00    -0.458 OA 
HETATM    2  C   UNL     1      -9.525  19.147  67.405  1.00  0.00    -0.305 C  
HETATM    3  C   UNL     1      -8.637  18.025  67.821  1.00  0.00    -0.244 A  
HETATM    4  O   UNL     1      -9.096  20.271  67.198  1.00  0.00    -0.355 OA 
HETATM    5  C   UNL     1      -7.439  18.380  68.459  1.00  0.00    -0.309 A  
HETATM    6  C   UNL     1      -6.512  17.406  68.830  1.00  0.00    -0.201 A  
HETATM    7  C   UNL     1      -6.766  16.065  68.556  1.00  0.00    -0.124 A  
HETATM    8  C   UNL     1      -7.954  15.695  67.925  1.00  0.00    -0.151 A  
HETATM    9  C   UNL     1      -8.897  16.669  67.567  1.00  0.00    -0.196 A  
ENDROOT
BRANCH   9  10
HETATM   10  O   UNL     1     -10.059  16.324  66.841  1.00  0.00    -0.263 OA 
BRANCH  10  11
HETATM   11  C   UNL     1     -10.896  15.367  67.392  1.00  0.00    -0.309 C  
HETATM   12  O   UNL     1     -11.399  15.458  68.502  1.00  0.00    -0.299 OA 
BRANCH  11  13
HETATM   13  C   UNL     1     -10.963  14.149  66.537  1.00  0.00    -0.309 A  
HETATM   14  C   UNL     1     -11.184  12.923  67.187  1.00  0.00    -0.329 A  
HETATM   15  C   UNL     1     -11.090  11.723  66.480  1.00  0.00    -0.364 A  
HETATM   16  C   UNL     1     -10.791  11.740  65.118  1.00  0.00    -0.351 A  
HETATM   17  C   UNL     1     -10.615  12.954  64.455  1.00  0.00    -0.418 A  
HETATM   18  C   UNL     1     -10.704  14.155  65.162  1.00  0.00    -0.388 A  
HETATM   19  O   UNL     1     -10.540  15.334  64.493  1.00  0.00    -0.572 OA 
HETATM   20  H   UNL     1     -10.364  15.338  63.559  1.00  0.00     0.000 HD 
ENDBRANCH  11  13
ENDBRANCH  10  11
ENDBRANCH   9  10
TORSDOF 3
ENDMDL
MODEL      113
REMARK 921   NORMALIZED FREE ENERGY PREDICTED BY IDOCK:   -5.36 KCAL/MOL
REMARK 922        TOTAL FREE ENERGY PREDICTED BY IDOCK:   -6.64 KCAL/MOL
REMARK 923 INTER-LIGAND FREE ENERGY PREDICTED BY IDOCK:   -6.36 KCAL/MOL
REMARK 924 INTRA-LIGAND FREE ENERGY PREDICTED BY IDOCK:   -0.29 KCAL/MOL
REMARK 927      BINDING AFFINITY PREDICTED BY RF-SCORE:    0.00 PKD
ROOT
HETATM    1  O   UNL     1      -7.044  15.770  66.650  1.00  0.00    -0.177 OA 
HETATM    2  C   UNL     1      -7.420  15.245  67.832  1.00  0.00    -0.144 C  
HETATM    3  C   UNL     1      -8.844  15.478  68.207  1.00  0.00    -0.179 A  
HETATM    4  O   UNL     1      -6.637  14.678  68.577  1.00  0.00    -0.086 OA 
HETATM    5  C   UNL     1      -9.131  15.510  69.580  1.00  0.00    -0.260 A  
HETATM    6  C   UNL     1     -10.442  15.659  70.031  1.00  0.00    -0.333 A  
HETATM    7  C   UNL     1     -11.484  15.765  69.115  1.00  0.00    -0.383 A  
HETATM    8  C   UNL     1     -11.216  15.738  67.746  1.00  0.00    -0.286 A  
HETATM    9  C   UNL     1      -9.897  15.607  67.287  1.00  0.00    -0.225 A  
ENDROOT
BRANCH   9  10
HETATM   10  O   UNL     1      -9.615  15.479  65.909  1.00  0.00    -0.316 OA 
BRANCH  10  11
HETATM   11  C   UNL     1     -10.663  15.127  65.073  1.00  0.00    -0.430 C  
HETATM   12  O   UNL     1     -11.458  15.926  64.601  1.00  0.00    -0.384 OA 
BRANCH  11  13
HETATM   13  C   UNL     1     -10.797  13.647  64.969  1.00  0.00    -0.358 A  
HETATM   14  C   UNL     1     -10.044  12.872  65.866  1.00  0.00    -0.295 A  
HETATM   15  C   UNL     1      -9.985  11.484  65.721  1.00  0.00    -0.271 A  
HETATM   16  C   UNL     1     -10.689  10.862  64.692  1.00  0.00    -0.254 A  
HETATM   17  C   UNL     1     -11.476  11.619  63.824  1.00  0.00    -0.457 A  
HETATM   18  C   UNL     1     -11.532  13.007  63.965  1.00  0.00    -0.421 A  
HETATM   19  O   UNL     1     -12.317  13.730  63.112  1.00  0.00    -1.099 OA 
HETATM   20  H   UNL     1     -12.816  13.296  62.430  1.00  0.00     0.000 HD 
ENDBRANCH  11  13
ENDBRANCH  10  11
ENDBRANCH   9  10
TORSDOF 3
ENDMDL
MODEL      114
REMARK 921   NORMALIZED FREE ENERGY PREDICTED BY IDOCK:   -5.35 KCAL/MOL
REMARK 922        TOTAL FREE ENERGY PREDICTED BY IDOCK:   -6.64 KCAL/MOL
REMARK 923 INTER-LIGAND FREE ENERGY PREDICTED BY IDOCK:   -5.83 KCAL/MOL
REMARK 924 INTRA-LIGAND FREE ENERGY PREDICTED BY IDOCK:   -0.81 KCAL/MOL
REMARK 927      BINDING AFFINITY PREDICTED BY RF-SCORE:    0.00 PKD
ROOT
HETATM    1  O   UNL     1     -10.278   7.703  69.824  1.00  0.00    -0.200 OA 
HETATM    2  C   UNL     1     -11.397   8.029  70.499  1.00  0.00    -0.225 C  
HETATM    3  C   UNL     1     -11.695   9.488  70.569  1.00  0.00    -0.285 A  
HETATM    4  O   UNL     1     -12.085   7.198  71.071  1.00  0.00    -0.333 OA 
HETATM    5  C   UNL     1     -12.429   9.922  71.683  1.00  0.00    -0.507 A  
HETATM    6  C   UNL     1     -12.812  11.258  71.808  1.00  0.00    -0.466 A  
HETATM    7  C   UNL     1     -12.476  12.172  70.815  1.00  0.00    -0.362 A  
HETATM    8  C   UNL     1     -11.745  11.757  69.702  1.00  0.00    -0.413 A  
HETATM    9  C   UNL     1     -11.341  10.420  69.581  1.00  0.00    -0.272 A  
ENDROOT
BRANCH   9  10
HETATM   10  O   UNL     1     -10.686   9.960  68.416  1.00  0.00    -0.218 OA 
BRANCH  10  11
HETATM   11  C   UNL     1      -9.553  10.646  68.008  1.00  0.00    -0.157 C  
HETATM   12  O   UNL     1      -8.590  10.862  68.729  1.00  0.00    -0.152 OA 
BRANCH  11  13
HETATM   13  C   UNL     1      -9.733  11.229  66.650  1.00  0.00    -0.222 A  
HETATM   14  C   UNL     1      -9.904  12.621  66.569  1.00  0.00    -0.258 A  
HETATM   15  C   UNL     1     -10.246  13.220  65.355  1.00  0.00    -0.304 A  
HETATM   16  C   UNL     1     -10.404  12.437  64.213  1.00  0.00    -0.388 A  
HETATM   17  C   UNL     1     -10.192  11.059  64.274  1.00  0.00    -0.414 A  
HETATM   18  C   UNL     1      -9.854  10.458  65.488  1.00  0.00    -0.269 A  
HETATM   19  O   UNL     1      -9.640   9.110  65.525  1.00  0.00    -0.388 OA 
HETATM   20  H   UNL     1      -9.722   8.587  64.736  1.00  0.00     0.000 HD 
ENDBRANCH  11  13
ENDBRANCH  10  11
ENDBRANCH   9  10
TORSDOF 3
ENDMDL
MODEL      115
REMARK 921   NORMALIZED FREE ENERGY PREDICTED BY IDOCK:   -5.35 KCAL/MOL
REMARK 922        TOTAL FREE ENERGY PREDICTED BY IDOCK:   -6.64 KCAL/MOL
REMARK 923 INTER-LIGAND FREE ENERGY PREDICTED BY IDOCK:   -6.11 KCAL/MOL
REMARK 924 INTRA-LIGAND FREE ENERGY PREDICTED BY IDOCK:   -0.53 KCAL/MOL
REMARK 927      BINDING AFFINITY PREDICTED BY RF-SCORE:    0.00 PKD
ROOT
HETATM    1  O   UNL     1      -8.999  11.917  67.962  1.00  0.00    -0.171 OA 
HETATM    2  C   UNL     1      -8.440  11.435  66.836  1.00  0.00    -0.157 C  
HETATM    3  C   UNL     1      -9.310  11.475  65.626  1.00  0.00    -0.221 A  
HETATM    4  O   UNL     1      -7.326  10.936  66.817  1.00  0.00    -0.119 OA 
HETATM    5  C   UNL     1      -9.060  10.505  64.644  1.00  0.00    -0.248 A  
HETATM    6  C   UNL     1      -9.779  10.500  63.448  1.00  0.00    -0.368 A  
HETATM    7  C   UNL     1     -10.747  11.472  63.215  1.00  0.00    -0.374 A  
HETATM    8  C   UNL     1     -11.010  12.442  64.183  1.00  0.00    -0.416 A  
HETATM    9  C   UNL     1     -10.304  12.440  65.394  1.00  0.00    -0.277 A  
ENDROOT
BRANCH   9  10
HETATM   10  O   UNL     1     -10.486  13.471  66.344  1.00  0.00    -0.279 OA 
BRANCH  10  11
HETATM   11  C   UNL     1     -11.787  13.807  66.679  1.00  0.00    -0.412 C  
HETATM   12  O   UNL     1     -12.618  14.206  65.876  1.00  0.00    -0.486 OA 
BRANCH  11  13
HETATM   13  C   UNL     1     -11.988  13.787  68.155  1.00  0.00    -0.394 A  
HETATM   14  C   UNL     1     -12.023  15.028  68.813  1.00  0.00    -0.282 A  
HETATM   15  C   UNL     1     -12.037  15.087  70.208  1.00  0.00    -0.378 A  
HETATM   16  C   UNL     1     -12.033  13.909  70.953  1.00  0.00    -0.310 A  
HETATM   17  C   UNL     1     -12.046  12.672  70.308  1.00  0.00    -0.372 A  
HETATM   18  C   UNL     1     -12.027  12.612  68.913  1.00  0.00    -0.242 A  
HETATM   19  O   UNL     1     -12.050  11.392  68.300  1.00  0.00    -0.606 OA 
HETATM   20  H   UNL     1     -12.076  10.593  68.815  1.00  0.00     0.000 HD 
ENDBRANCH  11  13
ENDBRANCH  10  11
ENDBRANCH   9  10
TORSDOF 3
ENDMDL
MODEL      116
REMARK 921   NORMALIZED FREE ENERGY PREDICTED BY IDOCK:   -5.33 KCAL/MOL
REMARK 922        TOTAL FREE ENERGY PREDICTED BY IDOCK:   -6.61 KCAL/MOL
REMARK 923 INTER-LIGAND FREE ENERGY PREDICTED BY IDOCK:   -5.99 KCAL/MOL
REMARK 924 INTRA-LIGAND FREE ENERGY PREDICTED BY IDOCK:   -0.62 KCAL/MOL
REMARK 927      BINDING AFFINITY PREDICTED BY RF-SCORE:    0.00 PKD
ROOT
HETATM    1  O   UNL     1     -12.179  11.242  67.994  1.00  0.00    -0.621 OA 
HETATM    2  C   UNL     1     -11.241  10.741  68.819  1.00  0.00    -0.272 C  
HETATM    3  C   UNL     1     -10.490   9.567  68.291  1.00  0.00    -0.265 A  
HETATM    4  O   UNL     1     -11.060  11.172  69.948  1.00  0.00    -0.243 OA 
HETATM    5  C   UNL     1      -9.979   8.672  69.243  1.00  0.00    -0.195 A  
HETATM    6  C   UNL     1      -9.208   7.577  68.851  1.00  0.00    -0.142 A  
HETATM    7  C   UNL     1      -8.930   7.371  67.503  1.00  0.00    -0.126 A  
HETATM    8  C   UNL     1      -9.433   8.249  66.544  1.00  0.00    -0.284 A  
HETATM    9  C   UNL     1     -10.223   9.341  66.931  1.00  0.00    -0.256 A  
ENDROOT
BRANCH   9  10
HETATM   10  O   UNL     1     -10.659  10.295  65.985  1.00  0.00    -0.157 OA 
BRANCH  10  11
HETATM   11  C   UNL     1      -9.772  11.300  65.635  1.00  0.00    -0.230 C  
HETATM   12  O   UNL     1      -8.564  11.237  65.816  1.00  0.00    -0.160 OA 
BRANCH  11  13
HETATM   13  C   UNL     1     -10.490  12.522  65.178  1.00  0.00    -0.320 A  
HETATM   14  C   UNL     1     -10.341  13.681  65.959  1.00  0.00    -0.305 A  
HETATM   15  C   UNL     1     -11.113  14.813  65.693  1.00  0.00    -0.342 A  
HETATM   16  C   UNL     1     -12.024  14.802  64.638  1.00  0.00    -0.448 A  
HETATM   17  C   UNL     1     -12.146  13.672  63.829  1.00  0.00    -0.435 A  
HETATM   18  C   UNL     1     -11.378  12.537  64.097  1.00  0.00    -0.380 A  
HETATM   19  O   UNL     1     -11.502  11.444  63.287  1.00  0.00    -0.812 OA 
HETATM   20  H   UNL     1     -12.105  11.454  62.552  1.00  0.00     0.000 HD 
ENDBRANCH  11  13
ENDBRANCH  10  11
ENDBRANCH   9  10
TORSDOF 3
ENDMDL
MODEL      117
REMARK 921   NORMALIZED FREE ENERGY PREDICTED BY IDOCK:   -5.31 KCAL/MOL
REMARK 922        TOTAL FREE ENERGY PREDICTED BY IDOCK:   -6.59 KCAL/MOL
REMARK 923 INTER-LIGAND FREE ENERGY PREDICTED BY IDOCK:   -6.50 KCAL/MOL
REMARK 924 INTRA-LIGAND FREE ENERGY PREDICTED BY IDOCK:   -0.09 KCAL/MOL
REMARK 927      BINDING AFFINITY PREDICTED BY RF-SCORE:    0.00 PKD
ROOT
HETATM    1  O   UNL     1      -9.149  15.316  68.295  1.00  0.00    -0.175 OA 
HETATM    2  C   UNL     1     -10.003  15.830  67.389  1.00  0.00    -0.237 C  
HETATM    3  C   UNL     1     -10.754  14.826  66.583  1.00  0.00    -0.309 A  
HETATM    4  O   UNL     1     -10.108  17.030  67.192  1.00  0.00    -0.277 OA 
HETATM    5  C   UNL     1     -11.159  15.231  65.302  1.00  0.00    -0.382 A  
HETATM    6  C   UNL     1     -11.922  14.386  64.495  1.00  0.00    -0.487 A  
HETATM    7  C   UNL     1     -12.298  13.131  64.964  1.00  0.00    -0.511 A  
HETATM    8  C   UNL     1     -11.901  12.712  66.234  1.00  0.00    -0.471 A  
HETATM    9  C   UNL     1     -11.119  13.550  67.042  1.00  0.00    -0.296 A  
ENDROOT
BRANCH   9  10
HETATM   10  O   UNL     1     -10.790  13.184  68.366  1.00  0.00    -0.244 OA 
BRANCH  10  11
HETATM   11  C   UNL     1     -10.697  11.832  68.650  1.00  0.00    -0.220 C  
HETATM   12  O   UNL     1     -10.160  11.015  67.916  1.00  0.00    -0.172 OA 
BRANCH  11  13
HETATM   13  C   UNL     1     -11.479  11.479  69.868  1.00  0.00    -0.340 A  
HETATM   14  C   UNL     1     -11.682  10.112  70.124  1.00  0.00    -0.330 A  
HETATM   15  C   UNL     1     -12.544   9.707  71.145  1.00  0.00    -0.411 A  
HETATM   16  C   UNL     1     -13.195  10.661  71.926  1.00  0.00    -0.528 A  
HETATM   17  C   UNL     1     -12.964  12.020  71.708  1.00  0.00    -0.445 A  
HETATM   18  C   UNL     1     -12.106  12.427  70.684  1.00  0.00    -0.225 A  
HETATM   19  O   UNL     1     -11.885  13.761  70.494  1.00  0.00    -0.439 OA 
HETATM   20  H   UNL     1     -12.311  14.405  71.049  1.00  0.00     0.000 HD 
ENDBRANCH  11  13
ENDBRANCH  10  11
ENDBRANCH   9  10
TORSDOF 3
ENDMDL
MODEL      118
REMARK 921   NORMALIZED FREE ENERGY PREDICTED BY IDOCK:   -5.30 KCAL/MOL
REMARK 922        TOTAL FREE ENERGY PREDICTED BY IDOCK:   -6.58 KCAL/MOL
REMARK 923 INTER-LIGAND FREE ENERGY PREDICTED BY IDOCK:   -6.13 KCAL/MOL
REMARK 924 INTRA-LIGAND FREE ENERGY PREDICTED BY IDOCK:   -0.45 KCAL/MOL
REMARK 927      BINDING AFFINITY PREDICTED BY RF-SCORE:    0.00 PKD
ROOT
HETATM    1  O   UNL     1     -11.134  19.189  67.615  1.00  0.00    -0.362 OA 
HETATM    2  C   UNL     1      -9.829  19.459  67.425  1.00  0.00    -0.345 C  
HETATM    3  C   UNL     1      -8.882  18.500  68.062  1.00  0.00    -0.317 A  
HETATM    4  O   UNL     1      -9.443  20.455  66.833  1.00  0.00    -0.386 OA 
HETATM    5  C   UNL     1      -7.623  19.007  68.416  1.00  0.00    -0.343 A  
HETATM    6  C   UNL     1      -6.645  18.173  68.959  1.00  0.00    -0.253 A  
HETATM    7  C   UNL     1      -6.911  16.820  69.144  1.00  0.00    -0.231 A  
HETATM    8  C   UNL     1      -8.159  16.300  68.800  1.00  0.00    -0.227 A  
HETATM    9  C   UNL     1      -9.152  17.138  68.271  1.00  0.00    -0.259 A  
ENDROOT
BRANCH   9  10
HETATM   10  O   UNL     1     -10.385  16.613  67.826  1.00  0.00    -0.286 OA 
BRANCH  10  11
HETATM   11  C   UNL     1     -10.589  15.250  67.969  1.00  0.00    -0.261 C  
HETATM   12  O   UNL     1     -10.274  14.420  67.128  1.00  0.00    -0.254 OA 
BRANCH  11  13
HETATM   13  C   UNL     1     -11.389  14.947  69.189  1.00  0.00    -0.309 A  
HETATM   14  C   UNL     1     -11.587  15.998  70.100  1.00  0.00    -0.324 A  
HETATM   15  C   UNL     1     -12.178  15.753  71.341  1.00  0.00    -0.500 A  
HETATM   16  C   UNL     1     -12.588  14.463  71.673  1.00  0.00    -0.429 A  
HETATM   17  C   UNL     1     -12.437  13.422  70.756  1.00  0.00    -0.418 A  
HETATM   18  C   UNL     1     -11.842  13.665  69.517  1.00  0.00    -0.337 A  
HETATM   19  O   UNL     1     -11.712  12.636  68.629  1.00  0.00    -0.289 OA 
HETATM   20  H   UNL     1     -12.020  11.764  68.851  1.00  0.00     0.000 HD 
ENDBRANCH  11  13
ENDBRANCH  10  11
ENDBRANCH   9  10
TORSDOF 3
ENDMDL
MODEL      119
REMARK 921   NORMALIZED FREE ENERGY PREDICTED BY IDOCK:   -5.29 KCAL/MOL
REMARK 922        TOTAL FREE ENERGY PREDICTED BY IDOCK:   -6.57 KCAL/MOL
REMARK 923 INTER-LIGAND FREE ENERGY PREDICTED BY IDOCK:   -6.24 KCAL/MOL
REMARK 924 INTRA-LIGAND FREE ENERGY PREDICTED BY IDOCK:   -0.33 KCAL/MOL
REMARK 927      BINDING AFFINITY PREDICTED BY RF-SCORE:    0.00 PKD
ROOT
HETATM    1  O   UNL     1      -9.634  15.836  68.431  1.00  0.00    -0.195 OA 
HETATM    2  C   UNL     1     -10.154  14.667  68.012  1.00  0.00    -0.227 C  
HETATM    3  C   UNL     1     -10.914  14.732  66.730  1.00  0.00    -0.327 A  
HETATM    4  O   UNL     1     -10.071  13.638  68.664  1.00  0.00    -0.230 OA 
HETATM    5  C   UNL     1     -11.930  13.781  66.557  1.00  0.00    -0.470 A  
HETATM    6  C   UNL     1     -12.654  13.720  65.366  1.00  0.00    -0.534 A  
HETATM    7  C   UNL     1     -12.363  14.602  64.330  1.00  0.00    -0.420 A  
HETATM    8  C   UNL     1     -11.357  15.556  64.487  1.00  0.00    -0.322 A  
HETATM    9  C   UNL     1     -10.639  15.633  65.689  1.00  0.00    -0.378 A  
ENDROOT
BRANCH   9  10
HETATM   10  O   UNL     1      -9.553  16.526  65.831  1.00  0.00    -0.415 OA 
BRANCH  10  11
HETATM   11  C   UNL     1      -9.833  17.806  66.282  1.00  0.00    -0.294 C  
HETATM   12  O   UNL     1     -10.962  18.265  66.376  1.00  0.00    -0.072 OA 
BRANCH  11  13
HETATM   13  C   UNL     1      -8.586  18.599  66.468  1.00  0.00    -0.307 A  
HETATM   14  C   UNL     1      -7.369  17.898  66.424  1.00  0.00    -0.300 A  
HETATM   15  C   UNL     1      -6.174  18.538  66.757  1.00  0.00    -0.192 A  
HETATM   16  C   UNL     1      -6.184  19.885  67.118  1.00  0.00    -0.201 A  
HETATM   17  C   UNL     1      -7.381  20.601  67.120  1.00  0.00    -0.389 A  
HETATM   18  C   UNL     1      -8.578  19.960  66.792  1.00  0.00    -0.337 A  
HETATM   19  O   UNL     1      -9.738  20.681  66.788  1.00  0.00    -0.630 OA 
HETATM   20  H   UNL     1      -9.732  21.606  67.008  1.00  0.00     0.000 HD 
ENDBRANCH  11  13
ENDBRANCH  10  11
ENDBRANCH   9  10
TORSDOF 3
ENDMDL
MODEL      120
REMARK 921   NORMALIZED FREE ENERGY PREDICTED BY IDOCK:   -5.29 KCAL/MOL
REMARK 922        TOTAL FREE ENERGY PREDICTED BY IDOCK:   -6.57 KCAL/MOL
REMARK 923 INTER-LIGAND FREE ENERGY PREDICTED BY IDOCK:   -5.83 KCAL/MOL
REMARK 924 INTRA-LIGAND FREE ENERGY PREDICTED BY IDOCK:   -0.75 KCAL/MOL
REMARK 927      BINDING AFFINITY PREDICTED BY RF-SCORE:    0.00 PKD
ROOT
HETATM    1  O   UNL     1      -9.358  13.813  68.493  1.00  0.00    -0.198 OA 
HETATM    2  C   UNL     1     -10.381  14.491  67.938  1.00  0.00    -0.231 C  
HETATM    3  C   UNL     1     -10.854  13.965  66.625  1.00  0.00    -0.289 A  
HETATM    4  O   UNL     1     -10.846  15.504  68.436  1.00  0.00    -0.252 OA 
HETATM    5  C   UNL     1     -11.439  14.896  65.754  1.00  0.00    -0.281 A  
HETATM    6  C   UNL     1     -11.969  14.490  64.529  1.00  0.00    -0.482 A  
HETATM    7  C   UNL     1     -11.931  13.148  64.165  1.00  0.00    -0.499 A  
HETATM    8  C   UNL     1     -11.349  12.210  65.019  1.00  0.00    -0.379 A  
HETATM    9  C   UNL     1     -10.798  12.615  66.243  1.00  0.00    -0.273 A  
ENDROOT
BRANCH   9  10
HETATM   10  O   UNL     1     -10.294  11.668  67.162  1.00  0.00    -0.209 OA 
BRANCH  10  11
HETATM   11  C   UNL     1     -11.210  10.998  67.956  1.00  0.00    -0.309 C  
HETATM   12  O   UNL     1     -12.169  11.533  68.493  1.00  0.00    -0.524 OA 
BRANCH  11  13
HETATM   13  C   UNL     1     -10.783   9.593  68.208  1.00  0.00    -0.262 A  
HETATM   14  C   UNL     1     -10.525   8.791  67.083  1.00  0.00    -0.354 A  
HETATM   15  C   UNL     1     -10.286   7.424  67.233  1.00  0.00    -0.356 A  
HETATM   16  C   UNL     1     -10.286   6.852  68.504  1.00  0.00    -0.204 A  
HETATM   17  C   UNL     1     -10.495   7.649  69.630  1.00  0.00    -0.235 A  
HETATM   18  C   UNL     1     -10.739   9.016  69.482  1.00  0.00    -0.206 A  
HETATM   19  O   UNL     1     -10.931   9.781  70.597  1.00  0.00    -0.282 OA 
HETATM   20  H   UNL     1     -10.901   9.389  71.462  1.00  0.00     0.000 HD 
ENDBRANCH  11  13
ENDBRANCH  10  11
ENDBRANCH   9  10
TORSDOF 3
ENDMDL
MODEL      121
REMARK 921   NORMALIZED FREE ENERGY PREDICTED BY IDOCK:   -5.29 KCAL/MOL
REMARK 922        TOTAL FREE ENERGY PREDICTED BY IDOCK:   -6.57 KCAL/MOL
REMARK 923 INTER-LIGAND FREE ENERGY PREDICTED BY IDOCK:   -5.79 KCAL/MOL
REMARK 924 INTRA-LIGAND FREE ENERGY PREDICTED BY IDOCK:   -0.78 KCAL/MOL
REMARK 927      BINDING AFFINITY PREDICTED BY RF-SCORE:    0.00 PKD
ROOT
HETATM    1  O   UNL     1     -10.639  18.576  66.568  1.00  0.00    -0.392 OA 
HETATM    2  C   UNL     1      -9.333  18.904  66.553  1.00  0.00    -0.335 C  
HETATM    3  C   UNL     1      -8.486  18.191  67.551  1.00  0.00    -0.248 A  
HETATM    4  O   UNL     1      -8.881  19.773  65.823  1.00  0.00    -0.375 OA 
HETATM    5  C   UNL     1      -7.339  18.865  67.994  1.00  0.00    -0.274 A  
HETATM    6  C   UNL     1      -6.450  18.255  68.879  1.00  0.00    -0.233 A  
HETATM    7  C   UNL     1      -6.691  16.959  69.323  1.00  0.00    -0.238 A  
HETATM    8  C   UNL     1      -7.829  16.275  68.895  1.00  0.00    -0.224 A  
HETATM    9  C   UNL     1      -8.736  16.891  68.019  1.00  0.00    -0.215 A  
ENDROOT
BRANCH   9  10
HETATM   10  O   UNL     1      -9.840  16.180  67.498  1.00  0.00    -0.232 OA 
BRANCH  10  11
HETATM   11  C   UNL     1     -10.833  15.802  68.387  1.00  0.00    -0.297 C  
HETATM   12  O   UNL     1     -11.323  16.549  69.222  1.00  0.00    -0.258 OA 
BRANCH  11  13
HETATM   13  C   UNL     1     -11.099  14.338  68.311  1.00  0.00    -0.276 A  
HETATM   14  C   UNL     1     -11.093  13.753  67.034  1.00  0.00    -0.313 A  
HETATM   15  C   UNL     1     -11.499  12.428  66.864  1.00  0.00    -0.423 A  
HETATM   16  C   UNL     1     -11.897  11.675  67.967  1.00  0.00    -0.295 A  
HETATM   17  C   UNL     1     -11.863  12.234  69.245  1.00  0.00    -0.363 A  
HETATM   18  C   UNL     1     -11.462  13.561  69.416  1.00  0.00    -0.282 A  
HETATM   19  O   UNL     1     -11.425  14.086  70.676  1.00  0.00    -0.513 OA 
HETATM   20  H   UNL     1     -11.671  13.558  71.427  1.00  0.00     0.000 HD 
ENDBRANCH  11  13
ENDBRANCH  10  11
ENDBRANCH   9  10
TORSDOF 3
ENDMDL
MODEL      122
REMARK 921   NORMALIZED FREE ENERGY PREDICTED BY IDOCK:   -5.29 KCAL/MOL
REMARK 922        TOTAL FREE ENERGY PREDICTED BY IDOCK:   -6.57 KCAL/MOL
REMARK 923 INTER-LIGAND FREE ENERGY PREDICTED BY IDOCK:   -6.02 KCAL/MOL
REMARK 924 INTRA-LIGAND FREE ENERGY PREDICTED BY IDOCK:   -0.55 KCAL/MOL
REMARK 927      BINDING AFFINITY PREDICTED BY RF-SCORE:    0.00 PKD
ROOT
HETATM    1  O   UNL     1     -12.142  10.587  71.429  1.00  0.00    -0.344 OA 
HETATM    2  C   UNL     1     -11.359   9.497  71.314  1.00  0.00    -0.376 C  
HETATM    3  C   UNL     1     -10.903   9.184  69.930  1.00  0.00    -0.242 A  
HETATM    4  O   UNL     1     -11.096   8.774  72.263  1.00  0.00    -0.359 OA 
HETATM    5  C   UNL     1     -10.631   7.836  69.651  1.00  0.00    -0.242 A  
HETATM    6  C   UNL     1     -10.139   7.451  68.404  1.00  0.00    -0.196 A  
HETATM    7  C   UNL     1      -9.902   8.411  67.425  1.00  0.00    -0.249 A  
HETATM    8  C   UNL     1     -10.169   9.755  67.684  1.00  0.00    -0.261 A  
HETATM    9  C   UNL     1     -10.682  10.145  68.930  1.00  0.00    -0.223 A  
ENDROOT
BRANCH   9  10
HETATM   10  O   UNL     1     -10.866  11.510  69.246  1.00  0.00    -0.220 OA 
BRANCH  10  11
HETATM   11  C   UNL     1     -11.602  12.277  68.358  1.00  0.00    -0.326 C  
HETATM   12  O   UNL     1     -12.145  11.831  67.357  1.00  0.00    -0.595 OA 
BRANCH  11  13
HETATM   13  C   UNL     1     -11.500  13.727  68.681  1.00  0.00    -0.336 A  
HETATM   14  C   UNL     1     -11.086  14.585  67.648  1.00  0.00    -0.314 A  
HETATM   15  C   UNL     1     -10.804  15.926  67.916  1.00  0.00    -0.327 A  
HETATM   16  C   UNL     1     -10.948  16.422  69.211  1.00  0.00    -0.322 A  
HETATM   17  C   UNL     1     -11.402  15.588  70.234  1.00  0.00    -0.348 A  
HETATM   18  C   UNL     1     -11.680  14.246  69.968  1.00  0.00    -0.298 A  
HETATM   19  O   UNL     1     -12.134  13.449  70.980  1.00  0.00    -0.445 OA 
HETATM   20  H   UNL     1     -12.257  13.801  71.854  1.00  0.00     0.000 HD 
ENDBRANCH  11  13
ENDBRANCH  10  11
ENDBRANCH   9  10
TORSDOF 3
ENDMDL
MODEL      123
REMARK 921   NORMALIZED FREE ENERGY PREDICTED BY IDOCK:   -5.28 KCAL/MOL
REMARK 922        TOTAL FREE ENERGY PREDICTED BY IDOCK:   -6.56 KCAL/MOL
REMARK 923 INTER-LIGAND FREE ENERGY PREDICTED BY IDOCK:   -6.27 KCAL/MOL
REMARK 924 INTRA-LIGAND FREE ENERGY PREDICTED BY IDOCK:   -0.29 KCAL/MOL
REMARK 927      BINDING AFFINITY PREDICTED BY RF-SCORE:    0.00 PKD
ROOT
HETATM    1  O   UNL     1      -9.960   9.191  68.261  1.00  0.00    -0.163 OA 
HETATM    2  C   UNL     1     -10.141  10.386  68.856  1.00  0.00    -0.201 C  
HETATM    3  C   UNL     1     -11.205  10.422  69.900  1.00  0.00    -0.371 A  
HETATM    4  O   UNL     1      -9.528  11.387  68.521  1.00  0.00    -0.182 OA 
HETATM    5  C   UNL     1     -11.836  11.657  70.108  1.00  0.00    -0.428 A  
HETATM    6  C   UNL     1     -12.799  11.807  71.105  1.00  0.00    -0.365 A  
HETATM    7  C   UNL     1     -13.134  10.727  71.915  1.00  0.00    -0.557 A  
HETATM    8  C   UNL     1     -12.518   9.490  71.721  1.00  0.00    -0.484 A  
HETATM    9  C   UNL     1     -11.563   9.329  70.707  1.00  0.00    -0.285 A  
ENDROOT
BRANCH   9  10
HETATM   10  O   UNL     1     -10.858   8.114  70.558  1.00  0.00    -0.233 OA 
BRANCH  10  11
HETATM   11  C   UNL     1     -11.604   6.950  70.470  1.00  0.00    -0.346 C  
HETATM   12  O   UNL     1     -12.655   6.766  71.067  1.00  0.00    -0.347 OA 
BRANCH  11  13
HETATM   13  C   UNL     1     -10.879   5.899  69.702  1.00  0.00    -0.444 A  
HETATM   14  C   UNL     1     -10.145   4.957  70.443  1.00  0.00    -0.316 A  
HETATM   15  C   UNL     1      -9.306   4.050  69.794  1.00  0.00    -0.242 A  
HETATM   16  C   UNL     1      -9.207   4.065  68.404  1.00  0.00    -0.204 A  
HETATM   17  C   UNL     1      -9.967   4.966  67.657  1.00  0.00    -0.192 A  
HETATM   18  C   UNL     1     -10.803   5.878  68.305  1.00  0.00    -0.240 A  
HETATM   19  O   UNL     1     -11.547   6.744  67.557  1.00  0.00    -0.668 OA 
HETATM   20  H   UNL     1     -11.495   6.730  66.608  1.00  0.00     0.000 HD 
ENDBRANCH  11  13
ENDBRANCH  10  11
ENDBRANCH   9  10
TORSDOF 3
ENDMDL
MODEL      124
REMARK 921   NORMALIZED FREE ENERGY PREDICTED BY IDOCK:   -5.26 KCAL/MOL
REMARK 922        TOTAL FREE ENERGY PREDICTED BY IDOCK:   -6.53 KCAL/MOL
REMARK 923 INTER-LIGAND FREE ENERGY PREDICTED BY IDOCK:   -5.70 KCAL/MOL
REMARK 924 INTRA-LIGAND FREE ENERGY PREDICTED BY IDOCK:   -0.83 KCAL/MOL
REMARK 927      BINDING AFFINITY PREDICTED BY RF-SCORE:    0.00 PKD
ROOT
HETATM    1  O   UNL     1     -10.030   8.113  69.083  1.00  0.00    -0.182 OA 
HETATM    2  C   UNL     1     -10.065   9.351  69.612  1.00  0.00    -0.206 C  
HETATM    3  C   UNL     1     -11.300   9.680  70.379  1.00  0.00    -0.337 A  
HETATM    4  O   UNL     1      -9.182  10.172  69.423  1.00  0.00    -0.197 OA 
HETATM    5  C   UNL     1     -11.665  11.034  70.426  1.00  0.00    -0.437 A  
HETATM    6  C   UNL     1     -12.769  11.450  71.171  1.00  0.00    -0.479 A  
HETATM    7  C   UNL     1     -13.514  10.518  71.887  1.00  0.00    -0.358 A  
HETATM    8  C   UNL     1     -13.167   9.167  71.848  1.00  0.00    -0.479 A  
HETATM    9  C   UNL     1     -12.070   8.742  71.086  1.00  0.00    -0.267 A  
ENDROOT
BRANCH   9  10
HETATM   10  O   UNL     1     -11.644   7.395  71.113  1.00  0.00    -0.271 OA 
BRANCH  10  11
HETATM   11  C   UNL     1     -11.092   6.923  72.293  1.00  0.00    -0.249 C  
HETATM   12  O   UNL     1     -10.748   7.640  73.220  1.00  0.00    -0.386 OA 
BRANCH  11  13
HETATM   13  C   UNL     1     -10.815   5.461  72.214  1.00  0.00    -0.286 A  
HETATM   14  C   UNL     1     -11.143   4.686  73.339  1.00  0.00    -0.418 A  
HETATM   15  C   UNL     1     -10.759   3.346  73.407  1.00  0.00    -0.303 A  
HETATM   16  C   UNL     1     -10.061   2.767  72.349  1.00  0.00    -0.234 A  
HETATM   17  C   UNL     1      -9.771   3.516  71.208  1.00  0.00    -0.237 A  
HETATM   18  C   UNL     1     -10.150   4.859  71.140  1.00  0.00    -0.207 A  
HETATM   19  O   UNL     1      -9.866   5.572  70.011  1.00  0.00    -0.171 OA 
HETATM   20  H   UNL     1      -9.415   5.163  69.282  1.00  0.00     0.000 HD 
ENDBRANCH  11  13
ENDBRANCH  10  11
ENDBRANCH   9  10
TORSDOF 3
ENDMDL
MODEL      125
REMARK 921   NORMALIZED FREE ENERGY PREDICTED BY IDOCK:   -5.22 KCAL/MOL
REMARK 922        TOTAL FREE ENERGY PREDICTED BY IDOCK:   -6.49 KCAL/MOL
REMARK 923 INTER-LIGAND FREE ENERGY PREDICTED BY IDOCK:   -5.64 KCAL/MOL
REMARK 924 INTRA-LIGAND FREE ENERGY PREDICTED BY IDOCK:   -0.85 KCAL/MOL
REMARK 927      BINDING AFFINITY PREDICTED BY RF-SCORE:    0.00 PKD
ROOT
HETATM    1  O   UNL     1     -12.217  13.440  70.727  1.00  0.00    -0.358 OA 
HETATM    2  C   UNL     1     -11.688  12.562  69.854  1.00  0.00    -0.255 C  
HETATM    3  C   UNL     1     -11.680  13.006  68.431  1.00  0.00    -0.386 A  
HETATM    4  O   UNL     1     -11.303  11.453  70.189  1.00  0.00    -0.248 OA 
HETATM    5  C   UNL     1     -11.722  11.994  67.460  1.00  0.00    -0.351 A  
HETATM    6  C   UNL     1     -11.655  12.306  66.102  1.00  0.00    -0.450 A  
HETATM    7  C   UNL     1     -11.534  13.632  65.699  1.00  0.00    -0.320 A  
HETATM    8  C   UNL     1     -11.493  14.651  66.651  1.00  0.00    -0.363 A  
HETATM    9  C   UNL     1     -11.579  14.344  68.017  1.00  0.00    -0.327 A  
ENDROOT
BRANCH   9  10
HETATM   10  O   UNL     1     -11.442  15.351  68.998  1.00  0.00    -0.294 OA 
BRANCH  10  11
HETATM   11  C   UNL     1     -10.165  15.823  69.254  1.00  0.00    -0.248 C  
HETATM   12  O   UNL     1      -9.457  15.419  70.165  1.00  0.00    -0.089 OA 
BRANCH  11  13
HETATM   13  C   UNL     1      -9.838  16.995  68.395  1.00  0.00    -0.283 A  
HETATM   14  C   UNL     1     -10.797  18.020  68.320  1.00  0.00    -0.084 A  
HETATM   15  C   UNL     1     -10.640  19.066  67.409  1.00  0.00    -0.559 A  
HETATM   16  C   UNL     1      -9.521  19.105  66.579  1.00  0.00    -0.395 A  
HETATM   17  C   UNL     1      -8.541  18.116  66.678  1.00  0.00    -0.284 A  
HETATM   18  C   UNL     1      -8.698  17.067  67.586  1.00  0.00    -0.215 A  
HETATM   19  O   UNL     1      -7.724  16.114  67.676  1.00  0.00    -0.131 OA 
HETATM   20  H   UNL     1      -6.950  16.163  67.127  1.00  0.00     0.000 HD 
ENDBRANCH  11  13
ENDBRANCH  10  11
ENDBRANCH   9  10
TORSDOF 3
ENDMDL
MODEL      126
REMARK 921   NORMALIZED FREE ENERGY PREDICTED BY IDOCK:   -5.22 KCAL/MOL
REMARK 922        TOTAL FREE ENERGY PREDICTED BY IDOCK:   -6.49 KCAL/MOL
REMARK 923 INTER-LIGAND FREE ENERGY PREDICTED BY IDOCK:   -5.80 KCAL/MOL
REMARK 924 INTRA-LIGAND FREE ENERGY PREDICTED BY IDOCK:   -0.69 KCAL/MOL
REMARK 927      BINDING AFFINITY PREDICTED BY RF-SCORE:    0.00 PKD
ROOT
HETATM    1  O   UNL     1     -10.487   6.980  67.113  1.00  0.00    -0.243 OA 
HETATM    2  C   UNL     1     -10.464   5.643  67.271  1.00  0.00    -0.258 C  
HETATM    3  C   UNL     1     -10.188   5.171  68.658  1.00  0.00    -0.192 A  
HETATM    4  O   UNL     1     -10.592   4.868  66.336  1.00  0.00    -0.297 OA 
HETATM    5  C   UNL     1      -9.576   3.914  68.780  1.00  0.00    -0.187 A  
HETATM    6  C   UNL     1      -9.334   3.358  70.036  1.00  0.00    -0.242 A  
HETATM    7  C   UNL     1      -9.711   4.047  71.185  1.00  0.00    -0.257 A  
HETATM    8  C   UNL     1     -10.318   5.299  71.081  1.00  0.00    -0.291 A  
HETATM    9  C   UNL     1     -10.547   5.870  69.821  1.00  0.00    -0.303 A  
ENDROOT
BRANCH   9  10
HETATM   10  O   UNL     1     -11.247   7.090  69.692  1.00  0.00    -0.243 OA 
BRANCH  10  11
HETATM   11  C   UNL     1     -10.618   8.239  70.144  1.00  0.00    -0.233 C  
HETATM   12  O   UNL     1      -9.405   8.370  70.214  1.00  0.00    -0.160 OA 
BRANCH  11  13
HETATM   13  C   UNL     1     -11.601   9.215  70.691  1.00  0.00    -0.282 A  
HETATM   14  C   UNL     1     -11.536  10.531  70.201  1.00  0.00    -0.405 A  
HETATM   15  C   UNL     1     -12.306  11.539  70.785  1.00  0.00    -0.472 A  
HETATM   16  C   UNL     1     -13.156  11.238  71.847  1.00  0.00    -0.510 A  
HETATM   17  C   UNL     1     -13.262   9.926  72.310  1.00  0.00    -0.434 A  
HETATM   18  C   UNL     1     -12.489   8.917  71.731  1.00  0.00    -0.362 A  
HETATM   19  O   UNL     1     -12.614   7.638  72.190  1.00  0.00    -0.427 OA 
HETATM   20  H   UNL     1     -13.217   7.435  72.896  1.00  0.00     0.000 HD 
ENDBRANCH  11  13
ENDBRANCH  10  11
ENDBRANCH   9  10
TORSDOF 3
ENDMDL
MODEL      127
REMARK 921   NORMALIZED FREE ENERGY PREDICTED BY IDOCK:   -5.22 KCAL/MOL
REMARK 922        TOTAL FREE ENERGY PREDICTED BY IDOCK:   -6.48 KCAL/MOL
REMARK 923 INTER-LIGAND FREE ENERGY PREDICTED BY IDOCK:   -5.36 KCAL/MOL
REMARK 924 INTRA-LIGAND FREE ENERGY PREDICTED BY IDOCK:   -1.12 KCAL/MOL
REMARK 927      BINDING AFFINITY PREDICTED BY RF-SCORE:    0.00 PKD
ROOT
HETATM    1  O   UNL     1     -12.261  16.051  69.806  1.00  0.00    -0.244 OA 
HETATM    2  C   UNL     1     -11.692  14.931  70.292  1.00  0.00    -0.303 C  
HETATM    3  C   UNL     1     -11.800  13.730  69.416  1.00  0.00    -0.392 A  
HETATM    4  O   UNL     1     -11.182  14.881  71.401  1.00  0.00    -0.265 OA 
HETATM    5  C   UNL     1     -11.791  12.484  70.060  1.00  0.00    -0.363 A  
HETATM    6  C   UNL     1     -11.824  11.300  69.323  1.00  0.00    -0.423 A  
HETATM    7  C   UNL     1     -11.855  11.348  67.932  1.00  0.00    -0.239 A  
HETATM    8  C   UNL     1     -11.867  12.579  67.276  1.00  0.00    -0.381 A  
HETATM    9  C   UNL     1     -11.853  13.772  68.013  1.00  0.00    -0.373 A  
ENDROOT
BRANCH   9  10
HETATM   10  O   UNL     1     -11.766  15.025  67.367  1.00  0.00    -0.338 OA 
BRANCH  10  11
HETATM   11  C   UNL     1     -10.631  15.279  66.614  1.00  0.00    -0.304 C  
HETATM   12  O   UNL     1     -10.545  15.062  65.414  1.00  0.00    -0.322 OA 
BRANCH  11  13
HETATM   13  C   UNL     1      -9.487  15.680  67.479  1.00  0.00    -0.214 A  
HETATM   14  C   UNL     1      -8.500  14.710  67.725  1.00  0.00    -0.178 A  
HETATM   15  C   UNL     1      -7.490  14.954  68.657  1.00  0.00    -0.124 A  
HETATM   16  C   UNL     1      -7.448  16.170  69.337  1.00  0.00    -0.181 A  
HETATM   17  C   UNL     1      -8.397  17.156  69.066  1.00  0.00    -0.108 A  
HETATM   18  C   UNL     1      -9.411  16.913  68.137  1.00  0.00    -0.251 A  
HETATM   19  O   UNL     1     -10.324  17.894  67.877  1.00  0.00    -0.353 OA 
HETATM   20  H   UNL     1     -10.273  18.732  68.324  1.00  0.00     0.000 HD 
ENDBRANCH  11  13
ENDBRANCH  10  11
ENDBRANCH   9  10
TORSDOF 3
ENDMDL
MODEL      128
REMARK 921   NORMALIZED FREE ENERGY PREDICTED BY IDOCK:   -5.20 KCAL/MOL
REMARK 922        TOTAL FREE ENERGY PREDICTED BY IDOCK:   -6.46 KCAL/MOL
REMARK 923 INTER-LIGAND FREE ENERGY PREDICTED BY IDOCK:   -5.84 KCAL/MOL
REMARK 924 INTRA-LIGAND FREE ENERGY PREDICTED BY IDOCK:   -0.62 KCAL/MOL
REMARK 927      BINDING AFFINITY PREDICTED BY RF-SCORE:    0.00 PKD
ROOT
HETATM    1  O   UNL     1     -11.205  15.474  68.854  1.00  0.00    -0.265 OA 
HETATM    2  C   UNL     1     -11.496  15.388  70.167  1.00  0.00    -0.317 C  
HETATM    3  C   UNL     1     -12.032  14.071  70.614  1.00  0.00    -0.376 A  
HETATM    4  O   UNL     1     -11.394  16.338  70.927  1.00  0.00    -0.389 OA 
HETATM    5  C   UNL     1     -12.876  14.087  71.734  1.00  0.00    -0.424 A  
HETATM    6  C   UNL     1     -13.377  12.900  72.267  1.00  0.00    -0.597 A  
HETATM    7  C   UNL     1     -13.030  11.680  71.694  1.00  0.00    -0.483 A  
HETATM    8  C   UNL     1     -12.194  11.646  70.578  1.00  0.00    -0.451 A  
HETATM    9  C   UNL     1     -11.703  12.838  70.026  1.00  0.00    -0.209 A  
ENDROOT
BRANCH   9  10
HETATM   10  O   UNL     1     -10.778  12.819  68.959  1.00  0.00    -0.197 OA 
BRANCH  10  11
HETATM   11  C   UNL     1     -11.143  12.135  67.810  1.00  0.00    -0.250 C  
HETATM   12  O   UNL     1     -12.270  12.146  67.338  1.00  0.00    -0.486 OA 
BRANCH  11  13
HETATM   13  C   UNL     1     -10.040  11.256  67.331  1.00  0.00    -0.214 A  
HETATM   14  C   UNL     1      -9.044  11.853  66.541  1.00  0.00    -0.211 A  
HETATM   15  C   UNL     1      -8.074  11.066  65.915  1.00  0.00    -0.075 A  
HETATM   16  C   UNL     1      -8.084   9.683  66.087  1.00  0.00    -0.108 A  
HETATM   17  C   UNL     1      -9.042   9.086  66.907  1.00  0.00    -0.161 A  
HETATM   18  C   UNL     1     -10.015   9.871  67.529  1.00  0.00    -0.185 A  
HETATM   19  O   UNL     1     -10.938   9.269  68.336  1.00  0.00    -0.440 OA 
HETATM   20  H   UNL     1     -10.921   8.329  68.471  1.00  0.00     0.000 HD 
ENDBRANCH  11  13
ENDBRANCH  10  11
ENDBRANCH   9  10
TORSDOF 3
ENDMDL
MODEL      129
REMARK 921   NORMALIZED FREE ENERGY PREDICTED BY IDOCK:   -5.20 KCAL/MOL
REMARK 922        TOTAL FREE ENERGY PREDICTED BY IDOCK:   -6.46 KCAL/MOL
REMARK 923 INTER-LIGAND FREE ENERGY PREDICTED BY IDOCK:   -5.67 KCAL/MOL
REMARK 924 INTRA-LIGAND FREE ENERGY PREDICTED BY IDOCK:   -0.79 KCAL/MOL
REMARK 927      BINDING AFFINITY PREDICTED BY RF-SCORE:    0.00 PKD
ROOT
HETATM    1  O   UNL     1      -8.288   8.924  71.665  1.00  0.00    -0.284 OA 
HETATM    2  C   UNL     1      -9.390   8.180  71.879  1.00  0.00    -0.190 C  
HETATM    3  C   UNL     1     -10.685   8.887  71.664  1.00  0.00    -0.418 A  
HETATM    4  O   UNL     1      -9.339   7.030  72.286  1.00  0.00    -0.138 OA 
HETATM    5  C   UNL     1     -11.782   8.421  72.405  1.00  0.00    -0.452 A  
HETATM    6  C   UNL     1     -13.049   8.976  72.227  1.00  0.00    -0.508 A  
HETATM    7  C   UNL     1     -13.238   9.994  71.298  1.00  0.00    -0.469 A  
HETATM    8  C   UNL     1     -12.158  10.471  70.556  1.00  0.00    -0.437 A  
HETATM    9  C   UNL     1     -10.878   9.930  70.744  1.00  0.00    -0.317 A  
ENDROOT
BRANCH   9  10
HETATM   10  O   UNL     1      -9.792  10.331  69.933  1.00  0.00    -0.211 OA 
BRANCH  10  11
HETATM   11  C   UNL     1      -9.923  10.167  68.564  1.00  0.00    -0.163 C  
HETATM   12  O   UNL     1     -10.058   9.083  68.016  1.00  0.00    -0.172 OA 
BRANCH  11  13
HETATM   13  C   UNL     1      -9.705  11.451  67.841  1.00  0.00    -0.186 A  
HETATM   14  C   UNL     1      -8.425  12.025  67.930  1.00  0.00    -0.160 A  
HETATM   15  C   UNL     1      -8.191  13.306  67.425  1.00  0.00    -0.185 A  
HETATM   16  C   UNL     1      -9.225  14.013  66.815  1.00  0.00    -0.280 A  
HETATM   17  C   UNL     1     -10.487  13.433  66.681  1.00  0.00    -0.280 A  
HETATM   18  C   UNL     1     -10.724  12.154  67.190  1.00  0.00    -0.232 A  
HETATM   19  O   UNL     1     -11.963  11.599  67.040  1.00  0.00    -0.593 OA 
HETATM   20  H   UNL     1     -12.655  12.076  66.598  1.00  0.00     0.000 HD 
ENDBRANCH  11  13
ENDBRANCH  10  11
ENDBRANCH   9  10
TORSDOF 3
ENDMDL
MODEL      130
REMARK 921   NORMALIZED FREE ENERGY PREDICTED BY IDOCK:   -5.18 KCAL/MOL
REMARK 922        TOTAL FREE ENERGY PREDICTED BY IDOCK:   -6.44 KCAL/MOL
REMARK 923 INTER-LIGAND FREE ENERGY PREDICTED BY IDOCK:   -5.67 KCAL/MOL
REMARK 924 INTRA-LIGAND FREE ENERGY PREDICTED BY IDOCK:   -0.77 KCAL/MOL
REMARK 927      BINDING AFFINITY PREDICTED BY RF-SCORE:    0.00 PKD
ROOT
HETATM    1  O   UNL     1     -11.641  16.370  68.356  1.00  0.00    -0.286 OA 
HETATM    2  C   UNL     1     -11.339  15.612  69.427  1.00  0.00    -0.330 C  
HETATM    3  C   UNL     1     -11.637  14.158  69.283  1.00  0.00    -0.350 A  
HETATM    4  O   UNL     1     -10.914  16.085  70.470  1.00  0.00    -0.335 OA 
HETATM    5  C   UNL     1     -11.917  13.457  70.465  1.00  0.00    -0.332 A  
HETATM    6  C   UNL     1     -12.146  12.081  70.441  1.00  0.00    -0.407 A  
HETATM    7  C   UNL     1     -12.087  11.388  69.235  1.00  0.00    -0.356 A  
HETATM    8  C   UNL     1     -11.813  12.071  68.050  1.00  0.00    -0.338 A  
HETATM    9  C   UNL     1     -11.601  13.457  68.066  1.00  0.00    -0.334 A  
ENDROOT
BRANCH   9  10
HETATM   10  O   UNL     1     -11.226  14.149  66.893  1.00  0.00    -0.300 OA 
BRANCH  10  11
HETATM   11  C   UNL     1     -10.015  13.810  66.311  1.00  0.00    -0.305 C  
HETATM   12  O   UNL     1      -9.809  12.754  65.730  1.00  0.00    -0.262 OA 
BRANCH  11  13
HETATM   13  C   UNL     1      -8.961  14.812  66.631  1.00  0.00    -0.286 A  
HETATM   14  C   UNL     1      -9.074  16.076  66.027  1.00  0.00    -0.361 A  
HETATM   15  C   UNL     1      -8.040  17.007  66.143  1.00  0.00    -0.292 A  
HETATM   16  C   UNL     1      -6.897  16.690  66.874  1.00  0.00    -0.253 A  
HETATM   17  C   UNL     1      -6.795  15.455  67.515  1.00  0.00    -0.223 A  
HETATM   18  C   UNL     1      -7.826  14.521  67.397  1.00  0.00    -0.199 A  
HETATM   19  O   UNL     1      -7.713  13.322  68.041  1.00  0.00    -0.119 OA 
HETATM   20  H   UNL     1      -6.942  13.124  68.560  1.00  0.00     0.000 HD 
ENDBRANCH  11  13
ENDBRANCH  10  11
ENDBRANCH   9  10
TORSDOF 3
ENDMDL
MODEL      131
REMARK 921   NORMALIZED FREE ENERGY PREDICTED BY IDOCK:   -5.17 KCAL/MOL
REMARK 922        TOTAL FREE ENERGY PREDICTED BY IDOCK:   -6.42 KCAL/MOL
REMARK 923 INTER-LIGAND FREE ENERGY PREDICTED BY IDOCK:   -5.52 KCAL/MOL
REMARK 924 INTRA-LIGAND FREE ENERGY PREDICTED BY IDOCK:   -0.90 KCAL/MOL
REMARK 927      BINDING AFFINITY PREDICTED BY RF-SCORE:    0.00 PKD
ROOT
HETATM    1  O   UNL     1     -12.181   6.742  70.587  1.00  0.00    -0.386 OA 
HETATM    2  C   UNL     1     -11.314   6.735  71.618  1.00  0.00    -0.266 C  
HETATM    3  C   UNL     1     -10.036   7.465  71.378  1.00  0.00    -0.195 A  
HETATM    4  O   UNL     1     -11.525   6.120  72.651  1.00  0.00    -0.276 OA 
HETATM    5  C   UNL     1      -8.917   7.018  72.096  1.00  0.00    -0.140 A  
HETATM    6  C   UNL     1      -7.691   7.674  71.989  1.00  0.00    -0.096 A  
HETATM    7  C   UNL     1      -7.572   8.793  71.170  1.00  0.00    -0.134 A  
HETATM    8  C   UNL     1      -8.674   9.250  70.446  1.00  0.00    -0.263 A  
HETATM    9  C   UNL     1      -9.904   8.581  70.537  1.00  0.00    -0.180 A  
ENDROOT
BRANCH   9  10
HETATM   10  O   UNL     1     -11.054   9.085  69.889  1.00  0.00    -0.223 OA 
BRANCH  10  11
HETATM   11  C   UNL     1     -11.621  10.240  70.402  1.00  0.00    -0.328 C  
HETATM   12  O   UNL     1     -12.095  10.328  71.525  1.00  0.00    -0.370 OA 
BRANCH  11  13
HETATM   13  C   UNL     1     -11.735  11.296  69.357  1.00  0.00    -0.409 A  
HETATM   14  C   UNL     1     -11.529  10.902  68.024  1.00  0.00    -0.356 A  
HETATM   15  C   UNL     1     -11.451  11.859  67.011  1.00  0.00    -0.384 A  
HETATM   16  C   UNL     1     -11.594  13.211  67.318  1.00  0.00    -0.404 A  
HETATM   17  C   UNL     1     -11.844  13.608  68.632  1.00  0.00    -0.409 A  
HETATM   18  C   UNL     1     -11.918  12.653  69.647  1.00  0.00    -0.286 A  
HETATM   19  O   UNL     1     -12.175  13.060  70.925  1.00  0.00    -0.418 OA 
HETATM   20  H   UNL     1     -12.299  13.982  71.122  1.00  0.00     0.000 HD 
ENDBRANCH  11  13
ENDBRANCH  10  11
ENDBRANCH   9  10
TORSDOF 3
ENDMDL
MODEL      132
REMARK 921   NORMALIZED FREE ENERGY PREDICTED BY IDOCK:   -5.09 KCAL/MOL
REMARK 922        TOTAL FREE ENERGY PREDICTED BY IDOCK:   -6.33 KCAL/MOL
REMARK 923 INTER-LIGAND FREE ENERGY PREDICTED BY IDOCK:   -5.33 KCAL/MOL
REMARK 924 INTRA-LIGAND FREE ENERGY PREDICTED BY IDOCK:   -1.00 KCAL/MOL
REMARK 927      BINDING AFFINITY PREDICTED BY RF-SCORE:    0.00 PKD
ROOT
HETATM    1  O   UNL     1      -9.843  11.169  68.971  1.00  0.00    -0.189 OA 
HETATM    2  C   UNL     1      -8.823  11.357  68.112  1.00  0.00    -0.162 C  
HETATM    3  C   UNL     1      -9.115  11.007  66.692  1.00  0.00    -0.177 A  
HETATM    4  O   UNL     1      -7.716  11.722  68.475  1.00  0.00    -0.126 OA 
HETATM    5  C   UNL     1      -8.022  10.608  65.909  1.00  0.00    -0.157 A  
HETATM    6  C   UNL     1      -8.182  10.321  64.554  1.00  0.00    -0.158 A  
HETATM    7  C   UNL     1      -9.436  10.440  63.962  1.00  0.00    -0.351 A  
HETATM    8  C   UNL     1     -10.535  10.832  64.727  1.00  0.00    -0.335 A  
HETATM    9  C   UNL     1     -10.382  11.104  66.095  1.00  0.00    -0.250 A  
ENDROOT
BRANCH   9  10
HETATM   10  O   UNL     1     -11.461  11.596  66.863  1.00  0.00    -0.426 OA 
BRANCH  10  11
HETATM   11  C   UNL     1     -12.091  12.746  66.416  1.00  0.00    -0.300 C  
HETATM   12  O   UNL     1     -12.824  12.787  65.439  1.00  0.00    -0.586 OA 
BRANCH  11  13
HETATM   13  C   UNL     1     -11.627  13.945  67.169  1.00  0.00    -0.391 A  
HETATM   14  C   UNL     1     -11.082  15.000  66.417  1.00  0.00    -0.329 A  
HETATM   15  C   UNL     1     -10.472  16.080  67.058  1.00  0.00    -0.307 A  
HETATM   16  C   UNL     1     -10.418  16.122  68.450  1.00  0.00    -0.274 A  
HETATM   17  C   UNL     1     -10.997  15.102  69.205  1.00  0.00    -0.260 A  
HETATM   18  C   UNL     1     -11.603  14.018  68.566  1.00  0.00    -0.322 A  
HETATM   19  O   UNL     1     -12.173  13.035  69.322  1.00  0.00    -0.231 OA 
HETATM   20  H   UNL     1     -12.157  13.085  70.271  1.00  0.00     0.000 HD 
ENDBRANCH  11  13
ENDBRANCH  10  11
ENDBRANCH   9  10
TORSDOF 3
ENDMDL
MODEL      133
REMARK 921   NORMALIZED FREE ENERGY PREDICTED BY IDOCK:   -5.08 KCAL/MOL
REMARK 922        TOTAL FREE ENERGY PREDICTED BY IDOCK:   -6.32 KCAL/MOL
REMARK 923 INTER-LIGAND FREE ENERGY PREDICTED BY IDOCK:   -5.53 KCAL/MOL
REMARK 924 INTRA-LIGAND FREE ENERGY PREDICTED BY IDOCK:   -0.79 KCAL/MOL
REMARK 927      BINDING AFFINITY PREDICTED BY RF-SCORE:    0.00 PKD
ROOT
HETATM    1  O   UNL     1      -7.907  13.782  67.085  1.00  0.00    -0.133 OA 
HETATM    2  C   UNL     1      -8.290  14.808  67.868  1.00  0.00    -0.149 C  
HETATM    3  C   UNL     1      -8.977  15.927  67.161  1.00  0.00    -0.226 A  
HETATM    4  O   UNL     1      -8.035  14.855  69.062  1.00  0.00    -0.154 OA 
HETATM    5  C   UNL     1      -8.858  17.199  67.740  1.00  0.00    -0.225 A  
HETATM    6  C   UNL     1      -9.516  18.298  67.188  1.00  0.00    -0.268 A  
HETATM    7  C   UNL     1     -10.311  18.135  66.057  1.00  0.00    -0.360 A  
HETATM    8  C   UNL     1     -10.438  16.878  65.467  1.00  0.00    -0.220 A  
HETATM    9  C   UNL     1      -9.762  15.773  66.007  1.00  0.00    -0.345 A  
ENDROOT
BRANCH   9  10
HETATM   10  O   UNL     1      -9.956  14.476  65.483  1.00  0.00    -0.342 OA 
BRANCH  10  11
HETATM   11  C   UNL     1     -11.231  13.939  65.560  1.00  0.00    -0.307 C  
HETATM   12  O   UNL     1     -12.142  14.232  64.800  1.00  0.00    -0.403 OA 
BRANCH  11  13
HETATM   13  C   UNL     1     -11.393  13.101  66.781  1.00  0.00    -0.353 A  
HETATM   14  C   UNL     1     -11.050  11.743  66.675  1.00  0.00    -0.364 A  
HETATM   15  C   UNL     1     -11.333  10.861  67.720  1.00  0.00    -0.366 A  
HETATM   16  C   UNL     1     -11.943  11.331  68.882  1.00  0.00    -0.378 A  
HETATM   17  C   UNL     1     -12.245  12.687  69.014  1.00  0.00    -0.025 A  
HETATM   18  C   UNL     1     -11.967  13.569  67.968  1.00  0.00    -0.337 A  
HETATM   19  O   UNL     1     -12.260  14.894  68.122  1.00  0.00    -0.574 OA 
HETATM   20  H   UNL     1     -12.650  15.212  68.928  1.00  0.00     0.000 HD 
ENDBRANCH  11  13
ENDBRANCH  10  11
ENDBRANCH   9  10
TORSDOF 3
ENDMDL
MODEL      134
REMARK 921   NORMALIZED FREE ENERGY PREDICTED BY IDOCK:   -5.07 KCAL/MOL
REMARK 922        TOTAL FREE ENERGY PREDICTED BY IDOCK:   -6.31 KCAL/MOL
REMARK 923 INTER-LIGAND FREE ENERGY PREDICTED BY IDOCK:   -5.03 KCAL/MOL
REMARK 924 INTRA-LIGAND FREE ENERGY PREDICTED BY IDOCK:   -1.28 KCAL/MOL
REMARK 927      BINDING AFFINITY PREDICTED BY RF-SCORE:    0.00 PKD
ROOT
HETATM    1  O   UNL     1     -11.860  15.661  68.090  1.00  0.00    -0.286 OA 
HETATM    2  C   UNL     1     -11.750  15.160  69.335  1.00  0.00    -0.332 C  
HETATM    3  C   UNL     1     -11.866  13.678  69.436  1.00  0.00    -0.392 A  
HETATM    4  O   UNL     1     -11.633  15.870  70.321  1.00  0.00    -0.320 OA 
HETATM    5  C   UNL     1     -12.350  13.170  70.651  1.00  0.00    -0.405 A  
HETATM    6  C   UNL     1     -12.435  11.795  70.866  1.00  0.00    -0.416 A  
HETATM    7  C   UNL     1     -12.025  10.910  69.873  1.00  0.00    -0.430 A  
HETATM    8  C   UNL     1     -11.544  11.397  68.658  1.00  0.00    -0.384 A  
HETATM    9  C   UNL     1     -11.474  12.780  68.430  1.00  0.00    -0.311 A  
ENDROOT
BRANCH   9  10
HETATM   10  O   UNL     1     -10.899  13.293  67.246  1.00  0.00    -0.260 OA 
BRANCH  10  11
HETATM   11  C   UNL     1      -9.691  12.753  66.837  1.00  0.00    -0.234 C  
HETATM   12  O   UNL     1      -9.591  11.813  66.062  1.00  0.00    -0.222 OA 
BRANCH  11  13
HETATM   13  C   UNL     1      -8.550  13.346  67.590  1.00  0.00    -0.193 A  
HETATM   14  C   UNL     1      -7.749  12.464  68.335  1.00  0.00    -0.144 A  
HETATM   15  C   UNL     1      -6.770  12.960  69.198  1.00  0.00    -0.086 A  
HETATM   16  C   UNL     1      -6.574  14.335  69.311  1.00  0.00    -0.120 A  
HETATM   17  C   UNL     1      -7.334  15.217  68.542  1.00  0.00    -0.119 A  
HETATM   18  C   UNL     1      -8.317  14.722  67.681  1.00  0.00    -0.170 A  
HETATM   19  O   UNL     1      -9.043  15.600  66.928  1.00  0.00    -0.208 OA 
HETATM   20  H   UNL     1      -8.884  16.535  66.990  1.00  0.00     0.000 HD 
ENDBRANCH  11  13
ENDBRANCH  10  11
ENDBRANCH   9  10
TORSDOF 3
ENDMDL
MODEL      135
REMARK 921   NORMALIZED FREE ENERGY PREDICTED BY IDOCK:   -5.06 KCAL/MOL
REMARK 922        TOTAL FREE ENERGY PREDICTED BY IDOCK:   -6.30 KCAL/MOL
REMARK 923 INTER-LIGAND FREE ENERGY PREDICTED BY IDOCK:   -5.14 KCAL/MOL
REMARK 924 INTRA-LIGAND FREE ENERGY PREDICTED BY IDOCK:   -1.15 KCAL/MOL
REMARK 927      BINDING AFFINITY PREDICTED BY RF-SCORE:    0.00 PKD
ROOT
HETATM    1  O   UNL     1     -10.746  17.627  67.425  1.00  0.00    -0.340 OA 
HETATM    2  C   UNL     1     -10.642  17.361  68.741  1.00  0.00    -0.283 C  
HETATM    3  C   UNL     1     -11.298  16.099  69.188  1.00  0.00    -0.323 A  
HETATM    4  O   UNL     1     -10.109  18.128  69.527  1.00  0.00    -0.094 OA 
HETATM    5  C   UNL     1     -11.743  16.063  70.518  1.00  0.00    -0.350 A  
HETATM    6  C   UNL     1     -12.313  14.906  71.048  1.00  0.00    -0.388 A  
HETATM    7  C   UNL     1     -12.433  13.766  70.259  1.00  0.00    -0.357 A  
HETATM    8  C   UNL     1     -11.999  13.785  68.933  1.00  0.00    -0.394 A  
HETATM    9  C   UNL     1     -11.442  14.953  68.390  1.00  0.00    -0.318 A  
ENDROOT
BRANCH   9  10
HETATM   10  O   UNL     1     -10.907  14.963  67.082  1.00  0.00    -0.297 OA 
BRANCH  10  11
HETATM   11  C   UNL     1      -9.838  14.121  66.823  1.00  0.00    -0.272 C  
HETATM   12  O   UNL     1      -9.954  12.939  66.534  1.00  0.00    -0.247 OA 
BRANCH  11  13
HETATM   13  C   UNL     1      -8.539  14.791  67.110  1.00  0.00    -0.248 A  
HETATM   14  C   UNL     1      -7.751  14.245  68.137  1.00  0.00    -0.141 A  
HETATM   15  C   UNL     1      -6.607  14.912  68.578  1.00  0.00    -0.093 A  
HETATM   16  C   UNL     1      -6.234  16.119  67.988  1.00  0.00    -0.139 A  
HETATM   17  C   UNL     1      -6.985  16.646  66.937  1.00  0.00    -0.262 A  
HETATM   18  C   UNL     1      -8.133  15.982  66.498  1.00  0.00    -0.269 A  
HETATM   19  O   UNL     1      -8.849  16.508  65.461  1.00  0.00    -0.325 OA 
HETATM   20  H   UNL     1      -8.572  17.316  65.045  1.00  0.00     0.000 HD 
ENDBRANCH  11  13
ENDBRANCH  10  11
ENDBRANCH   9  10
TORSDOF 3
ENDMDL
MODEL      136
REMARK 921   NORMALIZED FREE ENERGY PREDICTED BY IDOCK:   -5.05 KCAL/MOL
REMARK 922        TOTAL FREE ENERGY PREDICTED BY IDOCK:   -6.28 KCAL/MOL
REMARK 923 INTER-LIGAND FREE ENERGY PREDICTED BY IDOCK:   -6.00 KCAL/MOL
REMARK 924 INTRA-LIGAND FREE ENERGY PREDICTED BY IDOCK:   -0.28 KCAL/MOL
REMARK 927      BINDING AFFINITY PREDICTED BY RF-SCORE:    0.00 PKD
ROOT
HETATM    1  O   UNL     1     -11.265  15.621  66.942  1.00  0.00    -0.245 OA 
HETATM    2  C   UNL     1     -10.256  16.289  66.350  1.00  0.00    -0.313 C  
HETATM    3  C   UNL     1      -8.890  15.937  66.834  1.00  0.00    -0.264 A  
HETATM    4  O   UNL     1     -10.445  17.169  65.525  1.00  0.00    -0.593 OA 
HETATM    5  C   UNL     1      -7.914  16.939  66.734  1.00  0.00    -0.271 A  
HETATM    6  C   UNL     1      -6.593  16.687  67.101  1.00  0.00    -0.222 A  
HETATM    7  C   UNL     1      -6.229  15.425  67.562  1.00  0.00    -0.120 A  
HETATM    8  C   UNL     1      -7.187  14.418  67.671  1.00  0.00    -0.201 A  
HETATM    9  C   UNL     1      -8.522  14.672  67.321  1.00  0.00    -0.215 A  
ENDROOT
BRANCH   9  10
HETATM   10  O   UNL     1      -9.485  13.639  67.331  1.00  0.00    -0.211 OA 
BRANCH  10  11
HETATM   11  C   UNL     1      -9.279  12.564  66.482  1.00  0.00    -0.210 C  
HETATM   12  O   UNL     1      -8.303  11.830  66.535  1.00  0.00    -0.164 OA 
BRANCH  11  13
HETATM   13  C   UNL     1     -10.299  12.527  65.397  1.00  0.00    -0.305 A  
HETATM   14  C   UNL     1     -11.588  12.988  65.716  1.00  0.00    -0.396 A  
HETATM   15  C   UNL     1     -12.638  12.828  64.809  1.00  0.00    -0.518 A  
HETATM   16  C   UNL     1     -12.405  12.223  63.575  1.00  0.00    -0.670 A  
HETATM   17  C   UNL     1     -11.119  11.804  63.232  1.00  0.00    -0.370 A  
HETATM   18  C   UNL     1     -10.069  11.959  64.139  1.00  0.00    -0.310 A  
HETATM   19  O   UNL     1      -8.816  11.552  63.781  1.00  0.00    -0.403 OA 
HETATM   20  H   UNL     1      -8.660  11.167  62.927  1.00  0.00     0.000 HD 
ENDBRANCH  11  13
ENDBRANCH  10  11
ENDBRANCH   9  10
TORSDOF 3
ENDMDL
MODEL      137
REMARK 921   NORMALIZED FREE ENERGY PREDICTED BY IDOCK:   -5.04 KCAL/MOL
REMARK 922        TOTAL FREE ENERGY PREDICTED BY IDOCK:   -6.27 KCAL/MOL
REMARK 923 INTER-LIGAND FREE ENERGY PREDICTED BY IDOCK:   -6.12 KCAL/MOL
REMARK 924 INTRA-LIGAND FREE ENERGY PREDICTED BY IDOCK:   -0.15 KCAL/MOL
REMARK 927      BINDING AFFINITY PREDICTED BY RF-SCORE:    0.00 PKD
ROOT
HETATM    1  O   UNL     1     -10.754   8.774  67.285  1.00  0.00    -0.276 OA 
HETATM    2  C   UNL     1     -10.467  10.001  66.812  1.00  0.00    -0.198 C  
HETATM    3  C   UNL     1     -11.068  11.134  67.572  1.00  0.00    -0.353 A  
HETATM    4  O   UNL     1      -9.817  10.177  65.793  1.00  0.00    -0.229 OA 
HETATM    5  C   UNL     1     -11.318  12.309  66.849  1.00  0.00    -0.392 A  
HETATM    6  C   UNL     1     -11.820  13.445  67.485  1.00  0.00    -0.408 A  
HETATM    7  C   UNL     1     -12.068  13.421  68.854  1.00  0.00    -0.289 A  
HETATM    8  C   UNL     1     -11.827  12.260  69.588  1.00  0.00    -0.393 A  
HETATM    9  C   UNL     1     -11.340  11.110  68.950  1.00  0.00    -0.278 A  
ENDROOT
BRANCH   9  10
HETATM   10  O   UNL     1     -10.998   9.956  69.691  1.00  0.00    -0.233 OA 
BRANCH  10  11
HETATM   11  C   UNL     1     -11.758   9.670  70.813  1.00  0.00    -0.314 C  
HETATM   12  O   UNL     1     -12.852  10.165  71.041  1.00  0.00    -0.346 OA 
BRANCH  11  13
HETATM   13  C   UNL     1     -11.000   8.827  71.779  1.00  0.00    -0.415 A  
HETATM   14  C   UNL     1      -9.598   8.930  71.756  1.00  0.00    -0.353 A  
HETATM   15  C   UNL     1      -8.814   8.053  72.508  1.00  0.00    -0.237 A  
HETATM   16  C   UNL     1      -9.423   7.080  73.299  1.00  0.00    -0.196 A  
HETATM   17  C   UNL     1     -10.814   6.999  73.363  1.00  0.00    -0.332 A  
HETATM   18  C   UNL     1     -11.600   7.873  72.608  1.00  0.00    -0.377 A  
HETATM   19  O   UNL     1     -12.960   7.785  72.693  1.00  0.00    -0.500 OA 
HETATM   20  H   UNL     1     -13.367   7.137  73.257  1.00  0.00     0.000 HD 
ENDBRANCH  11  13
ENDBRANCH  10  11
ENDBRANCH   9  10
TORSDOF 3
ENDMDL
MODEL      138
REMARK 921   NORMALIZED FREE ENERGY PREDICTED BY IDOCK:   -5.03 KCAL/MOL
REMARK 922        TOTAL FREE ENERGY PREDICTED BY IDOCK:   -6.26 KCAL/MOL
REMARK 923 INTER-LIGAND FREE ENERGY PREDICTED BY IDOCK:   -5.47 KCAL/MOL
REMARK 924 INTRA-LIGAND FREE ENERGY PREDICTED BY IDOCK:   -0.79 KCAL/MOL
REMARK 927      BINDING AFFINITY PREDICTED BY RF-SCORE:    0.00 PKD
ROOT
HETATM    1  O   UNL     1      -8.553   7.634  66.311  1.00  0.00    -0.129 OA 
HETATM    2  C   UNL     1      -8.240   8.627  65.456  1.00  0.00    -0.135 C  
HETATM    3  C   UNL     1      -9.271   9.694  65.316  1.00  0.00    -0.295 A  
HETATM    4  O   UNL     1      -7.217   8.622  64.790  1.00  0.00    -0.085 OA 
HETATM    5  C   UNL     1      -9.303  10.375  64.090  1.00  0.00    -0.323 A  
HETATM    6  C   UNL     1     -10.189  11.433  63.885  1.00  0.00    -0.415 A  
HETATM    7  C   UNL     1     -11.046  11.830  64.907  1.00  0.00    -0.345 A  
HETATM    8  C   UNL     1     -11.029  11.162  66.131  1.00  0.00    -0.203 A  
HETATM    9  C   UNL     1     -10.153  10.086  66.337  1.00  0.00    -0.241 A  
ENDROOT
BRANCH   9  10
HETATM   10  O   UNL     1     -10.052   9.461  67.600  1.00  0.00    -0.184 OA 
BRANCH  10  11
HETATM   11  C   UNL     1      -9.598  10.230  68.658  1.00  0.00    -0.168 C  
HETATM   12  O   UNL     1      -8.668  11.019  68.579  1.00  0.00    -0.146 OA 
BRANCH  11  13
HETATM   13  C   UNL     1     -10.268   9.847  69.932  1.00  0.00    -0.298 A  
HETATM   14  C   UNL     1      -9.476   9.216  70.907  1.00  0.00    -0.343 A  
HETATM   15  C   UNL     1     -10.064   8.677  72.052  1.00  0.00    -0.401 A  
HETATM   16  C   UNL     1     -11.442   8.778  72.240  1.00  0.00    -0.376 A  
HETATM   17  C   UNL     1     -12.230   9.442  71.300  1.00  0.00    -0.425 A  
HETATM   18  C   UNL     1     -11.643   9.978  70.152  1.00  0.00    -0.252 A  
HETATM   19  O   UNL     1     -12.430  10.635  69.249  1.00  0.00    -0.703 OA 
HETATM   20  H   UNL     1     -13.364  10.724  69.398  1.00  0.00     0.000 HD 
ENDBRANCH  11  13
ENDBRANCH  10  11
ENDBRANCH   9  10
TORSDOF 3
ENDMDL
MODEL      139
REMARK 921   NORMALIZED FREE ENERGY PREDICTED BY IDOCK:   -5.03 KCAL/MOL
REMARK 922        TOTAL FREE ENERGY PREDICTED BY IDOCK:   -6.26 KCAL/MOL
REMARK 923 INTER-LIGAND FREE ENERGY PREDICTED BY IDOCK:   -5.69 KCAL/MOL
REMARK 924 INTRA-LIGAND FREE ENERGY PREDICTED BY IDOCK:   -0.57 KCAL/MOL
REMARK 927      BINDING AFFINITY PREDICTED BY RF-SCORE:    0.00 PKD
ROOT
HETATM    1  O   UNL     1     -11.593  12.401  67.202  1.00  0.00    -0.333 OA 
HETATM    2  C   UNL     1     -11.469  13.244  68.245  1.00  0.00    -0.316 C  
HETATM    3  C   UNL     1     -12.057  12.760  69.526  1.00  0.00    -0.265 A  
HETATM    4  O   UNL     1     -10.972  14.354  68.137  1.00  0.00    -0.243 OA 
HETATM    5  C   UNL     1     -12.493  13.746  70.425  1.00  0.00    -0.384 A  
HETATM    6  C   UNL     1     -12.999  13.395  71.676  1.00  0.00    -0.445 A  
HETATM    7  C   UNL     1     -13.065  12.056  72.049  1.00  0.00    -0.456 A  
HETATM    8  C   UNL     1     -12.639  11.064  71.167  1.00  0.00    -0.522 A  
HETATM    9  C   UNL     1     -12.146  11.410  69.900  1.00  0.00    -0.330 A  
ENDROOT
BRANCH   9  10
HETATM   10  O   UNL     1     -11.620  10.428  69.031  1.00  0.00    -0.228 OA 
BRANCH  10  11
HETATM   11  C   UNL     1     -10.349   9.948  69.305  1.00  0.00    -0.219 C  
HETATM   12  O   UNL     1      -9.372  10.663  69.474  1.00  0.00    -0.125 OA 
BRANCH  11  13
HETATM   13  C   UNL     1     -10.294   8.464  69.194  1.00  0.00    -0.229 A  
HETATM   14  C   UNL     1      -9.406   7.926  68.247  1.00  0.00    -0.145 A  
HETATM   15  C   UNL     1      -9.420   6.559  67.965  1.00  0.00    -0.120 A  
HETATM   16  C   UNL     1     -10.307   5.719  68.636  1.00  0.00    -0.283 A  
HETATM   17  C   UNL     1     -11.161   6.237  69.610  1.00  0.00    -0.506 A  
HETATM   18  C   UNL     1     -11.152   7.605  69.890  1.00  0.00    -0.150 A  
HETATM   19  O   UNL     1     -11.987   8.092  70.855  1.00  0.00    -0.389 OA 
HETATM   20  H   UNL     1     -12.569   7.508  71.328  1.00  0.00     0.000 HD 
ENDBRANCH  11  13
ENDBRANCH  10  11
ENDBRANCH   9  10
TORSDOF 3
ENDMDL
MODEL      140
REMARK 921   NORMALIZED FREE ENERGY PREDICTED BY IDOCK:   -5.02 KCAL/MOL
REMARK 922        TOTAL FREE ENERGY PREDICTED BY IDOCK:   -6.26 KCAL/MOL
REMARK 923 INTER-LIGAND FREE ENERGY PREDICTED BY IDOCK:   -5.55 KCAL/MOL
REMARK 924 INTRA-LIGAND FREE ENERGY PREDICTED BY IDOCK:   -0.70 KCAL/MOL
REMARK 927      BINDING AFFINITY PREDICTED BY RF-SCORE:    0.00 PKD
ROOT
HETATM    1  O   UNL     1      -7.913  14.850  67.252  1.00  0.00    -0.185 OA 
HETATM    2  C   UNL     1      -8.485  15.763  68.059  1.00  0.00    -0.161 C  
HETATM    3  C   UNL     1      -9.227  16.852  67.362  1.00  0.00    -0.224 A  
HETATM    4  O   UNL     1      -8.350  15.744  69.272  1.00  0.00    -0.231 OA 
HETATM    5  C   UNL     1      -9.312  18.080  68.034  1.00  0.00    -0.273 A  
HETATM    6  C   UNL     1     -10.039  19.141  67.493  1.00  0.00    -0.463 A  
HETATM    7  C   UNL     1     -10.699  18.982  66.278  1.00  0.00    -0.406 A  
HETATM    8  C   UNL     1     -10.623  17.768  65.595  1.00  0.00    -0.123 A  
HETATM    9  C   UNL     1      -9.878  16.705  66.126  1.00  0.00    -0.318 A  
ENDROOT
BRANCH   9  10
HETATM   10  O   UNL     1      -9.869  15.439  65.499  1.00  0.00    -0.342 OA 
BRANCH  10  11
HETATM   11  C   UNL     1     -10.900  14.566  65.806  1.00  0.00    -0.315 C  
HETATM   12  O   UNL     1     -11.876  14.872  66.477  1.00  0.00    -0.279 OA 
BRANCH  11  13
HETATM   13  C   UNL     1     -10.585  13.179  65.366  1.00  0.00    -0.311 A  
HETATM   14  C   UNL     1     -10.888  12.846  64.035  1.00  0.00    -0.443 A  
HETATM   15  C   UNL     1     -10.780  11.524  63.597  1.00  0.00    -0.491 A  
HETATM   16  C   UNL     1     -10.356  10.532  64.478  1.00  0.00    -0.275 A  
HETATM   17  C   UNL     1     -10.010  10.861  65.790  1.00  0.00    -0.299 A  
HETATM   18  C   UNL     1     -10.121  12.181  66.230  1.00  0.00    -0.224 A  
HETATM   19  O   UNL     1      -9.767  12.485  67.513  1.00  0.00    -0.190 OA 
HETATM   20  H   UNL     1      -9.451  11.808  68.100  1.00  0.00     0.000 HD 
ENDBRANCH  11  13
ENDBRANCH  10  11
ENDBRANCH   9  10
TORSDOF 3
ENDMDL
MODEL      141
REMARK 921   NORMALIZED FREE ENERGY PREDICTED BY IDOCK:   -5.01 KCAL/MOL
REMARK 922        TOTAL FREE ENERGY PREDICTED BY IDOCK:   -6.24 KCAL/MOL
REMARK 923 INTER-LIGAND FREE ENERGY PREDICTED BY IDOCK:   -5.57 KCAL/MOL
REMARK 924 INTRA-LIGAND FREE ENERGY PREDICTED BY IDOCK:   -0.67 KCAL/MOL
REMARK 927      BINDING AFFINITY PREDICTED BY RF-SCORE:    0.00 PKD
ROOT
HETATM    1  O   UNL     1      -8.072  11.427  67.767  1.00  0.00    -0.113 OA 
HETATM    2  C   UNL     1      -8.020  12.737  67.462  1.00  0.00    -0.177 C  
HETATM    3  C   UNL     1      -9.341  13.422  67.371  1.00  0.00    -0.221 A  
HETATM    4  O   UNL     1      -6.973  13.312  67.210  1.00  0.00    -0.138 OA 
HETATM    5  C   UNL     1      -9.411  14.534  66.518  1.00  0.00    -0.307 A  
HETATM    6  C   UNL     1     -10.585  15.280  66.413  1.00  0.00    -0.308 A  
HETATM    7  C   UNL     1     -11.700  14.929  67.169  1.00  0.00    -0.292 A  
HETATM    8  C   UNL     1     -11.649  13.825  68.019  1.00  0.00    -0.368 A  
HETATM    9  C   UNL     1     -10.476  13.061  68.114  1.00  0.00    -0.245 A  
ENDROOT
BRANCH   9  10
HETATM   10  O   UNL     1     -10.373  12.000  69.041  1.00  0.00    -0.143 OA 
BRANCH  10  11
HETATM   11  C   UNL     1     -11.118  10.859  68.792  1.00  0.00    -0.256 C  
HETATM   12  O   UNL     1     -11.427  10.476  67.673  1.00  0.00    -0.444 OA 
BRANCH  11  13
HETATM   13  C   UNL     1     -11.636  10.264  70.056  1.00  0.00    -0.349 A  
HETATM   14  C   UNL     1     -11.384   8.898  70.269  1.00  0.00    -0.179 A  
HETATM   15  C   UNL     1     -11.979   8.231  71.342  1.00  0.00    -0.333 A  
HETATM   16  C   UNL     1     -12.814   8.925  72.216  1.00  0.00    -0.475 A  
HETATM   17  C   UNL     1     -13.033  10.292  72.039  1.00  0.00    -0.503 A  
HETATM   18  C   UNL     1     -12.442  10.959  70.963  1.00  0.00    -0.411 A  
HETATM   19  O   UNL     1     -12.660  12.299  70.813  1.00  0.00    -0.303 OA 
HETATM   20  H   UNL     1     -13.208  12.771  71.429  1.00  0.00     0.000 HD 
ENDBRANCH  11  13
ENDBRANCH  10  11
ENDBRANCH   9  10
TORSDOF 3
ENDMDL
MODEL      142
REMARK 921   NORMALIZED FREE ENERGY PREDICTED BY IDOCK:   -4.98 KCAL/MOL
REMARK 922        TOTAL FREE ENERGY PREDICTED BY IDOCK:   -6.20 KCAL/MOL
REMARK 923 INTER-LIGAND FREE ENERGY PREDICTED BY IDOCK:   -5.36 KCAL/MOL
REMARK 924 INTRA-LIGAND FREE ENERGY PREDICTED BY IDOCK:   -0.84 KCAL/MOL
REMARK 927      BINDING AFFINITY PREDICTED BY RF-SCORE:    0.00 PKD
ROOT
HETATM    1  O   UNL     1     -10.064   8.432  68.209  1.00  0.00    -0.186 OA 
HETATM    2  C   UNL     1      -8.939   8.361  67.471  1.00  0.00    -0.135 C  
HETATM    3  C   UNL     1      -9.049   8.910  66.090  1.00  0.00    -0.251 A  
HETATM    4  O   UNL     1      -7.920   7.825  67.876  1.00  0.00    -0.121 OA 
HETATM    5  C   UNL     1      -8.191   8.357  65.127  1.00  0.00    -0.158 A  
HETATM    6  C   UNL     1      -8.174   8.847  63.821  1.00  0.00    -0.172 A  
HETATM    7  C   UNL     1      -9.007   9.904  63.465  1.00  0.00    -0.277 A  
HETATM    8  C   UNL     1      -9.868  10.463  64.409  1.00  0.00    -0.395 A  
HETATM    9  C   UNL     1      -9.902   9.962  65.719  1.00  0.00    -0.287 A  
ENDROOT
BRANCH   9  10
HETATM   10  O   UNL     1     -10.695  10.578  66.713  1.00  0.00    -0.240 OA 
BRANCH  10  11
HETATM   11  C   UNL     1     -10.282  11.814  67.183  1.00  0.00    -0.212 C  
HETATM   12  O   UNL     1      -9.623  11.971  68.200  1.00  0.00    -0.189 OA 
BRANCH  11  13
HETATM   13  C   UNL     1     -10.887  12.923  66.394  1.00  0.00    -0.293 A  
HETATM   14  C   UNL     1     -12.243  12.794  66.046  1.00  0.00    -0.380 A  
HETATM   15  C   UNL     1     -12.834  13.705  65.168  1.00  0.00    -0.382 A  
HETATM   16  C   UNL     1     -12.082  14.757  64.646  1.00  0.00    -0.437 A  
HETATM   17  C   UNL     1     -10.749  14.919  65.023  1.00  0.00    -0.451 A  
HETATM   18  C   UNL     1     -10.155  14.006  65.897  1.00  0.00    -0.321 A  
HETATM   19  O   UNL     1      -8.851  14.188  66.262  1.00  0.00    -0.473 OA 
HETATM   20  H   UNL     1      -8.354  14.924  65.924  1.00  0.00     0.000 HD 
ENDBRANCH  11  13
ENDBRANCH  10  11
ENDBRANCH   9  10
TORSDOF 3
ENDMDL
MODEL      143
REMARK 921   NORMALIZED FREE ENERGY PREDICTED BY IDOCK:   -4.97 KCAL/MOL
REMARK 922        TOTAL FREE ENERGY PREDICTED BY IDOCK:   -6.19 KCAL/MOL
REMARK 923 INTER-LIGAND FREE ENERGY PREDICTED BY IDOCK:   -5.19 KCAL/MOL
REMARK 924 INTRA-LIGAND FREE ENERGY PREDICTED BY IDOCK:   -1.00 KCAL/MOL
REMARK 927      BINDING AFFINITY PREDICTED BY RF-SCORE:    0.00 PKD
ROOT
HETATM    1  O   UNL     1      -7.929  13.531  68.138  1.00  0.00    -0.128 OA 
HETATM    2  C   UNL     1      -7.216  14.659  67.957  1.00  0.00    -0.140 C  
HETATM    3  C   UNL     1      -8.021  15.910  67.849  1.00  0.00    -0.146 A  
HETATM    4  O   UNL     1      -6.003  14.656  67.821  1.00  0.00    -0.200 OA 
HETATM    5  C   UNL     1      -7.459  16.952  67.098  1.00  0.00    -0.208 A  
HETATM    6  C   UNL     1      -8.105  18.183  66.991  1.00  0.00    -0.239 A  
HETATM    7  C   UNL     1      -9.317  18.391  67.643  1.00  0.00    -0.274 A  
HETATM    8  C   UNL     1      -9.892  17.364  68.392  1.00  0.00    -0.316 A  
HETATM    9  C   UNL     1      -9.254  16.118  68.487  1.00  0.00    -0.210 A  
ENDROOT
BRANCH   9  10
HETATM   10  O   UNL     1      -9.770  15.099  69.319  1.00  0.00    -0.222 OA 
BRANCH  10  11
HETATM   11  C   UNL     1     -11.106  14.765  69.166  1.00  0.00    -0.265 C  
HETATM   12  O   UNL     1     -11.963  14.973  70.013  1.00  0.00    -0.293 OA 
BRANCH  11  13
HETATM   13  C   UNL     1     -11.327  13.971  67.926  1.00  0.00    -0.317 A  
HETATM   14  C   UNL     1     -11.898  14.642  66.831  1.00  0.00    -0.345 A  
HETATM   15  C   UNL     1     -12.291  13.930  65.696  1.00  0.00    -0.511 A  
HETATM   16  C   UNL     1     -12.103  12.550  65.640  1.00  0.00    -0.464 A  
HETATM   17  C   UNL     1     -11.496  11.882  66.704  1.00  0.00    -0.382 A  
HETATM   18  C   UNL     1     -11.106  12.592  67.841  1.00  0.00    -0.245 A  
HETATM   19  O   UNL     1     -10.503  11.922  68.868  1.00  0.00    -0.289 OA 
HETATM   20  H   UNL     1     -10.353  10.986  68.810  1.00  0.00     0.000 HD 
ENDBRANCH  11  13
ENDBRANCH  10  11
ENDBRANCH   9  10
TORSDOF 3
ENDMDL
MODEL      144
REMARK 921   NORMALIZED FREE ENERGY PREDICTED BY IDOCK:   -4.96 KCAL/MOL
REMARK 922        TOTAL FREE ENERGY PREDICTED BY IDOCK:   -6.18 KCAL/MOL
REMARK 923 INTER-LIGAND FREE ENERGY PREDICTED BY IDOCK:   -5.29 KCAL/MOL
REMARK 924 INTRA-LIGAND FREE ENERGY PREDICTED BY IDOCK:   -0.89 KCAL/MOL
REMARK 927      BINDING AFFINITY PREDICTED BY RF-SCORE:    0.00 PKD
ROOT
HETATM    1  O   UNL     1     -12.168  11.738  67.984  1.00  0.00    -0.518 OA 
HETATM    2  C   UNL     1     -11.194  11.796  67.056  1.00  0.00    -0.322 C  
HETATM    3  C   UNL     1      -9.808  11.626  67.577  1.00  0.00    -0.199 A  
HETATM    4  O   UNL     1     -11.420  12.037  65.881  1.00  0.00    -0.350 OA 
HETATM    5  C   UNL     1      -8.784  12.244  66.843  1.00  0.00    -0.197 A  
HETATM    6  C   UNL     1      -7.448  12.091  67.214  1.00  0.00    -0.158 A  
HETATM    7  C   UNL     1      -7.119  11.308  68.317  1.00  0.00    -0.074 A  
HETATM    8  C   UNL     1      -8.125  10.689  69.059  1.00  0.00    -0.148 A  
HETATM    9  C   UNL     1      -9.471  10.856  68.702  1.00  0.00    -0.190 A  
ENDROOT
BRANCH   9  10
HETATM   10  O   UNL     1     -10.495  10.159  69.381  1.00  0.00    -0.202 OA 
BRANCH  10  11
HETATM   11  C   UNL     1     -10.466   8.775  69.334  1.00  0.00    -0.222 C  
HETATM   12  O   UNL     1     -10.427   8.127  68.298  1.00  0.00    -0.204 OA 
BRANCH  11  13
HETATM   13  C   UNL     1     -10.662   8.183  70.687  1.00  0.00    -0.238 A  
HETATM   14  C   UNL     1      -9.828   8.651  71.717  1.00  0.00    -0.365 A  
HETATM   15  C   UNL     1      -9.835   8.028  72.966  1.00  0.00    -0.352 A  
HETATM   16  C   UNL     1     -10.684   6.948  73.201  1.00  0.00    -0.338 A  
HETATM   17  C   UNL     1     -11.549   6.506  72.199  1.00  0.00    -0.349 A  
HETATM   18  C   UNL     1     -11.540   7.124  70.947  1.00  0.00    -0.311 A  
HETATM   19  O   UNL     1     -12.401   6.685  69.982  1.00  0.00    -0.549 OA 
HETATM   20  H   UNL     1     -12.997   5.966  70.159  1.00  0.00     0.000 HD 
ENDBRANCH  11  13
ENDBRANCH  10  11
ENDBRANCH   9  10
TORSDOF 3
ENDMDL
MODEL      145
REMARK 921   NORMALIZED FREE ENERGY PREDICTED BY IDOCK:   -4.93 KCAL/MOL
REMARK 922        TOTAL FREE ENERGY PREDICTED BY IDOCK:   -6.14 KCAL/MOL
REMARK 923 INTER-LIGAND FREE ENERGY PREDICTED BY IDOCK:   -5.42 KCAL/MOL
REMARK 924 INTRA-LIGAND FREE ENERGY PREDICTED BY IDOCK:   -0.72 KCAL/MOL
REMARK 927      BINDING AFFINITY PREDICTED BY RF-SCORE:    0.00 PKD
ROOT
HETATM    1  O   UNL     1     -10.142  18.376  67.024  1.00  0.00    -0.328 OA 
HETATM    2  C   UNL     1      -8.922  17.876  66.749  1.00  0.00    -0.261 C  
HETATM    3  C   UNL     1      -8.490  16.742  67.615  1.00  0.00    -0.197 A  
HETATM    4  O   UNL     1      -8.190  18.358  65.899  1.00  0.00    -0.505 OA 
HETATM    5  C   UNL     1      -7.108  16.586  67.798  1.00  0.00    -0.154 A  
HETATM    6  C   UNL     1      -6.602  15.518  68.538  1.00  0.00    -0.109 A  
HETATM    7  C   UNL     1      -7.472  14.585  69.095  1.00  0.00    -0.118 A  
HETATM    8  C   UNL     1      -8.849  14.726  68.925  1.00  0.00    -0.164 A  
HETATM    9  C   UNL     1      -9.364  15.809  68.198  1.00  0.00    -0.194 A  
ENDROOT
BRANCH   9  10
HETATM   10  O   UNL     1     -10.747  15.916  67.932  1.00  0.00    -0.294 OA 
BRANCH  10  11
HETATM   11  C   UNL     1     -11.500  14.755  67.993  1.00  0.00    -0.331 C  
HETATM   12  O   UNL     1     -11.962  14.294  69.027  1.00  0.00    -0.319 OA 
BRANCH  11  13
HETATM   13  C   UNL     1     -11.526  14.056  66.678  1.00  0.00    -0.377 A  
HETATM   14  C   UNL     1     -11.815  14.836  65.545  1.00  0.00    -0.231 A  
HETATM   15  C   UNL     1     -12.024  14.227  64.306  1.00  0.00    -0.449 A  
HETATM   16  C   UNL     1     -11.930  12.842  64.186  1.00  0.00    -0.499 A  
HETATM   17  C   UNL     1     -11.598  12.064  65.296  1.00  0.00    -0.337 A  
HETATM   18  C   UNL     1     -11.393  12.670  66.537  1.00  0.00    -0.326 A  
HETATM   19  O   UNL     1     -11.058  11.893  67.609  1.00  0.00    -0.226 OA 
HETATM   20  H   UNL     1     -10.968  10.952  67.513  1.00  0.00     0.000 HD 
ENDBRANCH  11  13
ENDBRANCH  10  11
ENDBRANCH   9  10
TORSDOF 3
ENDMDL
MODEL      146
REMARK 921   NORMALIZED FREE ENERGY PREDICTED BY IDOCK:   -4.91 KCAL/MOL
REMARK 922        TOTAL FREE ENERGY PREDICTED BY IDOCK:   -6.12 KCAL/MOL
REMARK 923 INTER-LIGAND FREE ENERGY PREDICTED BY IDOCK:   -5.38 KCAL/MOL
REMARK 924 INTRA-LIGAND FREE ENERGY PREDICTED BY IDOCK:   -0.75 KCAL/MOL
REMARK 927      BINDING AFFINITY PREDICTED BY RF-SCORE:    0.00 PKD
ROOT
HETATM    1  O   UNL     1     -10.022  10.099  67.965  1.00  0.00    -0.143 OA 
HETATM    2  C   UNL     1     -10.130  11.283  68.598  1.00  0.00    -0.208 C  
HETATM    3  C   UNL     1     -11.145  11.331  69.688  1.00  0.00    -0.273 A  
HETATM    4  O   UNL     1      -9.492  12.268  68.262  1.00  0.00    -0.210 OA 
HETATM    5  C   UNL     1     -11.717  12.584  69.955  1.00  0.00    -0.297 A  
HETATM    6  C   UNL     1     -12.630  12.744  70.997  1.00  0.00    -0.362 A  
HETATM    7  C   UNL     1     -12.973  11.655  71.793  1.00  0.00    -0.483 A  
HETATM    8  C   UNL     1     -12.417  10.402  71.540  1.00  0.00    -0.508 A  
HETATM    9  C   UNL     1     -11.513  10.232  70.481  1.00  0.00    -0.343 A  
ENDROOT
BRANCH   9  10
HETATM   10  O   UNL     1     -10.864   8.994  70.270  1.00  0.00    -0.226 OA 
BRANCH  10  11
HETATM   11  C   UNL     1      -9.924   8.597  71.207  1.00  0.00    -0.246 C  
HETATM   12  O   UNL     1      -9.001   9.302  71.588  1.00  0.00    -0.311 OA 
BRANCH  11  13
HETATM   13  C   UNL     1     -10.081   7.158  71.555  1.00  0.00    -0.197 A  
HETATM   14  C   UNL     1      -9.886   6.225  70.522  1.00  0.00    -0.207 A  
HETATM   15  C   UNL     1     -10.179   4.876  70.726  1.00  0.00    -0.276 A  
HETATM   16  C   UNL     1     -10.653   4.446  71.965  1.00  0.00    -0.058 A  
HETATM   17  C   UNL     1     -10.806   5.357  73.010  1.00  0.00    -0.323 A  
HETATM   18  C   UNL     1     -10.517   6.708  72.806  1.00  0.00    -0.217 A  
HETATM   19  O   UNL     1     -10.663   7.583  73.845  1.00  0.00    -0.490 OA 
HETATM   20  H   UNL     1     -10.959   7.278  74.695  1.00  0.00     0.000 HD 
ENDBRANCH  11  13
ENDBRANCH  10  11
ENDBRANCH   9  10
TORSDOF 3
ENDMDL
MODEL      147
REMARK 921   NORMALIZED FREE ENERGY PREDICTED BY IDOCK:   -4.89 KCAL/MOL
REMARK 922        TOTAL FREE ENERGY PREDICTED BY IDOCK:   -6.10 KCAL/MOL
REMARK 923 INTER-LIGAND FREE ENERGY PREDICTED BY IDOCK:   -4.78 KCAL/MOL
REMARK 924 INTRA-LIGAND FREE ENERGY PREDICTED BY IDOCK:   -1.32 KCAL/MOL
REMARK 927      BINDING AFFINITY PREDICTED BY RF-SCORE:    0.00 PKD
ROOT
HETATM    1  O   UNL     1     -11.415  13.704  67.111  1.00  0.00    -0.311 OA 
HETATM    2  C   UNL     1     -11.261  13.826  68.443  1.00  0.00    -0.272 C  
HETATM    3  C   UNL     1     -11.857  12.727  69.255  1.00  0.00    -0.358 A  
HETATM    4  O   UNL     1     -10.733  14.799  68.958  1.00  0.00    -0.235 OA 
HETATM    5  C   UNL     1     -12.259  13.059  70.557  1.00  0.00    -0.392 A  
HETATM    6  C   UNL     1     -12.770  12.086  71.417  1.00  0.00    -0.380 A  
HETATM    7  C   UNL     1     -12.873  10.766  70.988  1.00  0.00    -0.480 A  
HETATM    8  C   UNL     1     -12.480  10.419  69.695  1.00  0.00     0.022 A  
HETATM    9  C   UNL     1     -11.984  11.397  68.821  1.00  0.00    -0.287 A  
ENDROOT
BRANCH   9  10
HETATM   10  O   UNL     1     -11.490  11.049  67.544  1.00  0.00    -0.468 OA 
BRANCH  10  11
HETATM   11  C   UNL     1     -10.477  10.106  67.487  1.00  0.00    -0.253 C  
HETATM   12  O   UNL     1     -10.653   8.931  67.198  1.00  0.00    -0.286 OA 
BRANCH  11  13
HETATM   13  C   UNL     1      -9.189  10.663  67.988  1.00  0.00    -0.148 A  
HETATM   14  C   UNL     1      -8.642  10.073  69.140  1.00  0.00    -0.158 A  
HETATM   15  C   UNL     1      -7.533  10.646  69.765  1.00  0.00    -0.088 A  
HETATM   16  C   UNL     1      -6.954  11.798  69.237  1.00  0.00    -0.065 A  
HETATM   17  C   UNL     1      -7.462  12.365  68.068  1.00  0.00    -0.114 A  
HETATM   18  C   UNL     1      -8.575  11.796  67.444  1.00  0.00    -0.160 A  
HETATM   19  O   UNL     1      -9.051  12.359  66.294  1.00  0.00    -0.349 OA 
HETATM   20  H   UNL     1      -8.634  13.129  65.925  1.00  0.00     0.000 HD 
ENDBRANCH  11  13
ENDBRANCH  10  11
ENDBRANCH   9  10
TORSDOF 3
ENDMDL
MODEL      148
REMARK 921   NORMALIZED FREE ENERGY PREDICTED BY IDOCK:   -4.89 KCAL/MOL
REMARK 922        TOTAL FREE ENERGY PREDICTED BY IDOCK:   -6.10 KCAL/MOL
REMARK 923 INTER-LIGAND FREE ENERGY PREDICTED BY IDOCK:   -5.64 KCAL/MOL
REMARK 924 INTRA-LIGAND FREE ENERGY PREDICTED BY IDOCK:   -0.46 KCAL/MOL
REMARK 927      BINDING AFFINITY PREDICTED BY RF-SCORE:    0.00 PKD
ROOT
HETATM    1  O   UNL     1     -11.089  11.919  68.930  1.00  0.00    -0.221 OA 
HETATM    2  C   UNL     1     -11.576  13.170  68.825  1.00  0.00    -0.308 C  
HETATM    3  C   UNL     1     -11.102  13.939  67.639  1.00  0.00    -0.295 A  
HETATM    4  O   UNL     1     -12.300  13.667  69.672  1.00  0.00    -0.296 OA 
HETATM    5  C   UNL     1     -11.064  15.335  67.774  1.00  0.00    -0.318 A  
HETATM    6  C   UNL     1     -10.695  16.145  66.700  1.00  0.00    -0.226 A  
HETATM    7  C   UNL     1     -10.371  15.571  65.475  1.00  0.00    -0.419 A  
HETATM    8  C   UNL     1     -10.401  14.184  65.325  1.00  0.00    -0.409 A  
HETATM    9  C   UNL     1     -10.752  13.364  66.406  1.00  0.00    -0.286 A  
ENDROOT
BRANCH   9  10
HETATM   10  O   UNL     1     -10.883  11.966  66.247  1.00  0.00    -0.260 OA 
BRANCH  10  11
HETATM   11  C   UNL     1     -11.016  11.480  64.956  1.00  0.00    -0.241 C  
HETATM   12  O   UNL     1     -11.883  11.846  64.175  1.00  0.00    -0.355 OA 
BRANCH  11  13
HETATM   13  C   UNL     1     -10.088  10.343  64.708  1.00  0.00    -0.387 A  
HETATM   14  C   UNL     1      -9.664   9.606  65.827  1.00  0.00    -0.350 A  
HETATM   15  C   UNL     1      -8.667   8.638  65.697  1.00  0.00    -0.214 A  
HETATM   16  C   UNL     1      -8.098   8.387  64.449  1.00  0.00    -0.158 A  
HETATM   17  C   UNL     1      -8.545   9.081  63.324  1.00  0.00    -0.150 A  
HETATM   18  C   UNL     1      -9.539  10.053  63.453  1.00  0.00    -0.056 A  
HETATM   19  O   UNL     1      -9.971  10.714  62.339  1.00  0.00    -0.694 OA 
HETATM   20  H   UNL     1      -9.598  10.518  61.487  1.00  0.00     0.000 HD 
ENDBRANCH  11  13
ENDBRANCH  10  11
ENDBRANCH   9  10
TORSDOF 3
ENDMDL
MODEL      149
REMARK 921   NORMALIZED FREE ENERGY PREDICTED BY IDOCK:   -4.88 KCAL/MOL
REMARK 922        TOTAL FREE ENERGY PREDICTED BY IDOCK:   -6.09 KCAL/MOL
REMARK 923 INTER-LIGAND FREE ENERGY PREDICTED BY IDOCK:   -5.48 KCAL/MOL
REMARK 924 INTRA-LIGAND FREE ENERGY PREDICTED BY IDOCK:   -0.60 KCAL/MOL
REMARK 927      BINDING AFFINITY PREDICTED BY RF-SCORE:    0.00 PKD
ROOT
HETATM    1  O   UNL     1      -9.136  11.150  66.496  1.00  0.00    -0.171 OA 
HETATM    2  C   UNL     1      -9.771  10.018  66.138  1.00  0.00    -0.227 C  
HETATM    3  C   UNL     1     -10.080   9.081  67.256  1.00  0.00    -0.297 A  
HETATM    4  O   UNL     1     -10.018   9.742  64.974  1.00  0.00    -0.286 OA 
HETATM    5  C   UNL     1     -10.166   7.720  66.925  1.00  0.00    -0.373 A  
HETATM    6  C   UNL     1     -10.512   6.773  67.889  1.00  0.00    -0.265 A  
HETATM    7  C   UNL     1     -10.788   7.176  69.192  1.00  0.00    -0.185 A  
HETATM    8  C   UNL     1     -10.704   8.525  69.538  1.00  0.00    -0.181 A  
HETATM    9  C   UNL     1     -10.338   9.479  68.577  1.00  0.00    -0.207 A  
ENDROOT
BRANCH   9  10
HETATM   10  O   UNL     1     -10.343  10.858  68.884  1.00  0.00    -0.188 OA 
BRANCH  10  11
HETATM   11  C   UNL     1     -11.563  11.514  68.854  1.00  0.00    -0.320 C  
HETATM   12  O   UNL     1     -12.636  10.972  69.078  1.00  0.00    -0.378 OA 
BRANCH  11  13
HETATM   13  C   UNL     1     -11.416  12.908  68.350  1.00  0.00    -0.347 A  
HETATM   14  C   UNL     1     -11.006  13.883  69.274  1.00  0.00    -0.222 A  
HETATM   15  C   UNL     1     -11.010  15.234  68.922  1.00  0.00    -0.261 A  
HETATM   16  C   UNL     1     -11.406  15.618  67.642  1.00  0.00    -0.228 A  
HETATM   17  C   UNL     1     -11.771  14.653  66.703  1.00  0.00    -0.345 A  
HETATM   18  C   UNL     1     -11.772  13.302  67.055  1.00  0.00    -0.389 A  
HETATM   19  O   UNL     1     -12.122  12.372  66.119  1.00  0.00    -0.611 OA 
HETATM   20  H   UNL     1     -12.364  12.640  65.239  1.00  0.00     0.000 HD 
ENDBRANCH  11  13
ENDBRANCH  10  11
ENDBRANCH   9  10
TORSDOF 3
ENDMDL
MODEL      150
REMARK 921   NORMALIZED FREE ENERGY PREDICTED BY IDOCK:   -4.88 KCAL/MOL
REMARK 922        TOTAL FREE ENERGY PREDICTED BY IDOCK:   -6.09 KCAL/MOL
REMARK 923 INTER-LIGAND FREE ENERGY PREDICTED BY IDOCK:   -5.30 KCAL/MOL
REMARK 924 INTRA-LIGAND FREE ENERGY PREDICTED BY IDOCK:   -0.79 KCAL/MOL
REMARK 927      BINDING AFFINITY PREDICTED BY RF-SCORE:    0.00 PKD
ROOT
HETATM    1  O   UNL     1     -10.552  12.659  68.593  1.00  0.00    -0.235 OA 
HETATM    2  C   UNL     1     -11.568  13.278  67.962  1.00  0.00    -0.336 C  
HETATM    3  C   UNL     1     -11.567  13.150  66.477  1.00  0.00    -0.402 A  
HETATM    4  O   UNL     1     -12.394  13.956  68.554  1.00  0.00    -0.272 OA 
HETATM    5  C   UNL     1     -12.172  14.192  65.759  1.00  0.00    -0.458 A  
HETATM    6  C   UNL     1     -12.277  14.133  64.369  1.00  0.00    -0.466 A  
HETATM    7  C   UNL     1     -11.789  13.026  63.682  1.00  0.00    -0.580 A  
HETATM    8  C   UNL     1     -11.182  11.982  64.380  1.00  0.00    -0.406 A  
HETATM    9  C   UNL     1     -11.057  12.045  65.776  1.00  0.00    -0.324 A  
ENDROOT
BRANCH   9  10
HETATM   10  O   UNL     1     -10.535  10.956  66.509  1.00  0.00    -0.243 OA 
BRANCH  10  11
HETATM   11  C   UNL     1      -9.194  10.653  66.335  1.00  0.00    -0.168 C  
HETATM   12  O   UNL     1      -8.295  11.479  66.392  1.00  0.00    -0.172 OA 
BRANCH  11  13
HETATM   13  C   UNL     1      -9.010   9.240  65.901  1.00  0.00    -0.225 A  
HETATM   14  C   UNL     1      -9.580   8.243  66.710  1.00  0.00    -0.288 A  
HETATM   15  C   UNL     1      -9.309   6.896  66.465  1.00  0.00    -0.197 A  
HETATM   16  C   UNL     1      -8.482   6.535  65.402  1.00  0.00    -0.119 A  
HETATM   17  C   UNL     1      -7.949   7.515  64.565  1.00  0.00    -0.122 A  
HETATM   18  C   UNL     1      -8.215   8.864  64.812  1.00  0.00    -0.163 A  
HETATM   19  O   UNL     1      -7.693   9.808  63.976  1.00  0.00    -0.122 OA 
HETATM   20  H   UNL     1      -7.153   9.553  63.237  1.00  0.00     0.000 HD 
ENDBRANCH  11  13
ENDBRANCH  10  11
ENDBRANCH   9  10
TORSDOF 3
ENDMDL
MODEL      151
REMARK 921   NORMALIZED FREE ENERGY PREDICTED BY IDOCK:   -4.86 KCAL/MOL
REMARK 922        TOTAL FREE ENERGY PREDICTED BY IDOCK:   -6.06 KCAL/MOL
REMARK 923 INTER-LIGAND FREE ENERGY PREDICTED BY IDOCK:   -5.72 KCAL/MOL
REMARK 924 INTRA-LIGAND FREE ENERGY PREDICTED BY IDOCK:   -0.34 KCAL/MOL
REMARK 927      BINDING AFFINITY PREDICTED BY RF-SCORE:    0.00 PKD
ROOT
HETATM    1  O   UNL     1     -10.754   7.224  74.251  1.00  0.00    -0.036 OA 
HETATM    2  C   UNL     1      -9.911   6.489  73.501  1.00  0.00    -0.214 C  
HETATM    3  C   UNL     1     -10.319   6.309  72.078  1.00  0.00    -0.231 A  
HETATM    4  O   UNL     1      -8.919   5.950  73.964  1.00  0.00    -0.125 OA 
HETATM    5  C   UNL     1      -9.870   5.142  71.442  1.00  0.00    -0.239 A  
HETATM    6  C   UNL     1     -10.145   4.914  70.094  1.00  0.00    -0.332 A  
HETATM    7  C   UNL     1     -10.863   5.855  69.363  1.00  0.00    -0.422 A  
HETATM    8  C   UNL     1     -11.320   7.019  69.980  1.00  0.00    -0.293 A  
HETATM    9  C   UNL     1     -11.062   7.245  71.340  1.00  0.00    -0.243 A  
ENDROOT
BRANCH   9  10
HETATM   10  O   UNL     1     -11.430   8.461  71.958  1.00  0.00    -0.301 OA 
BRANCH  10  11
HETATM   11  C   UNL     1     -12.626   9.040  71.566  1.00  0.00    -0.338 C  
HETATM   12  O   UNL     1     -13.660   8.414  71.386  1.00  0.00    -0.305 OA 
BRANCH  11  13
HETATM   13  C   UNL     1     -12.445  10.479  71.228  1.00  0.00    -0.524 A  
HETATM   14  C   UNL     1     -13.110  11.415  72.039  1.00  0.00    -0.423 A  
HETATM   15  C   UNL     1     -13.128  12.766  71.687  1.00  0.00    -0.428 A  
HETATM   16  C   UNL     1     -12.471  13.193  70.534  1.00  0.00    -0.322 A  
HETATM   17  C   UNL     1     -11.769  12.278  69.748  1.00  0.00    -0.368 A  
HETATM   18  C   UNL     1     -11.754  10.926  70.097  1.00  0.00    -0.347 A  
HETATM   19  O   UNL     1     -11.053  10.048  69.321  1.00  0.00    -0.228 OA 
HETATM   20  H   UNL     1     -10.584  10.351  68.552  1.00  0.00     0.000 HD 
ENDBRANCH  11  13
ENDBRANCH  10  11
ENDBRANCH   9  10
TORSDOF 3
ENDMDL
MODEL      152
REMARK 921   NORMALIZED FREE ENERGY PREDICTED BY IDOCK:   -4.84 KCAL/MOL
REMARK 922        TOTAL FREE ENERGY PREDICTED BY IDOCK:   -6.04 KCAL/MOL
REMARK 923 INTER-LIGAND FREE ENERGY PREDICTED BY IDOCK:   -5.13 KCAL/MOL
REMARK 924 INTRA-LIGAND FREE ENERGY PREDICTED BY IDOCK:   -0.90 KCAL/MOL
REMARK 927      BINDING AFFINITY PREDICTED BY RF-SCORE:    0.00 PKD
ROOT
HETATM    1  O   UNL     1     -11.490  12.625  67.595  1.00  0.00    -0.291 OA 
HETATM    2  C   UNL     1     -11.711  12.765  66.274  1.00  0.00    -0.402 C  
HETATM    3  C   UNL     1     -10.878  11.898  65.394  1.00  0.00    -0.343 A  
HETATM    4  O   UNL     1     -12.489  13.591  65.822  1.00  0.00    -0.457 OA 
HETATM    5  C   UNL     1     -10.616  12.384  64.105  1.00  0.00    -0.414 A  
HETATM    6  C   UNL     1      -9.899  11.618  63.186  1.00  0.00    -0.407 A  
HETATM    7  C   UNL     1      -9.445  10.352  63.541  1.00  0.00    -0.356 A  
HETATM    8  C   UNL     1      -9.694   9.854  64.820  1.00  0.00    -0.305 A  
HETATM    9  C   UNL     1     -10.398  10.628  65.754  1.00  0.00    -0.219 A  
ENDROOT
BRANCH   9  10
HETATM   10  O   UNL     1     -10.745  10.104  67.019  1.00  0.00    -0.244 OA 
BRANCH  10  11
HETATM   11  C   UNL     1     -10.248   8.853  67.351  1.00  0.00    -0.249 C  
HETATM   12  O   UNL     1     -10.827   7.804  67.110  1.00  0.00    -0.313 OA 
BRANCH  11  13
HETATM   13  C   UNL     1      -9.018   8.962  68.183  1.00  0.00    -0.137 A  
HETATM   14  C   UNL     1      -7.987   8.044  67.923  1.00  0.00    -0.128 A  
HETATM   15  C   UNL     1      -6.878   7.972  68.768  1.00  0.00    -0.062 A  
HETATM   16  C   UNL     1      -6.783   8.825  69.866  1.00  0.00    -0.045 A  
HETATM   17  C   UNL     1      -7.780   9.771  70.106  1.00  0.00    -0.188 A  
HETATM   18  C   UNL     1      -8.892   9.841  69.264  1.00  0.00    -0.169 A  
HETATM   19  O   UNL     1      -9.852  10.782  69.508  1.00  0.00    -0.406 OA 
HETATM   20  H   UNL     1      -9.767  11.379  70.243  1.00  0.00     0.000 HD 
ENDBRANCH  11  13
ENDBRANCH  10  11
ENDBRANCH   9  10
TORSDOF 3
ENDMDL
MODEL      153
REMARK 921   NORMALIZED FREE ENERGY PREDICTED BY IDOCK:   -4.84 KCAL/MOL
REMARK 922        TOTAL FREE ENERGY PREDICTED BY IDOCK:   -6.04 KCAL/MOL
REMARK 923 INTER-LIGAND FREE ENERGY PREDICTED BY IDOCK:   -4.69 KCAL/MOL
REMARK 924 INTRA-LIGAND FREE ENERGY PREDICTED BY IDOCK:   -1.35 KCAL/MOL
REMARK 927      BINDING AFFINITY PREDICTED BY RF-SCORE:    0.00 PKD
ROOT
HETATM    1  O   UNL     1      -7.463  12.272  68.832  1.00  0.00    -0.095 OA 
HETATM    2  C   UNL     1      -7.158  12.131  67.528  1.00  0.00    -0.135 C  
HETATM    3  C   UNL     1      -7.968  11.120  66.790  1.00  0.00    -0.156 A  
HETATM    4  O   UNL     1      -6.240  12.737  66.998  1.00  0.00    -0.252 OA 
HETATM    5  C   UNL     1      -7.354  10.512  65.685  1.00  0.00    -0.126 A  
HETATM    6  C   UNL     1      -8.052   9.600  64.894  1.00  0.00    -0.133 A  
HETATM    7  C   UNL     1      -9.376   9.294  65.191  1.00  0.00    -0.239 A  
HETATM    8  C   UNL     1     -10.002   9.887  66.287  1.00  0.00    -0.322 A  
HETATM    9  C   UNL     1      -9.298  10.791  67.097  1.00  0.00    -0.155 A  
ENDROOT
BRANCH   9  10
HETATM   10  O   UNL     1      -9.943  11.475  68.152  1.00  0.00    -0.180 OA 
BRANCH  10  11
HETATM   11  C   UNL     1     -11.097  12.177  67.847  1.00  0.00    -0.245 C  
HETATM   12  O   UNL     1     -12.226  11.760  68.061  1.00  0.00    -0.518 OA 
BRANCH  11  13
HETATM   13  C   UNL     1     -10.791  13.413  67.074  1.00  0.00    -0.280 A  
HETATM   14  C   UNL     1     -11.329  13.507  65.779  1.00  0.00    -0.318 A  
HETATM   15  C   UNL     1     -10.950  14.551  64.933  1.00  0.00    -0.421 A  
HETATM   16  C   UNL     1     -10.046  15.515  65.379  1.00  0.00    -0.387 A  
HETATM   17  C   UNL     1      -9.543  15.455  66.679  1.00  0.00    -0.276 A  
HETATM   18  C   UNL     1      -9.917  14.409  67.524  1.00  0.00    -0.224 A  
HETATM   19  O   UNL     1      -9.423  14.374  68.797  1.00  0.00    -0.224 OA 
HETATM   20  H   UNL     1      -8.829  15.050  69.102  1.00  0.00     0.000 HD 
ENDBRANCH  11  13
ENDBRANCH  10  11
ENDBRANCH   9  10
TORSDOF 3
ENDMDL
MODEL      154
REMARK 921   NORMALIZED FREE ENERGY PREDICTED BY IDOCK:   -4.82 KCAL/MOL
REMARK 922        TOTAL FREE ENERGY PREDICTED BY IDOCK:   -6.01 KCAL/MOL
REMARK 923 INTER-LIGAND FREE ENERGY PREDICTED BY IDOCK:   -4.86 KCAL/MOL
REMARK 924 INTRA-LIGAND FREE ENERGY PREDICTED BY IDOCK:   -1.15 KCAL/MOL
REMARK 927      BINDING AFFINITY PREDICTED BY RF-SCORE:    0.00 PKD
ROOT
HETATM    1  O   UNL     1     -10.767  12.653  68.740  1.00  0.00    -0.235 OA 
HETATM    2  C   UNL     1     -11.592  13.304  67.898  1.00  0.00    -0.334 C  
HETATM    3  C   UNL     1     -11.441  12.947  66.458  1.00  0.00    -0.390 A  
HETATM    4  O   UNL     1     -12.362  14.174  68.272  1.00  0.00    -0.246 OA 
HETATM    5  C   UNL     1     -11.786  13.939  65.528  1.00  0.00    -0.356 A  
HETATM    6  C   UNL     1     -11.739  13.680  64.159  1.00  0.00    -0.424 A  
HETATM    7  C   UNL     1     -11.358  12.422  63.702  1.00  0.00    -0.556 A  
HETATM    8  C   UNL     1     -11.009  11.424  64.613  1.00  0.00    -0.324 A  
HETATM    9  C   UNL     1     -11.037  11.686  65.991  1.00  0.00    -0.270 A  
ENDROOT
BRANCH   9  10
HETATM   10  O   UNL     1     -10.782  10.662  66.930  1.00  0.00    -0.257 OA 
BRANCH  10  11
HETATM   11  C   UNL     1      -9.710   9.820  66.683  1.00  0.00    -0.201 C  
HETATM   12  O   UNL     1      -9.822   8.677  66.265  1.00  0.00    -0.267 OA 
BRANCH  11  13
HETATM   13  C   UNL     1      -8.430  10.421  67.151  1.00  0.00    -0.126 A  
HETATM   14  C   UNL     1      -7.435  10.643  66.184  1.00  0.00    -0.138 A  
HETATM   15  C   UNL     1      -6.154  11.043  66.569  1.00  0.00    -0.134 A  
HETATM   16  C   UNL     1      -5.863  11.239  67.918  1.00  0.00    -0.043 A  
HETATM   17  C   UNL     1      -6.857  11.066  68.882  1.00  0.00    -0.079 A  
HETATM   18  C   UNL     1      -8.137  10.661  68.498  1.00  0.00    -0.125 A  
HETATM   19  O   UNL     1      -9.099  10.507  69.455  1.00  0.00    -0.356 OA 
HETATM   20  H   UNL     1      -8.900  10.670  70.370  1.00  0.00     0.000 HD 
ENDBRANCH  11  13
ENDBRANCH  10  11
ENDBRANCH   9  10
TORSDOF 3
ENDMDL
MODEL      155
REMARK 921   NORMALIZED FREE ENERGY PREDICTED BY IDOCK:   -4.80 KCAL/MOL
REMARK 922        TOTAL FREE ENERGY PREDICTED BY IDOCK:   -6.00 KCAL/MOL
REMARK 923 INTER-LIGAND FREE ENERGY PREDICTED BY IDOCK:   -5.38 KCAL/MOL
REMARK 924 INTRA-LIGAND FREE ENERGY PREDICTED BY IDOCK:   -0.61 KCAL/MOL
REMARK 927      BINDING AFFINITY PREDICTED BY RF-SCORE:    0.00 PKD
ROOT
HETATM    1  O   UNL     1     -12.052  13.991  67.456  1.00  0.00    -0.391 OA 
HETATM    2  C   UNL     1     -11.745  13.956  68.767  1.00  0.00    -0.357 C  
HETATM    3  C   UNL     1     -12.051  12.671  69.458  1.00  0.00    -0.253 A  
HETATM    4  O   UNL     1     -11.310  14.927  69.366  1.00  0.00    -0.259 OA 
HETATM    5  C   UNL     1     -12.325  12.750  70.831  1.00  0.00    -0.356 A  
HETATM    6  C   UNL     1     -12.561  11.596  71.579  1.00  0.00    -0.341 A  
HETATM    7  C   UNL     1     -12.514  10.348  70.964  1.00  0.00    -0.488 A  
HETATM    8  C   UNL     1     -12.246  10.252  69.599  1.00  0.00    -0.024 A  
HETATM    9  C   UNL     1     -12.027  11.411  68.839  1.00  0.00    -0.304 A  
ENDROOT
BRANCH   9  10
HETATM   10  O   UNL     1     -11.658  11.329  67.478  1.00  0.00    -0.508 OA 
BRANCH  10  11
HETATM   11  C   UNL     1     -10.403  10.820  67.185  1.00  0.00    -0.224 C  
HETATM   12  O   UNL     1      -9.567  10.537  68.032  1.00  0.00    -0.145 OA 
BRANCH  11  13
HETATM   13  C   UNL     1     -10.143  10.829  65.719  1.00  0.00    -0.320 A  
HETATM   14  C   UNL     1     -11.103  11.452  64.903  1.00  0.00    -0.235 A  
HETATM   15  C   UNL     1     -11.017  11.354  63.513  1.00  0.00    -0.406 A  
HETATM   16  C   UNL     1      -9.966  10.648  62.929  1.00  0.00    -0.185 A  
HETATM   17  C   UNL     1      -8.983  10.065  63.730  1.00  0.00    -0.274 A  
HETATM   18  C   UNL     1      -9.070  10.159  65.121  1.00  0.00    -0.201 A  
HETATM   19  O   UNL     1      -8.093   9.591  65.887  1.00  0.00    -0.112 OA 
HETATM   20  H   UNL     1      -7.364   9.136  65.481  1.00  0.00     0.000 HD 
ENDBRANCH  11  13
ENDBRANCH  10  11
ENDBRANCH   9  10
TORSDOF 3
ENDMDL
MODEL      156
REMARK 921   NORMALIZED FREE ENERGY PREDICTED BY IDOCK:   -4.80 KCAL/MOL
REMARK 922        TOTAL FREE ENERGY PREDICTED BY IDOCK:   -6.00 KCAL/MOL
REMARK 923 INTER-LIGAND FREE ENERGY PREDICTED BY IDOCK:   -5.31 KCAL/MOL
REMARK 924 INTRA-LIGAND FREE ENERGY PREDICTED BY IDOCK:   -0.69 KCAL/MOL
REMARK 927      BINDING AFFINITY PREDICTED BY RF-SCORE:    0.00 PKD
ROOT
HETATM    1  O   UNL     1     -10.592   6.311  69.105  1.00  0.00    -0.210 OA 
HETATM    2  C   UNL     1     -10.290   5.428  70.077  1.00  0.00    -0.296 C  
HETATM    3  C   UNL     1     -10.121   6.014  71.437  1.00  0.00    -0.236 A  
HETATM    4  O   UNL     1     -10.101   4.243  69.853  1.00  0.00    -0.194 OA 
HETATM    5  C   UNL     1      -9.266   5.327  72.311  1.00  0.00    -0.153 A  
HETATM    6  C   UNL     1      -9.092   5.760  73.626  1.00  0.00    -0.127 A  
HETATM    7  C   UNL     1      -9.781   6.879  74.085  1.00  0.00    -0.331 A  
HETATM    8  C   UNL     1     -10.633   7.575  73.228  1.00  0.00    -0.438 A  
HETATM    9  C   UNL     1     -10.796   7.155  71.900  1.00  0.00    -0.226 A  
ENDROOT
BRANCH   9  10
HETATM   10  O   UNL     1     -11.728   7.787  71.047  1.00  0.00    -0.284 OA 
BRANCH  10  11
HETATM   11  C   UNL     1     -11.771   9.172  71.063  1.00  0.00    -0.301 C  
HETATM   12  O   UNL     1     -12.571   9.822  71.721  1.00  0.00    -0.373 OA 
BRANCH  11  13
HETATM   13  C   UNL     1     -10.845   9.755  70.053  1.00  0.00    -0.319 A  
HETATM   14  C   UNL     1      -9.468   9.575  70.269  1.00  0.00    -0.307 A  
HETATM   15  C   UNL     1      -8.537  10.233  69.464  1.00  0.00    -0.153 A  
HETATM   16  C   UNL     1      -8.972  11.060  68.429  1.00  0.00    -0.158 A  
HETATM   17  C   UNL     1     -10.337  11.208  68.179  1.00  0.00    -0.207 A  
HETATM   18  C   UNL     1     -11.270  10.555  68.986  1.00  0.00    -0.259 A  
HETATM   19  O   UNL     1     -12.600  10.704  68.718  1.00  0.00    -0.733 OA 
HETATM   20  H   UNL     1     -12.889  11.247  67.994  1.00  0.00     0.000 HD 
ENDBRANCH  11  13
ENDBRANCH  10  11
ENDBRANCH   9  10
TORSDOF 3
ENDMDL
MODEL      157
REMARK 921   NORMALIZED FREE ENERGY PREDICTED BY IDOCK:   -4.80 KCAL/MOL
REMARK 922        TOTAL FREE ENERGY PREDICTED BY IDOCK:   -5.99 KCAL/MOL
REMARK 923 INTER-LIGAND FREE ENERGY PREDICTED BY IDOCK:   -5.27 KCAL/MOL
REMARK 924 INTRA-LIGAND FREE ENERGY PREDICTED BY IDOCK:   -0.73 KCAL/MOL
REMARK 927      BINDING AFFINITY PREDICTED BY RF-SCORE:    0.00 PKD
ROOT
HETATM    1  O   UNL     1      -7.312  10.877  68.508  1.00  0.00    -0.087 OA 
HETATM    2  C   UNL     1      -8.295  10.047  68.906  1.00  0.00    -0.130 C  
HETATM    3  C   UNL     1      -9.644  10.671  69.027  1.00  0.00    -0.207 A  
HETATM    4  O   UNL     1      -8.090   8.884  69.213  1.00  0.00    -0.104 OA 
HETATM    5  C   UNL     1     -10.521  10.090  69.955  1.00  0.00    -0.337 A  
HETATM    6  C   UNL     1     -11.826  10.561  70.096  1.00  0.00    -0.404 A  
HETATM    7  C   UNL     1     -12.274  11.613  69.302  1.00  0.00    -0.228 A  
HETATM    8  C   UNL     1     -11.415  12.204  68.376  1.00  0.00    -0.356 A  
HETATM    9  C   UNL     1     -10.095  11.746  68.244  1.00  0.00    -0.197 A  
ENDROOT
BRANCH   9  10
HETATM   10  O   UNL     1      -9.242  12.266  67.246  1.00  0.00    -0.174 OA 
BRANCH  10  11
HETATM   11  C   UNL     1      -9.340  11.723  65.975  1.00  0.00    -0.220 C  
HETATM   12  O   UNL     1      -8.526  10.946  65.499  1.00  0.00    -0.172 OA 
BRANCH  11  13
HETATM   13  C   UNL     1     -10.460  12.338  65.209  1.00  0.00    -0.315 A  
HETATM   14  C   UNL     1     -11.264  11.473  64.446  1.00  0.00    -0.327 A  
HETATM   15  C   UNL     1     -12.222  11.990  63.572  1.00  0.00    -0.653 A  
HETATM   16  C   UNL     1     -12.395  13.369  63.465  1.00  0.00    -0.398 A  
HETATM   17  C   UNL     1     -11.633  14.233  64.252  1.00  0.00    -0.299 A  
HETATM   18  C   UNL     1     -10.671  13.718  65.124  1.00  0.00    -0.358 A  
HETATM   19  O   UNL     1      -9.943  14.580  65.893  1.00  0.00    -0.299 OA 
HETATM   20  H   UNL     1     -10.087  15.517  65.836  1.00  0.00     0.000 HD 
ENDBRANCH  11  13
ENDBRANCH  10  11
ENDBRANCH   9  10
TORSDOF 3
ENDMDL
MODEL      158
REMARK 921   NORMALIZED FREE ENERGY PREDICTED BY IDOCK:   -4.79 KCAL/MOL
REMARK 922        TOTAL FREE ENERGY PREDICTED BY IDOCK:   -5.98 KCAL/MOL
REMARK 923 INTER-LIGAND FREE ENERGY PREDICTED BY IDOCK:   -5.17 KCAL/MOL
REMARK 924 INTRA-LIGAND FREE ENERGY PREDICTED BY IDOCK:   -0.82 KCAL/MOL
REMARK 927      BINDING AFFINITY PREDICTED BY RF-SCORE:    0.00 PKD
ROOT
HETATM    1  O   UNL     1     -10.436  18.904  68.056  1.00  0.00    -0.385 OA 
HETATM    2  C   UNL     1      -9.239  19.210  67.522  1.00  0.00    -0.296 C  
HETATM    3  C   UNL     1      -8.197  18.152  67.648  1.00  0.00    -0.243 A  
HETATM    4  O   UNL     1      -8.999  20.301  67.028  1.00  0.00    -0.341 OA 
HETATM    5  C   UNL     1      -6.864  18.588  67.678  1.00  0.00    -0.206 A  
HETATM    6  C   UNL     1      -5.814  17.671  67.731  1.00  0.00    -0.146 A  
HETATM    7  C   UNL     1      -6.085  16.306  67.743  1.00  0.00    -0.153 A  
HETATM    8  C   UNL     1      -7.405  15.855  67.717  1.00  0.00    -0.162 A  
HETATM    9  C   UNL     1      -8.464  16.774  67.682  1.00  0.00    -0.190 A  
ENDROOT
BRANCH   9  10
HETATM   10  O   UNL     1      -9.802  16.337  67.556  1.00  0.00    -0.233 OA 
BRANCH  10  11
HETATM   11  C   UNL     1     -10.086  15.435  66.545  1.00  0.00    -0.271 C  
HETATM   12  O   UNL     1      -9.945  15.676  65.355  1.00  0.00    -0.331 OA 
BRANCH  11  13
HETATM   13  C   UNL     1     -10.744  14.211  67.080  1.00  0.00    -0.280 A  
HETATM   14  C   UNL     1     -10.847  14.099  68.477  1.00  0.00    -0.264 A  
HETATM   15  C   UNL     1     -11.295  12.911  69.059  1.00  0.00    -0.341 A  
HETATM   16  C   UNL     1     -11.657  11.835  68.251  1.00  0.00    -0.373 A  
HETATM   17  C   UNL     1     -11.602  11.952  66.861  1.00  0.00    -0.358 A  
HETATM   18  C   UNL     1     -11.150  13.138  66.279  1.00  0.00    -0.287 A  
HETATM   19  O   UNL     1     -11.113  13.237  64.917  1.00  0.00    -0.306 OA 
HETATM   20  H   UNL     1     -11.389  12.509  64.373  1.00  0.00     0.000 HD 
ENDBRANCH  11  13
ENDBRANCH  10  11
ENDBRANCH   9  10
TORSDOF 3
ENDMDL
MODEL      159
REMARK 921   NORMALIZED FREE ENERGY PREDICTED BY IDOCK:   -4.78 KCAL/MOL
REMARK 922        TOTAL FREE ENERGY PREDICTED BY IDOCK:   -5.96 KCAL/MOL
REMARK 923 INTER-LIGAND FREE ENERGY PREDICTED BY IDOCK:   -5.90 KCAL/MOL
REMARK 924 INTRA-LIGAND FREE ENERGY PREDICTED BY IDOCK:   -0.06 KCAL/MOL
REMARK 927      BINDING AFFINITY PREDICTED BY RF-SCORE:    0.00 PKD
ROOT
HETATM    1  O   UNL     1     -10.699  16.423  65.025  1.00  0.00    -0.638 OA 
HETATM    2  C   UNL     1     -11.374  15.393  64.480  1.00  0.00    -0.313 C  
HETATM    3  C   UNL     1     -10.846  14.039  64.813  1.00  0.00    -0.430 A  
HETATM    4  O   UNL     1     -12.309  15.553  63.712  1.00  0.00    -0.606 OA 
HETATM    5  C   UNL     1     -11.079  13.028  63.869  1.00  0.00    -0.411 A  
HETATM    6  C   UNL     1     -10.680  11.714  64.118  1.00  0.00    -0.418 A  
HETATM    7  C   UNL     1     -10.054  11.394  65.319  1.00  0.00    -0.315 A  
HETATM    8  C   UNL     1      -9.811  12.388  66.267  1.00  0.00    -0.257 A  
HETATM    9  C   UNL     1     -10.194  13.714  66.014  1.00  0.00    -0.307 A  
ENDROOT
BRANCH   9  10
HETATM   10  O   UNL     1     -10.046  14.714  67.000  1.00  0.00    -0.245 OA 
BRANCH  10  11
HETATM   11  C   UNL     1      -8.923  14.653  67.809  1.00  0.00    -0.181 C  
HETATM   12  O   UNL     1      -8.439  13.611  68.227  1.00  0.00    -0.161 OA 
BRANCH  11  13
HETATM   13  C   UNL     1      -8.492  16.012  68.241  1.00  0.00    -0.177 A  
HETATM   14  C   UNL     1      -9.432  17.049  68.121  1.00  0.00    -0.262 A  
HETATM   15  C   UNL     1      -9.052  18.374  68.343  1.00  0.00    -0.340 A  
HETATM   16  C   UNL     1      -7.738  18.670  68.701  1.00  0.00    -0.344 A  
HETATM   17  C   UNL     1      -6.809  17.642  68.867  1.00  0.00    -0.243 A  
HETATM   18  C   UNL     1      -7.186  16.317  68.640  1.00  0.00    -0.166 A  
HETATM   19  O   UNL     1      -6.266  15.324  68.818  1.00  0.00    -0.089 OA 
HETATM   20  H   UNL     1      -5.379  15.532  69.090  1.00  0.00     0.000 HD 
ENDBRANCH  11  13
ENDBRANCH  10  11
ENDBRANCH   9  10
TORSDOF 3
ENDMDL
MODEL      160
REMARK 921   NORMALIZED FREE ENERGY PREDICTED BY IDOCK:   -4.77 KCAL/MOL
REMARK 922        TOTAL FREE ENERGY PREDICTED BY IDOCK:   -5.96 KCAL/MOL
REMARK 923 INTER-LIGAND FREE ENERGY PREDICTED BY IDOCK:   -4.87 KCAL/MOL
REMARK 924 INTRA-LIGAND FREE ENERGY PREDICTED BY IDOCK:   -1.09 KCAL/MOL
REMARK 927      BINDING AFFINITY PREDICTED BY RF-SCORE:    0.00 PKD
ROOT
HETATM    1  O   UNL     1      -8.390   7.611  68.532  1.00  0.00    -0.127 OA 
HETATM    2  C   UNL     1      -9.353   6.687  68.707  1.00  0.00    -0.131 C  
HETATM    3  C   UNL     1      -9.202   5.832  69.919  1.00  0.00    -0.166 A  
HETATM    4  O   UNL     1     -10.251   6.511  67.897  1.00  0.00    -0.143 OA 
HETATM    5  C   UNL     1      -9.760   4.546  69.850  1.00  0.00    -0.288 A  
HETATM    6  C   UNL     1      -9.726   3.695  70.954  1.00  0.00    -0.229 A  
HETATM    7  C   UNL     1      -9.145   4.123  72.144  1.00  0.00    -0.156 A  
HETATM    8  C   UNL     1      -8.583   5.397  72.229  1.00  0.00    -0.126 A  
HETATM    9  C   UNL     1      -8.598   6.250  71.115  1.00  0.00    -0.125 A  
ENDROOT
BRANCH   9  10
HETATM   10  O   UNL     1      -8.123   7.577  71.210  1.00  0.00    -0.094 OA 
BRANCH  10  11
HETATM   11  C   UNL     1      -8.654   8.376  72.211  1.00  0.00    -0.197 C  
HETATM   12  O   UNL     1      -8.077   8.632  73.257  1.00  0.00    -0.408 OA 
BRANCH  11  13
HETATM   13  C   UNL     1     -10.071   8.732  71.924  1.00  0.00    -0.409 A  
HETATM   14  C   UNL     1     -10.310   9.567  70.819  1.00  0.00    -0.377 A  
HETATM   15  C   UNL     1     -11.587  10.082  70.588  1.00  0.00    -0.422 A  
HETATM   16  C   UNL     1     -12.635   9.754  71.446  1.00  0.00    -0.482 A  
HETATM   17  C   UNL     1     -12.418   8.889  72.519  1.00  0.00    -0.344 A  
HETATM   18  C   UNL     1     -11.140   8.378  72.755  1.00  0.00    -0.131 A  
HETATM   19  O   UNL     1     -10.949   7.524  73.803  1.00  0.00    -0.514 OA 
HETATM   20  H   UNL     1     -11.675   7.283  74.368  1.00  0.00     0.000 HD 
ENDBRANCH  11  13
ENDBRANCH  10  11
ENDBRANCH   9  10
TORSDOF 3
ENDMDL
MODEL      161
REMARK 921   NORMALIZED FREE ENERGY PREDICTED BY IDOCK:   -4.76 KCAL/MOL
REMARK 922        TOTAL FREE ENERGY PREDICTED BY IDOCK:   -5.95 KCAL/MOL
REMARK 923 INTER-LIGAND FREE ENERGY PREDICTED BY IDOCK:   -5.24 KCAL/MOL
REMARK 924 INTRA-LIGAND FREE ENERGY PREDICTED BY IDOCK:   -0.70 KCAL/MOL
REMARK 927      BINDING AFFINITY PREDICTED BY RF-SCORE:    0.00 PKD
ROOT
HETATM    1  O   UNL     1      -7.220  13.420  67.013  1.00  0.00     0.042 OA 
HETATM    2  C   UNL     1      -7.230  14.013  68.222  1.00  0.00    -0.114 C  
HETATM    3  C   UNL     1      -7.132  15.501  68.202  1.00  0.00    -0.126 A  
HETATM    4  O   UNL     1      -7.249  13.379  69.265  1.00  0.00    -0.022 OA 
HETATM    5  C   UNL     1      -6.553  16.104  69.328  1.00  0.00    -0.189 A  
HETATM    6  C   UNL     1      -6.474  17.493  69.431  1.00  0.00    -0.230 A  
HETATM    7  C   UNL     1      -6.984  18.295  68.415  1.00  0.00    -0.251 A  
HETATM    8  C   UNL     1      -7.561  17.711  67.287  1.00  0.00    -0.217 A  
HETATM    9  C   UNL     1      -7.626  16.315  67.170  1.00  0.00    -0.195 A  
ENDROOT
BRANCH   9  10
HETATM   10  O   UNL     1      -8.292  15.707  66.083  1.00  0.00    -0.196 OA 
BRANCH  10  11
HETATM   11  C   UNL     1      -9.634  16.005  65.909  1.00  0.00    -0.335 C  
HETATM   12  O   UNL     1     -10.054  17.113  65.607  1.00  0.00    -0.561 OA 
BRANCH  11  13
HETATM   13  C   UNL     1     -10.499  14.859  66.305  1.00  0.00    -0.306 A  
HETATM   14  C   UNL     1     -11.113  14.926  67.567  1.00  0.00    -0.319 A  
HETATM   15  C   UNL     1     -11.797  13.821  68.078  1.00  0.00    -0.408 A  
HETATM   16  C   UNL     1     -11.887  12.650  67.327  1.00  0.00    -0.395 A  
HETATM   17  C   UNL     1     -11.320  12.590  66.053  1.00  0.00    -0.386 A  
HETATM   18  C   UNL     1     -10.631  13.692  65.543  1.00  0.00    -0.296 A  
HETATM   19  O   UNL     1     -10.093  13.617  64.290  1.00  0.00    -0.738 OA 
HETATM   20  H   UNL     1     -10.183  12.825  63.773  1.00  0.00     0.000 HD 
ENDBRANCH  11  13
ENDBRANCH  10  11
ENDBRANCH   9  10
TORSDOF 3
ENDMDL
MODEL      162
REMARK 921   NORMALIZED FREE ENERGY PREDICTED BY IDOCK:   -4.76 KCAL/MOL
REMARK 922        TOTAL FREE ENERGY PREDICTED BY IDOCK:   -5.94 KCAL/MOL
REMARK 923 INTER-LIGAND FREE ENERGY PREDICTED BY IDOCK:   -5.13 KCAL/MOL
REMARK 924 INTRA-LIGAND FREE ENERGY PREDICTED BY IDOCK:   -0.81 KCAL/MOL
REMARK 927      BINDING AFFINITY PREDICTED BY RF-SCORE:    0.00 PKD
ROOT
HETATM    1  O   UNL     1     -12.038   7.821  72.290  1.00  0.00    -0.311 OA 
HETATM    2  C   UNL     1     -10.983   6.992  72.178  1.00  0.00    -0.234 C  
HETATM    3  C   UNL     1     -10.688   6.520  70.795  1.00  0.00    -0.290 A  
HETATM    4  O   UNL     1     -10.352   6.597  73.146  1.00  0.00    -0.199 OA 
HETATM    5  C   UNL     1     -10.056   5.273  70.682  1.00  0.00    -0.310 A  
HETATM    6  C   UNL     1      -9.681   4.774  69.434  1.00  0.00    -0.266 A  
HETATM    7  C   UNL     1      -9.923   5.522  68.286  1.00  0.00    -0.201 A  
HETATM    8  C   UNL     1     -10.553   6.763  68.381  1.00  0.00    -0.270 A  
HETATM    9  C   UNL     1     -10.949   7.260  69.631  1.00  0.00    -0.186 A  
ENDROOT
BRANCH   9  10
HETATM   10  O   UNL     1     -11.498   8.556  69.757  1.00  0.00     0.029 OA 
BRANCH  10  11
HETATM   11  C   UNL     1     -10.628   9.630  69.674  1.00  0.00    -0.233 C  
HETATM   12  O   UNL     1      -9.714   9.831  70.461  1.00  0.00    -0.249 OA 
BRANCH  11  13
HETATM   13  C   UNL     1     -11.052  10.590  68.617  1.00  0.00    -0.319 A  
HETATM   14  C   UNL     1     -10.796  10.227  67.284  1.00  0.00    -0.312 A  
HETATM   15  C   UNL     1     -11.008  11.142  66.251  1.00  0.00    -0.227 A  
HETATM   16  C   UNL     1     -11.491  12.418  66.540  1.00  0.00    -0.427 A  
HETATM   17  C   UNL     1     -11.791  12.771  67.856  1.00  0.00    -0.392 A  
HETATM   18  C   UNL     1     -11.575  11.858  68.890  1.00  0.00    -0.311 A  
HETATM   19  O   UNL     1     -11.885  12.219  70.170  1.00  0.00    -0.425 OA 
HETATM   20  H   UNL     1     -12.240  13.081  70.356  1.00  0.00     0.000 HD 
ENDBRANCH  11  13
ENDBRANCH  10  11
ENDBRANCH   9  10
TORSDOF 3
ENDMDL
MODEL      163
REMARK 921   NORMALIZED FREE ENERGY PREDICTED BY IDOCK:   -4.76 KCAL/MOL
REMARK 922        TOTAL FREE ENERGY PREDICTED BY IDOCK:   -5.94 KCAL/MOL
REMARK 923 INTER-LIGAND FREE ENERGY PREDICTED BY IDOCK:   -5.69 KCAL/MOL
REMARK 924 INTRA-LIGAND FREE ENERGY PREDICTED BY IDOCK:   -0.25 KCAL/MOL
REMARK 927      BINDING AFFINITY PREDICTED BY RF-SCORE:    0.00 PKD
ROOT
HETATM    1  O   UNL     1     -12.436  12.356  65.590  1.00  0.00    -0.640 OA 
HETATM    2  C   UNL     1     -11.869  13.404  66.219  1.00  0.00    -0.394 C  
HETATM    3  C   UNL     1     -11.915  13.353  67.708  1.00  0.00    -0.363 A  
HETATM    4  O   UNL     1     -11.409  14.361  65.617  1.00  0.00    -0.318 OA 
HETATM    5  C   UNL     1     -11.912  14.587  68.375  1.00  0.00    -0.309 A  
HETATM    6  C   UNL     1     -11.890  14.644  69.769  1.00  0.00    -0.366 A  
HETATM    7  C   UNL     1     -11.859  13.467  70.511  1.00  0.00    -0.254 A  
HETATM    8  C   UNL     1     -11.865  12.232  69.864  1.00  0.00    -0.383 A  
HETATM    9  C   UNL     1     -11.906  12.169  68.463  1.00  0.00    -0.310 A  
ENDROOT
BRANCH   9  10
HETATM   10  O   UNL     1     -11.813  10.932  67.787  1.00  0.00    -0.579 OA 
BRANCH  10  11
HETATM   11  C   UNL     1     -10.871  10.025  68.243  1.00  0.00    -0.241 C  
HETATM   12  O   UNL     1     -10.791   9.647  69.403  1.00  0.00    -0.224 OA 
BRANCH  11  13
HETATM   13  C   UNL     1      -9.870   9.707  67.186  1.00  0.00    -0.238 A  
HETATM   14  C   UNL     1     -10.173  10.115  65.876  1.00  0.00    -0.281 A  
HETATM   15  C   UNL     1      -9.371   9.707  64.808  1.00  0.00    -0.286 A  
HETATM   16  C   UNL     1      -8.256   8.904  65.042  1.00  0.00    -0.154 A  
HETATM   17  C   UNL     1      -7.922   8.532  66.345  1.00  0.00    -0.099 A  
HETATM   18  C   UNL     1      -8.725   8.935  67.413  1.00  0.00    -0.125 A  
HETATM   19  O   UNL     1      -8.376   8.570  68.682  1.00  0.00    -0.121 OA 
HETATM   20  H   UNL     1      -7.598   8.046  68.836  1.00  0.00     0.000 HD 
ENDBRANCH  11  13
ENDBRANCH  10  11
ENDBRANCH   9  10
TORSDOF 3
ENDMDL
MODEL      164
REMARK 921   NORMALIZED FREE ENERGY PREDICTED BY IDOCK:   -4.75 KCAL/MOL
REMARK 922        TOTAL FREE ENERGY PREDICTED BY IDOCK:   -5.93 KCAL/MOL
REMARK 923 INTER-LIGAND FREE ENERGY PREDICTED BY IDOCK:   -4.61 KCAL/MOL
REMARK 924 INTRA-LIGAND FREE ENERGY PREDICTED BY IDOCK:   -1.32 KCAL/MOL
REMARK 927      BINDING AFFINITY PREDICTED BY RF-SCORE:    0.00 PKD
ROOT
HETATM    1  O   UNL     1     -10.306   8.725  66.764  1.00  0.00    -0.279 OA 
HETATM    2  C   UNL     1      -9.621   9.320  65.769  1.00  0.00    -0.271 C  
HETATM    3  C   UNL     1     -10.187  10.616  65.294  1.00  0.00    -0.351 A  
HETATM    4  O   UNL     1      -8.647   8.807  65.242  1.00  0.00    -0.170 OA 
HETATM    5  C   UNL     1      -9.924  10.961  63.961  1.00  0.00    -0.403 A  
HETATM    6  C   UNL     1     -10.355  12.182  63.442  1.00  0.00    -0.438 A  
HETATM    7  C   UNL     1     -11.046  13.077  64.254  1.00  0.00    -0.418 A  
HETATM    8  C   UNL     1     -11.318  12.747  65.582  1.00  0.00    -0.354 A  
HETATM    9  C   UNL     1     -10.902  11.513  66.103  1.00  0.00    -0.278 A  
ENDROOT
BRANCH   9  10
HETATM   10  O   UNL     1     -11.082  11.203  67.469  1.00  0.00    -0.254 OA 
BRANCH  10  11
HETATM   11  C   UNL     1     -10.608  12.114  68.399  1.00  0.00    -0.226 C  
HETATM   12  O   UNL     1     -11.324  12.867  69.043  1.00  0.00    -0.261 OA 
BRANCH  11  13
HETATM   13  C   UNL     1      -9.120  12.179  68.384  1.00  0.00    -0.151 A  
HETATM   14  C   UNL     1      -8.537  13.407  68.031  1.00  0.00    -0.174 A  
HETATM   15  C   UNL     1      -7.158  13.501  67.830  1.00  0.00    -0.140 A  
HETATM   16  C   UNL     1      -6.353  12.375  67.995  1.00  0.00    -0.082 A  
HETATM   17  C   UNL     1      -6.918  11.162  68.390  1.00  0.00    -0.072 A  
HETATM   18  C   UNL     1      -8.297  11.065  68.587  1.00  0.00    -0.153 A  
HETATM   19  O   UNL     1      -8.830   9.872  68.984  1.00  0.00    -0.138 OA 
HETATM   20  H   UNL     1      -8.270   9.116  69.122  1.00  0.00     0.000 HD 
ENDBRANCH  11  13
ENDBRANCH  10  11
ENDBRANCH   9  10
TORSDOF 3
ENDMDL
MODEL      165
REMARK 921   NORMALIZED FREE ENERGY PREDICTED BY IDOCK:   -4.74 KCAL/MOL
REMARK 922        TOTAL FREE ENERGY PREDICTED BY IDOCK:   -5.93 KCAL/MOL
REMARK 923 INTER-LIGAND FREE ENERGY PREDICTED BY IDOCK:   -5.31 KCAL/MOL
REMARK 924 INTRA-LIGAND FREE ENERGY PREDICTED BY IDOCK:   -0.62 KCAL/MOL
REMARK 927      BINDING AFFINITY PREDICTED BY RF-SCORE:    0.00 PKD
ROOT
HETATM    1  O   UNL     1     -11.716  10.583  67.971  1.00  0.00    -0.450 OA 
HETATM    2  C   UNL     1     -11.010  10.125  69.022  1.00  0.00    -0.226 C  
HETATM    3  C   UNL     1      -9.583  10.556  69.066  1.00  0.00    -0.213 A  
HETATM    4  O   UNL     1     -11.480   9.355  69.845  1.00  0.00    -0.161 OA 
HETATM    5  C   UNL     1      -8.690   9.695  69.720  1.00  0.00    -0.221 A  
HETATM    6  C   UNL     1      -7.347  10.040  69.869  1.00  0.00    -0.163 A  
HETATM    7  C   UNL     1      -6.883  11.256  69.376  1.00  0.00    -0.121 A  
HETATM    8  C   UNL     1      -7.757  12.123  68.720  1.00  0.00    -0.034 A  
HETATM    9  C   UNL     1      -9.105  11.772  68.551  1.00  0.00    -0.144 A  
ENDROOT
BRANCH   9  10
HETATM   10  O   UNL     1     -10.026  12.677  67.978  1.00  0.00    -0.207 OA 
BRANCH  10  11
HETATM   11  C   UNL     1      -9.679  13.263  66.771  1.00  0.00    -0.258 C  
HETATM   12  O   UNL     1      -8.818  14.122  66.652  1.00  0.00    -0.209 OA 
BRANCH  11  13
HETATM   13  C   UNL     1     -10.601  12.840  65.680  1.00  0.00    -0.297 A  
HETATM   14  C   UNL     1     -10.040  12.118  64.614  1.00  0.00    -0.282 A  
HETATM   15  C   UNL     1     -10.801  11.835  63.477  1.00  0.00    -0.496 A  
HETATM   16  C   UNL     1     -12.127  12.256  63.405  1.00  0.00    -0.615 A  
HETATM   17  C   UNL     1     -12.706  12.934  64.479  1.00  0.00    -0.359 A  
HETATM   18  C   UNL     1     -11.945  13.222  65.614  1.00  0.00    -0.412 A  
HETATM   19  O   UNL     1     -12.533  13.877  66.659  1.00  0.00    -0.439 OA 
HETATM   20  H   UNL     1     -13.446  14.136  66.613  1.00  0.00     0.000 HD 
ENDBRANCH  11  13
ENDBRANCH  10  11
ENDBRANCH   9  10
TORSDOF 3
ENDMDL
MODEL      166
REMARK 921   NORMALIZED FREE ENERGY PREDICTED BY IDOCK:   -4.74 KCAL/MOL
REMARK 922        TOTAL FREE ENERGY PREDICTED BY IDOCK:   -5.92 KCAL/MOL
REMARK 923 INTER-LIGAND FREE ENERGY PREDICTED BY IDOCK:   -5.65 KCAL/MOL
REMARK 924 INTRA-LIGAND FREE ENERGY PREDICTED BY IDOCK:   -0.27 KCAL/MOL
REMARK 927      BINDING AFFINITY PREDICTED BY RF-SCORE:    0.00 PKD
ROOT
HETATM    1  O   UNL     1     -11.033  12.432  67.535  1.00  0.00    -0.234 OA 
HETATM    2  C   UNL     1     -10.912  12.042  66.252  1.00  0.00    -0.299 C  
HETATM    3  C   UNL     1     -10.126  10.794  66.037  1.00  0.00    -0.305 A  
HETATM    4  O   UNL     1     -11.355  12.697  65.321  1.00  0.00    -0.297 OA 
HETATM    5  C   UNL     1      -9.475  10.670  64.801  1.00  0.00    -0.306 A  
HETATM    6  C   UNL     1      -8.767   9.512  64.481  1.00  0.00    -0.232 A  
HETATM    7  C   UNL     1      -8.711   8.459  65.388  1.00  0.00    -0.175 A  
HETATM    8  C   UNL     1      -9.350   8.567  66.623  1.00  0.00    -0.243 A  
HETATM    9  C   UNL     1     -10.048   9.737  66.958  1.00  0.00    -0.218 A  
ENDROOT
BRANCH   9  10
HETATM   10  O   UNL     1     -10.782   9.827  68.161  1.00  0.00    -0.227 OA 
BRANCH  10  11
HETATM   11  C   UNL     1     -10.209   9.287  69.301  1.00  0.00    -0.206 C  
HETATM   12  O   UNL     1      -9.150   8.676  69.309  1.00  0.00    -0.147 OA 
BRANCH  11  13
HETATM   13  C   UNL     1     -11.125   9.396  70.471  1.00  0.00    -0.330 A  
HETATM   14  C   UNL     1     -11.372   8.221  71.201  1.00  0.00    -0.298 A  
HETATM   15  C   UNL     1     -12.345   8.205  72.201  1.00  0.00    -0.383 A  
HETATM   16  C   UNL     1     -13.066   9.362  72.491  1.00  0.00    -0.374 A  
HETATM   17  C   UNL     1     -12.795  10.546  71.802  1.00  0.00    -0.559 A  
HETATM   18  C   UNL     1     -11.825  10.563  70.798  1.00  0.00    -0.365 A  
HETATM   19  O   UNL     1     -11.566  11.733  70.143  1.00  0.00    -0.457 OA 
HETATM   20  H   UNL     1     -12.042  12.525  70.366  1.00  0.00     0.000 HD 
ENDBRANCH  11  13
ENDBRANCH  10  11
ENDBRANCH   9  10
TORSDOF 3
ENDMDL
MODEL      167
REMARK 921   NORMALIZED FREE ENERGY PREDICTED BY IDOCK:   -4.74 KCAL/MOL
REMARK 922        TOTAL FREE ENERGY PREDICTED BY IDOCK:   -5.92 KCAL/MOL
REMARK 923 INTER-LIGAND FREE ENERGY PREDICTED BY IDOCK:   -5.43 KCAL/MOL
REMARK 924 INTRA-LIGAND FREE ENERGY PREDICTED BY IDOCK:   -0.49 KCAL/MOL
REMARK 927      BINDING AFFINITY PREDICTED BY RF-SCORE:    0.00 PKD
ROOT
HETATM    1  O   UNL     1      -8.030  11.335  68.969  1.00  0.00    -0.132 OA 
HETATM    2  C   UNL     1      -7.820  10.365  69.879  1.00  0.00    -0.034 C  
HETATM    3  C   UNL     1      -8.995   9.492  70.160  1.00  0.00    -0.269 A  
HETATM    4  O   UNL     1      -6.765  10.246  70.482  1.00  0.00    -0.225 OA 
HETATM    5  C   UNL     1      -9.050   8.909  71.435  1.00  0.00    -0.318 A  
HETATM    6  C   UNL     1     -10.077   8.027  71.773  1.00  0.00    -0.249 A  
HETATM    7  C   UNL     1     -11.055   7.708  70.835  1.00  0.00    -0.275 A  
HETATM    8  C   UNL     1     -11.017   8.281  69.564  1.00  0.00    -0.051 A  
HETATM    9  C   UNL     1      -9.997   9.183  69.226  1.00  0.00    -0.187 A  
ENDROOT
BRANCH   9  10
HETATM   10  O   UNL     1      -9.886   9.697  67.915  1.00  0.00    -0.146 OA 
BRANCH  10  11
HETATM   11  C   UNL     1     -10.876  10.566  67.483  1.00  0.00    -0.301 C  
HETATM   12  O   UNL     1     -11.791  10.963  68.190  1.00  0.00    -0.564 OA 
BRANCH  11  13
HETATM   13  C   UNL     1     -10.780  10.810  66.017  1.00  0.00    -0.168 A  
HETATM   14  C   UNL     1      -9.865  10.024  65.296  1.00  0.00    -0.388 A  
HETATM   15  C   UNL     1      -9.595  10.307  63.956  1.00  0.00    -0.365 A  
HETATM   16  C   UNL     1     -10.247  11.365  63.324  1.00  0.00    -0.430 A  
HETATM   17  C   UNL     1     -11.190  12.122  64.019  1.00  0.00    -0.458 A  
HETATM   18  C   UNL     1     -11.458  11.843  65.360  1.00  0.00    -0.251 A  
HETATM   19  O   UNL     1     -12.393  12.588  66.021  1.00  0.00    -0.615 OA 
HETATM   20  H   UNL     1     -12.853  13.290  65.575  1.00  0.00     0.000 HD 
ENDBRANCH  11  13
ENDBRANCH  10  11
ENDBRANCH   9  10
TORSDOF 3
ENDMDL
MODEL      168
REMARK 921   NORMALIZED FREE ENERGY PREDICTED BY IDOCK:   -4.72 KCAL/MOL
REMARK 922        TOTAL FREE ENERGY PREDICTED BY IDOCK:   -5.89 KCAL/MOL
REMARK 923 INTER-LIGAND FREE ENERGY PREDICTED BY IDOCK:   -5.43 KCAL/MOL
REMARK 924 INTRA-LIGAND FREE ENERGY PREDICTED BY IDOCK:   -0.47 KCAL/MOL
REMARK 927      BINDING AFFINITY PREDICTED BY RF-SCORE:    0.00 PKD
ROOT
HETATM    1  O   UNL     1     -10.176  11.994  68.518  1.00  0.00    -0.215 OA 
HETATM    2  C   UNL     1     -11.312  12.155  67.813  1.00  0.00    -0.307 C  
HETATM    3  C   UNL     1     -11.202  11.866  66.355  1.00  0.00    -0.387 A  
HETATM    4  O   UNL     1     -12.344  12.573  68.315  1.00  0.00    -0.130 OA 
HETATM    5  C   UNL     1     -12.091  12.551  65.513  1.00  0.00    -0.481 A  
HETATM    6  C   UNL     1     -12.109  12.302  64.141  1.00  0.00    -0.525 A  
HETATM    7  C   UNL     1     -11.246  11.356  63.595  1.00  0.00    -0.366 A  
HETATM    8  C   UNL     1     -10.354  10.668  64.417  1.00  0.00    -0.347 A  
HETATM    9  C   UNL     1     -10.319  10.929  65.795  1.00  0.00    -0.241 A  
ENDROOT
BRANCH   9  10
HETATM   10  O   UNL     1      -9.493  10.173  66.657  1.00  0.00    -0.161 OA 
BRANCH  10  11
HETATM   11  C   UNL     1      -9.546   8.794  66.546  1.00  0.00    -0.237 C  
HETATM   12  O   UNL     1      -9.330   8.184  65.509  1.00  0.00    -0.000 OA 
BRANCH  11  13
HETATM   13  C   UNL     1     -10.064   8.169  67.795  1.00  0.00    -0.260 A  
HETATM   14  C   UNL     1      -9.514   8.614  69.008  1.00  0.00    -0.153 A  
HETATM   15  C   UNL     1      -9.823   7.962  70.204  1.00  0.00    -0.184 A  
HETATM   16  C   UNL     1     -10.694   6.874  70.197  1.00  0.00    -0.270 A  
HETATM   17  C   UNL     1     -11.281   6.454  69.003  1.00  0.00    -0.402 A  
HETATM   18  C   UNL     1     -10.970   7.102  67.807  1.00  0.00    -0.117 A  
HETATM   19  O   UNL     1     -11.563   6.683  66.650  1.00  0.00    -0.643 OA 
HETATM   20  H   UNL     1     -12.178   5.959  66.658  1.00  0.00     0.000 HD 
ENDBRANCH  11  13
ENDBRANCH  10  11
ENDBRANCH   9  10
TORSDOF 3
ENDMDL
MODEL      169
REMARK 921   NORMALIZED FREE ENERGY PREDICTED BY IDOCK:   -4.72 KCAL/MOL
REMARK 922        TOTAL FREE ENERGY PREDICTED BY IDOCK:   -5.89 KCAL/MOL
REMARK 923 INTER-LIGAND FREE ENERGY PREDICTED BY IDOCK:   -5.46 KCAL/MOL
REMARK 924 INTRA-LIGAND FREE ENERGY PREDICTED BY IDOCK:   -0.43 KCAL/MOL
REMARK 927      BINDING AFFINITY PREDICTED BY RF-SCORE:    0.00 PKD
ROOT
HETATM    1  O   UNL     1      -7.864  11.005  67.142  1.00  0.00    -0.123 OA 
HETATM    2  C   UNL     1      -8.488  10.007  67.797  1.00  0.00    -0.114 C  
HETATM    3  C   UNL     1      -9.624  10.429  68.665  1.00  0.00    -0.166 A  
HETATM    4  O   UNL     1      -8.111   8.847  67.740  1.00  0.00    -0.105 OA 
HETATM    5  C   UNL     1      -9.903   9.611  69.770  1.00  0.00    -0.253 A  
HETATM    6  C   UNL     1     -10.985   9.886  70.606  1.00  0.00    -0.405 A  
HETATM    7  C   UNL     1     -11.808  10.976  70.340  1.00  0.00    -0.460 A  
HETATM    8  C   UNL     1     -11.544  11.801  69.247  1.00  0.00    -0.378 A  
HETATM    9  C   UNL     1     -10.445  11.540  68.415  1.00  0.00    -0.207 A  
ENDROOT
BRANCH   9  10
HETATM   10  O   UNL     1     -10.219  12.304  67.249  1.00  0.00    -0.209 OA 
BRANCH  10  11
HETATM   11  C   UNL     1     -11.322  12.868  66.629  1.00  0.00    -0.317 C  
HETATM   12  O   UNL     1     -12.274  12.224  66.213  1.00  0.00    -0.628 OA 
BRANCH  11  13
HETATM   13  C   UNL     1     -11.121  14.323  66.383  1.00  0.00    -0.325 A  
HETATM   14  C   UNL     1     -11.420  14.801  65.096  1.00  0.00    -0.371 A  
HETATM   15  C   UNL     1     -11.099  16.111  64.738  1.00  0.00    -0.345 A  
HETATM   16  C   UNL     1     -10.492  16.957  65.666  1.00  0.00    -0.252 A  
HETATM   17  C   UNL     1     -10.233  16.505  66.961  1.00  0.00    -0.288 A  
HETATM   18  C   UNL     1     -10.550  15.193  67.318  1.00  0.00    -0.286 A  
HETATM   19  O   UNL     1     -10.299  14.773  68.593  1.00  0.00    -0.231 OA 
HETATM   20  H   UNL     1      -9.911  15.364  69.228  1.00  0.00     0.000 HD 
ENDBRANCH  11  13
ENDBRANCH  10  11
ENDBRANCH   9  10
TORSDOF 3
ENDMDL
MODEL      170
REMARK 921   NORMALIZED FREE ENERGY PREDICTED BY IDOCK:   -4.71 KCAL/MOL
REMARK 922        TOTAL FREE ENERGY PREDICTED BY IDOCK:   -5.89 KCAL/MOL
REMARK 923 INTER-LIGAND FREE ENERGY PREDICTED BY IDOCK:   -5.25 KCAL/MOL
REMARK 924 INTRA-LIGAND FREE ENERGY PREDICTED BY IDOCK:   -0.63 KCAL/MOL
REMARK 927      BINDING AFFINITY PREDICTED BY RF-SCORE:    0.00 PKD
ROOT
HETATM    1  O   UNL     1     -11.573  12.325  69.196  1.00  0.00    -0.275 OA 
HETATM    2  C   UNL     1     -12.188  12.171  70.384  1.00  0.00    -0.294 C  
HETATM    3  C   UNL     1     -12.254  10.770  70.890  1.00  0.00    -0.487 A  
HETATM    4  O   UNL     1     -12.716  13.099  70.976  1.00  0.00    -0.337 OA 
HETATM    5  C   UNL     1     -13.329  10.461  71.735  1.00  0.00    -0.456 A  
HETATM    6  C   UNL     1     -13.443   9.195  72.310  1.00  0.00    -0.546 A  
HETATM    7  C   UNL     1     -12.476   8.227  72.056  1.00  0.00    -0.393 A  
HETATM    8  C   UNL     1     -11.401   8.518  71.215  1.00  0.00    -0.325 A  
HETATM    9  C   UNL     1     -11.292   9.783  70.620  1.00  0.00    -0.330 A  
ENDROOT
BRANCH   9  10
HETATM   10  O   UNL     1     -10.162  10.128  69.846  1.00  0.00    -0.242 OA 
BRANCH  10  11
HETATM   11  C   UNL     1      -9.033   9.335  69.975  1.00  0.00    -0.198 C  
HETATM   12  O   UNL     1      -8.202   9.471  70.862  1.00  0.00    -0.291 OA 
BRANCH  11  13
HETATM   13  C   UNL     1      -8.875   8.422  68.809  1.00  0.00    -0.140 A  
HETATM   14  C   UNL     1      -9.744   8.618  67.722  1.00  0.00    -0.202 A  
HETATM   15  C   UNL     1      -9.772   7.702  66.669  1.00  0.00    -0.283 A  
HETATM   16  C   UNL     1      -8.924   6.596  66.686  1.00  0.00    -0.150 A  
HETATM   17  C   UNL     1      -8.026   6.418  67.739  1.00  0.00    -0.114 A  
HETATM   18  C   UNL     1      -8.000   7.331  68.795  1.00  0.00    -0.123 A  
HETATM   19  O   UNL     1      -7.107   7.146  69.811  1.00  0.00    -0.069 OA 
HETATM   20  H   UNL     1      -6.512   6.404  69.802  1.00  0.00     0.000 HD 
ENDBRANCH  11  13
ENDBRANCH  10  11
ENDBRANCH   9  10
TORSDOF 3
ENDMDL
MODEL      171
REMARK 921   NORMALIZED FREE ENERGY PREDICTED BY IDOCK:   -4.69 KCAL/MOL
REMARK 922        TOTAL FREE ENERGY PREDICTED BY IDOCK:   -5.86 KCAL/MOL
REMARK 923 INTER-LIGAND FREE ENERGY PREDICTED BY IDOCK:   -5.13 KCAL/MOL
REMARK 924 INTRA-LIGAND FREE ENERGY PREDICTED BY IDOCK:   -0.72 KCAL/MOL
REMARK 927      BINDING AFFINITY PREDICTED BY RF-SCORE:    0.00 PKD
ROOT
HETATM    1  O   UNL     1     -10.656  10.663  69.862  1.00  0.00    -0.238 OA 
HETATM    2  C   UNL     1     -10.907  10.134  68.650  1.00  0.00    -0.235 C  
HETATM    3  C   UNL     1     -10.820   8.648  68.574  1.00  0.00     0.003 A  
HETATM    4  O   UNL     1     -11.123  10.822  67.664  1.00  0.00    -0.284 OA 
HETATM    5  C   UNL     1     -10.476   8.105  67.327  1.00  0.00    -0.379 A  
HETATM    6  C   UNL     1     -10.431   6.723  67.139  1.00  0.00    -0.364 A  
HETATM    7  C   UNL     1     -10.740   5.868  68.193  1.00  0.00    -0.329 A  
HETATM    8  C   UNL     1     -11.081   6.392  69.440  1.00  0.00    -0.450 A  
HETATM    9  C   UNL     1     -11.109   7.780  69.639  1.00  0.00    -0.042 A  
ENDROOT
BRANCH   9  10
HETATM   10  O   UNL     1     -11.547   8.330  70.865  1.00  0.00    -0.278 OA 
BRANCH  10  11
HETATM   11  C   UNL     1     -12.038   7.454  71.819  1.00  0.00    -0.312 C  
HETATM   12  O   UNL     1     -13.209   7.113  71.894  1.00  0.00    -0.309 OA 
BRANCH  11  13
HETATM   13  C   UNL     1     -11.000   7.123  72.835  1.00  0.00    -0.359 A  
HETATM   14  C   UNL     1     -10.054   8.119  73.131  1.00  0.00    -0.202 A  
HETATM   15  C   UNL     1      -8.955   7.828  73.942  1.00  0.00    -0.317 A  
HETATM   16  C   UNL     1      -8.802   6.550  74.475  1.00  0.00    -0.187 A  
HETATM   17  C   UNL     1      -9.761   5.567  74.224  1.00  0.00    -0.182 A  
HETATM   18  C   UNL     1     -10.858   5.855  73.409  1.00  0.00    -0.245 A  
HETATM   19  O   UNL     1     -11.791   4.883  73.184  1.00  0.00    -0.422 OA 
HETATM   20  H   UNL     1     -11.695   4.022  73.575  1.00  0.00     0.000 HD 
ENDBRANCH  11  13
ENDBRANCH  10  11
ENDBRANCH   9  10
TORSDOF 3
ENDMDL
MODEL      172
REMARK 921   NORMALIZED FREE ENERGY PREDICTED BY IDOCK:   -4.68 KCAL/MOL
REMARK 922        TOTAL FREE ENERGY PREDICTED BY IDOCK:   -5.85 KCAL/MOL
REMARK 923 INTER-LIGAND FREE ENERGY PREDICTED BY IDOCK:   -5.19 KCAL/MOL
REMARK 924 INTRA-LIGAND FREE ENERGY PREDICTED BY IDOCK:   -0.66 KCAL/MOL
REMARK 927      BINDING AFFINITY PREDICTED BY RF-SCORE:    0.00 PKD
ROOT
HETATM    1  O   UNL     1     -11.170  17.027  70.916  1.00  0.00     0.190 OA 
HETATM    2  C   UNL     1     -11.329  15.728  70.599  1.00  0.00    -0.388 C  
HETATM    3  C   UNL     1     -11.162  15.401  69.154  1.00  0.00    -0.291 A  
HETATM    4  O   UNL     1     -11.653  14.885  71.421  1.00  0.00    -0.336 OA 
HETATM    5  C   UNL     1     -11.866  14.283  68.681  1.00  0.00    -0.379 A  
HETATM    6  C   UNL     1     -11.725  13.859  67.360  1.00  0.00    -0.422 A  
HETATM    7  C   UNL     1     -10.871  14.540  66.499  1.00  0.00    -0.314 A  
HETATM    8  C   UNL     1     -10.166  15.655  66.952  1.00  0.00    -0.281 A  
HETATM    9  C   UNL     1     -10.318  16.097  68.274  1.00  0.00    -0.266 A  
ENDROOT
BRANCH   9  10
HETATM   10  O   UNL     1      -9.540  17.163  68.779  1.00  0.00    -0.266 OA 
BRANCH  10  11
HETATM   11  C   UNL     1      -9.652  18.391  68.146  1.00  0.00    -0.316 C  
HETATM   12  O   UNL     1     -10.718  18.927  67.881  1.00  0.00    -0.376 OA 
BRANCH  11  13
HETATM   13  C   UNL     1      -8.326  18.883  67.681  1.00  0.00    -0.296 A  
HETATM   14  C   UNL     1      -8.310  19.687  66.528  1.00  0.00    -0.357 A  
HETATM   15  C   UNL     1      -7.098  20.045  65.935  1.00  0.00    -0.317 A  
HETATM   16  C   UNL     1      -5.896  19.617  66.496  1.00  0.00    -0.164 A  
HETATM   17  C   UNL     1      -5.900  18.857  67.666  1.00  0.00    -0.187 A  
HETATM   18  C   UNL     1      -7.112  18.494  68.258  1.00  0.00    -0.256 A  
HETATM   19  O   UNL     1      -7.095  17.759  69.409  1.00  0.00    -0.168 OA 
HETATM   20  H   UNL     1      -6.270  17.496  69.801  1.00  0.00     0.000 HD 
ENDBRANCH  11  13
ENDBRANCH  10  11
ENDBRANCH   9  10
TORSDOF 3
ENDMDL
MODEL      173
REMARK 921   NORMALIZED FREE ENERGY PREDICTED BY IDOCK:   -4.67 KCAL/MOL
REMARK 922        TOTAL FREE ENERGY PREDICTED BY IDOCK:   -5.84 KCAL/MOL
REMARK 923 INTER-LIGAND FREE ENERGY PREDICTED BY IDOCK:   -5.03 KCAL/MOL
REMARK 924 INTRA-LIGAND FREE ENERGY PREDICTED BY IDOCK:   -0.81 KCAL/MOL
REMARK 927      BINDING AFFINITY PREDICTED BY RF-SCORE:    0.00 PKD
ROOT
HETATM    1  O   UNL     1      -9.008   9.182  63.728  1.00  0.00    -0.140 OA 
HETATM    2  C   UNL     1      -9.398  10.429  63.399  1.00  0.00    -0.300 C  
HETATM    3  C   UNL     1     -10.311  11.088  64.375  1.00  0.00    -0.424 A  
HETATM    4  O   UNL     1      -9.084  10.959  62.345  1.00  0.00    -0.288 OA 
HETATM    5  C   UNL     1     -11.190  12.051  63.857  1.00  0.00    -0.490 A  
HETATM    6  C   UNL     1     -12.039  12.768  64.700  1.00  0.00    -0.483 A  
HETATM    7  C   UNL     1     -12.012  12.539  66.072  1.00  0.00    -0.456 A  
HETATM    8  C   UNL     1     -11.147  11.583  66.604  1.00  0.00    -0.355 A  
HETATM    9  C   UNL     1     -10.304  10.846  65.759  1.00  0.00    -0.241 A  
ENDROOT
BRANCH   9  10
HETATM   10  O   UNL     1      -9.353   9.944  66.286  1.00  0.00    -0.160 OA 
BRANCH  10  11
HETATM   11  C   UNL     1      -9.832   8.831  66.957  1.00  0.00    -0.216 C  
HETATM   12  O   UNL     1     -10.581   8.003  66.459  1.00  0.00    -0.187 OA 
BRANCH  11  13
HETATM   13  C   UNL     1      -9.461   8.866  68.399  1.00  0.00    -0.147 A  
HETATM   14  C   UNL     1      -8.551   9.859  68.801  1.00  0.00    -0.130 A  
HETATM   15  C   UNL     1      -8.025   9.851  70.095  1.00  0.00    -0.181 A  
HETATM   16  C   UNL     1      -8.417   8.865  70.999  1.00  0.00    -0.244 A  
HETATM   17  C   UNL     1      -9.355   7.903  70.623  1.00  0.00    -0.158 A  
HETATM   18  C   UNL     1      -9.878   7.906  69.328  1.00  0.00    -0.177 A  
HETATM   19  O   UNL     1     -10.803   6.963  68.983  1.00  0.00    -0.250 OA 
HETATM   20  H   UNL     1     -11.086   6.311  69.614  1.00  0.00     0.000 HD 
ENDBRANCH  11  13
ENDBRANCH  10  11
ENDBRANCH   9  10
TORSDOF 3
ENDMDL
MODEL      174
REMARK 921   NORMALIZED FREE ENERGY PREDICTED BY IDOCK:   -4.67 KCAL/MOL
REMARK 922        TOTAL FREE ENERGY PREDICTED BY IDOCK:   -5.84 KCAL/MOL
REMARK 923 INTER-LIGAND FREE ENERGY PREDICTED BY IDOCK:   -5.89 KCAL/MOL
REMARK 924 INTRA-LIGAND FREE ENERGY PREDICTED BY IDOCK:    0.06 KCAL/MOL
REMARK 927      BINDING AFFINITY PREDICTED BY RF-SCORE:    0.00 PKD
ROOT
HETATM    1  O   UNL     1     -10.178  18.424  65.515  1.00  0.00    -0.522 OA 
HETATM    2  C   UNL     1      -9.846  18.255  66.809  1.00  0.00    -0.341 C  
HETATM    3  C   UNL     1     -10.484  17.088  67.482  1.00  0.00    -0.334 A  
HETATM    4  O   UNL     1      -9.130  19.039  67.412  1.00  0.00    -0.289 OA 
HETATM    5  C   UNL     1     -10.673  17.191  68.868  1.00  0.00    -0.257 A  
HETATM    6  C   UNL     1     -11.204  16.127  69.597  1.00  0.00    -0.331 A  
HETATM    7  C   UNL     1     -11.540  14.941  68.950  1.00  0.00    -0.339 A  
HETATM    8  C   UNL     1     -11.360  14.822  67.572  1.00  0.00    -0.355 A  
HETATM    9  C   UNL     1     -10.845  15.896  66.832  1.00  0.00    -0.240 A  
ENDROOT
BRANCH   9  10
HETATM   10  O   UNL     1     -10.565  15.762  65.454  1.00  0.00    -0.372 OA 
BRANCH  10  11
HETATM   11  C   UNL     1     -11.604  15.370  64.626  1.00  0.00    -0.311 C  
HETATM   12  O   UNL     1     -12.593  16.053  64.401  1.00  0.00    -0.158 OA 
BRANCH  11  13
HETATM   13  C   UNL     1     -11.446  13.955  64.190  1.00  0.00    -0.270 A  
HETATM   14  C   UNL     1     -12.464  13.415  63.387  1.00  0.00    -0.229 A  
HETATM   15  C   UNL     1     -12.473  12.052  63.080  1.00  0.00    -0.387 A  
HETATM   16  C   UNL     1     -11.458  11.225  63.559  1.00  0.00     0.004 A  
HETATM   17  C   UNL     1     -10.418  11.761  64.319  1.00  0.00    -0.373 A  
HETATM   18  C   UNL     1     -10.411  13.122  64.631  1.00  0.00    -0.361 A  
HETATM   19  O   UNL     1      -9.378  13.630  65.366  1.00  0.00    -0.427 OA 
HETATM   20  H   UNL     1      -8.675  13.065  65.666  1.00  0.00     0.000 HD 
ENDBRANCH  11  13
ENDBRANCH  10  11
ENDBRANCH   9  10
TORSDOF 3
ENDMDL
MODEL      175
REMARK 921   NORMALIZED FREE ENERGY PREDICTED BY IDOCK:   -4.66 KCAL/MOL
REMARK 922        TOTAL FREE ENERGY PREDICTED BY IDOCK:   -5.83 KCAL/MOL
REMARK 923 INTER-LIGAND FREE ENERGY PREDICTED BY IDOCK:   -5.31 KCAL/MOL
REMARK 924 INTRA-LIGAND FREE ENERGY PREDICTED BY IDOCK:   -0.53 KCAL/MOL
REMARK 927      BINDING AFFINITY PREDICTED BY RF-SCORE:    0.00 PKD
ROOT
HETATM    1  O   UNL     1     -10.675  10.007  69.912  1.00  0.00    -0.245 OA 
HETATM    2  C   UNL     1      -9.859   9.082  69.371  1.00  0.00    -0.183 C  
HETATM    3  C   UNL     1      -9.675   9.181  67.895  1.00  0.00    -0.182 A  
HETATM    4  O   UNL     1      -9.358   8.182  70.027  1.00  0.00    -0.158 OA 
HETATM    5  C   UNL     1      -9.374   7.988  67.221  1.00  0.00    -0.177 A  
HETATM    6  C   UNL     1      -9.122   7.989  65.849  1.00  0.00    -0.159 A  
HETATM    7  C   UNL     1      -9.156   9.184  65.137  1.00  0.00    -0.234 A  
HETATM    8  C   UNL     1      -9.457  10.378  65.791  1.00  0.00    -0.247 A  
HETATM    9  C   UNL     1      -9.730  10.381  67.167  1.00  0.00    -0.172 A  
ENDROOT
BRANCH   9  10
HETATM   10  O   UNL     1      -9.939  11.591  67.864  1.00  0.00    -0.176 OA 
BRANCH  10  11
HETATM   11  C   UNL     1     -11.150  12.237  67.674  1.00  0.00    -0.268 C  
HETATM   12  O   UNL     1     -12.196  11.896  68.207  1.00  0.00    -0.447 OA 
BRANCH  11  13
HETATM   13  C   UNL     1     -11.048  13.278  66.614  1.00  0.00    -0.311 A  
HETATM   14  C   UNL     1     -10.259  14.405  66.899  1.00  0.00    -0.265 A  
HETATM   15  C   UNL     1     -10.251  15.498  66.029  1.00  0.00    -0.349 A  
HETATM   16  C   UNL     1     -11.014  15.465  64.864  1.00  0.00    -0.453 A  
HETATM   17  C   UNL     1     -11.764  14.331  64.549  1.00  0.00    -0.431 A  
HETATM   18  C   UNL     1     -11.778  13.240  65.421  1.00  0.00    -0.343 A  
HETATM   19  O   UNL     1     -12.509  12.135  65.091  1.00  0.00    -0.508 OA 
HETATM   20  H   UNL     1     -13.005  12.109  64.280  1.00  0.00     0.000 HD 
ENDBRANCH  11  13
ENDBRANCH  10  11
ENDBRANCH   9  10
TORSDOF 3
ENDMDL
MODEL      176
REMARK 921   NORMALIZED FREE ENERGY PREDICTED BY IDOCK:   -4.64 KCAL/MOL
REMARK 922        TOTAL FREE ENERGY PREDICTED BY IDOCK:   -5.81 KCAL/MOL
REMARK 923 INTER-LIGAND FREE ENERGY PREDICTED BY IDOCK:   -4.91 KCAL/MOL
REMARK 924 INTRA-LIGAND FREE ENERGY PREDICTED BY IDOCK:   -0.89 KCAL/MOL
REMARK 927      BINDING AFFINITY PREDICTED BY RF-SCORE:    0.00 PKD
ROOT
HETATM    1  O   UNL     1      -8.657   7.012  65.400  1.00  0.00    -0.126 OA 
HETATM    2  C   UNL     1      -8.368   8.297  65.118  1.00  0.00    -0.157 C  
HETATM    3  C   UNL     1      -9.319   9.299  65.679  1.00  0.00    -0.308 A  
HETATM    4  O   UNL     1      -7.436   8.619  64.399  1.00  0.00    -0.100 OA 
HETATM    5  C   UNL     1      -9.442  10.506  64.974  1.00  0.00    -0.296 A  
HETATM    6  C   UNL     1     -10.258  11.531  65.452  1.00  0.00    -0.311 A  
HETATM    7  C   UNL     1     -10.951  11.367  66.648  1.00  0.00    -0.341 A  
HETATM    8  C   UNL     1     -10.842  10.172  67.359  1.00  0.00    -0.323 A  
HETATM    9  C   UNL     1     -10.038   9.131  66.873  1.00  0.00    -0.258 A  
ENDROOT
BRANCH   9  10
HETATM   10  O   UNL     1      -9.838   7.953  67.627  1.00  0.00    -0.149 OA 
BRANCH  10  11
HETATM   11  C   UNL     1      -9.148   8.070  68.823  1.00  0.00    -0.144 C  
HETATM   12  O   UNL     1      -7.929   8.124  68.905  1.00  0.00    -0.110 OA 
BRANCH  11  13
HETATM   13  C   UNL     1     -10.063   7.947  69.991  1.00  0.00    -0.199 A  
HETATM   14  C   UNL     1      -9.966   8.934  70.987  1.00  0.00    -0.324 A  
HETATM   15  C   UNL     1     -10.667   8.796  72.186  1.00  0.00    -0.383 A  
HETATM   16  C   UNL     1     -11.480   7.682  72.393  1.00  0.00    -0.392 A  
HETATM   17  C   UNL     1     -11.618   6.720  71.392  1.00  0.00    -0.350 A  
HETATM   18  C   UNL     1     -10.914   6.855  70.194  1.00  0.00    -0.281 A  
HETATM   19  O   UNL     1     -11.071   5.909  69.222  1.00  0.00    -0.360 OA 
HETATM   20  H   UNL     1     -11.649   5.167  69.359  1.00  0.00     0.000 HD 
ENDBRANCH  11  13
ENDBRANCH  10  11
ENDBRANCH   9  10
TORSDOF 3
ENDMDL
MODEL      177
REMARK 921   NORMALIZED FREE ENERGY PREDICTED BY IDOCK:   -4.64 KCAL/MOL
REMARK 922        TOTAL FREE ENERGY PREDICTED BY IDOCK:   -5.80 KCAL/MOL
REMARK 923 INTER-LIGAND FREE ENERGY PREDICTED BY IDOCK:   -5.04 KCAL/MOL
REMARK 924 INTRA-LIGAND FREE ENERGY PREDICTED BY IDOCK:   -0.76 KCAL/MOL
REMARK 927      BINDING AFFINITY PREDICTED BY RF-SCORE:    0.00 PKD
ROOT
HETATM    1  O   UNL     1      -9.070  11.404  68.000  1.00  0.00    -0.158 OA 
HETATM    2  C   UNL     1      -9.462  11.311  66.715  1.00  0.00    -0.179 C  
HETATM    3  C   UNL     1     -10.519  12.278  66.301  1.00  0.00    -0.266 A  
HETATM    4  O   UNL     1      -9.036  10.454  65.958  1.00  0.00    -0.151 OA 
HETATM    5  C   UNL     1     -11.360  11.875  65.253  1.00  0.00    -0.333 A  
HETATM    6  C   UNL     1     -12.337  12.734  64.752  1.00  0.00    -0.540 A  
HETATM    7  C   UNL     1     -12.478  14.012  65.285  1.00  0.00    -0.495 A  
HETATM    8  C   UNL     1     -11.652  14.428  66.329  1.00  0.00    -0.377 A  
HETATM    9  C   UNL     1     -10.680  13.561  66.849  1.00  0.00    -0.274 A  
ENDROOT
BRANCH   9  10
HETATM   10  O   UNL     1      -9.771  13.998  67.838  1.00  0.00    -0.217 OA 
BRANCH  10  11
HETATM   11  C   UNL     1      -8.660  14.710  67.415  1.00  0.00    -0.199 C  
HETATM   12  O   UNL     1      -7.644  14.191  66.975  1.00  0.00    -0.042 OA 
BRANCH  11  13
HETATM   13  C   UNL     1      -8.796  16.160  67.725  1.00  0.00    -0.184 A  
HETATM   14  C   UNL     1      -9.757  16.521  68.684  1.00  0.00    -0.247 A  
HETATM   15  C   UNL     1     -10.061  17.866  68.905  1.00  0.00    -0.349 A  
HETATM   16  C   UNL     1      -9.398  18.857  68.184  1.00  0.00    -0.368 A  
HETATM   17  C   UNL     1      -8.410  18.510  67.262  1.00  0.00    -0.259 A  
HETATM   18  C   UNL     1      -8.107  17.165  67.037  1.00  0.00    -0.201 A  
HETATM   19  O   UNL     1      -7.129  16.846  66.139  1.00  0.00    -0.206 OA 
HETATM   20  H   UNL     1      -6.662  17.528  65.671  1.00  0.00     0.000 HD 
ENDBRANCH  11  13
ENDBRANCH  10  11
ENDBRANCH   9  10
TORSDOF 3
ENDMDL
MODEL      178
REMARK 921   NORMALIZED FREE ENERGY PREDICTED BY IDOCK:   -4.63 KCAL/MOL
REMARK 922        TOTAL FREE ENERGY PREDICTED BY IDOCK:   -5.80 KCAL/MOL
REMARK 923 INTER-LIGAND FREE ENERGY PREDICTED BY IDOCK:   -5.07 KCAL/MOL
REMARK 924 INTRA-LIGAND FREE ENERGY PREDICTED BY IDOCK:   -0.73 KCAL/MOL
REMARK 927      BINDING AFFINITY PREDICTED BY RF-SCORE:    0.00 PKD
ROOT
HETATM    1  O   UNL     1      -7.503  11.971  67.446  1.00  0.00    -0.132 OA 
HETATM    2  C   UNL     1      -8.530  11.211  67.872  1.00  0.00    -0.131 C  
HETATM    3  C   UNL     1      -9.790  11.951  68.167  1.00  0.00    -0.192 A  
HETATM    4  O   UNL     1      -8.421  10.010  68.068  1.00  0.00    -0.116 OA 
HETATM    5  C   UNL     1     -10.638  11.380  69.128  1.00  0.00    -0.196 A  
HETATM    6  C   UNL     1     -11.869  11.964  69.428  1.00  0.00    -0.389 A  
HETATM    7  C   UNL     1     -12.272  13.118  68.762  1.00  0.00    -0.090 A  
HETATM    8  C   UNL     1     -11.439  13.699  67.807  1.00  0.00    -0.351 A  
HETATM    9  C   UNL     1     -10.192  13.127  67.515  1.00  0.00    -0.225 A  
ENDROOT
BRANCH   9  10
HETATM   10  O   UNL     1      -9.378  13.644  66.483  1.00  0.00    -0.268 OA 
BRANCH  10  11
HETATM   11  C   UNL     1      -9.945  14.576  65.628  1.00  0.00    -0.347 C  
HETATM   12  O   UNL     1     -10.526  14.287  64.592  1.00  0.00    -0.425 OA 
BRANCH  11  13
HETATM   13  C   UNL     1      -9.606  15.966  66.041  1.00  0.00    -0.385 A  
HETATM   14  C   UNL     1     -10.637  16.920  65.982  1.00  0.00    -0.221 A  
HETATM   15  C   UNL     1     -10.359  18.272  66.188  1.00  0.00    -0.414 A  
HETATM   16  C   UNL     1      -9.055  18.679  66.470  1.00  0.00    -0.317 A  
HETATM   17  C   UNL     1      -8.034  17.734  66.576  1.00  0.00    -0.299 A  
HETATM   18  C   UNL     1      -8.310  16.382  66.365  1.00  0.00    -0.328 A  
HETATM   19  O   UNL     1      -7.300  15.471  66.483  1.00  0.00    -0.240 OA 
HETATM   20  H   UNL     1      -6.419  15.753  66.704  1.00  0.00     0.000 HD 
ENDBRANCH  11  13
ENDBRANCH  10  11
ENDBRANCH   9  10
TORSDOF 3
ENDMDL
MODEL      179
REMARK 921   NORMALIZED FREE ENERGY PREDICTED BY IDOCK:   -4.61 KCAL/MOL
REMARK 922        TOTAL FREE ENERGY PREDICTED BY IDOCK:   -5.77 KCAL/MOL
REMARK 923 INTER-LIGAND FREE ENERGY PREDICTED BY IDOCK:   -5.18 KCAL/MOL
REMARK 924 INTRA-LIGAND FREE ENERGY PREDICTED BY IDOCK:   -0.60 KCAL/MOL
REMARK 927      BINDING AFFINITY PREDICTED BY RF-SCORE:    0.00 PKD
ROOT
HETATM    1  O   UNL     1     -11.632  12.263  69.011  1.00  0.00    -0.270 OA 
HETATM    2  C   UNL     1     -11.935  13.383  69.696  1.00  0.00    -0.324 C  
HETATM    3  C   UNL     1     -11.406  14.648  69.111  1.00  0.00    -0.305 A  
HETATM    4  O   UNL     1     -12.541  13.362  70.755  1.00  0.00    -0.336 OA 
HETATM    5  C   UNL     1     -11.158  15.696  70.010  1.00  0.00    -0.332 A  
HETATM    6  C   UNL     1     -10.722  16.939  69.553  1.00  0.00    -0.205 A  
HETATM    7  C   UNL     1     -10.539  17.154  68.190  1.00  0.00    -0.380 A  
HETATM    8  C   UNL     1     -10.778  16.122  67.283  1.00  0.00    -0.277 A  
HETATM    9  C   UNL     1     -11.199  14.864  67.739  1.00  0.00    -0.321 A  
ENDROOT
BRANCH   9  10
HETATM   10  O   UNL     1     -11.540  13.837  66.830  1.00  0.00    -0.333 OA 
BRANCH  10  11
HETATM   11  C   UNL     1     -10.588  13.473  65.891  1.00  0.00    -0.284 C  
HETATM   12  O   UNL     1     -10.615  13.825  64.721  1.00  0.00    -0.386 OA 
BRANCH  11  13
HETATM   13  C   UNL     1      -9.637  12.470  66.445  1.00  0.00    -0.247 A  
HETATM   14  C   UNL     1     -10.075  11.135  66.497  1.00  0.00    -0.265 A  
HETATM   15  C   UNL     1      -9.312  10.169  67.155  1.00  0.00    -0.176 A  
HETATM   16  C   UNL     1      -8.102  10.523  67.749  1.00  0.00    -0.106 A  
HETATM   17  C   UNL     1      -7.637  11.836  67.663  1.00  0.00    -0.132 A  
HETATM   18  C   UNL     1      -8.402  12.805  67.009  1.00  0.00    -0.120 A  
HETATM   19  O   UNL     1      -7.925  14.082  66.926  1.00  0.00    -0.378 OA 
HETATM   20  H   UNL     1      -7.086  14.310  67.309  1.00  0.00     0.000 HD 
ENDBRANCH  11  13
ENDBRANCH  10  11
ENDBRANCH   9  10
TORSDOF 3
ENDMDL
MODEL      180
REMARK 921   NORMALIZED FREE ENERGY PREDICTED BY IDOCK:   -4.56 KCAL/MOL
REMARK 922        TOTAL FREE ENERGY PREDICTED BY IDOCK:   -5.71 KCAL/MOL
REMARK 923 INTER-LIGAND FREE ENERGY PREDICTED BY IDOCK:   -6.05 KCAL/MOL
REMARK 924 INTRA-LIGAND FREE ENERGY PREDICTED BY IDOCK:    0.34 KCAL/MOL
REMARK 927      BINDING AFFINITY PREDICTED BY RF-SCORE:    0.00 PKD
ROOT
HETATM    1  O   UNL     1     -10.678  16.350  65.005  1.00  0.00    -0.638 OA 
HETATM    2  C   UNL     1     -11.706  15.665  64.467  1.00  0.00    -0.220 C  
HETATM    3  C   UNL     1     -11.564  14.181  64.492  1.00  0.00    -0.400 A  
HETATM    4  O   UNL     1     -12.656  16.217  63.934  1.00  0.00    -0.703 OA 
HETATM    5  C   UNL     1     -12.231  13.473  63.481  1.00  0.00    -0.410 A  
HETATM    6  C   UNL     1     -12.211  12.078  63.456  1.00  0.00    -0.653 A  
HETATM    7  C   UNL     1     -11.534  11.375  64.448  1.00  0.00    -0.148 A  
HETATM    8  C   UNL     1     -10.863  12.064  65.459  1.00  0.00    -0.336 A  
HETATM    9  C   UNL     1     -10.865  13.467  65.478  1.00  0.00    -0.289 A  
ENDROOT
BRANCH   9  10
HETATM   10  O   UNL     1     -10.275  14.180  66.545  1.00  0.00    -0.267 OA 
BRANCH  10  11
HETATM   11  C   UNL     1     -11.089  14.516  67.615  1.00  0.00    -0.304 C  
HETATM   12  O   UNL     1     -11.484  15.651  67.842  1.00  0.00    -0.329 OA 
BRANCH  11  13
HETATM   13  C   UNL     1     -11.273  13.363  68.539  1.00  0.00    -0.316 A  
HETATM   14  C   UNL     1     -10.372  12.292  68.413  1.00  0.00    -0.231 A  
HETATM   15  C   UNL     1     -10.581  11.108  69.122  1.00  0.00    -0.238 A  
HETATM   16  C   UNL     1     -11.678  10.991  69.973  1.00  0.00    -0.437 A  
HETATM   17  C   UNL     1     -12.553  12.065  70.140  1.00  0.00     0.000 A  
HETATM   18  C   UNL     1     -12.348  13.248  69.427  1.00  0.00    -0.037 A  
HETATM   19  O   UNL     1     -13.209  14.293  69.612  1.00  0.00    -0.093 OA 
HETATM   20  H   UNL     1     -13.939  14.215  70.215  1.00  0.00     0.000 HD 
ENDBRANCH  11  13
ENDBRANCH  10  11
ENDBRANCH   9  10
TORSDOF 3
ENDMDL
MODEL      181
REMARK 921   NORMALIZED FREE ENERGY PREDICTED BY IDOCK:   -4.55 KCAL/MOL
REMARK 922        TOTAL FREE ENERGY PREDICTED BY IDOCK:   -5.70 KCAL/MOL
REMARK 923 INTER-LIGAND FREE ENERGY PREDICTED BY IDOCK:   -5.33 KCAL/MOL
REMARK 924 INTRA-LIGAND FREE ENERGY PREDICTED BY IDOCK:   -0.37 KCAL/MOL
REMARK 927      BINDING AFFINITY PREDICTED BY RF-SCORE:    0.00 PKD
ROOT
HETATM    1  O   UNL     1      -9.698  11.470  67.193  1.00  0.00    -0.182 OA 
HETATM    2  C   UNL     1     -10.060  11.269  65.912  1.00  0.00    -0.245 C  
HETATM    3  C   UNL     1     -10.649  12.454  65.224  1.00  0.00    -0.322 A  
HETATM    4  O   UNL     1      -9.977  10.179  65.368  1.00  0.00    -0.290 OA 
HETATM    5  C   UNL     1     -11.552  12.187  64.184  1.00  0.00    -0.467 A  
HETATM    6  C   UNL     1     -12.108  13.227  63.438  1.00  0.00    -0.508 A  
HETATM    7  C   UNL     1     -11.759  14.545  63.717  1.00  0.00     0.283 A  
HETATM    8  C   UNL     1     -10.865  14.828  64.750  1.00  0.00    -0.395 A  
HETATM    9  C   UNL     1     -10.318  13.787  65.514  1.00  0.00    -0.321 A  
ENDROOT
BRANCH   9  10
HETATM   10  O   UNL     1      -9.338  14.045  66.499  1.00  0.00    -0.278 OA 
BRANCH  10  11
HETATM   11  C   UNL     1      -9.428  15.242  67.191  1.00  0.00    -0.214 C  
HETATM   12  O   UNL     1      -8.719  16.213  66.970  1.00  0.00    -0.180 OA 
BRANCH  11  13
HETATM   13  C   UNL     1     -10.368  15.134  68.340  1.00  0.00    -0.229 A  
HETATM   14  C   UNL     1     -10.841  13.850  68.661  1.00  0.00    -0.278 A  
HETATM   15  C   UNL     1     -11.851  13.687  69.611  1.00  0.00    -0.396 A  
HETATM   16  C   UNL     1     -12.384  14.801  70.257  1.00  0.00    -0.400 A  
HETATM   17  C   UNL     1     -11.889  16.076  69.978  1.00  0.00    -0.241 A  
HETATM   18  C   UNL     1     -10.882  16.240  69.025  1.00  0.00    -0.315 A  
HETATM   19  O   UNL     1     -10.404  17.495  68.774  1.00  0.00    -0.353 OA 
HETATM   20  H   UNL     1     -10.752  18.246  69.239  1.00  0.00     0.000 HD 
ENDBRANCH  11  13
ENDBRANCH  10  11
ENDBRANCH   9  10
TORSDOF 3
ENDMDL
MODEL      182
REMARK 921   NORMALIZED FREE ENERGY PREDICTED BY IDOCK:   -4.55 KCAL/MOL
REMARK 922        TOTAL FREE ENERGY PREDICTED BY IDOCK:   -5.70 KCAL/MOL
REMARK 923 INTER-LIGAND FREE ENERGY PREDICTED BY IDOCK:   -5.05 KCAL/MOL
REMARK 924 INTRA-LIGAND FREE ENERGY PREDICTED BY IDOCK:   -0.65 KCAL/MOL
REMARK 927      BINDING AFFINITY PREDICTED BY RF-SCORE:    0.00 PKD
ROOT
HETATM    1  O   UNL     1     -10.689  16.796  69.574  1.00  0.00    -0.330 OA 
HETATM    2  C   UNL     1     -10.639  15.645  68.877  1.00  0.00    -0.228 C  
HETATM    3  C   UNL     1     -10.797  15.788  67.402  1.00  0.00    -0.306 A  
HETATM    4  O   UNL     1     -10.541  14.554  69.416  1.00  0.00    -0.227 OA 
HETATM    5  C   UNL     1     -11.340  14.688  66.722  1.00  0.00    -0.360 A  
HETATM    6  C   UNL     1     -11.469  14.700  65.333  1.00  0.00    -0.352 A  
HETATM    7  C   UNL     1     -11.044  15.808  64.606  1.00  0.00    -0.376 A  
HETATM    8  C   UNL     1     -10.505  16.912  65.266  1.00  0.00    -0.101 A  
HETATM    9  C   UNL     1     -10.391  16.912  66.664  1.00  0.00    -0.299 A  
ENDROOT
BRANCH   9  10
HETATM   10  O   UNL     1      -9.758  17.978  67.342  1.00  0.00    -0.283 OA 
BRANCH  10  11
HETATM   11  C   UNL     1      -8.468  18.305  66.955  1.00  0.00    -0.250 C  
HETATM   12  O   UNL     1      -8.201  18.967  65.963  1.00  0.00    -0.443 OA 
BRANCH  11  13
HETATM   13  C   UNL     1      -7.457  17.607  67.797  1.00  0.00    -0.205 A  
HETATM   14  C   UNL     1      -7.126  16.289  67.437  1.00  0.00    -0.200 A  
HETATM   15  C   UNL     1      -6.318  15.514  68.271  1.00  0.00    -0.121 A  
HETATM   16  C   UNL     1      -5.823  16.052  69.458  1.00  0.00    -0.140 A  
HETATM   17  C   UNL     1      -6.109  17.374  69.800  1.00  0.00    -0.228 A  
HETATM   18  C   UNL     1      -6.920  18.150  68.970  1.00  0.00    -0.254 A  
HETATM   19  O   UNL     1      -7.180  19.445  69.316  1.00  0.00    -0.349 OA 
HETATM   20  H   UNL     1      -6.816  19.814  70.113  1.00  0.00     0.000 HD 
ENDBRANCH  11  13
ENDBRANCH  10  11
ENDBRANCH   9  10
TORSDOF 3
ENDMDL
MODEL      183
REMARK 921   NORMALIZED FREE ENERGY PREDICTED BY IDOCK:   -4.55 KCAL/MOL
REMARK 922        TOTAL FREE ENERGY PREDICTED BY IDOCK:   -5.70 KCAL/MOL
REMARK 923 INTER-LIGAND FREE ENERGY PREDICTED BY IDOCK:   -5.02 KCAL/MOL
REMARK 924 INTRA-LIGAND FREE ENERGY PREDICTED BY IDOCK:   -0.68 KCAL/MOL
REMARK 927      BINDING AFFINITY PREDICTED BY RF-SCORE:    0.00 PKD
ROOT
HETATM    1  O   UNL     1     -10.028  11.573  67.742  1.00  0.00    -0.177 OA 
HETATM    2  C   UNL     1     -11.168  11.901  68.378  1.00  0.00    -0.258 C  
HETATM    3  C   UNL     1     -11.129  13.186  69.133  1.00  0.00    -0.248 A  
HETATM    4  O   UNL     1     -12.146  11.170  68.394  1.00  0.00    -0.605 OA 
HETATM    5  C   UNL     1     -11.985  13.287  70.240  1.00  0.00    -0.372 A  
HETATM    6  C   UNL     1     -12.067  14.471  70.972  1.00  0.00    -0.409 A  
HETATM    7  C   UNL     1     -11.302  15.573  70.600  1.00  0.00    -0.367 A  
HETATM    8  C   UNL     1     -10.444  15.488  69.504  1.00  0.00    -0.263 A  
HETATM    9  C   UNL     1     -10.344  14.294  68.775  1.00  0.00    -0.239 A  
ENDROOT
BRANCH   9  10
HETATM   10  O   UNL     1      -9.555  14.219  67.605  1.00  0.00    -0.212 OA 
BRANCH  10  11
HETATM   11  C   UNL     1      -8.192  14.424  67.740  1.00  0.00    -0.168 C  
HETATM   12  O   UNL     1      -7.398  13.550  68.054  1.00  0.00    -0.102 OA 
BRANCH  11  13
HETATM   13  C   UNL     1      -7.847  15.869  67.625  1.00  0.00    -0.164 A  
HETATM   14  C   UNL     1      -8.198  16.517  66.429  1.00  0.00    -0.364 A  
HETATM   15  C   UNL     1      -7.760  17.819  66.178  1.00  0.00    -0.280 A  
HETATM   16  C   UNL     1      -6.986  18.487  67.125  1.00  0.00    -0.213 A  
HETATM   17  C   UNL     1      -6.671  17.868  68.335  1.00  0.00    -0.219 A  
HETATM   18  C   UNL     1      -7.104  16.564  68.586  1.00  0.00    -0.175 A  
HETATM   19  O   UNL     1      -6.796  15.980  69.781  1.00  0.00    -0.181 OA 
HETATM   20  H   UNL     1      -6.291  16.452  70.433  1.00  0.00     0.000 HD 
ENDBRANCH  11  13
ENDBRANCH  10  11
ENDBRANCH   9  10
TORSDOF 3
ENDMDL
MODEL      184
REMARK 921   NORMALIZED FREE ENERGY PREDICTED BY IDOCK:   -4.55 KCAL/MOL
REMARK 922        TOTAL FREE ENERGY PREDICTED BY IDOCK:   -5.70 KCAL/MOL
REMARK 923 INTER-LIGAND FREE ENERGY PREDICTED BY IDOCK:   -5.75 KCAL/MOL
REMARK 924 INTRA-LIGAND FREE ENERGY PREDICTED BY IDOCK:    0.05 KCAL/MOL
REMARK 927      BINDING AFFINITY PREDICTED BY RF-SCORE:    0.00 PKD
ROOT
HETATM    1  O   UNL     1     -11.522  14.850  65.834  1.00  0.00    -0.342 OA 
HETATM    2  C   UNL     1     -11.784  14.101  64.746  1.00  0.00    -0.410 C  
HETATM    3  C   UNL     1     -11.019  12.824  64.655  1.00  0.00    -0.355 A  
HETATM    4  O   UNL     1     -12.541  14.467  63.862  1.00  0.00    -0.827 OA 
HETATM    5  C   UNL     1     -10.782  12.329  63.364  1.00  0.00    -0.438 A  
HETATM    6  C   UNL     1     -10.131  11.110  63.176  1.00  0.00    -0.373 A  
HETATM    7  C   UNL     1      -9.719  10.366  64.277  1.00  0.00    -0.389 A  
HETATM    8  C   UNL     1      -9.943  10.845  65.568  1.00  0.00    -0.315 A  
HETATM    9  C   UNL     1     -10.581  12.079  65.761  1.00  0.00    -0.263 A  
ENDROOT
BRANCH   9  10
HETATM   10  O   UNL     1     -10.905  12.535  67.059  1.00  0.00    -0.244 OA 
BRANCH  10  11
HETATM   11  C   UNL     1     -11.140  11.577  68.032  1.00  0.00    -0.254 C  
HETATM   12  O   UNL     1     -12.249  11.307  68.470  1.00  0.00    -0.588 OA 
BRANCH  11  13
HETATM   13  C   UNL     1      -9.865  11.050  68.593  1.00  0.00    -0.197 A  
HETATM   14  C   UNL     1      -9.901   9.770  69.170  1.00  0.00    -0.192 A  
HETATM   15  C   UNL     1      -8.794   9.279  69.865  1.00  0.00    -0.196 A  
HETATM   16  C   UNL     1      -7.641  10.054  69.974  1.00  0.00    -0.182 A  
HETATM   17  C   UNL     1      -7.580  11.308  69.365  1.00  0.00     0.044 A  
HETATM   18  C   UNL     1      -8.688  11.803  68.673  1.00  0.00    -0.058 A  
HETATM   19  O   UNL     1      -8.605  13.027  68.075  1.00  0.00    -0.168 OA 
HETATM   20  H   UNL     1      -7.805  13.538  68.129  1.00  0.00     0.000 HD 
ENDBRANCH  11  13
ENDBRANCH  10  11
ENDBRANCH   9  10
TORSDOF 3
ENDMDL
MODEL      185
REMARK 921   NORMALIZED FREE ENERGY PREDICTED BY IDOCK:   -4.55 KCAL/MOL
REMARK 922        TOTAL FREE ENERGY PREDICTED BY IDOCK:   -5.70 KCAL/MOL
REMARK 923 INTER-LIGAND FREE ENERGY PREDICTED BY IDOCK:   -5.03 KCAL/MOL
REMARK 924 INTRA-LIGAND FREE ENERGY PREDICTED BY IDOCK:   -0.66 KCAL/MOL
REMARK 927      BINDING AFFINITY PREDICTED BY RF-SCORE:    0.00 PKD
ROOT
HETATM    1  O   UNL     1     -12.107  12.190  69.661  1.00  0.00    -0.280 OA 
HETATM    2  C   UNL     1     -11.424  11.031  69.607  1.00  0.00    -0.303 C  
HETATM    3  C   UNL     1     -10.938  10.641  68.253  1.00  0.00    -0.314 A  
HETATM    4  O   UNL     1     -11.270  10.314  70.583  1.00  0.00    -0.315 OA 
HETATM    5  C   UNL     1     -10.780   9.267  68.018  1.00  0.00    -0.231 A  
HETATM    6  C   UNL     1     -10.271   8.805  66.804  1.00  0.00    -0.354 A  
HETATM    7  C   UNL     1      -9.903   9.713  65.815  1.00  0.00    -0.373 A  
HETATM    8  C   UNL     1     -10.057  11.082  66.031  1.00  0.00    -0.297 A  
HETATM    9  C   UNL     1     -10.586  11.550  67.243  1.00  0.00    -0.228 A  
ENDROOT
BRANCH   9  10
HETATM   10  O   UNL     1     -10.658  12.934  67.518  1.00  0.00    -0.224 OA 
BRANCH  10  11
HETATM   11  C   UNL     1      -9.469  13.596  67.778  1.00  0.00    -0.221 C  
HETATM   12  O   UNL     1      -8.428  13.035  68.084  1.00  0.00    -0.164 OA 
BRANCH  11  13
HETATM   13  C   UNL     1      -9.667  15.072  67.807  1.00  0.00    -0.215 A  
HETATM   14  C   UNL     1     -10.727  15.560  68.590  1.00  0.00    -0.252 A  
HETATM   15  C   UNL     1     -11.081  16.910  68.535  1.00  0.00    -0.213 A  
HETATM   16  C   UNL     1     -10.370  17.782  67.712  1.00  0.00    -0.382 A  
HETATM   17  C   UNL     1      -9.287  17.316  66.966  1.00  0.00    -0.257 A  
HETATM   18  C   UNL     1      -8.935  15.965  67.017  1.00  0.00    -0.217 A  
HETATM   19  O   UNL     1      -7.865  15.530  66.289  1.00  0.00    -0.195 OA 
HETATM   20  H   UNL     1      -7.368  16.137  65.752  1.00  0.00     0.000 HD 
ENDBRANCH  11  13
ENDBRANCH  10  11
ENDBRANCH   9  10
TORSDOF 3
ENDMDL
MODEL      186
REMARK 921   NORMALIZED FREE ENERGY PREDICTED BY IDOCK:   -4.54 KCAL/MOL
REMARK 922        TOTAL FREE ENERGY PREDICTED BY IDOCK:   -5.69 KCAL/MOL
REMARK 923 INTER-LIGAND FREE ENERGY PREDICTED BY IDOCK:   -4.96 KCAL/MOL
REMARK 924 INTRA-LIGAND FREE ENERGY PREDICTED BY IDOCK:   -0.73 KCAL/MOL
REMARK 927      BINDING AFFINITY PREDICTED BY RF-SCORE:    0.00 PKD
ROOT
HETATM    1  O   UNL     1     -10.142   8.426  67.537  1.00  0.00    -0.184 OA 
HETATM    2  C   UNL     1      -9.167   8.946  68.307  1.00  0.00    -0.140 C  
HETATM    3  C   UNL     1      -8.632  10.262  67.855  1.00  0.00    -0.118 A  
HETATM    4  O   UNL     1      -8.702   8.353  69.268  1.00  0.00    -0.135 OA 
HETATM    5  C   UNL     1      -7.305  10.551  68.204  1.00  0.00    -0.088 A  
HETATM    6  C   UNL     1      -6.735  11.782  67.882  1.00  0.00    -0.072 A  
HETATM    7  C   UNL     1      -7.489  12.744  67.217  1.00  0.00    -0.101 A  
HETATM    8  C   UNL     1      -8.810  12.473  66.860  1.00  0.00    -0.203 A  
HETATM    9  C   UNL     1      -9.382  11.229  67.165  1.00  0.00    -0.163 A  
ENDROOT
BRANCH   9  10
HETATM   10  O   UNL     1     -10.745  10.971  66.900  1.00  0.00    -0.253 OA 
BRANCH  10  11
HETATM   11  C   UNL     1     -11.586  12.063  66.755  1.00  0.00    -0.321 C  
HETATM   12  O   UNL     1     -11.950  12.505  65.676  1.00  0.00    -0.423 OA 
BRANCH  11  13
HETATM   13  C   UNL     1     -11.842  12.725  68.065  1.00  0.00    -0.386 A  
HETATM   14  C   UNL     1     -11.668  14.119  68.121  1.00  0.00    -0.390 A  
HETATM   15  C   UNL     1     -11.723  14.786  69.346  1.00  0.00    -0.358 A  
HETATM   16  C   UNL     1     -11.968  14.072  70.518  1.00  0.00    -0.390 A  
HETATM   17  C   UNL     1     -12.187  12.695  70.465  1.00  0.00    -0.383 A  
HETATM   18  C   UNL     1     -12.128  12.025  69.242  1.00  0.00    -0.190 A  
HETATM   19  O   UNL     1     -12.356  10.679  69.210  1.00  0.00    -0.664 OA 
HETATM   20  H   UNL     1     -12.550  10.203  70.009  1.00  0.00     0.000 HD 
ENDBRANCH  11  13
ENDBRANCH  10  11
ENDBRANCH   9  10
TORSDOF 3
ENDMDL
MODEL      187
REMARK 921   NORMALIZED FREE ENERGY PREDICTED BY IDOCK:   -4.54 KCAL/MOL
REMARK 922        TOTAL FREE ENERGY PREDICTED BY IDOCK:   -5.68 KCAL/MOL
REMARK 923 INTER-LIGAND FREE ENERGY PREDICTED BY IDOCK:   -4.92 KCAL/MOL
REMARK 924 INTRA-LIGAND FREE ENERGY PREDICTED BY IDOCK:   -0.77 KCAL/MOL
REMARK 927      BINDING AFFINITY PREDICTED BY RF-SCORE:    0.00 PKD
ROOT
HETATM    1  O   UNL     1     -12.098  10.888  67.978  1.00  0.00    -0.563 OA 
HETATM    2  C   UNL     1     -10.904  11.244  67.467  1.00  0.00    -0.245 C  
HETATM    3  C   UNL     1      -9.726  10.920  68.321  1.00  0.00    -0.171 A  
HETATM    4  O   UNL     1     -10.794  11.850  66.413  1.00  0.00    -0.256 OA 
HETATM    5  C   UNL     1      -8.600  11.744  68.172  1.00  0.00    -0.160 A  
HETATM    6  C   UNL     1      -7.427  11.483  68.880  1.00  0.00    -0.106 A  
HETATM    7  C   UNL     1      -7.361  10.389  69.737  1.00  0.00    -0.157 A  
HETATM    8  C   UNL     1      -8.472   9.562  69.899  1.00  0.00    -0.198 A  
HETATM    9  C   UNL     1      -9.660   9.830  69.204  1.00  0.00    -0.188 A  
ENDROOT
BRANCH   9  10
HETATM   10  O   UNL     1     -10.762   8.949  69.280  1.00  0.00    -0.224 OA 
BRANCH  10  11
HETATM   11  C   UNL     1     -11.224   8.611  70.542  1.00  0.00    -0.241 C  
HETATM   12  O   UNL     1     -11.753   9.402  71.309  1.00  0.00    -0.304 OA 
BRANCH  11  13
HETATM   13  C   UNL     1     -10.839   7.219  70.905  1.00  0.00    -0.262 A  
HETATM   14  C   UNL     1     -10.439   6.372  69.857  1.00  0.00    -0.265 A  
HETATM   15  C   UNL     1     -10.227   5.012  70.092  1.00  0.00    -0.329 A  
HETATM   16  C   UNL     1     -10.397   4.493  71.374  1.00  0.00    -0.117 A  
HETATM   17  C   UNL     1     -10.750   5.335  72.430  1.00  0.00    -0.286 A  
HETATM   18  C   UNL     1     -10.967   6.694  72.195  1.00  0.00    -0.245 A  
HETATM   19  O   UNL     1     -11.301   7.504  73.243  1.00  0.00    -0.599 OA 
HETATM   20  H   UNL     1     -11.388   7.147  74.120  1.00  0.00     0.000 HD 
ENDBRANCH  11  13
ENDBRANCH  10  11
ENDBRANCH   9  10
TORSDOF 3
ENDMDL
MODEL      188
REMARK 921   NORMALIZED FREE ENERGY PREDICTED BY IDOCK:   -4.52 KCAL/MOL
REMARK 922        TOTAL FREE ENERGY PREDICTED BY IDOCK:   -5.67 KCAL/MOL
REMARK 923 INTER-LIGAND FREE ENERGY PREDICTED BY IDOCK:   -4.92 KCAL/MOL
REMARK 924 INTRA-LIGAND FREE ENERGY PREDICTED BY IDOCK:   -0.75 KCAL/MOL
REMARK 927      BINDING AFFINITY PREDICTED BY RF-SCORE:    0.00 PKD
ROOT
HETATM    1  O   UNL     1      -9.489   7.314  69.475  1.00  0.00    -0.156 OA 
HETATM    2  C   UNL     1      -8.626   8.050  70.201  1.00  0.00    -0.130 C  
HETATM    3  C   UNL     1      -8.298   9.389  69.634  1.00  0.00    -0.147 A  
HETATM    4  O   UNL     1      -8.095   7.628  71.216  1.00  0.00    -0.093 OA 
HETATM    5  C   UNL     1      -7.041   9.917  69.965  1.00  0.00    -0.127 A  
HETATM    6  C   UNL     1      -6.666  11.190  69.535  1.00  0.00    -0.132 A  
HETATM    7  C   UNL     1      -7.549  11.955  68.778  1.00  0.00    -0.090 A  
HETATM    8  C   UNL     1      -8.801  11.444  68.438  1.00  0.00    -0.167 A  
HETATM    9  C   UNL     1      -9.175  10.157  68.852  1.00  0.00    -0.172 A  
ENDROOT
BRANCH   9  10
HETATM   10  O   UNL     1     -10.474   9.661  68.601  1.00  0.00    -0.197 OA 
BRANCH  10  11
HETATM   11  C   UNL     1     -11.487  10.588  68.413  1.00  0.00    -0.214 C  
HETATM   12  O   UNL     1     -11.840  11.000  67.317  1.00  0.00    -0.468 OA 
BRANCH  11  13
HETATM   13  C   UNL     1     -11.962  11.142  69.711  1.00  0.00    -0.428 A  
HETATM   14  C   UNL     1     -12.469  10.227  70.649  1.00  0.00    -0.407 A  
HETATM   15  C   UNL     1     -13.088  10.682  71.815  1.00  0.00    -0.571 A  
HETATM   16  C   UNL     1     -13.190  12.051  72.059  1.00  0.00    -0.481 A  
HETATM   17  C   UNL     1     -12.649  12.966  71.155  1.00  0.00    -0.373 A  
HETATM   18  C   UNL     1     -12.034  12.512  69.987  1.00  0.00    -0.299 A  
HETATM   19  O   UNL     1     -11.500  13.422  69.120  1.00  0.00    -0.266 OA 
HETATM   20  H   UNL     1     -11.549  14.353  69.307  1.00  0.00     0.000 HD 
ENDBRANCH  11  13
ENDBRANCH  10  11
ENDBRANCH   9  10
TORSDOF 3
ENDMDL
MODEL      189
REMARK 921   NORMALIZED FREE ENERGY PREDICTED BY IDOCK:   -4.51 KCAL/MOL
REMARK 922        TOTAL FREE ENERGY PREDICTED BY IDOCK:   -5.65 KCAL/MOL
REMARK 923 INTER-LIGAND FREE ENERGY PREDICTED BY IDOCK:   -5.26 KCAL/MOL
REMARK 924 INTRA-LIGAND FREE ENERGY PREDICTED BY IDOCK:   -0.39 KCAL/MOL
REMARK 927      BINDING AFFINITY PREDICTED BY RF-SCORE:    0.00 PKD
ROOT
HETATM    1  O   UNL     1      -8.581  12.481  67.706  1.00  0.00    -0.157 OA 
HETATM    2  C   UNL     1      -9.543  13.267  67.186  1.00  0.00    -0.240 C  
HETATM    3  C   UNL     1     -10.114  12.800  65.890  1.00  0.00    -0.286 A  
HETATM    4  O   UNL     1      -9.879  14.323  67.699  1.00  0.00    -0.220 OA 
HETATM    5  C   UNL     1     -10.626  13.791  65.039  1.00  0.00    -0.402 A  
HETATM    6  C   UNL     1     -11.238  13.448  63.834  1.00  0.00    -0.239 A  
HETATM    7  C   UNL     1     -11.357  12.110  63.470  1.00  0.00    -0.535 A  
HETATM    8  C   UNL     1     -10.851  11.113  64.303  1.00  0.00    -0.354 A  
HETATM    9  C   UNL     1     -10.218  11.453  65.508  1.00  0.00    -0.264 A  
ENDROOT
BRANCH   9  10
HETATM   10  O   UNL     1      -9.787  10.454  66.410  1.00  0.00    -0.196 OA 
BRANCH  10  11
HETATM   11  C   UNL     1      -8.894   9.507  65.936  1.00  0.00    -0.164 C  
HETATM   12  O   UNL     1      -7.960   9.762  65.190  1.00  0.00    -0.118 OA 
BRANCH  11  13
HETATM   13  C   UNL     1      -9.320   8.128  66.306  1.00  0.00    -0.259 A  
HETATM   14  C   UNL     1      -8.653   7.063  65.680  1.00  0.00    -0.121 A  
HETATM   15  C   UNL     1      -9.106   5.752  65.845  1.00  0.00    -0.148 A  
HETATM   16  C   UNL     1     -10.216   5.496  66.649  1.00  0.00    -0.279 A  
HETATM   17  C   UNL     1     -10.857   6.543  67.312  1.00  0.00    -0.463 A  
HETATM   18  C   UNL     1     -10.408   7.855  67.143  1.00  0.00    -0.328 A  
HETATM   19  O   UNL     1     -11.041   8.865  67.809  1.00  0.00    -0.493 OA 
HETATM   20  H   UNL     1     -11.780   8.679  68.378  1.00  0.00     0.000 HD 
ENDBRANCH  11  13
ENDBRANCH  10  11
ENDBRANCH   9  10
TORSDOF 3
ENDMDL
MODEL      190
REMARK 921   NORMALIZED FREE ENERGY PREDICTED BY IDOCK:   -4.45 KCAL/MOL
REMARK 922        TOTAL FREE ENERGY PREDICTED BY IDOCK:   -5.58 KCAL/MOL
REMARK 923 INTER-LIGAND FREE ENERGY PREDICTED BY IDOCK:   -4.84 KCAL/MOL
REMARK 924 INTRA-LIGAND FREE ENERGY PREDICTED BY IDOCK:   -0.75 KCAL/MOL
REMARK 927      BINDING AFFINITY PREDICTED BY RF-SCORE:    0.00 PKD
ROOT
HETATM    1  O   UNL     1      -7.139  11.286  69.476  1.00  0.00    -0.119 OA 
HETATM    2  C   UNL     1      -7.424  11.694  68.224  1.00  0.00    -0.097 C  
HETATM    3  C   UNL     1      -8.341  10.803  67.458  1.00  0.00    -0.115 A  
HETATM    4  O   UNL     1      -6.916  12.686  67.725  1.00  0.00    -0.096 OA 
HETATM    5  C   UNL     1      -8.204  10.817  66.062  1.00  0.00    -0.164 A  
HETATM    6  C   UNL     1      -9.058  10.066  65.254  1.00  0.00    -0.243 A  
HETATM    7  C   UNL     1     -10.067   9.301  65.832  1.00  0.00    -0.188 A  
HETATM    8  C   UNL     1     -10.215   9.274  67.219  1.00  0.00    -0.315 A  
HETATM    9  C   UNL     1      -9.347  10.013  68.036  1.00  0.00    -0.130 A  
ENDROOT
BRANCH   9  10
HETATM   10  O   UNL     1      -9.542  10.075  69.434  1.00  0.00    -0.197 OA 
BRANCH  10  11
HETATM   11  C   UNL     1      -9.826   8.890  70.093  1.00  0.00    -0.178 C  
HETATM   12  O   UNL     1      -9.113   7.898  70.051  1.00  0.00    -0.151 OA 
BRANCH  11  13
HETATM   13  C   UNL     1     -11.182   8.924  70.709  1.00  0.00    -0.321 A  
HETATM   14  C   UNL     1     -11.691  10.184  71.065  1.00  0.00    -0.470 A  
HETATM   15  C   UNL     1     -12.875  10.284  71.798  1.00  0.00    -0.565 A  
HETATM   16  C   UNL     1     -13.566   9.130  72.165  1.00  0.00    -0.534 A  
HETATM   17  C   UNL     1     -13.092   7.877  71.776  1.00  0.00    -0.352 A  
HETATM   18  C   UNL     1     -11.905   7.775  71.047  1.00  0.00    -0.272 A  
HETATM   19  O   UNL     1     -11.464   6.540  70.666  1.00  0.00    -0.328 OA 
HETATM   20  H   UNL     1     -11.955   5.760  70.895  1.00  0.00     0.000 HD 
ENDBRANCH  11  13
ENDBRANCH  10  11
ENDBRANCH   9  10
TORSDOF 3
ENDMDL
MODEL      191
REMARK 921   NORMALIZED FREE ENERGY PREDICTED BY IDOCK:   -4.45 KCAL/MOL
REMARK 922        TOTAL FREE ENERGY PREDICTED BY IDOCK:   -5.58 KCAL/MOL
REMARK 923 INTER-LIGAND FREE ENERGY PREDICTED BY IDOCK:   -4.62 KCAL/MOL
REMARK 924 INTRA-LIGAND FREE ENERGY PREDICTED BY IDOCK:   -0.96 KCAL/MOL
REMARK 927      BINDING AFFINITY PREDICTED BY RF-SCORE:    0.00 PKD
ROOT
HETATM    1  O   UNL     1     -11.348  14.790  67.444  1.00  0.00    -0.327 OA 
HETATM    2  C   UNL     1     -10.129  14.909  66.885  1.00  0.00    -0.242 C  
HETATM    3  C   UNL     1      -9.085  13.997  67.434  1.00  0.00    -0.209 A  
HETATM    4  O   UNL     1      -9.874  15.749  66.036  1.00  0.00    -0.287 OA 
HETATM    5  C   UNL     1      -7.759  14.447  67.358  1.00  0.00    -0.207 A  
HETATM    6  C   UNL     1      -6.706  13.639  67.787  1.00  0.00    -0.177 A  
HETATM    7  C   UNL     1      -6.965  12.367  68.287  1.00  0.00    -0.091 A  
HETATM    8  C   UNL     1      -8.279  11.905  68.373  1.00  0.00    -0.160 A  
HETATM    9  C   UNL     1      -9.343  12.721  67.960  1.00  0.00    -0.213 A  
ENDROOT
BRANCH   9  10
HETATM   10  O   UNL     1     -10.669  12.235  67.948  1.00  0.00    -0.205 OA 
BRANCH  10  11
HETATM   11  C   UNL     1     -10.887  10.987  67.387  1.00  0.00    -0.274 C  
HETATM   12  O   UNL     1     -11.162   9.987  68.034  1.00  0.00    -0.244 OA 
BRANCH  11  13
HETATM   13  C   UNL     1     -10.574  10.985  65.931  1.00  0.00    -0.270 A  
HETATM   14  C   UNL     1     -11.224  11.946  65.136  1.00  0.00    -0.346 A  
HETATM   15  C   UNL     1     -11.115  11.900  63.745  1.00  0.00    -0.510 A  
HETATM   16  C   UNL     1     -10.345  10.908  63.140  1.00  0.00    -0.172 A  
HETATM   17  C   UNL     1      -9.660   9.978  63.922  1.00  0.00    -0.217 A  
HETATM   18  C   UNL     1      -9.772  10.019  65.314  1.00  0.00    -0.306 A  
HETATM   19  O   UNL     1      -9.085   9.108  66.063  1.00  0.00    -0.168 OA 
HETATM   20  H   UNL     1      -8.539   8.452  65.644  1.00  0.00     0.000 HD 
ENDBRANCH  11  13
ENDBRANCH  10  11
ENDBRANCH   9  10
TORSDOF 3
ENDMDL
MODEL      192
REMARK 921   NORMALIZED FREE ENERGY PREDICTED BY IDOCK:   -4.44 KCAL/MOL
REMARK 922        TOTAL FREE ENERGY PREDICTED BY IDOCK:   -5.57 KCAL/MOL
REMARK 923 INTER-LIGAND FREE ENERGY PREDICTED BY IDOCK:   -4.75 KCAL/MOL
REMARK 924 INTRA-LIGAND FREE ENERGY PREDICTED BY IDOCK:   -0.82 KCAL/MOL
REMARK 927      BINDING AFFINITY PREDICTED BY RF-SCORE:    0.00 PKD
ROOT
HETATM    1  O   UNL     1     -10.447  10.178  65.263  1.00  0.00    -0.193 OA 
HETATM    2  C   UNL     1      -9.159   9.798  65.364  1.00  0.00    -0.204 C  
HETATM    3  C   UNL     1      -8.351  10.552  66.365  1.00  0.00    -0.145 A  
HETATM    4  O   UNL     1      -8.666   8.946  64.642  1.00  0.00    -0.172 OA 
HETATM    5  C   UNL     1      -6.974  10.645  66.114  1.00  0.00    -0.135 A  
HETATM    6  C   UNL     1      -6.124  11.275  67.023  1.00  0.00    -0.108 A  
HETATM    7  C   UNL     1      -6.640  11.810  68.200  1.00  0.00    -0.056 A  
HETATM    8  C   UNL     1      -8.007  11.729  68.464  1.00  0.00    -0.145 A  
HETATM    9  C   UNL     1      -8.868  11.113  67.544  1.00  0.00    -0.139 A  
ENDROOT
BRANCH   9  10
HETATM   10  O   UNL     1     -10.239  10.934  67.837  1.00  0.00    -0.171 OA 
BRANCH  10  11
HETATM   11  C   UNL     1     -11.007  12.073  68.019  1.00  0.00    -0.223 C  
HETATM   12  O   UNL     1     -11.033  13.010  67.234  1.00  0.00    -0.255 OA 
BRANCH  11  13
HETATM   13  C   UNL     1     -11.652  12.083  69.361  1.00  0.00    -0.393 A  
HETATM   14  C   UNL     1     -12.001  10.838  69.912  1.00  0.00    -0.418 A  
HETATM   15  C   UNL     1     -12.758  10.773  71.083  1.00  0.00    -0.532 A  
HETATM   16  C   UNL     1     -13.157  11.948  71.720  1.00  0.00    -0.465 A  
HETATM   17  C   UNL     1     -12.776  13.187  71.205  1.00  0.00    -0.396 A  
HETATM   18  C   UNL     1     -12.023  13.254  70.031  1.00  0.00    -0.329 A  
HETATM   19  O   UNL     1     -11.650  14.476  69.549  1.00  0.00    -0.272 OA 
HETATM   20  H   UNL     1     -11.902  15.271  70.004  1.00  0.00     0.000 HD 
ENDBRANCH  11  13
ENDBRANCH  10  11
ENDBRANCH   9  10
TORSDOF 3
ENDMDL
MODEL      193
REMARK 921   NORMALIZED FREE ENERGY PREDICTED BY IDOCK:   -4.42 KCAL/MOL
REMARK 922        TOTAL FREE ENERGY PREDICTED BY IDOCK:   -5.54 KCAL/MOL
REMARK 923 INTER-LIGAND FREE ENERGY PREDICTED BY IDOCK:   -5.02 KCAL/MOL
REMARK 924 INTRA-LIGAND FREE ENERGY PREDICTED BY IDOCK:   -0.52 KCAL/MOL
REMARK 927      BINDING AFFINITY PREDICTED BY RF-SCORE:    0.00 PKD
ROOT
HETATM    1  O   UNL     1     -10.734   8.280  68.334  1.00  0.00    -0.143 OA 
HETATM    2  C   UNL     1     -10.160   8.577  69.515  1.00  0.00    -0.200 C  
HETATM    3  C   UNL     1      -8.974   9.477  69.437  1.00  0.00    -0.174 A  
HETATM    4  O   UNL     1     -10.537   8.092  70.571  1.00  0.00    -0.212 OA 
HETATM    5  C   UNL     1      -8.020   9.345  70.457  1.00  0.00    -0.199 A  
HETATM    6  C   UNL     1      -6.907  10.184  70.507  1.00  0.00    -0.084 A  
HETATM    7  C   UNL     1      -6.741  11.175  69.543  1.00  0.00    -0.132 A  
HETATM    8  C   UNL     1      -7.678  11.318  68.521  1.00  0.00    -0.131 A  
HETATM    9  C   UNL     1      -8.789  10.464  68.456  1.00  0.00    -0.142 A  
ENDROOT
BRANCH   9  10
HETATM   10  O   UNL     1      -9.799  10.657  67.486  1.00  0.00    -0.164 OA 
BRANCH  10  11
HETATM   11  C   UNL     1     -10.252  11.950  67.284  1.00  0.00    -0.200 C  
HETATM   12  O   UNL     1     -10.308  12.799  68.162  1.00  0.00    -0.225 OA 
BRANCH  11  13
HETATM   13  C   UNL     1     -10.818  12.118  65.917  1.00  0.00    -0.316 A  
HETATM   14  C   UNL     1     -12.125  12.626  65.824  1.00  0.00    -0.484 A  
HETATM   15  C   UNL     1     -12.786  12.652  64.594  1.00  0.00    -0.458 A  
HETATM   16  C   UNL     1     -12.142  12.187  63.448  1.00  0.00    -0.608 A  
HETATM   17  C   UNL     1     -10.828  11.724  63.523  1.00  0.00    -0.496 A  
HETATM   18  C   UNL     1     -10.168  11.692  64.753  1.00  0.00    -0.275 A  
HETATM   19  O   UNL     1      -8.878  11.245  64.804  1.00  0.00    -0.378 OA 
HETATM   20  H   UNL     1      -8.436  10.957  64.014  1.00  0.00     0.000 HD 
ENDBRANCH  11  13
ENDBRANCH  10  11
ENDBRANCH   9  10
TORSDOF 3
ENDMDL
MODEL      194
REMARK 921   NORMALIZED FREE ENERGY PREDICTED BY IDOCK:   -4.41 KCAL/MOL
REMARK 922        TOTAL FREE ENERGY PREDICTED BY IDOCK:   -5.54 KCAL/MOL
REMARK 923 INTER-LIGAND FREE ENERGY PREDICTED BY IDOCK:   -4.79 KCAL/MOL
REMARK 924 INTRA-LIGAND FREE ENERGY PREDICTED BY IDOCK:   -0.74 KCAL/MOL
REMARK 927      BINDING AFFINITY PREDICTED BY RF-SCORE:    0.00 PKD
ROOT
HETATM    1  O   UNL     1      -8.497  11.258  66.471  1.00  0.00    -0.163 OA 
HETATM    2  C   UNL     1      -8.660  10.250  65.593  1.00  0.00    -0.161 C  
HETATM    3  C   UNL     1      -8.878   8.906  66.200  1.00  0.00    -0.193 A  
HETATM    4  O   UNL     1      -8.569  10.409  64.386  1.00  0.00    -0.174 OA 
HETATM    5  C   UNL     1      -8.466   7.803  65.439  1.00  0.00    -0.124 A  
HETATM    6  C   UNL     1      -8.684   6.502  65.893  1.00  0.00    -0.149 A  
HETATM    7  C   UNL     1      -9.328   6.289  67.108  1.00  0.00    -0.130 A  
HETATM    8  C   UNL     1      -9.742   7.375  67.878  1.00  0.00    -0.166 A  
HETATM    9  C   UNL     1      -9.508   8.685  67.435  1.00  0.00    -0.150 A  
ENDROOT
BRANCH   9  10
HETATM   10  O   UNL     1     -10.006   9.796  68.153  1.00  0.00    -0.146 OA 
BRANCH  10  11
HETATM   11  C   UNL     1      -9.723   9.860  69.508  1.00  0.00    -0.220 C  
HETATM   12  O   UNL     1      -8.592   9.847  69.970  1.00  0.00    -0.203 OA 
BRANCH  11  13
HETATM   13  C   UNL     1     -10.965   9.770  70.325  1.00  0.00    -0.352 A  
HETATM   14  C   UNL     1     -11.806  10.896  70.336  1.00  0.00    -0.449 A  
HETATM   15  C   UNL     1     -12.896  10.953  71.207  1.00  0.00    -0.536 A  
HETATM   16  C   UNL     1     -13.162   9.882  72.059  1.00  0.00    -0.555 A  
HETATM   17  C   UNL     1     -12.359   8.742  72.023  1.00  0.00    -0.444 A  
HETATM   18  C   UNL     1     -11.267   8.685  71.155  1.00  0.00    -0.272 A  
HETATM   19  O   UNL     1     -10.499   7.556  71.126  1.00  0.00    -0.206 OA 
HETATM   20  H   UNL     1     -10.704   6.819  71.690  1.00  0.00     0.000 HD 
ENDBRANCH  11  13
ENDBRANCH  10  11
ENDBRANCH   9  10
TORSDOF 3
ENDMDL
MODEL      195
REMARK 921   NORMALIZED FREE ENERGY PREDICTED BY IDOCK:   -4.38 KCAL/MOL
REMARK 922        TOTAL FREE ENERGY PREDICTED BY IDOCK:   -5.49 KCAL/MOL
REMARK 923 INTER-LIGAND FREE ENERGY PREDICTED BY IDOCK:   -4.87 KCAL/MOL
REMARK 924 INTRA-LIGAND FREE ENERGY PREDICTED BY IDOCK:   -0.62 KCAL/MOL
REMARK 927      BINDING AFFINITY PREDICTED BY RF-SCORE:    0.00 PKD
ROOT
HETATM    1  O   UNL     1     -12.074  11.379  68.342  1.00  0.00    -0.575 OA 
HETATM    2  C   UNL     1     -11.987  11.307  69.684  1.00  0.00    -0.353 C  
HETATM    3  C   UNL     1     -11.524   9.996  70.222  1.00  0.00    -0.372 A  
HETATM    4  O   UNL     1     -12.326  12.225  70.414  1.00  0.00    -0.302 OA 
HETATM    5  C   UNL     1     -11.967   9.659  71.510  1.00  0.00    -0.485 A  
HETATM    6  C   UNL     1     -11.538   8.483  72.126  1.00  0.00    -0.447 A  
HETATM    7  C   UNL     1     -10.652   7.636  71.466  1.00  0.00    -0.239 A  
HETATM    8  C   UNL     1     -10.205   7.956  70.184  1.00  0.00    -0.202 A  
HETATM    9  C   UNL     1     -10.648   9.127  69.553  1.00  0.00    -0.223 A  
ENDROOT
BRANCH   9  10
HETATM   10  O   UNL     1     -10.131   9.517  68.297  1.00  0.00    -0.169 OA 
BRANCH  10  11
HETATM   11  C   UNL     1     -10.009   8.537  67.325  1.00  0.00    -0.225 C  
HETATM   12  O   UNL     1     -10.892   7.742  67.043  1.00  0.00    -0.316 OA 
BRANCH  11  13
HETATM   13  C   UNL     1      -8.617   8.469  66.798  1.00  0.00    -0.119 A  
HETATM   14  C   UNL     1      -7.596   8.191  67.722  1.00  0.00    -0.098 A  
HETATM   15  C   UNL     1      -6.256   8.278  67.339  1.00  0.00    -0.056 A  
HETATM   16  C   UNL     1      -5.928   8.625  66.030  1.00  0.00    -0.048 A  
HETATM   17  C   UNL     1      -6.935   8.857  65.093  1.00  0.00    -0.080 A  
HETATM   18  C   UNL     1      -8.276   8.776  65.476  1.00  0.00    -0.132 A  
HETATM   19  O   UNL     1      -9.248   8.996  64.542  1.00  0.00    -0.431 OA 
HETATM   20  H   UNL     1      -9.016   9.204  63.644  1.00  0.00     0.000 HD 
ENDBRANCH  11  13
ENDBRANCH  10  11
ENDBRANCH   9  10
TORSDOF 3
ENDMDL
MODEL      196
REMARK 921   NORMALIZED FREE ENERGY PREDICTED BY IDOCK:   -4.36 KCAL/MOL
REMARK 922        TOTAL FREE ENERGY PREDICTED BY IDOCK:   -5.47 KCAL/MOL
REMARK 923 INTER-LIGAND FREE ENERGY PREDICTED BY IDOCK:   -5.15 KCAL/MOL
REMARK 924 INTRA-LIGAND FREE ENERGY PREDICTED BY IDOCK:   -0.31 KCAL/MOL
REMARK 927      BINDING AFFINITY PREDICTED BY RF-SCORE:    0.00 PKD
ROOT
HETATM    1  O   UNL     1     -10.876  14.059  64.267  1.00  0.00    -0.313 OA 
HETATM    2  C   UNL     1     -11.232  12.760  64.239  1.00  0.00    -0.364 C  
HETATM    3  C   UNL     1     -10.425  11.860  65.110  1.00  0.00    -0.330 A  
HETATM    4  O   UNL     1     -12.108  12.335  63.501  1.00  0.00    -0.494 OA 
HETATM    5  C   UNL     1     -10.324  10.521  64.703  1.00  0.00    -0.290 A  
HETATM    6  C   UNL     1      -9.644   9.587  65.485  1.00  0.00    -0.349 A  
HETATM    7  C   UNL     1      -9.067   9.978  66.689  1.00  0.00    -0.169 A  
HETATM    8  C   UNL     1      -9.156  11.306  67.108  1.00  0.00    -0.160 A  
HETATM    9  C   UNL     1      -9.822  12.253  66.316  1.00  0.00    -0.241 A  
ENDROOT
BRANCH   9  10
HETATM   10  O   UNL     1     -10.007  13.578  66.769  1.00  0.00    -0.255 OA 
BRANCH  10  11
HETATM   11  C   UNL     1      -8.872  14.323  67.044  1.00  0.00    -0.226 C  
HETATM   12  O   UNL     1      -7.732  13.899  66.927  1.00  0.00     0.076 OA 
BRANCH  11  13
HETATM   13  C   UNL     1      -9.221  15.633  67.661  1.00  0.00    -0.193 A  
HETATM   14  C   UNL     1      -9.952  15.601  68.861  1.00  0.00    -0.215 A  
HETATM   15  C   UNL     1     -10.461  16.780  69.408  1.00  0.00    -0.312 A  
HETATM   16  C   UNL     1     -10.230  17.999  68.772  1.00  0.00    -0.362 A  
HETATM   17  C   UNL     1      -9.467  18.046  67.604  1.00  0.00    -0.264 A  
HETATM   18  C   UNL     1      -8.961  16.867  67.053  1.00  0.00    -0.215 A  
HETATM   19  O   UNL     1      -8.208  16.935  65.917  1.00  0.00    -0.478 OA 
HETATM   20  H   UNL     1      -8.031  17.772  65.504  1.00  0.00     0.000 HD 
ENDBRANCH  11  13
ENDBRANCH  10  11
ENDBRANCH   9  10
TORSDOF 3
ENDMDL
MODEL      197
REMARK 921   NORMALIZED FREE ENERGY PREDICTED BY IDOCK:   -4.35 KCAL/MOL
REMARK 922        TOTAL FREE ENERGY PREDICTED BY IDOCK:   -5.47 KCAL/MOL
REMARK 923 INTER-LIGAND FREE ENERGY PREDICTED BY IDOCK:   -4.89 KCAL/MOL
REMARK 924 INTRA-LIGAND FREE ENERGY PREDICTED BY IDOCK:   -0.58 KCAL/MOL
REMARK 927      BINDING AFFINITY PREDICTED BY RF-SCORE:    0.00 PKD
ROOT
HETATM    1  O   UNL     1      -7.736  12.796  67.640  1.00  0.00    -0.136 OA 
HETATM    2  C   UNL     1      -8.132  14.042  67.317  1.00  0.00    -0.156 C  
HETATM    3  C   UNL     1      -9.477  14.137  66.681  1.00  0.00    -0.303 A  
HETATM    4  O   UNL     1      -7.416  15.019  67.470  1.00  0.00    -0.168 OA 
HETATM    5  C   UNL     1      -9.684  15.223  65.818  1.00  0.00    -0.385 A  
HETATM    6  C   UNL     1     -10.929  15.435  65.224  1.00  0.00    -0.397 A  
HETATM    7  C   UNL     1     -11.984  14.570  65.496  1.00  0.00    -0.312 A  
HETATM    8  C   UNL     1     -11.795  13.484  66.351  1.00  0.00    -0.435 A  
HETATM    9  C   UNL     1     -10.540  13.256  66.935  1.00  0.00    -0.264 A  
ENDROOT
BRANCH   9  10
HETATM   10  O   UNL     1     -10.355  12.220  67.878  1.00  0.00    -0.199 OA 
BRANCH  10  11
HETATM   11  C   UNL     1     -11.027  11.029  67.659  1.00  0.00    -0.275 C  
HETATM   12  O   UNL     1     -12.155  10.797  68.068  1.00  0.00    -0.474 OA 
BRANCH  11  13
HETATM   13  C   UNL     1     -10.140  10.016  67.021  1.00  0.00    -0.274 A  
HETATM   14  C   UNL     1      -9.353   9.226  67.876  1.00  0.00    -0.143 A  
HETATM   15  C   UNL     1      -8.377   8.377  67.350  1.00  0.00    -0.124 A  
HETATM   16  C   UNL     1      -8.192   8.300  65.971  1.00  0.00    -0.119 A  
HETATM   17  C   UNL     1      -9.000   9.046  65.112  1.00  0.00    -0.216 A  
HETATM   18  C   UNL     1      -9.973   9.899  65.637  1.00  0.00    -0.283 A  
HETATM   19  O   UNL     1     -10.762  10.613  64.780  1.00  0.00    -0.225 OA 
HETATM   20  H   UNL     1     -10.649  10.533  63.840  1.00  0.00     0.000 HD 
ENDBRANCH  11  13
ENDBRANCH  10  11
ENDBRANCH   9  10
TORSDOF 3
ENDMDL
MODEL      198
REMARK 921   NORMALIZED FREE ENERGY PREDICTED BY IDOCK:   -4.34 KCAL/MOL
REMARK 922        TOTAL FREE ENERGY PREDICTED BY IDOCK:   -5.45 KCAL/MOL
REMARK 923 INTER-LIGAND FREE ENERGY PREDICTED BY IDOCK:   -4.82 KCAL/MOL
REMARK 924 INTRA-LIGAND FREE ENERGY PREDICTED BY IDOCK:   -0.63 KCAL/MOL
REMARK 927      BINDING AFFINITY PREDICTED BY RF-SCORE:    0.00 PKD
ROOT
HETATM    1  O   UNL     1      -7.836  14.205  67.237  1.00  0.00    -0.183 OA 
HETATM    2  C   UNL     1      -8.108  15.086  68.218  1.00  0.00    -0.133 C  
HETATM    3  C   UNL     1      -9.503  15.045  68.742  1.00  0.00    -0.210 A  
HETATM    4  O   UNL     1      -7.294  15.909  68.607  1.00  0.00    -0.128 OA 
HETATM    5  C   UNL     1     -10.007  16.241  69.274  1.00  0.00    -0.259 A  
HETATM    6  C   UNL     1     -11.278  16.288  69.845  1.00  0.00    -0.319 A  
HETATM    7  C   UNL     1     -12.057  15.135  69.903  1.00  0.00    -0.373 A  
HETATM    8  C   UNL     1     -11.572  13.938  69.376  1.00  0.00    -0.350 A  
HETATM    9  C   UNL     1     -10.302  13.891  68.783  1.00  0.00    -0.206 A  
ENDROOT
BRANCH   9  10
HETATM   10  O   UNL     1      -9.755  12.668  68.333  1.00  0.00    -0.222 OA 
BRANCH  10  11
HETATM   11  C   UNL     1     -10.486  11.944  67.406  1.00  0.00    -0.217 C  
HETATM   12  O   UNL     1     -11.241  12.449  66.588  1.00  0.00    -0.281 OA 
BRANCH  11  13
HETATM   13  C   UNL     1     -10.367  10.479  67.647  1.00  0.00    -0.257 A  
HETATM   14  C   UNL     1     -10.175   9.660  66.521  1.00  0.00    -0.294 A  
HETATM   15  C   UNL     1     -10.225   8.270  66.645  1.00  0.00    -0.333 A  
HETATM   16  C   UNL     1     -10.449   7.690  67.893  1.00  0.00    -0.270 A  
HETATM   17  C   UNL     1     -10.594   8.495  69.023  1.00  0.00    -0.173 A  
HETATM   18  C   UNL     1     -10.550   9.885  68.900  1.00  0.00    -0.218 A  
HETATM   19  O   UNL     1     -10.684  10.656  70.019  1.00  0.00    -0.397 OA 
HETATM   20  H   UNL     1     -10.808  10.253  70.871  1.00  0.00     0.000 HD 
ENDBRANCH  11  13
ENDBRANCH  10  11
ENDBRANCH   9  10
TORSDOF 3
ENDMDL
MODEL      199
REMARK 921   NORMALIZED FREE ENERGY PREDICTED BY IDOCK:   -4.27 KCAL/MOL
REMARK 922        TOTAL FREE ENERGY PREDICTED BY IDOCK:   -5.37 KCAL/MOL
REMARK 923 INTER-LIGAND FREE ENERGY PREDICTED BY IDOCK:   -4.68 KCAL/MOL
REMARK 924 INTRA-LIGAND FREE ENERGY PREDICTED BY IDOCK:   -0.69 KCAL/MOL
REMARK 927      BINDING AFFINITY PREDICTED BY RF-SCORE:    0.00 PKD
ROOT
HETATM    1  O   UNL     1     -10.897  16.730  66.487  1.00  0.00    -0.162 OA 
HETATM    2  C   UNL     1      -9.877  17.609  66.535  1.00  0.00    -0.319 C  
HETATM    3  C   UNL     1      -8.781  17.259  67.483  1.00  0.00    -0.212 A  
HETATM    4  O   UNL     1      -9.878  18.652  65.902  1.00  0.00    -0.510 OA 
HETATM    5  C   UNL     1      -8.049  18.331  68.016  1.00  0.00    -0.279 A  
HETATM    6  C   UNL     1      -6.964  18.103  68.862  1.00  0.00    -0.274 A  
HETATM    7  C   UNL     1      -6.591  16.800  69.177  1.00  0.00    -0.214 A  
HETATM    8  C   UNL     1      -7.309  15.723  68.658  1.00  0.00    -0.137 A  
HETATM    9  C   UNL     1      -8.413  15.947  67.822  1.00  0.00    -0.158 A  
ENDROOT
BRANCH   9  10
HETATM   10  O   UNL     1      -9.091  14.870  67.210  1.00  0.00    -0.185 OA 
BRANCH  10  11
HETATM   11  C   UNL     1      -9.876  14.066  68.020  1.00  0.00    -0.228 C  
HETATM   12  O   UNL     1     -10.478  14.469  69.005  1.00  0.00    -0.239 OA 
BRANCH  11  13
HETATM   13  C   UNL     1      -9.752  12.631  67.642  1.00  0.00    -0.197 A  
HETATM   14  C   UNL     1      -8.455  12.092  67.596  1.00  0.00    -0.160 A  
HETATM   15  C   UNL     1      -8.243  10.808  67.088  1.00  0.00    -0.123 A  
HETATM   16  C   UNL     1      -9.323  10.050  66.640  1.00  0.00    -0.202 A  
HETATM   17  C   UNL     1     -10.619  10.559  66.724  1.00  0.00    -0.284 A  
HETATM   18  C   UNL     1     -10.832  11.844  67.227  1.00  0.00    -0.247 A  
HETATM   19  O   UNL     1     -12.109  12.321  67.313  1.00  0.00    -0.548 OA 
HETATM   20  H   UNL     1     -12.843  11.787  67.031  1.00  0.00     0.000 HD 
ENDBRANCH  11  13
ENDBRANCH  10  11
ENDBRANCH   9  10
TORSDOF 3
ENDMDL
MODEL      200
REMARK 921   NORMALIZED FREE ENERGY PREDICTED BY IDOCK:   -4.26 KCAL/MOL
REMARK 922        TOTAL FREE ENERGY PREDICTED BY IDOCK:   -5.35 KCAL/MOL
REMARK 923 INTER-LIGAND FREE ENERGY PREDICTED BY IDOCK:   -5.10 KCAL/MOL
REMARK 924 INTRA-LIGAND FREE ENERGY PREDICTED BY IDOCK:   -0.26 KCAL/MOL
REMARK 927      BINDING AFFINITY PREDICTED BY RF-SCORE:    0.00 PKD
ROOT
HETATM    1  O   UNL     1      -8.336   8.968  66.459  1.00  0.00    -0.112 OA 
HETATM    2  C   UNL     1      -8.346   8.041  67.436  1.00  0.00    -0.123 C  
HETATM    3  C   UNL     1      -8.945   8.484  68.727  1.00  0.00    -0.139 A  
HETATM    4  O   UNL     1      -7.841   6.937  67.301  1.00  0.00    -0.106 OA 
HETATM    5  C   UNL     1      -8.471   7.851  69.886  1.00  0.00    -0.127 A  
HETATM    6  C   UNL     1      -9.013   8.151  71.136  1.00  0.00    -0.174 A  
HETATM    7  C   UNL     1     -10.045   9.080  71.240  1.00  0.00    -0.384 A  
HETATM    8  C   UNL     1     -10.526   9.720  70.098  1.00  0.00    -0.338 A  
HETATM    9  C   UNL     1      -9.971   9.436  68.842  1.00  0.00    -0.179 A  
ENDROOT
BRANCH   9  10
HETATM   10  O   UNL     1     -10.510  10.000  67.664  1.00  0.00    -0.211 OA 
BRANCH  10  11
HETATM   11  C   UNL     1     -11.360  11.084  67.807  1.00  0.00    -0.292 C  
HETATM   12  O   UNL     1     -12.312  11.109  68.573  1.00  0.00    -0.561 OA 
BRANCH  11  13
HETATM   13  C   UNL     1     -11.073  12.135  66.791  1.00  0.00    -0.349 A  
HETATM   14  C   UNL     1     -11.207  13.473  67.200  1.00  0.00    -0.324 A  
HETATM   15  C   UNL     1     -11.121  14.507  66.266  1.00  0.00    -0.332 A  
HETATM   16  C   UNL     1     -10.885  14.215  64.924  1.00  0.00    -0.423 A  
HETATM   17  C   UNL     1     -10.705  12.892  64.516  1.00  0.00    -0.392 A  
HETATM   18  C   UNL     1     -10.796  11.857  65.448  1.00  0.00    -0.294 A  
HETATM   19  O   UNL     1     -10.606  10.570  65.032  1.00  0.00    -0.234 OA 
HETATM   20  H   UNL     1     -10.418  10.381  64.120  1.00  0.00     0.000 HD 
ENDBRANCH  11  13
ENDBRANCH  10  11
ENDBRANCH   9  10
TORSDOF 3
ENDMDL
MODEL      201
REMARK 921   NORMALIZED FREE ENERGY PREDICTED BY IDOCK:   -4.21 KCAL/MOL
REMARK 922        TOTAL FREE ENERGY PREDICTED BY IDOCK:   -5.30 KCAL/MOL
REMARK 923 INTER-LIGAND FREE ENERGY PREDICTED BY IDOCK:   -4.51 KCAL/MOL
REMARK 924 INTRA-LIGAND FREE ENERGY PREDICTED BY IDOCK:   -0.79 KCAL/MOL
REMARK 927      BINDING AFFINITY PREDICTED BY RF-SCORE:    0.00 PKD
ROOT
HETATM    1  O   UNL     1      -8.905   7.987  66.781  1.00  0.00    -0.129 OA 
HETATM    2  C   UNL     1      -8.381   6.786  67.093  1.00  0.00    -0.121 C  
HETATM    3  C   UNL     1      -7.990   6.615  68.521  1.00  0.00    -0.118 A  
HETATM    4  O   UNL     1      -8.176   5.921  66.256  1.00  0.00    -0.109 OA 
HETATM    5  C   UNL     1      -6.952   5.709  68.781  1.00  0.00    -0.064 A  
HETATM    6  C   UNL     1      -6.557   5.432  70.089  1.00  0.00    -0.039 A  
HETATM    7  C   UNL     1      -7.203   6.050  71.155  1.00  0.00    -0.075 A  
HETATM    8  C   UNL     1      -8.236   6.956  70.915  1.00  0.00    -0.118 A  
HETATM    9  C   UNL     1      -8.625   7.252  69.600  1.00  0.00    -0.137 A  
ENDROOT
BRANCH   9  10
HETATM   10  O   UNL     1      -9.731   8.090  69.340  1.00  0.00    -0.167 OA 
BRANCH  10  11
HETATM   11  C   UNL     1      -9.710   9.364  69.886  1.00  0.00    -0.212 C  
HETATM   12  O   UNL     1      -8.753  10.120  69.816  1.00  0.00    -0.188 OA 
BRANCH  11  13
HETATM   13  C   UNL     1     -10.925   9.620  70.708  1.00  0.00    -0.397 A  
HETATM   14  C   UNL     1     -11.438   8.540  71.446  1.00  0.00    -0.344 A  
HETATM   15  C   UNL     1     -12.664   8.654  72.104  1.00  0.00    -0.447 A  
HETATM   16  C   UNL     1     -13.378   9.850  72.043  1.00  0.00    -0.532 A  
HETATM   17  C   UNL     1     -12.855  10.943  71.350  1.00  0.00    -0.554 A  
HETATM   18  C   UNL     1     -11.631  10.829  70.688  1.00  0.00    -0.290 A  
HETATM   19  O   UNL     1     -11.130  11.912  70.025  1.00  0.00    -0.469 OA 
HETATM   20  H   UNL     1     -11.609  12.733  70.012  1.00  0.00     0.000 HD 
ENDBRANCH  11  13
ENDBRANCH  10  11
ENDBRANCH   9  10
TORSDOF 3
ENDMDL
MODEL      202
REMARK 921   NORMALIZED FREE ENERGY PREDICTED BY IDOCK:   -4.19 KCAL/MOL
REMARK 922        TOTAL FREE ENERGY PREDICTED BY IDOCK:   -5.27 KCAL/MOL
REMARK 923 INTER-LIGAND FREE ENERGY PREDICTED BY IDOCK:   -5.03 KCAL/MOL
REMARK 924 INTRA-LIGAND FREE ENERGY PREDICTED BY IDOCK:   -0.24 KCAL/MOL
REMARK 927      BINDING AFFINITY PREDICTED BY RF-SCORE:    0.00 PKD
ROOT
HETATM    1  O   UNL     1     -11.262  12.521  67.629  1.00  0.00    -0.250 OA 
HETATM    2  C   UNL     1     -11.552  12.177  66.360  1.00  0.00    -0.364 C  
HETATM    3  C   UNL     1     -10.607  11.210  65.731  1.00  0.00    -0.289 A  
HETATM    4  O   UNL     1     -12.482  12.670  65.740  1.00  0.00    -0.607 OA 
HETATM    5  C   UNL     1     -10.483  11.274  64.336  1.00  0.00    -0.407 A  
HETATM    6  C   UNL     1      -9.672  10.370  63.649  1.00  0.00    -0.338 A  
HETATM    7  C   UNL     1      -8.984   9.384  64.350  1.00  0.00    -0.215 A  
HETATM    8  C   UNL     1      -9.094   9.308  65.738  1.00  0.00    -0.260 A  
HETATM    9  C   UNL     1      -9.893  10.226  66.435  1.00  0.00    -0.217 A  
ENDROOT
BRANCH   9  10
HETATM   10  O   UNL     1     -10.095  10.105  67.828  1.00  0.00    -0.165 OA 
BRANCH  10  11
HETATM   11  C   UNL     1      -8.997   9.773  68.605  1.00  0.00    -0.130 C  
HETATM   12  O   UNL     1      -7.839   9.864  68.226  1.00  0.00    -0.085 OA 
BRANCH  11  13
HETATM   13  C   UNL     1      -9.413   9.133  69.884  1.00  0.00    -0.199 A  
HETATM   14  C   UNL     1     -10.791   9.092  70.160  1.00  0.00    -0.269 A  
HETATM   15  C   UNL     1     -11.247   8.664  71.409  1.00  0.00    -0.345 A  
HETATM   16  C   UNL     1     -10.334   8.260  72.382  1.00  0.00    -0.402 A  
HETATM   17  C   UNL     1      -8.967   8.254  72.101  1.00  0.00    -0.274 A  
HETATM   18  C   UNL     1      -8.509   8.686  70.854  1.00  0.00    -0.166 A  
HETATM   19  O   UNL     1      -7.169   8.662  70.594  1.00  0.00    -0.047 OA 
HETATM   20  H   UNL     1      -6.555   8.358  71.253  1.00  0.00     0.000 HD 
ENDBRANCH  11  13
ENDBRANCH  10  11
ENDBRANCH   9  10
TORSDOF 3
ENDMDL
MODEL      203
REMARK 921   NORMALIZED FREE ENERGY PREDICTED BY IDOCK:   -4.18 KCAL/MOL
REMARK 922        TOTAL FREE ENERGY PREDICTED BY IDOCK:   -5.26 KCAL/MOL
REMARK 923 INTER-LIGAND FREE ENERGY PREDICTED BY IDOCK:   -4.96 KCAL/MOL
REMARK 924 INTRA-LIGAND FREE ENERGY PREDICTED BY IDOCK:   -0.30 KCAL/MOL
REMARK 927      BINDING AFFINITY PREDICTED BY RF-SCORE:    0.00 PKD
ROOT
HETATM    1  O   UNL     1     -11.046   9.970  67.737  1.00  0.00    -0.286 OA 
HETATM    2  C   UNL     1     -11.381  10.794  68.748  1.00  0.00    -0.288 C  
HETATM    3  C   UNL     1     -11.836  10.118  69.996  1.00  0.00    -0.253 A  
HETATM    4  O   UNL     1     -11.378  12.010  68.633  1.00  0.00    -0.229 OA 
HETATM    5  C   UNL     1     -12.722  10.839  70.810  1.00  0.00    -0.451 A  
HETATM    6  C   UNL     1     -13.156  10.317  72.029  1.00  0.00    -0.529 A  
HETATM    7  C   UNL     1     -12.699   9.074  72.454  1.00  0.00    -0.433 A  
HETATM    8  C   UNL     1     -11.820   8.342  71.656  1.00  0.00    -0.357 A  
HETATM    9  C   UNL     1     -11.396   8.854  70.421  1.00  0.00    -0.202 A  
ENDROOT
BRANCH   9  10
HETATM   10  O   UNL     1     -10.431   8.173  69.645  1.00  0.00    -0.219 OA 
BRANCH  10  11
HETATM   11  C   UNL     1     -10.751   6.901  69.199  1.00  0.00    -0.234 C  
HETATM   12  O   UNL     1     -11.589   6.184  69.726  1.00  0.00    -0.405 OA 
BRANCH  11  13
HETATM   13  C   UNL     1      -9.829   6.459  68.116  1.00  0.00    -0.127 A  
HETATM   14  C   UNL     1     -10.415   5.931  66.953  1.00  0.00    -0.349 A  
HETATM   15  C   UNL     1      -9.620   5.341  65.969  1.00  0.00    -0.166 A  
HETATM   16  C   UNL     1      -8.237   5.290  66.130  1.00  0.00    -0.110 A  
HETATM   17  C   UNL     1      -7.642   5.853  67.260  1.00  0.00    -0.096 A  
HETATM   18  C   UNL     1      -8.436   6.439  68.248  1.00  0.00    -0.115 A  
HETATM   19  O   UNL     1      -7.835   6.994  69.341  1.00  0.00    -0.109 OA 
HETATM   20  H   UNL     1      -6.889   6.980  69.430  1.00  0.00     0.000 HD 
ENDBRANCH  11  13
ENDBRANCH  10  11
ENDBRANCH   9  10
TORSDOF 3
ENDMDL
MODEL      204
REMARK 921   NORMALIZED FREE ENERGY PREDICTED BY IDOCK:   -4.18 KCAL/MOL
REMARK 922        TOTAL FREE ENERGY PREDICTED BY IDOCK:   -5.26 KCAL/MOL
REMARK 923 INTER-LIGAND FREE ENERGY PREDICTED BY IDOCK:   -4.81 KCAL/MOL
REMARK 924 INTRA-LIGAND FREE ENERGY PREDICTED BY IDOCK:   -0.45 KCAL/MOL
REMARK 927      BINDING AFFINITY PREDICTED BY RF-SCORE:    0.00 PKD
ROOT
HETATM    1  O   UNL     1     -12.203   6.636  71.971  1.00  0.00    -0.329 OA 
HETATM    2  C   UNL     1     -11.251   5.748  72.316  1.00  0.00    -0.278 C  
HETATM    3  C   UNL     1     -10.538   5.105  71.176  1.00  0.00    -0.195 A  
HETATM    4  O   UNL     1     -11.032   5.437  73.477  1.00  0.00    -0.285 OA 
HETATM    5  C   UNL     1     -10.018   3.823  71.407  1.00  0.00    -0.178 A  
HETATM    6  C   UNL     1      -9.280   3.165  70.424  1.00  0.00    -0.215 A  
HETATM    7  C   UNL     1      -9.043   3.786  69.201  1.00  0.00    -0.200 A  
HETATM    8  C   UNL     1      -9.555   5.059  68.954  1.00  0.00    -0.213 A  
HETATM    9  C   UNL     1     -10.314   5.718  69.933  1.00  0.00    -0.262 A  
ENDROOT
BRANCH   9  10
HETATM   10  O   UNL     1     -10.757   7.045  69.738  1.00  0.00    -0.225 OA 
BRANCH  10  11
HETATM   11  C   UNL     1      -9.791   8.031  69.624  1.00  0.00    -0.184 C  
HETATM   12  O   UNL     1      -8.651   7.923  70.053  1.00  0.00    -0.132 OA 
BRANCH  11  13
HETATM   13  C   UNL     1     -10.365   9.290  69.073  1.00  0.00    -0.228 A  
HETATM   14  C   UNL     1     -11.077  10.111  69.964  1.00  0.00    -0.368 A  
HETATM   15  C   UNL     1     -11.785  11.217  69.490  1.00  0.00    -0.405 A  
HETATM   16  C   UNL     1     -11.774  11.519  68.129  1.00  0.00    -0.357 A  
HETATM   17  C   UNL     1     -11.033  10.736  67.244  1.00  0.00    -0.359 A  
HETATM   18  C   UNL     1     -10.328   9.627  67.716  1.00  0.00    -0.236 A  
HETATM   19  O   UNL     1      -9.599   8.879  66.835  1.00  0.00    -0.162 OA 
HETATM   20  H   UNL     1      -9.574   9.108  65.913  1.00  0.00     0.000 HD 
ENDBRANCH  11  13
ENDBRANCH  10  11
ENDBRANCH   9  10
TORSDOF 3
ENDMDL
MODEL      205
REMARK 921   NORMALIZED FREE ENERGY PREDICTED BY IDOCK:   -4.18 KCAL/MOL
REMARK 922        TOTAL FREE ENERGY PREDICTED BY IDOCK:   -5.26 KCAL/MOL
REMARK 923 INTER-LIGAND FREE ENERGY PREDICTED BY IDOCK:   -4.39 KCAL/MOL
REMARK 924 INTRA-LIGAND FREE ENERGY PREDICTED BY IDOCK:   -0.87 KCAL/MOL
REMARK 927      BINDING AFFINITY PREDICTED BY RF-SCORE:    0.00 PKD
ROOT
HETATM    1  O   UNL     1      -9.463  12.013  67.003  1.00  0.00    -0.189 OA 
HETATM    2  C   UNL     1      -8.821  11.000  66.390  1.00  0.00    -0.177 C  
HETATM    3  C   UNL     1      -7.878  10.231  67.251  1.00  0.00    -0.103 A  
HETATM    4  O   UNL     1      -8.949  10.766  65.198  1.00  0.00    -0.194 OA 
HETATM    5  C   UNL     1      -6.797   9.617  66.600  1.00  0.00    -0.084 A  
HETATM    6  C   UNL     1      -5.895   8.824  67.309  1.00  0.00    -0.043 A  
HETATM    7  C   UNL     1      -6.069   8.626  68.676  1.00  0.00    -0.045 A  
HETATM    8  C   UNL     1      -7.137   9.231  69.338  1.00  0.00    -0.053 A  
HETATM    9  C   UNL     1      -8.036  10.044  68.633  1.00  0.00    -0.102 A  
ENDROOT
BRANCH   9  10
HETATM   10  O   UNL     1      -9.177  10.585  69.266  1.00  0.00    -0.191 OA 
BRANCH  10  11
HETATM   11  C   UNL     1     -10.259   9.742  69.463  1.00  0.00    -0.221 C  
HETATM   12  O   UNL     1     -10.435   8.702  68.845  1.00  0.00    -0.215 OA 
BRANCH  11  13
HETATM   13  C   UNL     1     -11.256  10.347  70.389  1.00  0.00    -0.399 A  
HETATM   14  C   UNL     1     -11.888   9.484  71.301  1.00  0.00    -0.450 A  
HETATM   15  C   UNL     1     -12.952   9.941  72.081  1.00  0.00    -0.471 A  
HETATM   16  C   UNL     1     -13.380  11.263  71.970  1.00  0.00    -0.386 A  
HETATM   17  C   UNL     1     -12.729  12.139  71.100  1.00  0.00    -0.351 A  
HETATM   18  C   UNL     1     -11.668  11.682  70.315  1.00  0.00    -0.266 A  
HETATM   19  O   UNL     1     -11.036  12.557  69.479  1.00  0.00    -0.452 OA 
HETATM   20  H   UNL     1     -11.316  13.464  69.429  1.00  0.00     0.000 HD 
ENDBRANCH  11  13
ENDBRANCH  10  11
ENDBRANCH   9  10
TORSDOF 3
ENDMDL
MODEL      206
REMARK 921   NORMALIZED FREE ENERGY PREDICTED BY IDOCK:   -4.16 KCAL/MOL
REMARK 922        TOTAL FREE ENERGY PREDICTED BY IDOCK:   -5.24 KCAL/MOL
REMARK 923 INTER-LIGAND FREE ENERGY PREDICTED BY IDOCK:   -4.80 KCAL/MOL
REMARK 924 INTRA-LIGAND FREE ENERGY PREDICTED BY IDOCK:   -0.44 KCAL/MOL
REMARK 927      BINDING AFFINITY PREDICTED BY RF-SCORE:    0.00 PKD
ROOT
HETATM    1  O   UNL     1      -8.566  16.792  65.518  1.00  0.00    -0.267 OA 
HETATM    2  C   UNL     1      -9.882  16.652  65.770  1.00  0.00    -0.211 C  
HETATM    3  C   UNL     1     -10.275  15.362  66.405  1.00  0.00    -0.296 A  
HETATM    4  O   UNL     1     -10.707  17.490  65.441  1.00  0.00    -0.612 OA 
HETATM    5  C   UNL     1     -11.578  14.911  66.150  1.00  0.00    -0.228 A  
HETATM    6  C   UNL     1     -12.061  13.748  66.749  1.00  0.00    -0.460 A  
HETATM    7  C   UNL     1     -11.249  13.027  67.621  1.00  0.00    -0.315 A  
HETATM    8  C   UNL     1      -9.949  13.460  67.883  1.00  0.00    -0.236 A  
HETATM    9  C   UNL     1      -9.453  14.619  67.268  1.00  0.00    -0.219 A  
ENDROOT
BRANCH   9  10
HETATM   10  O   UNL     1      -8.176  15.127  67.596  1.00  0.00    -0.144 OA 
BRANCH  10  11
HETATM   11  C   UNL     1      -7.963  15.522  68.907  1.00  0.00    -0.187 C  
HETATM   12  O   UNL     1      -7.943  14.753  69.857  1.00  0.00     0.027 OA 
BRANCH  11  13
HETATM   13  C   UNL     1      -7.938  17.006  69.028  1.00  0.00    -0.153 A  
HETATM   14  C   UNL     1      -9.162  17.681  68.887  1.00  0.00    -0.143 A  
HETATM   15  C   UNL     1      -9.195  19.075  68.818  1.00  0.00    -0.388 A  
HETATM   16  C   UNL     1      -8.010  19.804  68.905  1.00  0.00    -0.206 A  
HETATM   17  C   UNL     1      -6.795  19.145  69.092  1.00  0.00    -0.361 A  
HETATM   18  C   UNL     1      -6.760  17.750  69.156  1.00  0.00    -0.239 A  
HETATM   19  O   UNL     1      -5.562  17.124  69.350  1.00  0.00    -0.163 OA 
HETATM   20  H   UNL     1      -4.762  17.630  69.437  1.00  0.00     0.000 HD 
ENDBRANCH  11  13
ENDBRANCH  10  11
ENDBRANCH   9  10
TORSDOF 3
ENDMDL
MODEL      207
REMARK 921   NORMALIZED FREE ENERGY PREDICTED BY IDOCK:   -4.15 KCAL/MOL
REMARK 922        TOTAL FREE ENERGY PREDICTED BY IDOCK:   -5.23 KCAL/MOL
REMARK 923 INTER-LIGAND FREE ENERGY PREDICTED BY IDOCK:   -4.42 KCAL/MOL
REMARK 924 INTRA-LIGAND FREE ENERGY PREDICTED BY IDOCK:   -0.82 KCAL/MOL
REMARK 927      BINDING AFFINITY PREDICTED BY RF-SCORE:    0.00 PKD
ROOT
HETATM    1  O   UNL     1      -6.916  12.439  67.167  1.00  0.00    -0.143 OA 
HETATM    2  C   UNL     1      -8.055  13.066  67.519  1.00  0.00    -0.179 C  
HETATM    3  C   UNL     1      -9.248  12.728  66.693  1.00  0.00    -0.212 A  
HETATM    4  O   UNL     1      -8.097  13.903  68.408  1.00  0.00    -0.137 OA 
HETATM    5  C   UNL     1     -10.240  13.715  66.595  1.00  0.00    -0.276 A  
HETATM    6  C   UNL     1     -11.423  13.471  65.897  1.00  0.00    -0.338 A  
HETATM    7  C   UNL     1     -11.633  12.233  65.298  1.00  0.00    -0.405 A  
HETATM    8  C   UNL     1     -10.656  11.241  65.383  1.00  0.00    -0.312 A  
HETATM    9  C   UNL     1      -9.457  11.488  66.068  1.00  0.00    -0.229 A  
ENDROOT
BRANCH   9  10
HETATM   10  O   UNL     1      -8.499  10.466  66.248  1.00  0.00    -0.135 OA 
BRANCH  10  11
HETATM   11  C   UNL     1      -8.969   9.187  66.500  1.00  0.00    -0.148 C  
HETATM   12  O   UNL     1      -9.158   8.347  65.633  1.00  0.00    -0.172 OA 
BRANCH  11  13
HETATM   13  C   UNL     1      -9.374   9.030  67.925  1.00  0.00    -0.155 A  
HETATM   14  C   UNL     1      -8.593   9.692  68.888  1.00  0.00    -0.127 A  
HETATM   15  C   UNL     1      -8.805   9.458  70.248  1.00  0.00    -0.269 A  
HETATM   16  C   UNL     1      -9.804   8.576  70.655  1.00  0.00    -0.218 A  
HETATM   17  C   UNL     1     -10.614   7.949  69.708  1.00  0.00    -0.242 A  
HETATM   18  C   UNL     1     -10.401   8.179  68.347  1.00  0.00    -0.199 A  
HETATM   19  O   UNL     1     -11.211   7.565  67.435  1.00  0.00    -0.522 OA 
HETATM   20  H   UNL     1     -11.908   6.986  67.721  1.00  0.00     0.000 HD 
ENDBRANCH  11  13
ENDBRANCH  10  11
ENDBRANCH   9  10
TORSDOF 3
ENDMDL
MODEL      208
REMARK 921   NORMALIZED FREE ENERGY PREDICTED BY IDOCK:   -4.13 KCAL/MOL
REMARK 922        TOTAL FREE ENERGY PREDICTED BY IDOCK:   -5.21 KCAL/MOL
REMARK 923 INTER-LIGAND FREE ENERGY PREDICTED BY IDOCK:   -4.64 KCAL/MOL
REMARK 924 INTRA-LIGAND FREE ENERGY PREDICTED BY IDOCK:   -0.56 KCAL/MOL
REMARK 927      BINDING AFFINITY PREDICTED BY RF-SCORE:    0.00 PKD
ROOT
HETATM    1  O   UNL     1      -7.604  12.442  66.596  1.00  0.00     0.076 OA 
HETATM    2  C   UNL     1      -8.142  12.597  67.821  1.00  0.00    -0.166 C  
HETATM    3  C   UNL     1      -9.373  13.437  67.873  1.00  0.00    -0.216 A  
HETATM    4  O   UNL     1      -7.626  12.140  68.828  1.00  0.00    -0.114 OA 
HETATM    5  C   UNL     1      -9.619  14.110  69.079  1.00  0.00     0.029 A  
HETATM    6  C   UNL     1     -10.776  14.870  69.249  1.00  0.00    -0.253 A  
HETATM    7  C   UNL     1     -11.707  14.957  68.218  1.00  0.00    -0.342 A  
HETATM    8  C   UNL     1     -11.476  14.297  67.011  1.00  0.00    -0.377 A  
HETATM    9  C   UNL     1     -10.305  13.546  66.829  1.00  0.00    -0.264 A  
ENDROOT
BRANCH   9  10
HETATM   10  O   UNL     1     -10.100  12.792  65.653  1.00  0.00    -0.274 OA 
BRANCH  10  11
HETATM   11  C   UNL     1     -10.802  11.604  65.525  1.00  0.00    -0.279 C  
HETATM   12  O   UNL     1     -11.880  11.387  66.059  1.00  0.00    -0.176 OA 
BRANCH  11  13
HETATM   13  C   UNL     1      -9.999  10.576  64.807  1.00  0.00    -0.412 A  
HETATM   14  C   UNL     1      -9.414   9.563  65.585  1.00  0.00    -0.326 A  
HETATM   15  C   UNL     1      -8.512   8.665  65.011  1.00  0.00    -0.192 A  
HETATM   16  C   UNL     1      -8.201   8.762  63.655  1.00  0.00    -0.163 A  
HETATM   17  C   UNL     1      -8.812   9.736  62.865  1.00  0.00    -0.255 A  
HETATM   18  C   UNL     1      -9.711  10.637  63.439  1.00  0.00    -0.339 A  
HETATM   19  O   UNL     1     -10.307  11.577  62.647  1.00  0.00    -0.601 OA 
HETATM   20  H   UNL     1     -10.112  11.618  61.717  1.00  0.00     0.000 HD 
ENDBRANCH  11  13
ENDBRANCH  10  11
ENDBRANCH   9  10
TORSDOF 3
ENDMDL
MODEL      209
REMARK 921   NORMALIZED FREE ENERGY PREDICTED BY IDOCK:   -4.13 KCAL/MOL
REMARK 922        TOTAL FREE ENERGY PREDICTED BY IDOCK:   -5.20 KCAL/MOL
REMARK 923 INTER-LIGAND FREE ENERGY PREDICTED BY IDOCK:   -3.98 KCAL/MOL
REMARK 924 INTRA-LIGAND FREE ENERGY PREDICTED BY IDOCK:   -1.22 KCAL/MOL
REMARK 927      BINDING AFFINITY PREDICTED BY RF-SCORE:    0.00 PKD
ROOT
HETATM    1  O   UNL     1     -11.835   6.420  72.009  1.00  0.00    -0.317 OA 
HETATM    2  C   UNL     1     -10.777   5.588  71.997  1.00  0.00    -0.234 C  
HETATM    3  C   UNL     1     -10.388   5.072  70.654  1.00  0.00    -0.278 A  
HETATM    4  O   UNL     1     -10.215   5.224  73.019  1.00  0.00    -0.170 OA 
HETATM    5  C   UNL     1      -9.753   3.822  70.624  1.00  0.00    -0.235 A  
HETATM    6  C   UNL     1      -9.294   3.284  69.422  1.00  0.00    -0.232 A  
HETATM    7  C   UNL     1      -9.455   3.995  68.236  1.00  0.00    -0.216 A  
HETATM    8  C   UNL     1     -10.087   5.238  68.248  1.00  0.00    -0.219 A  
HETATM    9  C   UNL     1     -10.566   5.775  69.451  1.00  0.00    -0.313 A  
ENDROOT
BRANCH   9  10
HETATM   10  O   UNL     1     -11.120   7.074  69.498  1.00  0.00    -0.238 OA 
BRANCH  10  11
HETATM   11  C   UNL     1     -10.306   8.130  69.122  1.00  0.00    -0.220 C  
HETATM   12  O   UNL     1     -10.467   8.787  68.104  1.00  0.00    -0.216 OA 
BRANCH  11  13
HETATM   13  C   UNL     1      -9.121   8.245  70.018  1.00  0.00    -0.150 A  
HETATM   14  C   UNL     1      -7.886   7.817  69.503  1.00  0.00    -0.111 A  
HETATM   15  C   UNL     1      -6.767   7.735  70.334  1.00  0.00    -0.038 A  
HETATM   16  C   UNL     1      -6.869   8.095  71.677  1.00  0.00    -0.063 A  
HETATM   17  C   UNL     1      -8.080   8.565  72.186  1.00  0.00    -0.162 A  
HETATM   18  C   UNL     1      -9.202   8.643  71.357  1.00  0.00    -0.235 A  
HETATM   19  O   UNL     1     -10.375   9.116  71.871  1.00  0.00    -0.335 OA 
HETATM   20  H   UNL     1     -10.430   9.386  72.780  1.00  0.00     0.000 HD 
ENDBRANCH  11  13
ENDBRANCH  10  11
ENDBRANCH   9  10
TORSDOF 3
ENDMDL
MODEL      210
REMARK 921   NORMALIZED FREE ENERGY PREDICTED BY IDOCK:   -4.12 KCAL/MOL
REMARK 922        TOTAL FREE ENERGY PREDICTED BY IDOCK:   -5.19 KCAL/MOL
REMARK 923 INTER-LIGAND FREE ENERGY PREDICTED BY IDOCK:   -4.64 KCAL/MOL
REMARK 924 INTRA-LIGAND FREE ENERGY PREDICTED BY IDOCK:   -0.55 KCAL/MOL
REMARK 927      BINDING AFFINITY PREDICTED BY RF-SCORE:    0.00 PKD
ROOT
HETATM    1  O   UNL     1      -9.623   8.240  69.801  1.00  0.00    -0.169 OA 
HETATM    2  C   UNL     1      -8.672   8.894  70.494  1.00  0.00    -0.186 C  
HETATM    3  C   UNL     1      -8.142  10.125  69.841  1.00  0.00    -0.139 A  
HETATM    4  O   UNL     1      -8.223   8.477  71.550  1.00  0.00    -0.130 OA 
HETATM    5  C   UNL     1      -6.826  10.488  70.165  1.00  0.00    -0.145 A  
HETATM    6  C   UNL     1      -6.263  11.658  69.655  1.00  0.00    -0.127 A  
HETATM    7  C   UNL     1      -7.012  12.485  68.824  1.00  0.00    -0.094 A  
HETATM    8  C   UNL     1      -8.321  12.138  68.490  1.00  0.00    -0.093 A  
HETATM    9  C   UNL     1      -8.886  10.953  68.985  1.00  0.00    -0.096 A  
ENDROOT
BRANCH   9  10
HETATM   10  O   UNL     1     -10.240  10.634  68.738  1.00  0.00    -0.172 OA 
BRANCH  10  11
HETATM   11  C   UNL     1     -11.143  11.683  68.680  1.00  0.00    -0.234 C  
HETATM   12  O   UNL     1     -11.772  12.096  69.643  1.00  0.00    -0.303 OA 
BRANCH  11  13
HETATM   13  C   UNL     1     -11.375  12.121  67.275  1.00  0.00    -0.398 A  
HETATM   14  C   UNL     1     -10.951  11.251  66.256  1.00  0.00    -0.265 A  
HETATM   15  C   UNL     1     -10.979  11.663  64.922  1.00  0.00    -0.345 A  
HETATM   16  C   UNL     1     -11.444  12.936  64.596  1.00  0.00    -0.369 A  
HETATM   17  C   UNL     1     -11.910  13.789  65.597  1.00  0.00    -0.383 A  
HETATM   18  C   UNL     1     -11.879  13.381  66.932  1.00  0.00    -0.403 A  
HETATM   19  O   UNL     1     -12.349  14.225  67.896  1.00  0.00    -0.589 OA 
HETATM   20  H   UNL     1     -12.691  15.081  67.663  1.00  0.00     0.000 HD 
ENDBRANCH  11  13
ENDBRANCH  10  11
ENDBRANCH   9  10
TORSDOF 3
ENDMDL
MODEL      211
REMARK 921   NORMALIZED FREE ENERGY PREDICTED BY IDOCK:   -4.11 KCAL/MOL
REMARK 922        TOTAL FREE ENERGY PREDICTED BY IDOCK:   -5.18 KCAL/MOL
REMARK 923 INTER-LIGAND FREE ENERGY PREDICTED BY IDOCK:   -4.56 KCAL/MOL
REMARK 924 INTRA-LIGAND FREE ENERGY PREDICTED BY IDOCK:   -0.62 KCAL/MOL
REMARK 927      BINDING AFFINITY PREDICTED BY RF-SCORE:    0.00 PKD
ROOT
HETATM    1  O   UNL     1     -10.298   4.845  70.158  1.00  0.00    -0.265 OA 
HETATM    2  C   UNL     1     -10.113   4.583  71.466  1.00  0.00    -0.169 C  
HETATM    3  C   UNL     1      -9.614   5.729  72.279  1.00  0.00    -0.164 A  
HETATM    4  O   UNL     1     -10.276   3.472  71.944  1.00  0.00    -0.141 OA 
HETATM    5  C   UNL     1      -8.862   5.405  73.418  1.00  0.00    -0.113 A  
HETATM    6  C   UNL     1      -8.404   6.404  74.277  1.00  0.00    -0.132 A  
HETATM    7  C   UNL     1      -8.703   7.738  74.014  1.00  0.00    -0.316 A  
HETATM    8  C   UNL     1      -9.447   8.077  72.884  1.00  0.00    -0.346 A  
HETATM    9  C   UNL     1      -9.894   7.078  72.007  1.00  0.00    -0.159 A  
ENDROOT
BRANCH   9  10
HETATM   10  O   UNL     1     -10.730   7.391  70.913  1.00  0.00    -0.229 OA 
BRANCH  10  11
HETATM   11  C   UNL     1     -10.181   8.137  69.882  1.00  0.00    -0.204 C  
HETATM   12  O   UNL     1      -9.193   7.799  69.246  1.00  0.00    -0.146 OA 
BRANCH  11  13
HETATM   13  C   UNL     1     -10.838   9.469  69.768  1.00  0.00    -0.264 A  
HETATM   14  C   UNL     1     -11.508   9.951  70.906  1.00  0.00    -0.456 A  
HETATM   15  C   UNL     1     -12.288  11.106  70.827  1.00  0.00    -0.504 A  
HETATM   16  C   UNL     1     -12.391  11.796  69.620  1.00  0.00    -0.142 A  
HETATM   17  C   UNL     1     -11.692  11.351  68.498  1.00  0.00    -0.386 A  
HETATM   18  C   UNL     1     -10.915  10.193  68.573  1.00  0.00    -0.232 A  
HETATM   19  O   UNL     1     -10.230   9.779  67.467  1.00  0.00    -0.191 OA 
HETATM   20  H   UNL     1     -10.282  10.270  66.655  1.00  0.00     0.000 HD 
ENDBRANCH  11  13
ENDBRANCH  10  11
ENDBRANCH   9  10
TORSDOF 3
ENDMDL
MODEL      212
REMARK 921   NORMALIZED FREE ENERGY PREDICTED BY IDOCK:   -4.11 KCAL/MOL
REMARK 922        TOTAL FREE ENERGY PREDICTED BY IDOCK:   -5.18 KCAL/MOL
REMARK 923 INTER-LIGAND FREE ENERGY PREDICTED BY IDOCK:   -4.28 KCAL/MOL
REMARK 924 INTRA-LIGAND FREE ENERGY PREDICTED BY IDOCK:   -0.90 KCAL/MOL
REMARK 927      BINDING AFFINITY PREDICTED BY RF-SCORE:    0.00 PKD
ROOT
HETATM    1  O   UNL     1      -7.754  16.098  66.792  1.00  0.00    -0.225 OA 
HETATM    2  C   UNL     1      -8.327  16.348  67.985  1.00  0.00    -0.178 C  
HETATM    3  C   UNL     1      -9.608  15.627  68.238  1.00  0.00    -0.200 A  
HETATM    4  O   UNL     1      -7.871  17.157  68.777  1.00  0.00    -0.255 OA 
HETATM    5  C   UNL     1     -10.514  16.250  69.109  1.00  0.00    -0.280 A  
HETATM    6  C   UNL     1     -11.712  15.626  69.458  1.00  0.00    -0.382 A  
HETATM    7  C   UNL     1     -12.012  14.366  68.949  1.00  0.00    -0.337 A  
HETATM    8  C   UNL     1     -11.123  13.734  68.080  1.00  0.00    -0.282 A  
HETATM    9  C   UNL     1      -9.926  14.365  67.711  1.00  0.00    -0.226 A  
ENDROOT
BRANCH   9  10
HETATM   10  O   UNL     1      -8.970  13.701  66.911  1.00  0.00    -0.237 OA 
BRANCH  10  11
HETATM   11  C   UNL     1      -8.374  12.566  67.438  1.00  0.00    -0.182 C  
HETATM   12  O   UNL     1      -7.759  12.547  68.494  1.00  0.00    -0.129 OA 
BRANCH  11  13
HETATM   13  C   UNL     1      -8.431  11.429  66.477  1.00  0.00    -0.170 A  
HETATM   14  C   UNL     1      -9.700  11.054  66.005  1.00  0.00    -0.265 A  
HETATM   15  C   UNL     1      -9.852   9.896  65.239  1.00  0.00    -0.373 A  
HETATM   16  C   UNL     1      -8.739   9.117  64.927  1.00  0.00    -0.215 A  
HETATM   17  C   UNL     1      -7.469   9.507  65.353  1.00  0.00    -0.099 A  
HETATM   18  C   UNL     1      -7.316  10.662  66.123  1.00  0.00    -0.138 A  
HETATM   19  O   UNL     1      -6.063  11.033  66.521  1.00  0.00    -0.106 OA 
HETATM   20  H   UNL     1      -5.306  10.512  66.280  1.00  0.00     0.000 HD 
ENDBRANCH  11  13
ENDBRANCH  10  11
ENDBRANCH   9  10
TORSDOF 3
ENDMDL
MODEL      213
REMARK 921   NORMALIZED FREE ENERGY PREDICTED BY IDOCK:   -4.10 KCAL/MOL
REMARK 922        TOTAL FREE ENERGY PREDICTED BY IDOCK:   -5.17 KCAL/MOL
REMARK 923 INTER-LIGAND FREE ENERGY PREDICTED BY IDOCK:   -4.34 KCAL/MOL
REMARK 924 INTRA-LIGAND FREE ENERGY PREDICTED BY IDOCK:   -0.83 KCAL/MOL
REMARK 927      BINDING AFFINITY PREDICTED BY RF-SCORE:    0.00 PKD
ROOT
HETATM    1  O   UNL     1      -7.598  12.866  67.581  1.00  0.00    -0.129 OA 
HETATM    2  C   UNL     1      -7.940  13.979  68.258  1.00  0.00    -0.146 C  
HETATM    3  C   UNL     1      -9.404  14.191  68.436  1.00  0.00    -0.208 A  
HETATM    4  O   UNL     1      -7.116  14.795  68.641  1.00  0.00    -0.102 OA 
HETATM    5  C   UNL     1      -9.833  15.521  68.565  1.00  0.00    -0.202 A  
HETATM    6  C   UNL     1     -11.175  15.818  68.799  1.00  0.00    -0.342 A  
HETATM    7  C   UNL     1     -12.104  14.789  68.918  1.00  0.00    -0.240 A  
HETATM    8  C   UNL     1     -11.696  13.461  68.789  1.00  0.00    -0.377 A  
HETATM    9  C   UNL     1     -10.350  13.158  68.536  1.00  0.00    -0.238 A  
ENDROOT
BRANCH   9  10
HETATM   10  O   UNL     1      -9.901  11.819  68.500  1.00  0.00    -0.203 OA 
BRANCH  10  11
HETATM   11  C   UNL     1     -10.673  10.904  67.802  1.00  0.00    -0.235 C  
HETATM   12  O   UNL     1     -11.579  10.254  68.302  1.00  0.00    -0.264 OA 
BRANCH  11  13
HETATM   13  C   UNL     1     -10.148  10.692  66.425  1.00  0.00    -0.279 A  
HETATM   14  C   UNL     1     -10.894  11.235  65.365  1.00  0.00    -0.255 A  
HETATM   15  C   UNL     1     -10.561  10.936  64.042  1.00  0.00    -0.310 A  
HETATM   16  C   UNL     1      -9.474  10.107  63.769  1.00  0.00    -0.330 A  
HETATM   17  C   UNL     1      -8.700   9.600  64.813  1.00  0.00    -0.219 A  
HETATM   18  C   UNL     1      -9.035   9.895  66.137  1.00  0.00    -0.150 A  
HETATM   19  O   UNL     1      -8.258   9.398  67.144  1.00  0.00    -0.112 OA 
HETATM   20  H   UNL     1      -7.502   8.857  66.949  1.00  0.00     0.000 HD 
ENDBRANCH  11  13
ENDBRANCH  10  11
ENDBRANCH   9  10
TORSDOF 3
ENDMDL
MODEL      214
REMARK 921   NORMALIZED FREE ENERGY PREDICTED BY IDOCK:   -4.09 KCAL/MOL
REMARK 922        TOTAL FREE ENERGY PREDICTED BY IDOCK:   -5.16 KCAL/MOL
REMARK 923 INTER-LIGAND FREE ENERGY PREDICTED BY IDOCK:   -4.60 KCAL/MOL
REMARK 924 INTRA-LIGAND FREE ENERGY PREDICTED BY IDOCK:   -0.56 KCAL/MOL
REMARK 927      BINDING AFFINITY PREDICTED BY RF-SCORE:    0.00 PKD
ROOT
HETATM    1  O   UNL     1     -11.179   5.981  68.992  1.00  0.00    -0.367 OA 
HETATM    2  C   UNL     1     -10.190   6.843  68.688  1.00  0.00    -0.173 C  
HETATM    3  C   UNL     1     -10.492   8.278  68.960  1.00  0.00    -0.212 A  
HETATM    4  O   UNL     1      -9.147   6.489  68.163  1.00  0.00    -0.117 OA 
HETATM    5  C   UNL     1      -9.826   9.219  68.161  1.00  0.00    -0.185 A  
HETATM    6  C   UNL     1      -9.993  10.586  68.380  1.00  0.00    -0.177 A  
HETATM    7  C   UNL     1     -10.820  11.029  69.409  1.00  0.00    -0.278 A  
HETATM    8  C   UNL     1     -11.492  10.106  70.210  1.00  0.00    -0.381 A  
HETATM    9  C   UNL     1     -11.342   8.731  69.982  1.00  0.00    -0.032 A  
ENDROOT
BRANCH   9  10
HETATM   10  O   UNL     1     -11.936   7.781  70.843  1.00  0.00    -0.284 OA 
BRANCH  10  11
HETATM   11  C   UNL     1     -11.995   8.092  72.192  1.00  0.00    -0.348 C  
HETATM   12  O   UNL     1     -12.741   8.936  72.666  1.00  0.00    -0.369 OA 
BRANCH  11  13
HETATM   13  C   UNL     1     -10.921   7.396  72.955  1.00  0.00    -0.422 A  
HETATM   14  C   UNL     1      -9.843   8.180  73.402  1.00  0.00    -0.063 A  
HETATM   15  C   UNL     1      -8.721   7.576  73.972  1.00  0.00    -0.283 A  
HETATM   16  C   UNL     1      -8.674   6.191  74.116  1.00  0.00    -0.123 A  
HETATM   17  C   UNL     1      -9.759   5.408  73.717  1.00  0.00    -0.154 A  
HETATM   18  C   UNL     1     -10.880   6.010  73.142  1.00  0.00    -0.259 A  
HETATM   19  O   UNL     1     -11.935   5.229  72.768  1.00  0.00    -0.374 OA 
HETATM   20  H   UNL     1     -11.907   4.287  72.895  1.00  0.00     0.000 HD 
ENDBRANCH  11  13
ENDBRANCH  10  11
ENDBRANCH   9  10
TORSDOF 3
ENDMDL
MODEL      215
REMARK 921   NORMALIZED FREE ENERGY PREDICTED BY IDOCK:   -4.09 KCAL/MOL
REMARK 922        TOTAL FREE ENERGY PREDICTED BY IDOCK:   -5.15 KCAL/MOL
REMARK 923 INTER-LIGAND FREE ENERGY PREDICTED BY IDOCK:   -4.40 KCAL/MOL
REMARK 924 INTRA-LIGAND FREE ENERGY PREDICTED BY IDOCK:   -0.75 KCAL/MOL
REMARK 927      BINDING AFFINITY PREDICTED BY RF-SCORE:    0.00 PKD
ROOT
HETATM    1  O   UNL     1      -8.027  18.728  68.137  1.00  0.00    -0.272 OA 
HETATM    2  C   UNL     1      -9.302  18.528  68.522  1.00  0.00    -0.338 C  
HETATM    3  C   UNL     1      -9.757  17.108  68.506  1.00  0.00    -0.291 A  
HETATM    4  O   UNL     1     -10.057  19.447  68.799  1.00  0.00    -0.432 OA 
HETATM    5  C   UNL     1     -11.128  16.893  68.304  1.00  0.00    -0.213 A  
HETATM    6  C   UNL     1     -11.660  15.604  68.336  1.00  0.00    -0.358 A  
HETATM    7  C   UNL     1     -10.828  14.515  68.582  1.00  0.00    -0.259 A  
HETATM    8  C   UNL     1      -9.462  14.711  68.782  1.00  0.00    -0.199 A  
HETATM    9  C   UNL     1      -8.919  16.004  68.732  1.00  0.00    -0.226 A  
ENDROOT
BRANCH   9  10
HETATM   10  O   UNL     1      -7.557  16.233  69.029  1.00  0.00    -0.198 OA 
BRANCH  10  11
HETATM   11  C   UNL     1      -6.617  15.509  68.313  1.00  0.00    -0.123 C  
HETATM   12  O   UNL     1      -6.277  15.775  67.169  1.00  0.00    -0.309 OA 
BRANCH  11  13
HETATM   13  C   UNL     1      -6.209  14.278  69.045  1.00  0.00    -0.095 A  
HETATM   14  C   UNL     1      -6.025  14.391  70.433  1.00  0.00    -0.168 A  
HETATM   15  C   UNL     1      -5.482  13.330  71.161  1.00  0.00    -0.197 A  
HETATM   16  C   UNL     1      -5.134  12.147  70.511  1.00  0.00    -0.112 A  
HETATM   17  C   UNL     1      -5.355  12.009  69.141  1.00  0.00    -0.055 A  
HETATM   18  C   UNL     1      -5.895  13.071  68.411  1.00  0.00    -0.077 A  
HETATM   19  O   UNL     1      -6.114  12.913  67.072  1.00  0.00    -0.478 OA 
HETATM   20  H   UNL     1      -5.900  12.093  66.642  1.00  0.00     0.000 HD 
ENDBRANCH  11  13
ENDBRANCH  10  11
ENDBRANCH   9  10
TORSDOF 3
ENDMDL
MODEL      216
REMARK 921   NORMALIZED FREE ENERGY PREDICTED BY IDOCK:   -4.08 KCAL/MOL
REMARK 922        TOTAL FREE ENERGY PREDICTED BY IDOCK:   -5.15 KCAL/MOL
REMARK 923 INTER-LIGAND FREE ENERGY PREDICTED BY IDOCK:   -4.54 KCAL/MOL
REMARK 924 INTRA-LIGAND FREE ENERGY PREDICTED BY IDOCK:   -0.61 KCAL/MOL
REMARK 927      BINDING AFFINITY PREDICTED BY RF-SCORE:    0.00 PKD
ROOT
HETATM    1  O   UNL     1      -7.493   9.965  67.067  1.00  0.00    -0.091 OA 
HETATM    2  C   UNL     1      -7.743  11.284  66.969  1.00  0.00    -0.147 C  
HETATM    3  C   UNL     1      -9.184  11.664  67.025  1.00  0.00    -0.185 A  
HETATM    4  O   UNL     1      -6.863  12.108  66.780  1.00  0.00    -0.055 OA 
HETATM    5  C   UNL     1      -9.545  12.844  66.359  1.00  0.00    -0.252 A  
HETATM    6  C   UNL     1     -10.857  13.317  66.406  1.00  0.00    -0.296 A  
HETATM    7  C   UNL     1     -11.820  12.621  67.130  1.00  0.00    -0.399 A  
HETATM    8  C   UNL     1     -11.479  11.444  67.796  1.00  0.00    -0.353 A  
HETATM    9  C   UNL     1     -10.165  10.954  67.736  1.00  0.00    -0.180 A  
ENDROOT
BRANCH   9  10
HETATM   10  O   UNL     1      -9.778   9.819  68.482  1.00  0.00    -0.150 OA 
BRANCH  10  11
HETATM   11  C   UNL     1     -10.174   8.578  68.011  1.00  0.00    -0.213 C  
HETATM   12  O   UNL     1     -10.568   8.376  66.871  1.00  0.00    -0.305 OA 
BRANCH  11  13
HETATM   13  C   UNL     1     -10.223   7.572  69.108  1.00  0.00    -0.202 A  
HETATM   14  C   UNL     1      -9.439   6.417  68.951  1.00  0.00    -0.128 A  
HETATM   15  C   UNL     1      -9.560   5.356  69.850  1.00  0.00    -0.226 A  
HETATM   16  C   UNL     1     -10.451   5.447  70.918  1.00  0.00    -0.307 A  
HETATM   17  C   UNL     1     -11.200   6.609  71.108  1.00  0.00    -0.340 A  
HETATM   18  C   UNL     1     -11.083   7.669  70.207  1.00  0.00    -0.244 A  
HETATM   19  O   UNL     1     -11.816   8.802  70.415  1.00  0.00    -0.470 OA 
HETATM   20  H   UNL     1     -12.401   8.868  71.162  1.00  0.00     0.000 HD 
ENDBRANCH  11  13
ENDBRANCH  10  11
ENDBRANCH   9  10
TORSDOF 3
ENDMDL
MODEL      217
REMARK 921   NORMALIZED FREE ENERGY PREDICTED BY IDOCK:   -4.08 KCAL/MOL
REMARK 922        TOTAL FREE ENERGY PREDICTED BY IDOCK:   -5.15 KCAL/MOL
REMARK 923 INTER-LIGAND FREE ENERGY PREDICTED BY IDOCK:   -4.76 KCAL/MOL
REMARK 924 INTRA-LIGAND FREE ENERGY PREDICTED BY IDOCK:   -0.39 KCAL/MOL
REMARK 927      BINDING AFFINITY PREDICTED BY RF-SCORE:    0.00 PKD
ROOT
HETATM    1  O   UNL     1     -11.104  10.265  67.346  1.00  0.00    -0.291 OA 
HETATM    2  C   UNL     1      -9.816  10.339  66.961  1.00  0.00    -0.193 C  
HETATM    3  C   UNL     1      -8.822   9.871  67.969  1.00  0.00    -0.125 A  
HETATM    4  O   UNL     1      -9.476  10.818  65.890  1.00  0.00    -0.182 OA 
HETATM    5  C   UNL     1      -7.545  10.448  67.902  1.00  0.00    -0.088 A  
HETATM    6  C   UNL     1      -6.528  10.031  68.761  1.00  0.00    -0.045 A  
HETATM    7  C   UNL     1      -6.773   9.024  69.690  1.00  0.00    -0.046 A  
HETATM    8  C   UNL     1      -8.038   8.441  69.771  1.00  0.00    -0.117 A  
HETATM    9  C   UNL     1      -9.069   8.871  68.922  1.00  0.00    -0.140 A  
ENDROOT
BRANCH   9  10
HETATM   10  O   UNL     1     -10.327   8.227  68.923  1.00  0.00    -0.214 OA 
BRANCH  10  11
HETATM   11  C   UNL     1     -10.817   7.785  70.141  1.00  0.00    -0.244 C  
HETATM   12  O   UNL     1     -10.621   6.665  70.589  1.00  0.00    -0.215 OA 
BRANCH  11  13
HETATM   13  C   UNL     1     -11.750   8.778  70.742  1.00  0.00    -0.253 A  
HETATM   14  C   UNL     1     -11.488  10.136  70.488  1.00  0.00    -0.417 A  
HETATM   15  C   UNL     1     -12.211  11.129  71.151  1.00  0.00    -0.387 A  
HETATM   16  C   UNL     1     -13.209  10.775  72.059  1.00  0.00    -0.466 A  
HETATM   17  C   UNL     1     -13.506   9.430  72.283  1.00  0.00    -0.539 A  
HETATM   18  C   UNL     1     -12.781   8.436  71.623  1.00  0.00    -0.331 A  
HETATM   19  O   UNL     1     -13.094   7.126  71.848  1.00  0.00    -0.466 OA 
HETATM   20  H   UNL     1     -13.795   6.893  72.446  1.00  0.00     0.000 HD 
ENDBRANCH  11  13
ENDBRANCH  10  11
ENDBRANCH   9  10
TORSDOF 3
ENDMDL
MODEL      218
REMARK 921   NORMALIZED FREE ENERGY PREDICTED BY IDOCK:   -4.08 KCAL/MOL
REMARK 922        TOTAL FREE ENERGY PREDICTED BY IDOCK:   -5.15 KCAL/MOL
REMARK 923 INTER-LIGAND FREE ENERGY PREDICTED BY IDOCK:   -4.57 KCAL/MOL
REMARK 924 INTRA-LIGAND FREE ENERGY PREDICTED BY IDOCK:   -0.58 KCAL/MOL
REMARK 927      BINDING AFFINITY PREDICTED BY RF-SCORE:    0.00 PKD
ROOT
HETATM    1  O   UNL     1     -11.878  16.176  68.844  1.00  0.00    -0.338 OA 
HETATM    2  C   UNL     1     -11.638  14.924  69.277  1.00  0.00    -0.306 C  
HETATM    3  C   UNL     1     -10.491  14.233  68.622  1.00  0.00    -0.249 A  
HETATM    4  O   UNL     1     -12.349  14.364  70.097  1.00  0.00    -0.322 OA 
HETATM    5  C   UNL     1     -10.555  12.833  68.563  1.00  0.00    -0.270 A  
HETATM    6  C   UNL     1      -9.501  12.093  68.027  1.00  0.00    -0.201 A  
HETATM    7  C   UNL     1      -8.366  12.744  67.553  1.00  0.00    -0.179 A  
HETATM    8  C   UNL     1      -8.287  14.136  67.601  1.00  0.00    -0.187 A  
HETATM    9  C   UNL     1      -9.352  14.885  68.122  1.00  0.00    -0.193 A  
ENDROOT
BRANCH   9  10
HETATM   10  O   UNL     1      -9.251  16.287  68.269  1.00  0.00    -0.190 OA 
BRANCH  10  11
HETATM   11  C   UNL     1      -8.002  16.811  68.558  1.00  0.00    -0.235 C  
HETATM   12  O   UNL     1      -7.294  16.422  69.476  1.00  0.00    -0.209 OA 
BRANCH  11  13
HETATM   13  C   UNL     1      -7.712  18.011  67.725  1.00  0.00    -0.222 A  
HETATM   14  C   UNL     1      -8.806  18.642  67.110  1.00  0.00    -0.281 A  
HETATM   15  C   UNL     1      -8.600  19.664  66.182  1.00  0.00    -0.357 A  
HETATM   16  C   UNL     1      -7.303  20.074  65.875  1.00  0.00    -0.327 A  
HETATM   17  C   UNL     1      -6.212  19.484  66.515  1.00  0.00    -0.172 A  
HETATM   18  C   UNL     1      -6.417  18.458  67.439  1.00  0.00    -0.190 A  
HETATM   19  O   UNL     1      -5.337  17.901  68.063  1.00  0.00    -0.144 OA 
HETATM   20  H   UNL     1      -4.458  18.205  67.869  1.00  0.00     0.000 HD 
ENDBRANCH  11  13
ENDBRANCH  10  11
ENDBRANCH   9  10
TORSDOF 3
ENDMDL
MODEL      219
REMARK 921   NORMALIZED FREE ENERGY PREDICTED BY IDOCK:   -4.07 KCAL/MOL
REMARK 922        TOTAL FREE ENERGY PREDICTED BY IDOCK:   -5.13 KCAL/MOL
REMARK 923 INTER-LIGAND FREE ENERGY PREDICTED BY IDOCK:   -4.26 KCAL/MOL
REMARK 924 INTRA-LIGAND FREE ENERGY PREDICTED BY IDOCK:   -0.88 KCAL/MOL
REMARK 927      BINDING AFFINITY PREDICTED BY RF-SCORE:    0.00 PKD
ROOT
HETATM    1  O   UNL     1      -7.345   9.252  69.401  1.00  0.00    -0.071 OA 
HETATM    2  C   UNL     1      -8.429   9.380  68.613  1.00  0.00    -0.119 C  
HETATM    3  C   UNL     1      -9.258   8.149  68.467  1.00  0.00    -0.136 A  
HETATM    4  O   UNL     1      -8.683  10.407  68.004  1.00  0.00    -0.121 OA 
HETATM    5  C   UNL     1      -9.986   8.023  67.275  1.00  0.00    -0.282 A  
HETATM    6  C   UNL     1     -10.840   6.939  67.072  1.00  0.00    -0.436 A  
HETATM    7  C   UNL     1     -10.984   5.973  68.063  1.00  0.00    -0.340 A  
HETATM    8  C   UNL     1     -10.265   6.081  69.254  1.00  0.00    -0.263 A  
HETATM    9  C   UNL     1      -9.392   7.160  69.455  1.00  0.00    -0.148 A  
ENDROOT
BRANCH   9  10
HETATM   10  O   UNL     1      -8.731   7.339  70.691  1.00  0.00    -0.144 OA 
BRANCH  10  11
HETATM   11  C   UNL     1      -9.505   7.692  71.784  1.00  0.00    -0.145 C  
HETATM   12  O   UNL     1      -9.792   8.844  72.074  1.00  0.00    -0.325 OA 
BRANCH  11  13
HETATM   13  C   UNL     1      -9.791   6.513  72.648  1.00  0.00    -0.179 A  
HETATM   14  C   UNL     1      -8.687   5.776  73.110  1.00  0.00    -0.122 A  
HETATM   15  C   UNL     1      -8.878   4.566  73.780  1.00  0.00    -0.104 A  
HETATM   16  C   UNL     1     -10.169   4.093  74.008  1.00  0.00    -0.230 A  
HETATM   17  C   UNL     1     -11.272   4.841  73.593  1.00  0.00    -0.332 A  
HETATM   18  C   UNL     1     -11.083   6.049  72.919  1.00  0.00    -0.255 A  
HETATM   19  O   UNL     1     -12.174   6.772  72.531  1.00  0.00    -0.502 OA 
HETATM   20  H   UNL     1     -13.052   6.456  72.715  1.00  0.00     0.000 HD 
ENDBRANCH  11  13
ENDBRANCH  10  11
ENDBRANCH   9  10
TORSDOF 3
ENDMDL
MODEL      220
REMARK 921   NORMALIZED FREE ENERGY PREDICTED BY IDOCK:   -4.05 KCAL/MOL
REMARK 922        TOTAL FREE ENERGY PREDICTED BY IDOCK:   -5.11 KCAL/MOL
REMARK 923 INTER-LIGAND FREE ENERGY PREDICTED BY IDOCK:   -4.21 KCAL/MOL
REMARK 924 INTRA-LIGAND FREE ENERGY PREDICTED BY IDOCK:   -0.90 KCAL/MOL
REMARK 927      BINDING AFFINITY PREDICTED BY RF-SCORE:    0.00 PKD
ROOT
HETATM    1  O   UNL     1     -11.524   6.199  69.359  1.00  0.00    -0.423 OA 
HETATM    2  C   UNL     1     -11.592   6.855  70.534  1.00  0.00    -0.346 C  
HETATM    3  C   UNL     1     -10.282   7.100  71.202  1.00  0.00    -0.200 A  
HETATM    4  O   UNL     1     -12.652   7.168  71.052  1.00  0.00    -0.357 OA 
HETATM    5  C   UNL     1     -10.304   7.206  72.600  1.00  0.00    -0.246 A  
HETATM    6  C   UNL     1      -9.140   7.498  73.312  1.00  0.00    -0.242 A  
HETATM    7  C   UNL     1      -7.942   7.698  72.632  1.00  0.00    -0.132 A  
HETATM    8  C   UNL     1      -7.902   7.593  71.242  1.00  0.00    -0.090 A  
HETATM    9  C   UNL     1      -9.066   7.282  70.523  1.00  0.00    -0.158 A  
ENDROOT
BRANCH   9  10
HETATM   10  O   UNL     1      -9.067   7.268  69.111  1.00  0.00    -0.138 OA 
BRANCH  10  11
HETATM   11  C   UNL     1      -8.219   8.151  68.463  1.00  0.00    -0.125 C  
HETATM   12  O   UNL     1      -7.009   8.000  68.380  1.00  0.00    -0.069 OA 
BRANCH  11  13
HETATM   13  C   UNL     1      -8.942   9.382  68.037  1.00  0.00    -0.128 A  
HETATM   14  C   UNL     1      -8.309  10.613  68.283  1.00  0.00    -0.122 A  
HETATM   15  C   UNL     1      -8.992  11.811  68.070  1.00  0.00    -0.176 A  
HETATM   16  C   UNL     1     -10.303  11.791  67.596  1.00  0.00    -0.219 A  
HETATM   17  C   UNL     1     -10.923  10.575  67.306  1.00  0.00    -0.325 A  
HETATM   18  C   UNL     1     -10.243   9.375  67.523  1.00  0.00    -0.231 A  
HETATM   19  O   UNL     1     -10.863   8.196  67.223  1.00  0.00    -0.484 OA 
HETATM   20  H   UNL     1     -11.747   8.191  66.873  1.00  0.00     0.000 HD 
ENDBRANCH  11  13
ENDBRANCH  10  11
ENDBRANCH   9  10
TORSDOF 3
ENDMDL
MODEL      221
REMARK 921   NORMALIZED FREE ENERGY PREDICTED BY IDOCK:   -4.05 KCAL/MOL
REMARK 922        TOTAL FREE ENERGY PREDICTED BY IDOCK:   -5.11 KCAL/MOL
REMARK 923 INTER-LIGAND FREE ENERGY PREDICTED BY IDOCK:   -4.38 KCAL/MOL
REMARK 924 INTRA-LIGAND FREE ENERGY PREDICTED BY IDOCK:   -0.72 KCAL/MOL
REMARK 927      BINDING AFFINITY PREDICTED BY RF-SCORE:    0.00 PKD
ROOT
HETATM    1  O   UNL     1      -7.466   8.988  71.616  1.00  0.00    -0.293 OA 
HETATM    2  C   UNL     1      -8.710   8.576  71.926  1.00  0.00    -0.203 C  
HETATM    3  C   UNL     1      -9.809   9.249  71.175  1.00  0.00    -0.342 A  
HETATM    4  O   UNL     1      -8.932   7.761  72.807  1.00  0.00    -0.148 OA 
HETATM    5  C   UNL     1     -11.051   9.328  71.822  1.00  0.00    -0.398 A  
HETATM    6  C   UNL     1     -12.157   9.882  71.177  1.00  0.00    -0.466 A  
HETATM    7  C   UNL     1     -12.037  10.353  69.873  1.00  0.00    -0.252 A  
HETATM    8  C   UNL     1     -10.808  10.284  69.216  1.00  0.00    -0.275 A  
HETATM    9  C   UNL     1      -9.688   9.745  69.867  1.00  0.00    -0.238 A  
ENDROOT
BRANCH   9  10
HETATM   10  O   UNL     1      -8.462   9.578  69.186  1.00  0.00    -0.119 OA 
BRANCH  10  11
HETATM   11  C   UNL     1      -8.351   8.495  68.329  1.00  0.00    -0.124 C  
HETATM   12  O   UNL     1      -8.209   7.340  68.703  1.00  0.00    -0.123 OA 
BRANCH  11  13
HETATM   13  C   UNL     1      -8.250   8.936  66.910  1.00  0.00    -0.112 A  
HETATM   14  C   UNL     1      -7.034   9.509  66.503  1.00  0.00    -0.085 A  
HETATM   15  C   UNL     1      -6.919  10.099  65.242  1.00  0.00    -0.137 A  
HETATM   16  C   UNL     1      -8.011  10.105  64.376  1.00  0.00    -0.153 A  
HETATM   17  C   UNL     1      -9.209   9.498  64.754  1.00  0.00    -0.267 A  
HETATM   18  C   UNL     1      -9.326   8.912  66.016  1.00  0.00    -0.242 A  
HETATM   19  O   UNL     1     -10.503   8.313  66.363  1.00  0.00    -0.410 OA 
HETATM   20  H   UNL     1     -11.234   8.296  65.756  1.00  0.00     0.000 HD 
ENDBRANCH  11  13
ENDBRANCH  10  11
ENDBRANCH   9  10
TORSDOF 3
ENDMDL
MODEL      222
REMARK 921   NORMALIZED FREE ENERGY PREDICTED BY IDOCK:   -4.03 KCAL/MOL
REMARK 922        TOTAL FREE ENERGY PREDICTED BY IDOCK:   -5.09 KCAL/MOL
REMARK 923 INTER-LIGAND FREE ENERGY PREDICTED BY IDOCK:   -5.07 KCAL/MOL
REMARK 924 INTRA-LIGAND FREE ENERGY PREDICTED BY IDOCK:   -0.02 KCAL/MOL
REMARK 927      BINDING AFFINITY PREDICTED BY RF-SCORE:    0.00 PKD
ROOT
HETATM    1  O   UNL     1      -9.827  12.779  65.252  1.00  0.00    -0.213 OA 
HETATM    2  C   UNL     1     -10.294  11.538  65.019  1.00  0.00    -0.281 C  
HETATM    3  C   UNL     1     -10.250  10.612  66.186  1.00  0.00    -0.308 A  
HETATM    4  O   UNL     1     -10.664  11.171  63.914  1.00  0.00    -0.376 OA 
HETATM    5  C   UNL     1     -10.138   9.244  65.895  1.00  0.00    -0.188 A  
HETATM    6  C   UNL     1     -10.153   8.294  66.916  1.00  0.00    -0.366 A  
HETATM    7  C   UNL     1     -10.291   8.700  68.240  1.00  0.00    -0.252 A  
HETATM    8  C   UNL     1     -10.401  10.056  68.548  1.00  0.00    -0.217 A  
HETATM    9  C   UNL     1     -10.368  11.016  67.526  1.00  0.00    -0.198 A  
ENDROOT
BRANCH   9  10
HETATM   10  O   UNL     1     -10.575  12.385  67.807  1.00  0.00    -0.210 OA 
BRANCH  10  11
HETATM   11  C   UNL     1      -9.470  13.138  68.169  1.00  0.00    -0.222 C  
HETATM   12  O   UNL     1      -8.379  12.659  68.445  1.00  0.00    -0.163 OA 
BRANCH  11  13
HETATM   13  C   UNL     1      -9.826  14.573  68.345  1.00  0.00    -0.227 A  
HETATM   14  C   UNL     1      -8.765  15.491  68.421  1.00  0.00    -0.174 A  
HETATM   15  C   UNL     1      -9.009  16.824  68.754  1.00  0.00    -0.254 A  
HETATM   16  C   UNL     1     -10.312  17.254  68.997  1.00  0.00    -0.330 A  
HETATM   17  C   UNL     1     -11.377  16.360  68.879  1.00  0.00    -0.272 A  
HETATM   18  C   UNL     1     -11.134  15.024  68.551  1.00  0.00    -0.272 A  
HETATM   19  O   UNL     1     -12.191  14.167  68.430  1.00  0.00    -0.540 OA 
HETATM   20  H   UNL     1     -13.079  14.474  68.569  1.00  0.00     0.000 HD 
ENDBRANCH  11  13
ENDBRANCH  10  11
ENDBRANCH   9  10
TORSDOF 3
ENDMDL
MODEL      223
REMARK 921   NORMALIZED FREE ENERGY PREDICTED BY IDOCK:   -4.01 KCAL/MOL
REMARK 922        TOTAL FREE ENERGY PREDICTED BY IDOCK:   -5.07 KCAL/MOL
REMARK 923 INTER-LIGAND FREE ENERGY PREDICTED BY IDOCK:   -4.43 KCAL/MOL
REMARK 924 INTRA-LIGAND FREE ENERGY PREDICTED BY IDOCK:   -0.64 KCAL/MOL
REMARK 927      BINDING AFFINITY PREDICTED BY RF-SCORE:    0.00 PKD
ROOT
HETATM    1  O   UNL     1     -10.765  13.378  64.685  1.00  0.00    -0.365 OA 
HETATM    2  C   UNL     1     -10.820  12.202  64.030  1.00  0.00    -0.383 C  
HETATM    3  C   UNL     1      -9.701  11.260  64.320  1.00  0.00    -0.295 A  
HETATM    4  O   UNL     1     -11.683  11.949  63.205  1.00  0.00    -0.330 OA 
HETATM    5  C   UNL     1      -9.367  10.354  63.302  1.00  0.00    -0.335 A  
HETATM    6  C   UNL     1      -8.377   9.392  63.501  1.00  0.00    -0.184 A  
HETATM    7  C   UNL     1      -7.718   9.316  64.724  1.00  0.00    -0.111 A  
HETATM    8  C   UNL     1      -8.035  10.211  65.745  1.00  0.00    -0.140 A  
HETATM    9  C   UNL     1      -9.017  11.193  65.544  1.00  0.00    -0.166 A  
ENDROOT
BRANCH   9  10
HETATM   10  O   UNL     1      -9.421  12.043  66.597  1.00  0.00    -0.205 OA 
BRANCH  10  11
HETATM   11  C   UNL     1      -8.584  12.140  67.697  1.00  0.00    -0.166 C  
HETATM   12  O   UNL     1      -7.536  12.769  67.705  1.00  0.00    -0.126 OA 
BRANCH  11  13
HETATM   13  C   UNL     1      -9.035  11.245  68.800  1.00  0.00    -0.116 A  
HETATM   14  C   UNL     1      -8.055  10.454  69.422  1.00  0.00    -0.161 A  
HETATM   15  C   UNL     1      -8.423   9.471  70.343  1.00  0.00    -0.238 A  
HETATM   16  C   UNL     1      -9.767   9.283  70.660  1.00  0.00    -0.334 A  
HETATM   17  C   UNL     1     -10.743  10.095  70.082  1.00  0.00    -0.355 A  
HETATM   18  C   UNL     1     -10.377  11.076  69.157  1.00  0.00    -0.188 A  
HETATM   19  O   UNL     1     -11.346  11.868  68.610  1.00  0.00    -0.228 OA 
HETATM   20  H   UNL     1     -12.257  11.752  68.853  1.00  0.00     0.000 HD 
ENDBRANCH  11  13
ENDBRANCH  10  11
ENDBRANCH   9  10
TORSDOF 3
ENDMDL
MODEL      224
REMARK 921   NORMALIZED FREE ENERGY PREDICTED BY IDOCK:   -4.01 KCAL/MOL
REMARK 922        TOTAL FREE ENERGY PREDICTED BY IDOCK:   -5.06 KCAL/MOL
REMARK 923 INTER-LIGAND FREE ENERGY PREDICTED BY IDOCK:   -3.97 KCAL/MOL
REMARK 924 INTRA-LIGAND FREE ENERGY PREDICTED BY IDOCK:   -1.10 KCAL/MOL
REMARK 927      BINDING AFFINITY PREDICTED BY RF-SCORE:    0.00 PKD
ROOT
HETATM    1  O   UNL     1      -9.834   6.677  66.539  1.00  0.00    -0.166 OA 
HETATM    2  C   UNL     1      -9.398   5.405  66.468  1.00  0.00    -0.145 C  
HETATM    3  C   UNL     1      -9.231   4.716  67.780  1.00  0.00    -0.150 A  
HETATM    4  O   UNL     1      -9.095   4.871  65.413  1.00  0.00    -0.150 OA 
HETATM    5  C   UNL     1      -8.270   3.696  67.832  1.00  0.00    -0.089 A  
HETATM    6  C   UNL     1      -8.083   2.950  68.996  1.00  0.00    -0.069 A  
HETATM    7  C   UNL     1      -8.864   3.208  70.118  1.00  0.00    -0.147 A  
HETATM    8  C   UNL     1      -9.822   4.221  70.085  1.00  0.00    -0.271 A  
HETATM    9  C   UNL     1     -10.001   4.986  68.923  1.00  0.00    -0.166 A  
ENDROOT
BRANCH   9  10
HETATM   10  O   UNL     1     -11.031   5.949  68.837  1.00  0.00    -0.314 OA 
BRANCH  10  11
HETATM   11  C   UNL     1     -11.167   6.834  69.894  1.00  0.00    -0.326 C  
HETATM   12  O   UNL     1     -12.116   6.836  70.665  1.00  0.00    -0.392 OA 
BRANCH  11  13
HETATM   13  C   UNL     1     -10.109   7.882  69.863  1.00  0.00    -0.197 A  
HETATM   14  C   UNL     1      -9.095   7.795  70.831  1.00  0.00    -0.150 A  
HETATM   15  C   UNL     1      -8.167   8.828  70.975  1.00  0.00    -0.194 A  
HETATM   16  C   UNL     1      -8.235   9.945  70.144  1.00  0.00    -0.162 A  
HETATM   17  C   UNL     1      -9.211  10.019  69.149  1.00  0.00    -0.196 A  
HETATM   18  C   UNL     1     -10.143   8.989  69.008  1.00  0.00    -0.195 A  
HETATM   19  O   UNL     1     -11.083   9.074  68.022  1.00  0.00    -0.489 OA 
HETATM   20  H   UNL     1     -11.106   9.826  67.441  1.00  0.00     0.000 HD 
ENDBRANCH  11  13
ENDBRANCH  10  11
ENDBRANCH   9  10
TORSDOF 3
ENDMDL
MODEL      225
REMARK 921   NORMALIZED FREE ENERGY PREDICTED BY IDOCK:   -3.96 KCAL/MOL
REMARK 922        TOTAL FREE ENERGY PREDICTED BY IDOCK:   -5.00 KCAL/MOL
REMARK 923 INTER-LIGAND FREE ENERGY PREDICTED BY IDOCK:   -4.27 KCAL/MOL
REMARK 924 INTRA-LIGAND FREE ENERGY PREDICTED BY IDOCK:   -0.73 KCAL/MOL
REMARK 927      BINDING AFFINITY PREDICTED BY RF-SCORE:    0.00 PKD
ROOT
HETATM    1  O   UNL     1      -7.962   7.265  66.026  1.00  0.00    -0.104 OA 
HETATM    2  C   UNL     1      -8.575   6.066  66.033  1.00  0.00    -0.147 C  
HETATM    3  C   UNL     1      -8.989   5.571  67.376  1.00  0.00    -0.107 A  
HETATM    4  O   UNL     1      -8.721   5.397  65.022  1.00  0.00    -0.150 OA 
HETATM    5  C   UNL     1      -9.059   4.179  67.536  1.00  0.00    -0.161 A  
HETATM    6  C   UNL     1      -9.498   3.620  68.736  1.00  0.00    -0.214 A  
HETATM    7  C   UNL     1      -9.882   4.446  69.788  1.00  0.00    -0.284 A  
HETATM    8  C   UNL     1      -9.816   5.832  69.647  1.00  0.00    -0.230 A  
HETATM    9  C   UNL     1      -9.358   6.399  68.449  1.00  0.00    -0.121 A  
ENDROOT
BRANCH   9  10
HETATM   10  O   UNL     1      -9.376   7.798  68.253  1.00  0.00    -0.143 OA 
BRANCH  10  11
HETATM   11  C   UNL     1      -9.042   8.599  69.333  1.00  0.00    -0.149 C  
HETATM   12  O   UNL     1      -7.999   8.496  69.962  1.00  0.00    -0.101 OA 
BRANCH  11  13
HETATM   13  C   UNL     1     -10.181   9.472  69.732  1.00  0.00    -0.249 A  
HETATM   14  C   UNL     1     -10.677   9.319  71.037  1.00  0.00    -0.387 A  
HETATM   15  C   UNL     1     -11.845   9.977  71.429  1.00  0.00    -0.447 A  
HETATM   16  C   UNL     1     -12.515  10.802  70.527  1.00  0.00    -0.447 A  
HETATM   17  C   UNL     1     -12.004  10.996  69.243  1.00  0.00    -0.410 A  
HETATM   18  C   UNL     1     -10.838  10.336  68.848  1.00  0.00    -0.228 A  
HETATM   19  O   UNL     1     -10.348  10.547  67.592  1.00  0.00    -0.193 OA 
HETATM   20  H   UNL     1     -10.795  11.133  66.992  1.00  0.00     0.000 HD 
ENDBRANCH  11  13
ENDBRANCH  10  11
ENDBRANCH   9  10
TORSDOF 3
ENDMDL
MODEL      226
REMARK 921   NORMALIZED FREE ENERGY PREDICTED BY IDOCK:   -3.95 KCAL/MOL
REMARK 922        TOTAL FREE ENERGY PREDICTED BY IDOCK:   -4.99 KCAL/MOL
REMARK 923 INTER-LIGAND FREE ENERGY PREDICTED BY IDOCK:   -4.12 KCAL/MOL
REMARK 924 INTRA-LIGAND FREE ENERGY PREDICTED BY IDOCK:   -0.87 KCAL/MOL
REMARK 927      BINDING AFFINITY PREDICTED BY RF-SCORE:    0.00 PKD
ROOT
HETATM    1  O   UNL     1      -9.522   7.135  69.072  1.00  0.00    -0.144 OA 
HETATM    2  C   UNL     1      -8.475   7.671  69.727  1.00  0.00    -0.134 C  
HETATM    3  C   UNL     1      -7.520   8.441  68.879  1.00  0.00    -0.091 A  
HETATM    4  O   UNL     1      -8.279   7.485  70.918  1.00  0.00    -0.110 OA 
HETATM    5  C   UNL     1      -6.192   8.495  69.326  1.00  0.00    -0.042 A  
HETATM    6  C   UNL     1      -5.237   9.243  68.635  1.00  0.00    -0.034 A  
HETATM    7  C   UNL     1      -5.603   9.955  67.497  1.00  0.00    -0.039 A  
HETATM    8  C   UNL     1      -6.920   9.909  67.038  1.00  0.00    -0.088 A  
HETATM    9  C   UNL     1      -7.878   9.144  67.717  1.00  0.00    -0.100 A  
ENDROOT
BRANCH   9  10
HETATM   10  O   UNL     1      -9.236   9.163  67.325  1.00  0.00    -0.131 OA 
BRANCH  10  11
HETATM   11  C   UNL     1      -9.945  10.334  67.537  1.00  0.00    -0.189 C  
HETATM   12  O   UNL     1     -10.184  10.797  68.642  1.00  0.00    -0.169 OA 
BRANCH  11  13
HETATM   13  C   UNL     1     -10.520  10.855  66.266  1.00  0.00    -0.304 A  
HETATM   14  C   UNL     1     -10.003  10.334  65.068  1.00  0.00    -0.393 A  
HETATM   15  C   UNL     1     -10.368  10.890  63.841  1.00  0.00    -0.397 A  
HETATM   16  C   UNL     1     -11.262  11.959  63.800  1.00  0.00    -0.519 A  
HETATM   17  C   UNL     1     -11.816  12.454  64.981  1.00  0.00    -0.440 A  
HETATM   18  C   UNL     1     -11.449  11.901  66.209  1.00  0.00    -0.301 A  
HETATM   19  O   UNL     1     -12.010  12.392  67.353  1.00  0.00    -0.498 OA 
HETATM   20  H   UNL     1     -12.641  13.102  67.315  1.00  0.00     0.000 HD 
ENDBRANCH  11  13
ENDBRANCH  10  11
ENDBRANCH   9  10
TORSDOF 3
ENDMDL
MODEL      227
REMARK 921   NORMALIZED FREE ENERGY PREDICTED BY IDOCK:   -3.93 KCAL/MOL
REMARK 922        TOTAL FREE ENERGY PREDICTED BY IDOCK:   -4.97 KCAL/MOL
REMARK 923 INTER-LIGAND FREE ENERGY PREDICTED BY IDOCK:   -4.50 KCAL/MOL
REMARK 924 INTRA-LIGAND FREE ENERGY PREDICTED BY IDOCK:   -0.47 KCAL/MOL
REMARK 927      BINDING AFFINITY PREDICTED BY RF-SCORE:    0.00 PKD
ROOT
HETATM    1  O   UNL     1      -8.246   8.495  68.420  1.00  0.00    -0.120 OA 
HETATM    2  C   UNL     1      -8.454   8.776  69.721  1.00  0.00    -0.129 C  
HETATM    3  C   UNL     1      -9.722   8.241  70.292  1.00  0.00    -0.177 A  
HETATM    4  O   UNL     1      -7.695   9.477  70.371  1.00  0.00    -0.136 OA 
HETATM    5  C   UNL     1     -10.273   8.954  71.368  1.00  0.00    -0.375 A  
HETATM    6  C   UNL     1     -11.423   8.497  72.012  1.00  0.00    -0.431 A  
HETATM    7  C   UNL     1     -12.030   7.316  71.595  1.00  0.00    -0.341 A  
HETATM    8  C   UNL     1     -11.498   6.597  70.525  1.00  0.00    -0.432 A  
HETATM    9  C   UNL     1     -10.352   7.062  69.863  1.00  0.00    -0.210 A  
ENDROOT
BRANCH   9  10
HETATM   10  O   UNL     1      -9.742   6.298  68.843  1.00  0.00    -0.128 OA 
BRANCH  10  11
HETATM   11  C   UNL     1     -10.461   6.101  67.675  1.00  0.00    -0.234 C  
HETATM   12  O   UNL     1     -11.551   6.607  67.451  1.00  0.00     0.002 OA 
BRANCH  11  13
HETATM   13  C   UNL     1      -9.823   5.067  66.814  1.00  0.00    -0.212 A  
HETATM   14  C   UNL     1      -8.481   4.748  67.085  1.00  0.00    -0.105 A  
HETATM   15  C   UNL     1      -7.766   3.919  66.219  1.00  0.00    -0.089 A  
HETATM   16  C   UNL     1      -8.388   3.390  65.090  1.00  0.00    -0.098 A  
HETATM   17  C   UNL     1      -9.732   3.664  64.837  1.00  0.00    -0.172 A  
HETATM   18  C   UNL     1     -10.448   4.497  65.699  1.00  0.00    -0.229 A  
HETATM   19  O   UNL     1     -11.766   4.745  65.441  1.00  0.00    -0.882 OA 
HETATM   20  H   UNL     1     -12.190   4.358  64.684  1.00  0.00     0.000 HD 
ENDBRANCH  11  13
ENDBRANCH  10  11
ENDBRANCH   9  10
TORSDOF 3
ENDMDL
MODEL      228
REMARK 921   NORMALIZED FREE ENERGY PREDICTED BY IDOCK:   -3.93 KCAL/MOL
REMARK 922        TOTAL FREE ENERGY PREDICTED BY IDOCK:   -4.96 KCAL/MOL
REMARK 923 INTER-LIGAND FREE ENERGY PREDICTED BY IDOCK:   -4.09 KCAL/MOL
REMARK 924 INTRA-LIGAND FREE ENERGY PREDICTED BY IDOCK:   -0.88 KCAL/MOL
REMARK 927      BINDING AFFINITY PREDICTED BY RF-SCORE:    0.00 PKD
ROOT
HETATM    1  O   UNL     1     -11.046   7.250  68.235  1.00  0.00    -0.033 OA 
HETATM    2  C   UNL     1      -9.830   7.332  68.808  1.00  0.00    -0.161 C  
HETATM    3  C   UNL     1      -8.927   8.373  68.239  1.00  0.00    -0.139 A  
HETATM    4  O   UNL     1      -9.464   6.566  69.686  1.00  0.00    -0.145 OA 
HETATM    5  C   UNL     1      -7.550   8.130  68.342  1.00  0.00    -0.105 A  
HETATM    6  C   UNL     1      -6.624   9.073  67.897  1.00  0.00    -0.060 A  
HETATM    7  C   UNL     1      -7.064  10.276  67.354  1.00  0.00    -0.083 A  
HETATM    8  C   UNL     1      -8.430  10.533  67.242  1.00  0.00    -0.122 A  
HETATM    9  C   UNL     1      -9.366   9.580  67.671  1.00  0.00    -0.123 A  
ENDROOT
BRANCH   9  10
HETATM   10  O   UNL     1     -10.750   9.862  67.657  1.00  0.00    -0.254 OA 
BRANCH  10  11
HETATM   11  C   UNL     1     -11.196  10.912  68.442  1.00  0.00    -0.285 C  
HETATM   12  O   UNL     1     -11.310  10.855  69.658  1.00  0.00    -0.245 OA 
BRANCH  11  13
HETATM   13  C   UNL     1     -11.680  12.046  67.606  1.00  0.00    -0.365 A  
HETATM   14  C   UNL     1     -11.893  11.789  66.241  1.00  0.00     0.027 A  
HETATM   15  C   UNL     1     -12.181  12.836  65.364  1.00  0.00    -0.532 A  
HETATM   16  C   UNL     1     -12.273  14.141  65.844  1.00  0.00    -0.458 A  
HETATM   17  C   UNL     1     -12.108  14.400  67.205  1.00  0.00    -0.358 A  
HETATM   18  C   UNL     1     -11.816  13.355  68.083  1.00  0.00    -0.361 A  
HETATM   19  O   UNL     1     -11.669  13.626  69.414  1.00  0.00    -0.283 OA 
HETATM   20  H   UNL     1     -11.761  14.515  69.738  1.00  0.00     0.000 HD 
ENDBRANCH  11  13
ENDBRANCH  10  11
ENDBRANCH   9  10
TORSDOF 3
ENDMDL
MODEL      229
REMARK 921   NORMALIZED FREE ENERGY PREDICTED BY IDOCK:   -3.89 KCAL/MOL
REMARK 922        TOTAL FREE ENERGY PREDICTED BY IDOCK:   -4.93 KCAL/MOL
REMARK 923 INTER-LIGAND FREE ENERGY PREDICTED BY IDOCK:   -4.09 KCAL/MOL
REMARK 924 INTRA-LIGAND FREE ENERGY PREDICTED BY IDOCK:   -0.84 KCAL/MOL
REMARK 927      BINDING AFFINITY PREDICTED BY RF-SCORE:    0.00 PKD
ROOT
HETATM    1  O   UNL     1     -12.773  10.561  70.026  1.00  0.00    -0.256 OA 
HETATM    2  C   UNL     1     -11.601  10.077  70.479  1.00  0.00    -0.323 C  
HETATM    3  C   UNL     1     -10.407  10.427  69.657  1.00  0.00    -0.261 A  
HETATM    4  O   UNL     1     -11.524   9.347  71.455  1.00  0.00    -0.323 OA 
HETATM    5  C   UNL     1      -9.334   9.525  69.698  1.00  0.00    -0.213 A  
HETATM    6  C   UNL     1      -8.149   9.794  69.013  1.00  0.00    -0.101 A  
HETATM    7  C   UNL     1      -8.019  10.975  68.288  1.00  0.00    -0.124 A  
HETATM    8  C   UNL     1      -9.078  11.882  68.235  1.00  0.00    -0.183 A  
HETATM    9  C   UNL     1     -10.278  11.607  68.906  1.00  0.00    -0.125 A  
ENDROOT
BRANCH   9  10
HETATM   10  O   UNL     1     -11.324  12.555  68.945  1.00  0.00    -0.258 OA 
BRANCH  10  11
HETATM   11  C   UNL     1     -11.087  13.740  69.623  1.00  0.00    -0.038 C  
HETATM   12  O   UNL     1     -11.326  13.907  70.810  1.00  0.00     0.066 OA 
BRANCH  11  13
HETATM   13  C   UNL     1     -10.673  14.825  68.689  1.00  0.00    -0.253 A  
HETATM   14  C   UNL     1      -9.642  15.677  69.117  1.00  0.00    -0.251 A  
HETATM   15  C   UNL     1      -9.315  16.815  68.377  1.00  0.00    -0.231 A  
HETATM   16  C   UNL     1     -10.004  17.100  67.198  1.00  0.00    -0.283 A  
HETATM   17  C   UNL     1     -10.998  16.234  66.742  1.00  0.00    -0.031 A  
HETATM   18  C   UNL     1     -11.329  15.098  67.484  1.00  0.00    -0.320 A  
HETATM   19  O   UNL     1     -12.298  14.257  67.015  1.00  0.00    -0.579 OA 
HETATM   20  H   UNL     1     -12.743  14.443  66.197  1.00  0.00     0.000 HD 
ENDBRANCH  11  13
ENDBRANCH  10  11
ENDBRANCH   9  10
TORSDOF 3
ENDMDL
MODEL      230
REMARK 921   NORMALIZED FREE ENERGY PREDICTED BY IDOCK:   -3.89 KCAL/MOL
REMARK 922        TOTAL FREE ENERGY PREDICTED BY IDOCK:   -4.92 KCAL/MOL
REMARK 923 INTER-LIGAND FREE ENERGY PREDICTED BY IDOCK:   -4.53 KCAL/MOL
REMARK 924 INTRA-LIGAND FREE ENERGY PREDICTED BY IDOCK:   -0.39 KCAL/MOL
REMARK 927      BINDING AFFINITY PREDICTED BY RF-SCORE:    0.00 PKD
ROOT
HETATM    1  O   UNL     1     -10.238   8.408  67.595  1.00  0.00    -0.204 OA 
HETATM    2  C   UNL     1     -10.354   9.710  67.921  1.00  0.00    -0.224 C  
HETATM    3  C   UNL     1     -11.150   9.989  69.150  1.00  0.00    -0.232 A  
HETATM    4  O   UNL     1      -9.901  10.605  67.225  1.00  0.00    -0.169 OA 
HETATM    5  C   UNL     1     -11.795  11.233  69.208  1.00  0.00    -0.423 A  
HETATM    6  C   UNL     1     -12.511  11.613  70.343  1.00  0.00    -0.304 A  
HETATM    7  C   UNL     1     -12.582  10.758  71.439  1.00  0.00    -0.516 A  
HETATM    8  C   UNL     1     -11.949   9.516  71.397  1.00  0.00    -0.464 A  
HETATM    9  C   UNL     1     -11.243   9.121  70.251  1.00  0.00    -0.218 A  
ENDROOT
BRANCH   9  10
HETATM   10  O   UNL     1     -10.515   7.911  70.226  1.00  0.00    -0.216 OA 
BRANCH  10  11
HETATM   11  C   UNL     1     -10.828   6.957  71.180  1.00  0.00    -0.240 C  
HETATM   12  O   UNL     1     -11.964   6.566  71.407  1.00  0.00    -0.328 OA 
BRANCH  11  13
HETATM   13  C   UNL     1      -9.638   6.603  72.003  1.00  0.00    -0.150 A  
HETATM   14  C   UNL     1      -9.573   7.145  73.298  1.00  0.00    -0.236 A  
HETATM   15  C   UNL     1      -8.415   6.999  74.065  1.00  0.00    -0.180 A  
HETATM   16  C   UNL     1      -7.324   6.299  73.552  1.00  0.00    -0.087 A  
HETATM   17  C   UNL     1      -7.397   5.719  72.285  1.00  0.00    -0.091 A  
HETATM   18  C   UNL     1      -8.553   5.868  71.515  1.00  0.00    -0.132 A  
HETATM   19  O   UNL     1      -8.609   5.283  70.282  1.00  0.00    -0.116 OA 
HETATM   20  H   UNL     1      -7.872   4.784  69.951  1.00  0.00     0.000 HD 
ENDBRANCH  11  13
ENDBRANCH  10  11
ENDBRANCH   9  10
TORSDOF 3
ENDMDL
MODEL      231
REMARK 921   NORMALIZED FREE ENERGY PREDICTED BY IDOCK:   -3.86 KCAL/MOL
REMARK 922        TOTAL FREE ENERGY PREDICTED BY IDOCK:   -4.89 KCAL/MOL
REMARK 923 INTER-LIGAND FREE ENERGY PREDICTED BY IDOCK:   -4.30 KCAL/MOL
REMARK 924 INTRA-LIGAND FREE ENERGY PREDICTED BY IDOCK:   -0.58 KCAL/MOL
REMARK 927      BINDING AFFINITY PREDICTED BY RF-SCORE:    0.00 PKD
ROOT
HETATM    1  O   UNL     1      -8.806  18.344  67.422  1.00  0.00    -0.254 OA 
HETATM    2  C   UNL     1     -10.004  18.106  66.855  1.00  0.00    -0.342 C  
HETATM    3  C   UNL     1     -10.143  16.775  66.199  1.00  0.00    -0.360 A  
HETATM    4  O   UNL     1     -10.892  18.942  66.819  1.00  0.00    -0.370 OA 
HETATM    5  C   UNL     1     -11.053  16.694  65.135  1.00  0.00    -0.086 A  
HETATM    6  C   UNL     1     -11.301  15.478  64.498  1.00  0.00    -0.322 A  
HETATM    7  C   UNL     1     -10.649  14.325  64.925  1.00  0.00    -0.452 A  
HETATM    8  C   UNL     1      -9.738  14.388  65.979  1.00  0.00    -0.320 A  
HETATM    9  C   UNL     1      -9.472  15.612  66.611  1.00  0.00    -0.259 A  
ENDROOT
BRANCH   9  10
HETATM   10  O   UNL     1      -8.628  15.678  67.742  1.00  0.00    -0.159 OA 
BRANCH  10  11
HETATM   11  C   UNL     1      -7.267  15.524  67.534  1.00  0.00    -0.194 C  
HETATM   12  O   UNL     1      -6.651  16.058  66.624  1.00  0.00    -0.224 OA 
BRANCH  11  13
HETATM   13  C   UNL     1      -6.693  14.496  68.446  1.00  0.00    -0.105 A  
HETATM   14  C   UNL     1      -6.774  13.156  68.031  1.00  0.00    -0.119 A  
HETATM   15  C   UNL     1      -6.414  12.125  68.902  1.00  0.00    -0.088 A  
HETATM   16  C   UNL     1      -5.957  12.426  70.184  1.00  0.00    -0.143 A  
HETATM   17  C   UNL     1      -5.830  13.755  70.589  1.00  0.00    -0.187 A  
HETATM   18  C   UNL     1      -6.194  14.787  69.721  1.00  0.00    -0.144 A  
HETATM   19  O   UNL     1      -6.053  16.081  70.131  1.00  0.00    -0.175 OA 
HETATM   20  H   UNL     1      -5.714  16.279  70.997  1.00  0.00     0.000 HD 
ENDBRANCH  11  13
ENDBRANCH  10  11
ENDBRANCH   9  10
TORSDOF 3
ENDMDL
MODEL      232
REMARK 921   NORMALIZED FREE ENERGY PREDICTED BY IDOCK:   -3.84 KCAL/MOL
REMARK 922        TOTAL FREE ENERGY PREDICTED BY IDOCK:   -4.87 KCAL/MOL
REMARK 923 INTER-LIGAND FREE ENERGY PREDICTED BY IDOCK:   -4.49 KCAL/MOL
REMARK 924 INTRA-LIGAND FREE ENERGY PREDICTED BY IDOCK:   -0.38 KCAL/MOL
REMARK 927      BINDING AFFINITY PREDICTED BY RF-SCORE:    0.00 PKD
ROOT
HETATM    1  O   UNL     1      -7.952   8.566  68.467  1.00  0.00    -0.113 OA 
HETATM    2  C   UNL     1      -8.103   7.563  69.352  1.00  0.00    -0.128 C  
HETATM    3  C   UNL     1      -9.045   7.841  70.473  1.00  0.00    -0.154 A  
HETATM    4  O   UNL     1      -7.466   6.524  69.284  1.00  0.00    -0.090 OA 
HETATM    5  C   UNL     1      -8.807   7.157  71.674  1.00  0.00    -0.121 A  
HETATM    6  C   UNL     1      -9.669   7.302  72.761  1.00  0.00    -0.203 A  
HETATM    7  C   UNL     1     -10.787   8.124  72.656  1.00  0.00    -0.429 A  
HETATM    8  C   UNL     1     -11.038   8.814  71.470  1.00  0.00    -0.377 A  
HETATM    9  C   UNL     1     -10.163   8.686  70.380  1.00  0.00    -0.193 A  
ENDROOT
BRANCH   9  10
HETATM   10  O   UNL     1     -10.452   9.298  69.140  1.00  0.00    -0.210 OA 
BRANCH  10  11
HETATM   11  C   UNL     1     -11.235  10.441  69.159  1.00  0.00    -0.246 C  
HETATM   12  O   UNL     1     -12.297  10.531  69.757  1.00  0.00    -0.250 OA 
BRANCH  11  13
HETATM   13  C   UNL     1     -10.708  11.474  68.224  1.00  0.00    -0.247 A  
HETATM   14  C   UNL     1     -11.626  12.063  67.338  1.00  0.00    -0.388 A  
HETATM   15  C   UNL     1     -11.180  12.911  66.322  1.00  0.00    -0.337 A  
HETATM   16  C   UNL     1      -9.820  13.188  66.194  1.00  0.00    -0.284 A  
HETATM   17  C   UNL     1      -8.906  12.643  67.097  1.00  0.00    -0.204 A  
HETATM   18  C   UNL     1      -9.350  11.792  68.111  1.00  0.00    -0.190 A  
HETATM   19  O   UNL     1      -8.442  11.278  68.991  1.00  0.00    -0.327 OA 
HETATM   20  H   UNL     1      -7.519  11.494  68.914  1.00  0.00     0.000 HD 
ENDBRANCH  11  13
ENDBRANCH  10  11
ENDBRANCH   9  10
TORSDOF 3
ENDMDL
MODEL      233
REMARK 921   NORMALIZED FREE ENERGY PREDICTED BY IDOCK:   -3.81 KCAL/MOL
REMARK 922        TOTAL FREE ENERGY PREDICTED BY IDOCK:   -4.83 KCAL/MOL
REMARK 923 INTER-LIGAND FREE ENERGY PREDICTED BY IDOCK:   -4.13 KCAL/MOL
REMARK 924 INTRA-LIGAND FREE ENERGY PREDICTED BY IDOCK:   -0.70 KCAL/MOL
REMARK 927      BINDING AFFINITY PREDICTED BY RF-SCORE:    0.00 PKD
ROOT
HETATM    1  O   UNL     1     -11.207   9.395  68.045  1.00  0.00    -0.040 OA 
HETATM    2  C   UNL     1      -9.953   9.073  68.414  1.00  0.00    -0.180 C  
HETATM    3  C   UNL     1      -8.889   9.998  67.929  1.00  0.00    -0.125 A  
HETATM    4  O   UNL     1      -9.693   8.059  69.042  1.00  0.00    -0.155 OA 
HETATM    5  C   UNL     1      -7.613   9.444  67.750  1.00  0.00    -0.088 A  
HETATM    6  C   UNL     1      -6.538  10.242  67.360  1.00  0.00    -0.068 A  
HETATM    7  C   UNL     1      -6.723  11.607  67.156  1.00  0.00    -0.142 A  
HETATM    8  C   UNL     1      -7.986  12.173  67.327  1.00  0.00    -0.176 A  
HETATM    9  C   UNL     1      -9.075  11.371  67.701  1.00  0.00    -0.155 A  
ENDROOT
BRANCH   9  10
HETATM   10  O   UNL     1     -10.338  11.942  67.973  1.00  0.00    -0.186 OA 
BRANCH  10  11
HETATM   11  C   UNL     1     -10.401  13.319  68.112  1.00  0.00    -0.244 C  
HETATM   12  O   UNL     1     -10.202  13.908  69.165  1.00  0.00    -0.117 OA 
BRANCH  11  13
HETATM   13  C   UNL     1     -10.906  13.966  66.870  1.00  0.00    -0.286 A  
HETATM   14  C   UNL     1     -11.711  13.184  66.024  1.00  0.00    -0.424 A  
HETATM   15  C   UNL     1     -12.082  13.661  64.765  1.00  0.00    -0.435 A  
HETATM   16  C   UNL     1     -11.666  14.925  64.350  1.00  0.00    -0.338 A  
HETATM   17  C   UNL     1     -10.905  15.727  65.202  1.00  0.00    -0.444 A  
HETATM   18  C   UNL     1     -10.529  15.249  66.459  1.00  0.00    -0.298 A  
HETATM   19  O   UNL     1      -9.794  16.053  67.282  1.00  0.00    -0.231 OA 
HETATM   20  H   UNL     1      -9.538  16.924  67.003  1.00  0.00     0.000 HD 
ENDBRANCH  11  13
ENDBRANCH  10  11
ENDBRANCH   9  10
TORSDOF 3
ENDMDL
MODEL      234
REMARK 921   NORMALIZED FREE ENERGY PREDICTED BY IDOCK:   -3.80 KCAL/MOL
REMARK 922        TOTAL FREE ENERGY PREDICTED BY IDOCK:   -4.82 KCAL/MOL
REMARK 923 INTER-LIGAND FREE ENERGY PREDICTED BY IDOCK:   -3.98 KCAL/MOL
REMARK 924 INTRA-LIGAND FREE ENERGY PREDICTED BY IDOCK:   -0.84 KCAL/MOL
REMARK 927      BINDING AFFINITY PREDICTED BY RF-SCORE:    0.00 PKD
ROOT
HETATM    1  O   UNL     1     -12.209  10.465  69.697  1.00  0.00    -0.183 OA 
HETATM    2  C   UNL     1     -12.058   9.884  70.902  1.00  0.00    -0.341 C  
HETATM    3  C   UNL     1     -11.737   8.429  70.871  1.00  0.00    -0.269 A  
HETATM    4  O   UNL     1     -12.237  10.486  71.949  1.00  0.00    -0.200 OA 
HETATM    5  C   UNL     1     -12.147   7.674  71.980  1.00  0.00    -0.336 A  
HETATM    6  C   UNL     1     -11.838   6.318  72.074  1.00  0.00    -0.370 A  
HETATM    7  C   UNL     1     -11.104   5.701  71.065  1.00  0.00    -0.202 A  
HETATM    8  C   UNL     1     -10.691   6.436  69.953  1.00  0.00    -0.332 A  
HETATM    9  C   UNL     1     -11.016   7.796  69.846  1.00  0.00    -0.190 A  
ENDROOT
BRANCH   9  10
HETATM   10  O   UNL     1     -10.523   8.579  68.778  1.00  0.00    -0.217 OA 
BRANCH  10  11
HETATM   11  C   UNL     1      -9.151   8.741  68.684  1.00  0.00    -0.141 C  
HETATM   12  O   UNL     1      -8.530   9.638  69.236  1.00  0.00    -0.130 OA 
BRANCH  11  13
HETATM   13  C   UNL     1      -8.560   7.797  67.695  1.00  0.00    -0.123 A  
HETATM   14  C   UNL     1      -7.380   7.133  68.071  1.00  0.00    -0.097 A  
HETATM   15  C   UNL     1      -6.676   6.366  67.140  1.00  0.00    -0.060 A  
HETATM   16  C   UNL     1      -7.153   6.243  65.836  1.00  0.00    -0.066 A  
HETATM   17  C   UNL     1      -8.348   6.861  65.467  1.00  0.00    -0.138 A  
HETATM   18  C   UNL     1      -9.051   7.633  66.395  1.00  0.00    -0.174 A  
HETATM   19  O   UNL     1     -10.224   8.221  66.018  1.00  0.00    -0.410 OA 
HETATM   20  H   UNL     1     -10.558   8.109  65.135  1.00  0.00     0.000 HD 
ENDBRANCH  11  13
ENDBRANCH  10  11
ENDBRANCH   9  10
TORSDOF 3
ENDMDL
MODEL      235
REMARK 921   NORMALIZED FREE ENERGY PREDICTED BY IDOCK:   -3.79 KCAL/MOL
REMARK 922        TOTAL FREE ENERGY PREDICTED BY IDOCK:   -4.81 KCAL/MOL
REMARK 923 INTER-LIGAND FREE ENERGY PREDICTED BY IDOCK:   -4.62 KCAL/MOL
REMARK 924 INTRA-LIGAND FREE ENERGY PREDICTED BY IDOCK:   -0.19 KCAL/MOL
REMARK 927      BINDING AFFINITY PREDICTED BY RF-SCORE:    0.00 PKD
ROOT
HETATM    1  O   UNL     1      -8.115  10.090  69.847  1.00  0.00    -0.171 OA 
HETATM    2  C   UNL     1      -7.510   9.915  68.657  1.00  0.00    -0.075 C  
HETATM    3  C   UNL     1      -8.412   9.972  67.471  1.00  0.00    -0.118 A  
HETATM    4  O   UNL     1      -6.321   9.659  68.555  1.00  0.00    -0.047 OA 
HETATM    5  C   UNL     1      -8.009   9.241  66.343  1.00  0.00    -0.107 A  
HETATM    6  C   UNL     1      -8.752   9.282  65.164  1.00  0.00    -0.216 A  
HETATM    7  C   UNL     1      -9.901  10.065  65.093  1.00  0.00    -0.388 A  
HETATM    8  C   UNL     1     -10.317  10.796  66.206  1.00  0.00    -0.303 A  
HETATM    9  C   UNL     1      -9.584  10.743  67.400  1.00  0.00    -0.159 A  
ENDROOT
BRANCH   9  10
HETATM   10  O   UNL     1      -9.934  11.551  68.505  1.00  0.00    -0.196 OA 
BRANCH  10  11
HETATM   11  C   UNL     1     -11.208  12.096  68.520  1.00  0.00    -0.260 C  
HETATM   12  O   UNL     1     -12.220  11.471  68.240  1.00  0.00    -0.561 OA 
BRANCH  11  13
HETATM   13  C   UNL     1     -11.165  13.567  68.748  1.00  0.00    -0.311 A  
HETATM   14  C   UNL     1     -12.102  14.102  69.648  1.00  0.00    -0.400 A  
HETATM   15  C   UNL     1     -12.237  15.485  69.786  1.00  0.00    -0.328 A  
HETATM   16  C   UNL     1     -11.429  16.340  69.039  1.00  0.00    -0.268 A  
HETATM   17  C   UNL     1     -10.464  15.818  68.177  1.00  0.00    -0.263 A  
HETATM   18  C   UNL     1     -10.331  14.435  68.035  1.00  0.00    -0.227 A  
HETATM   19  O   UNL     1      -9.374  13.943  67.194  1.00  0.00    -0.224 OA 
HETATM   20  H   UNL     1      -8.807  14.532  66.710  1.00  0.00     0.000 HD 
ENDBRANCH  11  13
ENDBRANCH  10  11
ENDBRANCH   9  10
TORSDOF 3
ENDMDL
MODEL      236
REMARK 921   NORMALIZED FREE ENERGY PREDICTED BY IDOCK:   -3.79 KCAL/MOL
REMARK 922        TOTAL FREE ENERGY PREDICTED BY IDOCK:   -4.80 KCAL/MOL
REMARK 923 INTER-LIGAND FREE ENERGY PREDICTED BY IDOCK:   -5.52 KCAL/MOL
REMARK 924 INTRA-LIGAND FREE ENERGY PREDICTED BY IDOCK:    0.72 KCAL/MOL
REMARK 927      BINDING AFFINITY PREDICTED BY RF-SCORE:    0.00 PKD
ROOT
HETATM    1  O   UNL     1      -6.837  14.731  67.208  1.00  0.00    -0.255 OA 
HETATM    2  C   UNL     1      -7.270  15.816  67.878  1.00  0.00    -0.139 C  
HETATM    3  C   UNL     1      -8.743  15.882  68.099  1.00  0.00    -0.171 A  
HETATM    4  O   UNL     1      -6.522  16.717  68.223  1.00  0.00    -0.128 OA 
HETATM    5  C   UNL     1      -9.300  17.164  68.221  1.00  0.00    -0.265 A  
HETATM    6  C   UNL     1     -10.658  17.329  68.492  1.00  0.00    -0.350 A  
HETATM    7  C   UNL     1     -11.474  16.213  68.655  1.00  0.00    -0.340 A  
HETATM    8  C   UNL     1     -10.937  14.931  68.533  1.00  0.00    -0.260 A  
HETATM    9  C   UNL     1      -9.576  14.761  68.243  1.00  0.00    -0.215 A  
ENDROOT
BRANCH   9  10
HETATM   10  O   UNL     1      -8.994  13.473  68.213  1.00  0.00    -0.183 OA 
BRANCH  10  11
HETATM   11  C   UNL     1      -9.104  12.750  67.037  1.00  0.00    -0.220 C  
HETATM   12  O   UNL     1      -8.293  11.911  66.673  1.00  0.00    -0.176 OA 
BRANCH  11  13
HETATM   13  C   UNL     1     -10.232  13.246  66.199  1.00  0.00    -0.296 A  
HETATM   14  C   UNL     1      -9.967  14.333  65.350  1.00  0.00    -0.334 A  
HETATM   15  C   UNL     1     -11.008  14.961  64.663  1.00  0.00    -0.323 A  
HETATM   16  C   UNL     1     -12.315  14.498  64.807  1.00  0.00    -0.403 A  
HETATM   17  C   UNL     1     -12.581  13.390  65.613  1.00  0.00    -0.496 A  
HETATM   18  C   UNL     1     -11.541  12.764  66.304  1.00  0.00    -0.379 A  
HETATM   19  O   UNL     1     -11.820  11.675  67.078  1.00  0.00    -0.591 OA 
HETATM   20  H   UNL     1     -12.710  11.348  67.149  1.00  0.00     0.000 HD 
ENDBRANCH  11  13
ENDBRANCH  10  11
ENDBRANCH   9  10
TORSDOF 3
ENDMDL
MODEL      237
REMARK 921   NORMALIZED FREE ENERGY PREDICTED BY IDOCK:   -3.78 KCAL/MOL
REMARK 922        TOTAL FREE ENERGY PREDICTED BY IDOCK:   -4.80 KCAL/MOL
REMARK 923 INTER-LIGAND FREE ENERGY PREDICTED BY IDOCK:   -4.14 KCAL/MOL
REMARK 924 INTRA-LIGAND FREE ENERGY PREDICTED BY IDOCK:   -0.66 KCAL/MOL
REMARK 927      BINDING AFFINITY PREDICTED BY RF-SCORE:    0.00 PKD
ROOT
HETATM    1  O   UNL     1     -10.441  10.861  66.022  1.00  0.00    -0.251 OA 
HETATM    2  C   UNL     1      -9.409  10.260  66.644  1.00  0.00    -0.161 C  
HETATM    3  C   UNL     1      -8.348  11.179  67.147  1.00  0.00    -0.136 A  
HETATM    4  O   UNL     1      -9.310   9.046  66.731  1.00  0.00    -0.147 OA 
HETATM    5  C   UNL     1      -7.053  10.647  67.239  1.00  0.00    -0.089 A  
HETATM    6  C   UNL     1      -6.005  11.408  67.758  1.00  0.00    -0.049 A  
HETATM    7  C   UNL     1      -6.242  12.705  68.202  1.00  0.00    -0.083 A  
HETATM    8  C   UNL     1      -7.523  13.250  68.115  1.00  0.00    -0.128 A  
HETATM    9  C   UNL     1      -8.576  12.496  67.577  1.00  0.00    -0.183 A  
ENDROOT
BRANCH   9  10
HETATM   10  O   UNL     1      -9.898  12.994  67.570  1.00  0.00    -0.203 OA 
BRANCH  10  11
HETATM   11  C   UNL     1     -10.172  14.069  66.740  1.00  0.00    -0.264 C  
HETATM   12  O   UNL     1     -10.318  13.976  65.530  1.00  0.00    -0.307 OA 
BRANCH  11  13
HETATM   13  C   UNL     1     -10.092  15.359  67.480  1.00  0.00    -0.233 A  
HETATM   14  C   UNL     1     -10.499  15.351  68.825  1.00  0.00    -0.231 A  
HETATM   15  C   UNL     1     -10.614  16.549  69.533  1.00  0.00    -0.321 A  
HETATM   16  C   UNL     1     -10.309  17.758  68.910  1.00  0.00    -0.300 A  
HETATM   17  C   UNL     1      -9.860  17.771  67.589  1.00  0.00    -0.299 A  
HETATM   18  C   UNL     1      -9.749  16.575  66.878  1.00  0.00    -0.251 A  
HETATM   19  O   UNL     1      -9.298  16.607  65.589  1.00  0.00    -0.502 OA 
HETATM   20  H   UNL     1      -9.065  17.433  65.181  1.00  0.00     0.000 HD 
ENDBRANCH  11  13
ENDBRANCH  10  11
ENDBRANCH   9  10
TORSDOF 3
ENDMDL
MODEL      238
REMARK 921   NORMALIZED FREE ENERGY PREDICTED BY IDOCK:   -3.76 KCAL/MOL
REMARK 922        TOTAL FREE ENERGY PREDICTED BY IDOCK:   -4.77 KCAL/MOL
REMARK 923 INTER-LIGAND FREE ENERGY PREDICTED BY IDOCK:   -4.11 KCAL/MOL
REMARK 924 INTRA-LIGAND FREE ENERGY PREDICTED BY IDOCK:   -0.67 KCAL/MOL
REMARK 927      BINDING AFFINITY PREDICTED BY RF-SCORE:    0.00 PKD
ROOT
HETATM    1  O   UNL     1      -6.541   4.755  66.315  1.00  0.00    -0.046 OA 
HETATM    2  C   UNL     1      -6.811   4.873  65.001  1.00  0.00    -0.049 C  
HETATM    3  C   UNL     1      -8.183   4.454  64.594  1.00  0.00    -0.106 A  
HETATM    4  O   UNL     1      -5.974   5.231  64.188  1.00  0.00    -0.021 OA 
HETATM    5  C   UNL     1      -8.329   3.989  63.278  1.00  0.00    -0.093 A  
HETATM    6  C   UNL     1      -9.584   3.635  62.783  1.00  0.00    -0.110 A  
HETATM    7  C   UNL     1     -10.709   3.751  63.594  1.00  0.00    -0.231 A  
HETATM    8  C   UNL     1     -10.581   4.209  64.905  1.00  0.00    -0.171 A  
HETATM    9  C   UNL     1      -9.318   4.549  65.414  1.00  0.00    -0.163 A  
ENDROOT
BRANCH   9  10
HETATM   10  O   UNL     1      -9.181   5.107  66.705  1.00  0.00    -0.123 OA 
BRANCH  10  11
HETATM   11  C   UNL     1      -9.513   4.306  67.785  1.00  0.00    -0.168 C  
HETATM   12  O   UNL     1      -9.481   3.084  67.764  1.00  0.00    -0.208 OA 
BRANCH  11  13
HETATM   13  C   UNL     1     -10.073   5.112  68.905  1.00  0.00    -0.237 A  
HETATM   14  C   UNL     1      -9.669   4.767  70.206  1.00  0.00    -0.296 A  
HETATM   15  C   UNL     1     -10.278   5.361  71.313  1.00  0.00    -0.287 A  
HETATM   16  C   UNL     1     -11.280   6.312  71.130  1.00  0.00    -0.365 A  
HETATM   17  C   UNL     1     -11.656   6.694  69.842  1.00  0.00    -0.393 A  
HETATM   18  C   UNL     1     -11.051   6.098  68.733  1.00  0.00    -0.319 A  
HETATM   19  O   UNL     1     -11.425   6.493  67.480  1.00  0.00    -0.721 OA 
HETATM   20  H   UNL     1     -12.089   7.162  67.363  1.00  0.00     0.000 HD 
ENDBRANCH  11  13
ENDBRANCH  10  11
ENDBRANCH   9  10
TORSDOF 3
ENDMDL
MODEL      239
REMARK 921   NORMALIZED FREE ENERGY PREDICTED BY IDOCK:   -3.76 KCAL/MOL
REMARK 922        TOTAL FREE ENERGY PREDICTED BY IDOCK:   -4.76 KCAL/MOL
REMARK 923 INTER-LIGAND FREE ENERGY PREDICTED BY IDOCK:   -3.95 KCAL/MOL
REMARK 924 INTRA-LIGAND FREE ENERGY PREDICTED BY IDOCK:   -0.81 KCAL/MOL
REMARK 927      BINDING AFFINITY PREDICTED BY RF-SCORE:    0.00 PKD
ROOT
HETATM    1  O   UNL     1      -8.116   7.380  65.287  1.00  0.00    -0.121 OA 
HETATM    2  C   UNL     1      -8.286   6.432  66.228  1.00  0.00    -0.118 C  
HETATM    3  C   UNL     1      -8.042   6.878  67.630  1.00  0.00    -0.113 A  
HETATM    4  O   UNL     1      -8.553   5.273  65.954  1.00  0.00    -0.119 OA 
HETATM    5  C   UNL     1      -7.619   5.893  68.535  1.00  0.00    -0.090 A  
HETATM    6  C   UNL     1      -7.426   6.198  69.882  1.00  0.00    -0.080 A  
HETATM    7  C   UNL     1      -7.666   7.489  70.344  1.00  0.00    -0.091 A  
HETATM    8  C   UNL     1      -8.084   8.481  69.457  1.00  0.00    -0.111 A  
HETATM    9  C   UNL     1      -8.261   8.184  68.098  1.00  0.00    -0.129 A  
ENDROOT
BRANCH   9  10
HETATM   10  O   UNL     1      -8.778   9.149  67.204  1.00  0.00    -0.122 OA 
BRANCH  10  11
HETATM   11  C   UNL     1     -10.138   9.406  67.258  1.00  0.00    -0.226 C  
HETATM   12  O   UNL     1     -11.000   8.543  67.180  1.00  0.00    -0.108 OA 
BRANCH  11  13
HETATM   13  C   UNL     1     -10.413  10.870  67.248  1.00  0.00    -0.275 A  
HETATM   14  C   UNL     1      -9.487  11.690  66.580  1.00  0.00    -0.219 A  
HETATM   15  C   UNL     1      -9.583  13.080  66.670  1.00  0.00    -0.259 A  
HETATM   16  C   UNL     1     -10.610  13.660  67.413  1.00  0.00    -0.260 A  
HETATM   17  C   UNL     1     -11.560  12.854  68.042  1.00  0.00    -0.385 A  
HETATM   18  C   UNL     1     -11.463  11.464  67.957  1.00  0.00    -0.307 A  
HETATM   19  O   UNL     1     -12.409  10.693  68.570  1.00  0.00    -0.814 OA 
HETATM   20  H   UNL     1     -13.122  11.096  69.051  1.00  0.00     0.000 HD 
ENDBRANCH  11  13
ENDBRANCH  10  11
ENDBRANCH   9  10
TORSDOF 3
ENDMDL
MODEL      240
REMARK 921   NORMALIZED FREE ENERGY PREDICTED BY IDOCK:   -3.75 KCAL/MOL
REMARK 922        TOTAL FREE ENERGY PREDICTED BY IDOCK:   -4.75 KCAL/MOL
REMARK 923 INTER-LIGAND FREE ENERGY PREDICTED BY IDOCK:   -4.07 KCAL/MOL
REMARK 924 INTRA-LIGAND FREE ENERGY PREDICTED BY IDOCK:   -0.68 KCAL/MOL
REMARK 927      BINDING AFFINITY PREDICTED BY RF-SCORE:    0.00 PKD
ROOT
HETATM    1  O   UNL     1     -12.096   9.661  69.297  1.00  0.00     0.485 OA 
HETATM    2  C   UNL     1     -11.330   9.802  70.396  1.00  0.00    -0.297 C  
HETATM    3  C   UNL     1     -10.039   9.057  70.370  1.00  0.00    -0.248 A  
HETATM    4  O   UNL     1     -11.693  10.436  71.374  1.00  0.00    -0.308 OA 
HETATM    5  C   UNL     1      -9.514   8.673  71.613  1.00  0.00    -0.339 A  
HETATM    6  C   UNL     1      -8.280   8.029  71.697  1.00  0.00    -0.143 A  
HETATM    7  C   UNL     1      -7.550   7.771  70.541  1.00  0.00    -0.079 A  
HETATM    8  C   UNL     1      -8.059   8.144  69.297  1.00  0.00    -0.117 A  
HETATM    9  C   UNL     1      -9.308   8.775  69.205  1.00  0.00    -0.149 A  
ENDROOT
BRANCH   9  10
HETATM   10  O   UNL     1      -9.794   9.247  67.965  1.00  0.00    -0.153 OA 
BRANCH  10  11
HETATM   11  C   UNL     1      -9.300  10.456  67.504  1.00  0.00    -0.149 C  
HETATM   12  O   UNL     1      -8.267  10.970  67.907  1.00  0.00    -0.114 OA 
BRANCH  11  13
HETATM   13  C   UNL     1     -10.268  11.124  66.590  1.00  0.00    -0.274 A  
HETATM   14  C   UNL     1     -10.223  10.761  65.234  1.00  0.00    -0.351 A  
HETATM   15  C   UNL     1     -10.978  11.462  64.291  1.00  0.00    -0.390 A  
HETATM   16  C   UNL     1     -11.794  12.516  64.698  1.00  0.00    -0.439 A  
HETATM   17  C   UNL     1     -11.880  12.854  66.049  1.00  0.00    -0.485 A  
HETATM   18  C   UNL     1     -11.122  12.158  66.992  1.00  0.00    -0.294 A  
HETATM   19  O   UNL     1     -11.229  12.496  68.311  1.00  0.00    -0.229 OA 
HETATM   20  H   UNL     1     -11.808  13.198  68.583  1.00  0.00     0.000 HD 
ENDBRANCH  11  13
ENDBRANCH  10  11
ENDBRANCH   9  10
TORSDOF 3
ENDMDL
MODEL      241
REMARK 921   NORMALIZED FREE ENERGY PREDICTED BY IDOCK:   -3.74 KCAL/MOL
REMARK 922        TOTAL FREE ENERGY PREDICTED BY IDOCK:   -4.75 KCAL/MOL
REMARK 923 INTER-LIGAND FREE ENERGY PREDICTED BY IDOCK:   -3.68 KCAL/MOL
REMARK 924 INTRA-LIGAND FREE ENERGY PREDICTED BY IDOCK:   -1.06 KCAL/MOL
REMARK 927      BINDING AFFINITY PREDICTED BY RF-SCORE:    0.00 PKD
ROOT
HETATM    1  O   UNL     1      -7.493   8.305  68.143  1.00  0.00    -0.093 OA 
HETATM    2  C   UNL     1      -8.583   7.725  67.607  1.00  0.00    -0.123 C  
HETATM    3  C   UNL     1      -8.875   6.346  68.093  1.00  0.00    -0.114 A  
HETATM    4  O   UNL     1      -9.250   8.259  66.734  1.00  0.00    -0.150 OA 
HETATM    5  C   UNL     1      -9.562   5.503  67.207  1.00  0.00    -0.132 A  
HETATM    6  C   UNL     1      -9.936   4.216  67.593  1.00  0.00    -0.049 A  
HETATM    7  C   UNL     1      -9.638   3.761  68.873  1.00  0.00    -0.183 A  
HETATM    8  C   UNL     1      -8.953   4.585  69.766  1.00  0.00    -0.149 A  
HETATM    9  C   UNL     1      -8.558   5.873  69.377  1.00  0.00    -0.113 A  
ENDROOT
BRANCH   9  10
HETATM   10  O   UNL     1      -7.951   6.757  70.297  1.00  0.00    -0.111 OA 
BRANCH  10  11
HETATM   11  C   UNL     1      -8.498   6.830  71.568  1.00  0.00    -0.119 C  
HETATM   12  O   UNL     1      -8.076   6.204  72.529  1.00  0.00    -0.104 OA 
BRANCH  11  13
HETATM   13  C   UNL     1      -9.757   7.625  71.570  1.00  0.00    -0.191 A  
HETATM   14  C   UNL     1     -10.949   6.935  71.849  1.00  0.00    -0.266 A  
HETATM   15  C   UNL     1     -12.183   7.571  71.703  1.00  0.00    -0.352 A  
HETATM   16  C   UNL     1     -12.235   8.903  71.296  1.00  0.00    -0.351 A  
HETATM   17  C   UNL     1     -11.055   9.611  71.062  1.00  0.00    -0.438 A  
HETATM   18  C   UNL     1      -9.820   8.974  71.202  1.00  0.00    -0.300 A  
HETATM   19  O   UNL     1      -8.677   9.686  70.979  1.00  0.00    -0.345 OA 
HETATM   20  H   UNL     1      -8.720  10.602  70.729  1.00  0.00     0.000 HD 
ENDBRANCH  11  13
ENDBRANCH  10  11
ENDBRANCH   9  10
TORSDOF 3
ENDMDL
MODEL      242
REMARK 921   NORMALIZED FREE ENERGY PREDICTED BY IDOCK:   -3.72 KCAL/MOL
REMARK 922        TOTAL FREE ENERGY PREDICTED BY IDOCK:   -4.72 KCAL/MOL
REMARK 923 INTER-LIGAND FREE ENERGY PREDICTED BY IDOCK:   -4.01 KCAL/MOL
REMARK 924 INTRA-LIGAND FREE ENERGY PREDICTED BY IDOCK:   -0.71 KCAL/MOL
REMARK 927      BINDING AFFINITY PREDICTED BY RF-SCORE:    0.00 PKD
ROOT
HETATM    1  O   UNL     1     -11.037  14.997  67.401  1.00  0.00    -0.307 OA 
HETATM    2  C   UNL     1      -9.823  15.582  67.390  1.00  0.00    -0.224 C  
HETATM    3  C   UNL     1      -8.730  14.789  68.023  1.00  0.00    -0.168 A  
HETATM    4  O   UNL     1      -9.640  16.708  66.957  1.00  0.00    -0.234 OA 
HETATM    5  C   UNL     1      -7.665  15.519  68.570  1.00  0.00    -0.132 A  
HETATM    6  C   UNL     1      -6.565  14.867  69.127  1.00  0.00    -0.117 A  
HETATM    7  C   UNL     1      -6.512  13.477  69.133  1.00  0.00    -0.108 A  
HETATM    8  C   UNL     1      -7.564  12.735  68.596  1.00  0.00    -0.085 A  
HETATM    9  C   UNL     1      -8.681  13.386  68.051  1.00  0.00    -0.178 A  
ENDROOT
BRANCH   9  10
HETATM   10  O   UNL     1      -9.709  12.656  67.415  1.00  0.00    -0.194 OA 
BRANCH  10  11
HETATM   11  C   UNL     1     -10.536  11.886  68.217  1.00  0.00    -0.205 C  
HETATM   12  O   UNL     1     -11.327  12.349  69.025  1.00  0.00    -0.249 OA 
BRANCH  11  13
HETATM   13  C   UNL     1     -10.213  10.437  68.093  1.00  0.00    -0.187 A  
HETATM   14  C   UNL     1     -10.212   9.891  66.798  1.00  0.00    -0.301 A  
HETATM   15  C   UNL     1     -10.087   8.512  66.615  1.00  0.00    -0.364 A  
HETATM   16  C   UNL     1      -9.947   7.673  67.720  1.00  0.00    -0.219 A  
HETATM   17  C   UNL     1      -9.901   8.211  69.006  1.00  0.00    -0.176 A  
HETATM   18  C   UNL     1     -10.031   9.589  69.191  1.00  0.00    -0.183 A  
HETATM   19  O   UNL     1      -9.972  10.098  70.457  1.00  0.00    -0.377 OA 
HETATM   20  H   UNL     1      -9.848   9.523  71.203  1.00  0.00     0.000 HD 
ENDBRANCH  11  13
ENDBRANCH  10  11
ENDBRANCH   9  10
TORSDOF 3
ENDMDL
MODEL      243
REMARK 921   NORMALIZED FREE ENERGY PREDICTED BY IDOCK:   -3.71 KCAL/MOL
REMARK 922        TOTAL FREE ENERGY PREDICTED BY IDOCK:   -4.71 KCAL/MOL
REMARK 923 INTER-LIGAND FREE ENERGY PREDICTED BY IDOCK:   -3.91 KCAL/MOL
REMARK 924 INTRA-LIGAND FREE ENERGY PREDICTED BY IDOCK:   -0.80 KCAL/MOL
REMARK 927      BINDING AFFINITY PREDICTED BY RF-SCORE:    0.00 PKD
ROOT
HETATM    1  O   UNL     1      -6.790   7.218  66.588  1.00  0.00    -0.061 OA 
HETATM    2  C   UNL     1      -7.238   6.940  65.349  1.00  0.00    -0.073 C  
HETATM    3  C   UNL     1      -8.315   5.911  65.279  1.00  0.00    -0.146 A  
HETATM    4  O   UNL     1      -6.754   7.441  64.347  1.00  0.00    -0.046 OA 
HETATM    5  C   UNL     1      -8.394   5.170  64.091  1.00  0.00    -0.137 A  
HETATM    6  C   UNL     1      -9.407   4.229  63.903  1.00  0.00    -0.138 A  
HETATM    7  C   UNL     1     -10.359   4.026  64.897  1.00  0.00    -0.197 A  
HETATM    8  C   UNL     1     -10.294   4.753  66.086  1.00  0.00    -0.337 A  
HETATM    9  C   UNL     1      -9.267   5.687  66.287  1.00  0.00    -0.156 A  
ENDROOT
BRANCH   9  10
HETATM   10  O   UNL     1      -9.240   6.502  67.441  1.00  0.00    -0.121 OA 
BRANCH  10  11
HETATM   11  C   UNL     1     -10.202   7.494  67.545  1.00  0.00    -0.223 C  
HETATM   12  O   UNL     1     -10.656   8.106  66.590  1.00  0.00    -0.272 OA 
BRANCH  11  13
HETATM   13  C   UNL     1     -10.478   7.833  68.968  1.00  0.00    -0.215 A  
HETATM   14  C   UNL     1     -10.425   9.191  69.324  1.00  0.00    -0.231 A  
HETATM   15  C   UNL     1     -10.504   9.572  70.665  1.00  0.00    -0.374 A  
HETATM   16  C   UNL     1     -10.652   8.604  71.656  1.00  0.00    -0.374 A  
HETATM   17  C   UNL     1     -10.751   7.256  71.309  1.00  0.00    -0.243 A  
HETATM   18  C   UNL     1     -10.668   6.873  69.969  1.00  0.00    -0.243 A  
HETATM   19  O   UNL     1     -10.778   5.550  69.648  1.00  0.00    -0.322 OA 
HETATM   20  H   UNL     1     -10.907   4.898  70.327  1.00  0.00     0.000 HD 
ENDBRANCH  11  13
ENDBRANCH  10  11
ENDBRANCH   9  10
TORSDOF 3
ENDMDL
MODEL      244
REMARK 921   NORMALIZED FREE ENERGY PREDICTED BY IDOCK:   -3.65 KCAL/MOL
REMARK 922        TOTAL FREE ENERGY PREDICTED BY IDOCK:   -4.64 KCAL/MOL
REMARK 923 INTER-LIGAND FREE ENERGY PREDICTED BY IDOCK:   -3.76 KCAL/MOL
REMARK 924 INTRA-LIGAND FREE ENERGY PREDICTED BY IDOCK:   -0.89 KCAL/MOL
REMARK 927      BINDING AFFINITY PREDICTED BY RF-SCORE:    0.00 PKD
ROOT
HETATM    1  O   UNL     1      -7.879   5.780  69.329  1.00  0.00    -0.087 OA 
HETATM    2  C   UNL     1      -7.631   6.439  70.477  1.00  0.00    -0.096 C  
HETATM    3  C   UNL     1      -7.257   7.873  70.320  1.00  0.00    -0.057 A  
HETATM    4  O   UNL     1      -7.642   5.887  71.567  1.00  0.00    -0.095 OA 
HETATM    5  C   UNL     1      -6.443   8.421  71.322  1.00  0.00    -0.051 A  
HETATM    6  C   UNL     1      -6.092   9.771  71.298  1.00  0.00    -0.003 A  
HETATM    7  C   UNL     1      -6.561  10.592  70.277  1.00  0.00    -0.138 A  
HETATM    8  C   UNL     1      -7.369  10.063  69.271  1.00  0.00    -0.091 A  
HETATM    9  C   UNL     1      -7.710   8.702  69.281  1.00  0.00    -0.096 A  
ENDROOT
BRANCH   9  10
HETATM   10  O   UNL     1      -8.606   8.170  68.327  1.00  0.00    -0.129 OA 
BRANCH  10  11
HETATM   11  C   UNL     1      -9.925   8.589  68.386  1.00  0.00    -0.187 C  
HETATM   12  O   UNL     1     -10.767   8.093  69.120  1.00  0.00    -0.197 OA 
BRANCH  11  13
HETATM   13  C   UNL     1     -10.222   9.593  67.327  1.00  0.00    -0.292 A  
HETATM   14  C   UNL     1      -9.420   9.562  66.173  1.00  0.00    -0.281 A  
HETATM   15  C   UNL     1      -9.524  10.572  65.215  1.00  0.00    -0.281 A  
HETATM   16  C   UNL     1     -10.438  11.609  65.393  1.00  0.00    -0.324 A  
HETATM   17  C   UNL     1     -11.271  11.624  66.513  1.00  0.00    -0.356 A  
HETATM   18  C   UNL     1     -11.165  10.616  67.474  1.00  0.00    -0.253 A  
HETATM   19  O   UNL     1     -11.996  10.642  68.558  1.00  0.00    -0.743 OA 
HETATM   20  H   UNL     1     -12.636  11.337  68.658  1.00  0.00     0.000 HD 
ENDBRANCH  11  13
ENDBRANCH  10  11
ENDBRANCH   9  10
TORSDOF 3
ENDMDL
MODEL      245
REMARK 921   NORMALIZED FREE ENERGY PREDICTED BY IDOCK:   -3.62 KCAL/MOL
REMARK 922        TOTAL FREE ENERGY PREDICTED BY IDOCK:   -4.61 KCAL/MOL
REMARK 923 INTER-LIGAND FREE ENERGY PREDICTED BY IDOCK:   -4.77 KCAL/MOL
REMARK 924 INTRA-LIGAND FREE ENERGY PREDICTED BY IDOCK:    0.16 KCAL/MOL
REMARK 927      BINDING AFFINITY PREDICTED BY RF-SCORE:    0.00 PKD
ROOT
HETATM    1  O   UNL     1      -7.137  11.282  69.390  1.00  0.00    -0.119 OA 
HETATM    2  C   UNL     1      -7.470  11.855  68.218  1.00  0.00    -0.104 C  
HETATM    3  C   UNL     1      -8.351  11.036  67.337  1.00  0.00    -0.126 A  
HETATM    4  O   UNL     1      -7.030  12.938  67.867  1.00  0.00    -0.092 OA 
HETATM    5  C   UNL     1      -8.244  11.266  65.958  1.00  0.00    -0.045 A  
HETATM    6  C   UNL     1      -9.071  10.595  65.056  1.00  0.00    -0.229 A  
HETATM    7  C   UNL     1     -10.022   9.694  65.525  1.00  0.00    -0.279 A  
HETATM    8  C   UNL     1     -10.140   9.451  66.893  1.00  0.00    -0.314 A  
HETATM    9  C   UNL     1      -9.298  10.109  67.802  1.00  0.00    -0.141 A  
ENDROOT
BRANCH   9  10
HETATM   10  O   UNL     1      -9.468   9.950  69.196  1.00  0.00    -0.174 OA 
BRANCH  10  11
HETATM   11  C   UNL     1     -10.542   9.190  69.626  1.00  0.00    -0.228 C  
HETATM   12  O   UNL     1     -10.778   8.057  69.233  1.00  0.00    -0.209 OA 
BRANCH  11  13
HETATM   13  C   UNL     1     -11.459   9.987  70.488  1.00  0.00    -0.407 A  
HETATM   14  C   UNL     1     -12.231   9.280  71.426  1.00  0.00    -0.426 A  
HETATM   15  C   UNL     1     -13.232   9.932  72.149  1.00  0.00    -0.511 A  
HETATM   16  C   UNL     1     -13.459  11.293  71.952  1.00  0.00    -0.278 A  
HETATM   17  C   UNL     1     -12.668  12.012  71.055  1.00  0.00    -0.337 A  
HETATM   18  C   UNL     1     -11.669  11.361  70.328  1.00  0.00    -0.306 A  
HETATM   19  O   UNL     1     -10.898  12.084  69.464  1.00  0.00    -0.445 OA 
HETATM   20  H   UNL     1     -11.040  13.018  69.356  1.00  0.00     0.000 HD 
ENDBRANCH  11  13
ENDBRANCH  10  11
ENDBRANCH   9  10
TORSDOF 3
ENDMDL
MODEL      246
REMARK 921   NORMALIZED FREE ENERGY PREDICTED BY IDOCK:   -3.60 KCAL/MOL
REMARK 922        TOTAL FREE ENERGY PREDICTED BY IDOCK:   -4.58 KCAL/MOL
REMARK 923 INTER-LIGAND FREE ENERGY PREDICTED BY IDOCK:   -3.73 KCAL/MOL
REMARK 924 INTRA-LIGAND FREE ENERGY PREDICTED BY IDOCK:   -0.85 KCAL/MOL
REMARK 927      BINDING AFFINITY PREDICTED BY RF-SCORE:    0.00 PKD
ROOT
HETATM    1  O   UNL     1      -9.080   6.576  69.037  1.00  0.00    -0.132 OA 
HETATM    2  C   UNL     1      -8.340   6.969  70.092  1.00  0.00    -0.138 C  
HETATM    3  C   UNL     1      -7.750   8.334  69.981  1.00  0.00    -0.095 A  
HETATM    4  O   UNL     1      -8.110   6.239  71.043  1.00  0.00    -0.117 OA 
HETATM    5  C   UNL     1      -6.559   8.559  70.686  1.00  0.00    -0.039 A  
HETATM    6  C   UNL     1      -5.963   9.820  70.697  1.00  0.00    -0.078 A  
HETATM    7  C   UNL     1      -6.558  10.875  70.011  1.00  0.00    -0.151 A  
HETATM    8  C   UNL     1      -7.741  10.668  69.302  1.00  0.00    -0.142 A  
HETATM    9  C   UNL     1      -8.334   9.397  69.273  1.00  0.00    -0.131 A  
ENDROOT
BRANCH   9  10
HETATM   10  O   UNL     1      -9.582   9.191  68.643  1.00  0.00    -0.149 OA 
BRANCH  10  11
HETATM   11  C   UNL     1     -10.706   9.699  69.272  1.00  0.00    -0.226 C  
HETATM   12  O   UNL     1     -11.418   9.052  70.027  1.00  0.00    -0.145 OA 
BRANCH  11  13
HETATM   13  C   UNL     1     -11.031  11.066  68.778  1.00  0.00    -0.270 A  
HETATM   14  C   UNL     1     -11.474  12.001  69.729  1.00  0.00    -0.284 A  
HETATM   15  C   UNL     1     -11.958  13.246  69.321  1.00  0.00    -0.354 A  
HETATM   16  C   UNL     1     -11.987  13.571  67.965  1.00  0.00    -0.372 A  
HETATM   17  C   UNL     1     -11.507  12.667  67.018  1.00  0.00    -0.406 A  
HETATM   18  C   UNL     1     -11.027  11.420  67.424  1.00  0.00    -0.273 A  
HETATM   19  O   UNL     1     -10.551  10.552  66.483  1.00  0.00    -0.231 OA 
HETATM   20  H   UNL     1     -10.548  10.792  65.563  1.00  0.00     0.000 HD 
ENDBRANCH  11  13
ENDBRANCH  10  11
ENDBRANCH   9  10
TORSDOF 3
ENDMDL
MODEL      247
REMARK 921   NORMALIZED FREE ENERGY PREDICTED BY IDOCK:   -3.60 KCAL/MOL
REMARK 922        TOTAL FREE ENERGY PREDICTED BY IDOCK:   -4.58 KCAL/MOL
REMARK 923 INTER-LIGAND FREE ENERGY PREDICTED BY IDOCK:   -3.74 KCAL/MOL
REMARK 924 INTRA-LIGAND FREE ENERGY PREDICTED BY IDOCK:   -0.83 KCAL/MOL
REMARK 927      BINDING AFFINITY PREDICTED BY RF-SCORE:    0.00 PKD
ROOT
HETATM    1  O   UNL     1      -8.470   6.097  65.661  1.00  0.00    -0.143 OA 
HETATM    2  C   UNL     1      -8.165   4.952  66.300  1.00  0.00    -0.108 C  
HETATM    3  C   UNL     1      -7.754   5.109  67.725  1.00  0.00    -0.088 A  
HETATM    4  O   UNL     1      -8.158   3.867  65.739  1.00  0.00    -0.096 OA 
HETATM    5  C   UNL     1      -6.892   4.129  68.238  1.00  0.00    -0.048 A  
HETATM    6  C   UNL     1      -6.501   4.154  69.577  1.00  0.00    -0.033 A  
HETATM    7  C   UNL     1      -6.978   5.152  70.422  1.00  0.00    -0.049 A  
HETATM    8  C   UNL     1      -7.834   6.135  69.927  1.00  0.00    -0.109 A  
HETATM    9  C   UNL     1      -8.215   6.126  68.577  1.00  0.00    -0.111 A  
ENDROOT
BRANCH   9  10
HETATM   10  O   UNL     1      -9.157   7.054  68.080  1.00  0.00    -0.130 OA 
BRANCH  10  11
HETATM   11  C   UNL     1     -10.494   6.814  68.351  1.00  0.00    -0.205 C  
HETATM   12  O   UNL     1     -11.273   6.315  67.552  1.00  0.00    -0.328 OA 
BRANCH  11  13
HETATM   13  C   UNL     1     -10.895   7.396  69.662  1.00  0.00    -0.222 A  
HETATM   14  C   UNL     1     -11.702   6.602  70.494  1.00  0.00    -0.453 A  
HETATM   15  C   UNL     1     -12.256   7.139  71.658  1.00  0.00    -0.385 A  
HETATM   16  C   UNL     1     -11.996   8.463  72.007  1.00  0.00    -0.419 A  
HETATM   17  C   UNL     1     -11.158   9.245  71.211  1.00  0.00    -0.427 A  
HETATM   18  C   UNL     1     -10.606   8.711  70.044  1.00  0.00    -0.227 A  
HETATM   19  O   UNL     1      -9.780   9.488  69.284  1.00  0.00    -0.163 OA 
HETATM   20  H   UNL     1      -9.584  10.382  69.543  1.00  0.00     0.000 HD 
ENDBRANCH  11  13
ENDBRANCH  10  11
ENDBRANCH   9  10
TORSDOF 3
ENDMDL
MODEL      248
REMARK 921   NORMALIZED FREE ENERGY PREDICTED BY IDOCK:   -3.56 KCAL/MOL
REMARK 922        TOTAL FREE ENERGY PREDICTED BY IDOCK:   -4.53 KCAL/MOL
REMARK 923 INTER-LIGAND FREE ENERGY PREDICTED BY IDOCK:   -3.87 KCAL/MOL
REMARK 924 INTRA-LIGAND FREE ENERGY PREDICTED BY IDOCK:   -0.67 KCAL/MOL
REMARK 927      BINDING AFFINITY PREDICTED BY RF-SCORE:    0.00 PKD
ROOT
HETATM    1  O   UNL     1     -10.562   6.723  68.071  1.00  0.00    -0.191 OA 
HETATM    2  C   UNL     1      -9.570   7.480  67.566  1.00  0.00    -0.142 C  
HETATM    3  C   UNL     1      -9.876   8.934  67.448  1.00  0.00    -0.247 A  
HETATM    4  O   UNL     1      -8.518   7.004  67.168  1.00  0.00    -0.119 OA 
HETATM    5  C   UNL     1      -9.197   9.636  66.440  1.00  0.00    -0.205 A  
HETATM    6  C   UNL     1      -9.368  11.012  66.291  1.00  0.00    -0.206 A  
HETATM    7  C   UNL     1     -10.210  11.705  67.155  1.00  0.00    -0.240 A  
HETATM    8  C   UNL     1     -10.894  11.022  68.161  1.00  0.00    -0.274 A  
HETATM    9  C   UNL     1     -10.741   9.635  68.303  1.00  0.00    -0.217 A  
ENDROOT
BRANCH   9  10
HETATM   10  O   UNL     1     -11.348   8.943  69.374  1.00  0.00     0.062 OA 
BRANCH  10  11
HETATM   11  C   UNL     1     -11.055   9.371  70.659  1.00  0.00    -0.289 C  
HETATM   12  O   UNL     1     -11.437  10.434  71.128  1.00  0.00    -0.311 OA 
BRANCH  11  13
HETATM   13  C   UNL     1     -10.082   8.461  71.325  1.00  0.00    -0.260 A  
HETATM   14  C   UNL     1     -10.583   7.249  71.831  1.00  0.00    -0.238 A  
HETATM   15  C   UNL     1      -9.773   6.424  72.614  1.00  0.00    -0.167 A  
HETATM   16  C   UNL     1      -8.457   6.795  72.883  1.00  0.00    -0.125 A  
HETATM   17  C   UNL     1      -7.937   7.974  72.347  1.00  0.00    -0.168 A  
HETATM   18  C   UNL     1      -8.747   8.802  71.568  1.00  0.00    -0.206 A  
HETATM   19  O   UNL     1      -8.218   9.946  71.044  1.00  0.00    -0.322 OA 
HETATM   20  H   UNL     1      -7.311  10.178  71.208  1.00  0.00     0.000 HD 
ENDBRANCH  11  13
ENDBRANCH  10  11
ENDBRANCH   9  10
TORSDOF 3
ENDMDL
MODEL      249
REMARK 921   NORMALIZED FREE ENERGY PREDICTED BY IDOCK:   -3.55 KCAL/MOL
REMARK 922        TOTAL FREE ENERGY PREDICTED BY IDOCK:   -4.53 KCAL/MOL
REMARK 923 INTER-LIGAND FREE ENERGY PREDICTED BY IDOCK:   -3.91 KCAL/MOL
REMARK 924 INTRA-LIGAND FREE ENERGY PREDICTED BY IDOCK:   -0.62 KCAL/MOL
REMARK 927      BINDING AFFINITY PREDICTED BY RF-SCORE:    0.00 PKD
ROOT
HETATM    1  O   UNL     1      -9.500   6.363  69.880  1.00  0.00    -0.153 OA 
HETATM    2  C   UNL     1      -8.942   5.141  69.782  1.00  0.00    -0.110 C  
HETATM    3  C   UNL     1      -9.043   4.502  68.439  1.00  0.00    -0.161 A  
HETATM    4  O   UNL     1      -8.447   4.565  70.738  1.00  0.00    -0.088 OA 
HETATM    5  C   UNL     1      -9.047   3.099  68.413  1.00  0.00    -0.211 A  
HETATM    6  C   UNL     1      -9.075   2.408  67.202  1.00  0.00    -0.164 A  
HETATM    7  C   UNL     1      -9.087   3.111  66.001  1.00  0.00    -0.148 A  
HETATM    8  C   UNL     1      -9.086   4.506  66.009  1.00  0.00    -0.130 A  
HETATM    9  C   UNL     1      -9.077   5.206  67.225  1.00  0.00    -0.113 A  
ENDROOT
BRANCH   9  10
HETATM   10  O   UNL     1      -8.977   6.615  67.252  1.00  0.00    -0.115 OA 
BRANCH  10  11
HETATM   11  C   UNL     1     -10.119   7.342  66.956  1.00  0.00    -0.246 C  
HETATM   12  O   UNL     1     -11.250   6.881  66.990  1.00  0.00    -0.369 OA 
BRANCH  11  13
HETATM   13  C   UNL     1      -9.778   8.692  66.427  1.00  0.00    -0.333 A  
HETATM   14  C   UNL     1     -10.341   9.798  67.087  1.00  0.00    -0.311 A  
HETATM   15  C   UNL     1     -10.208  11.080  66.551  1.00  0.00    -0.280 A  
HETATM   16  C   UNL     1      -9.500  11.269  65.366  1.00  0.00    -0.251 A  
HETATM   17  C   UNL     1      -8.899  10.184  64.728  1.00  0.00    -0.219 A  
HETATM   18  C   UNL     1      -9.035   8.900  65.260  1.00  0.00    -0.162 A  
HETATM   19  O   UNL     1      -8.430   7.851  64.628  1.00  0.00    -0.341 OA 
HETATM   20  H   UNL     1      -7.925   7.992  63.835  1.00  0.00     0.000 HD 
ENDBRANCH  11  13
ENDBRANCH  10  11
ENDBRANCH   9  10
TORSDOF 3
ENDMDL
MODEL      250
REMARK 921   NORMALIZED FREE ENERGY PREDICTED BY IDOCK:   -3.55 KCAL/MOL
REMARK 922        TOTAL FREE ENERGY PREDICTED BY IDOCK:   -4.52 KCAL/MOL
REMARK 923 INTER-LIGAND FREE ENERGY PREDICTED BY IDOCK:   -4.54 KCAL/MOL
REMARK 924 INTRA-LIGAND FREE ENERGY PREDICTED BY IDOCK:    0.02 KCAL/MOL
REMARK 927      BINDING AFFINITY PREDICTED BY RF-SCORE:    0.00 PKD
ROOT
HETATM    1  O   UNL     1      -6.576  10.544  67.242  1.00  0.00    -0.069 OA 
HETATM    2  C   UNL     1      -7.002   9.473  66.546  1.00  0.00    -0.085 C  
HETATM    3  C   UNL     1      -8.216   8.802  67.091  1.00  0.00    -0.104 A  
HETATM    4  O   UNL     1      -6.401   9.038  65.576  1.00  0.00    -0.065 OA 
HETATM    5  C   UNL     1      -8.349   7.432  66.818  1.00  0.00    -0.122 A  
HETATM    6  C   UNL     1      -9.481   6.729  67.231  1.00  0.00    -0.156 A  
HETATM    7  C   UNL     1     -10.499   7.390  67.911  1.00  0.00    -0.265 A  
HETATM    8  C   UNL     1     -10.381   8.751  68.193  1.00  0.00    -0.266 A  
HETATM    9  C   UNL     1      -9.237   9.458  67.797  1.00  0.00    -0.128 A  
ENDROOT
BRANCH   9  10
HETATM   10  O   UNL     1      -9.143  10.855  67.987  1.00  0.00    -0.144 OA 
BRANCH  10  11
HETATM   11  C   UNL     1     -10.324  11.580  67.987  1.00  0.00    -0.190 C  
HETATM   12  O   UNL     1     -10.952  11.861  68.997  1.00  0.00    -0.223 OA 
BRANCH  11  13
HETATM   13  C   UNL     1     -10.812  11.820  66.600  1.00  0.00    -0.318 A  
HETATM   14  C   UNL     1     -10.293  10.995  65.588  1.00  0.00    -0.311 A  
HETATM   15  C   UNL     1     -10.570  11.266  64.247  1.00  0.00    -0.422 A  
HETATM   16  C   UNL     1     -11.379  12.350  63.909  1.00  0.00    -0.502 A  
HETATM   17  C   UNL     1     -11.935  13.148  64.909  1.00  0.00    -0.431 A  
HETATM   18  C   UNL     1     -11.655  12.881  66.251  1.00  0.00    -0.372 A  
HETATM   19  O   UNL     1     -12.218  13.666  67.216  1.00  0.00    -0.366 OA 
HETATM   20  H   UNL     1     -12.791  14.386  66.979  1.00  0.00     0.000 HD 
ENDBRANCH  11  13
ENDBRANCH  10  11
ENDBRANCH   9  10
TORSDOF 3
ENDMDL
MODEL      251
REMARK 921   NORMALIZED FREE ENERGY PREDICTED BY IDOCK:   -3.46 KCAL/MOL
REMARK 922        TOTAL FREE ENERGY PREDICTED BY IDOCK:   -4.41 KCAL/MOL
REMARK 923 INTER-LIGAND FREE ENERGY PREDICTED BY IDOCK:   -4.15 KCAL/MOL
REMARK 924 INTRA-LIGAND FREE ENERGY PREDICTED BY IDOCK:   -0.27 KCAL/MOL
REMARK 927      BINDING AFFINITY PREDICTED BY RF-SCORE:    0.00 PKD
ROOT
HETATM    1  O   UNL     1      -9.887  10.050  67.003  1.00  0.00    -0.173 OA 
HETATM    2  C   UNL     1      -9.590   9.727  65.730  1.00  0.00    -0.254 C  
HETATM    3  C   UNL     1      -8.957   8.390  65.544  1.00  0.00    -0.149 A  
HETATM    4  O   UNL     1      -9.761  10.498  64.799  1.00  0.00    -0.251 OA 
HETATM    5  C   UNL     1      -8.116   8.247  64.431  1.00  0.00    -0.145 A  
HETATM    6  C   UNL     1      -7.527   7.017  64.135  1.00  0.00    -0.098 A  
HETATM    7  C   UNL     1      -7.783   5.913  64.943  1.00  0.00    -0.097 A  
HETATM    8  C   UNL     1      -8.615   6.039  66.056  1.00  0.00    -0.147 A  
HETATM    9  C   UNL     1      -9.194   7.278  66.367  1.00  0.00    -0.159 A  
ENDROOT
BRANCH   9  10
HETATM   10  O   UNL     1     -10.116   7.403  67.431  1.00  0.00    -0.172 OA 
BRANCH  10  11
HETATM   11  C   UNL     1      -9.872   6.664  68.577  1.00  0.00    -0.139 C  
HETATM   12  O   UNL     1      -9.338   5.565  68.580  1.00  0.00    -0.119 OA 
BRANCH  11  13
HETATM   13  C   UNL     1     -10.496   7.298  69.772  1.00  0.00    -0.236 A  
HETATM   14  C   UNL     1     -11.554   6.604  70.384  1.00  0.00    -0.457 A  
HETATM   15  C   UNL     1     -12.299   7.208  71.399  1.00  0.00    -0.415 A  
HETATM   16  C   UNL     1     -11.983   8.498  71.821  1.00  0.00    -0.393 A  
HETATM   17  C   UNL     1     -10.905   9.177  71.250  1.00  0.00    -0.402 A  
HETATM   18  C   UNL     1     -10.163   8.576  70.232  1.00  0.00    -0.193 A  
HETATM   19  O   UNL     1      -9.105   9.252  69.694  1.00  0.00    -0.148 OA 
HETATM   20  H   UNL     1      -8.878  10.121  70.006  1.00  0.00     0.000 HD 
ENDBRANCH  11  13
ENDBRANCH  10  11
ENDBRANCH   9  10
TORSDOF 3
ENDMDL
MODEL      252
REMARK 921   NORMALIZED FREE ENERGY PREDICTED BY IDOCK:   -3.43 KCAL/MOL
REMARK 922        TOTAL FREE ENERGY PREDICTED BY IDOCK:   -4.38 KCAL/MOL
REMARK 923 INTER-LIGAND FREE ENERGY PREDICTED BY IDOCK:   -4.06 KCAL/MOL
REMARK 924 INTRA-LIGAND FREE ENERGY PREDICTED BY IDOCK:   -0.32 KCAL/MOL
REMARK 927      BINDING AFFINITY PREDICTED BY RF-SCORE:    0.00 PKD
ROOT
HETATM    1  O   UNL     1      -7.969   7.179  68.621  1.00  0.00    -0.119 OA 
HETATM    2  C   UNL     1      -7.637   6.160  67.807  1.00  0.00    -0.097 C  
HETATM    3  C   UNL     1      -8.090   4.813  68.256  1.00  0.00    -0.085 A  
HETATM    4  O   UNL     1      -6.954   6.313  66.806  1.00  0.00    -0.064 OA 
HETATM    5  C   UNL     1      -7.317   3.720  67.836  1.00  0.00    -0.062 A  
HETATM    6  C   UNL     1      -7.695   2.415  68.152  1.00  0.00    -0.055 A  
HETATM    7  C   UNL     1      -8.858   2.186  68.882  1.00  0.00    -0.144 A  
HETATM    8  C   UNL     1      -9.636   3.261  69.311  1.00  0.00    -0.110 A  
HETATM    9  C   UNL     1      -9.250   4.576  69.012  1.00  0.00    -0.134 A  
ENDROOT
BRANCH   9  10
HETATM   10  O   UNL     1     -10.076   5.671  69.352  1.00  0.00    -0.183 OA 
BRANCH  10  11
HETATM   11  C   UNL     1     -10.335   5.883  70.696  1.00  0.00    -0.235 C  
HETATM   12  O   UNL     1     -10.080   5.073  71.576  1.00  0.00    -0.182 OA 
BRANCH  11  13
HETATM   13  C   UNL     1     -11.115   7.134  70.907  1.00  0.00    -0.290 A  
HETATM   14  C   UNL     1     -10.766   8.245  70.121  1.00  0.00    -0.239 A  
HETATM   15  C   UNL     1     -11.333   9.495  70.377  1.00  0.00    -0.318 A  
HETATM   16  C   UNL     1     -12.262   9.640  71.406  1.00  0.00    -0.471 A  
HETATM   17  C   UNL     1     -12.649   8.533  72.161  1.00  0.00    -0.431 A  
HETATM   18  C   UNL     1     -12.080   7.283  71.910  1.00  0.00    -0.314 A  
HETATM   19  O   UNL     1     -12.479   6.209  72.653  1.00  0.00    -0.529 OA 
HETATM   20  H   UNL     1     -13.134   6.311  73.334  1.00  0.00     0.000 HD 
ENDBRANCH  11  13
ENDBRANCH  10  11
ENDBRANCH   9  10
TORSDOF 3
ENDMDL
MODEL      253
REMARK 921   NORMALIZED FREE ENERGY PREDICTED BY IDOCK:   -3.43 KCAL/MOL
REMARK 922        TOTAL FREE ENERGY PREDICTED BY IDOCK:   -4.38 KCAL/MOL
REMARK 923 INTER-LIGAND FREE ENERGY PREDICTED BY IDOCK:   -4.02 KCAL/MOL
REMARK 924 INTRA-LIGAND FREE ENERGY PREDICTED BY IDOCK:   -0.37 KCAL/MOL
REMARK 927      BINDING AFFINITY PREDICTED BY RF-SCORE:    0.00 PKD
ROOT
HETATM    1  O   UNL     1     -10.627   6.788  68.037  1.00  0.00    -0.191 OA 
HETATM    2  C   UNL     1     -10.337   8.044  67.649  1.00  0.00    -0.246 C  
HETATM    3  C   UNL     1     -10.876   9.121  68.527  1.00  0.00    -0.089 A  
HETATM    4  O   UNL     1      -9.735   8.291  66.616  1.00  0.00    -0.210 OA 
HETATM    5  C   UNL     1     -11.137  10.356  67.914  1.00  0.00    -0.363 A  
HETATM    6  C   UNL     1     -11.583  11.444  68.664  1.00  0.00    -0.384 A  
HETATM    7  C   UNL     1     -11.762  11.315  70.038  1.00  0.00    -0.428 A  
HETATM    8  C   UNL     1     -11.510  10.093  70.663  1.00  0.00    -0.432 A  
HETATM    9  C   UNL     1     -11.080   8.991  69.910  1.00  0.00    -0.142 A  
ENDROOT
BRANCH   9  10
HETATM   10  O   UNL     1     -10.726   7.776  70.538  1.00  0.00    -0.227 OA 
BRANCH  10  11
HETATM   11  C   UNL     1     -10.305   7.837  71.857  1.00  0.00    -0.207 C  
HETATM   12  O   UNL     1     -11.045   8.077  72.799  1.00  0.00    -0.373 OA 
BRANCH  11  13
HETATM   13  C   UNL     1      -8.821   7.747  71.956  1.00  0.00    -0.169 A  
HETATM   14  C   UNL     1      -8.072   8.601  71.129  1.00  0.00    -0.176 A  
HETATM   15  C   UNL     1      -6.686   8.458  71.040  1.00  0.00    -0.049 A  
HETATM   16  C   UNL     1      -6.038   7.476  71.786  1.00  0.00    -0.036 A  
HETATM   17  C   UNL     1      -6.768   6.653  72.645  1.00  0.00    -0.064 A  
HETATM   18  C   UNL     1      -8.155   6.791  72.731  1.00  0.00    -0.106 A  
HETATM   19  O   UNL     1      -8.851   5.985  73.585  1.00  0.00    -0.125 OA 
HETATM   20  H   UNL     1      -8.399   5.336  74.112  1.00  0.00     0.000 HD 
ENDBRANCH  11  13
ENDBRANCH  10  11
ENDBRANCH   9  10
TORSDOF 3
ENDMDL
MODEL      254
REMARK 921   NORMALIZED FREE ENERGY PREDICTED BY IDOCK:   -3.34 KCAL/MOL
REMARK 922        TOTAL FREE ENERGY PREDICTED BY IDOCK:   -4.27 KCAL/MOL
REMARK 923 INTER-LIGAND FREE ENERGY PREDICTED BY IDOCK:   -3.66 KCAL/MOL
REMARK 924 INTRA-LIGAND FREE ENERGY PREDICTED BY IDOCK:   -0.61 KCAL/MOL
REMARK 927      BINDING AFFINITY PREDICTED BY RF-SCORE:    0.00 PKD
ROOT
HETATM    1  O   UNL     1      -8.416  10.310  67.780  1.00  0.00    -0.114 OA 
HETATM    2  C   UNL     1      -9.475   9.647  67.279  1.00  0.00    -0.143 C  
HETATM    3  C   UNL     1      -9.511   8.187  67.576  1.00  0.00    -0.184 A  
HETATM    4  O   UNL     1     -10.313  10.185  66.572  1.00  0.00    -0.231 OA 
HETATM    5  C   UNL     1     -10.182   7.376  66.649  1.00  0.00    -0.247 A  
HETATM    6  C   UNL     1     -10.325   6.006  66.870  1.00  0.00    -0.303 A  
HETATM    7  C   UNL     1      -9.809   5.433  68.028  1.00  0.00    -0.183 A  
HETATM    8  C   UNL     1      -9.136   6.224  68.960  1.00  0.00    -0.129 A  
HETATM    9  C   UNL     1      -8.974   7.598  68.732  1.00  0.00    -0.133 A  
ENDROOT
BRANCH   9  10
HETATM   10  O   UNL     1      -8.383   8.432  69.708  1.00  0.00    -0.120 OA 
BRANCH  10  11
HETATM   11  C   UNL     1      -9.217   8.979  70.670  1.00  0.00    -0.231 C  
HETATM   12  O   UNL     1      -9.718  10.090  70.587  1.00  0.00    -0.054 OA 
BRANCH  11  13
HETATM   13  C   UNL     1      -9.280   8.118  71.884  1.00  0.00    -0.243 A  
HETATM   14  C   UNL     1     -10.541   7.614  72.246  1.00  0.00    -0.298 A  
HETATM   15  C   UNL     1     -10.710   6.944  73.459  1.00  0.00    -0.342 A  
HETATM   16  C   UNL     1      -9.622   6.759  74.310  1.00  0.00    -0.305 A  
HETATM   17  C   UNL     1      -8.357   7.216  73.938  1.00  0.00    -0.175 A  
HETATM   18  C   UNL     1      -8.186   7.890  72.728  1.00  0.00    -0.144 A  
HETATM   19  O   UNL     1      -6.939   8.321  72.377  1.00  0.00    -0.082 OA 
HETATM   20  H   UNL     1      -6.196   8.166  72.949  1.00  0.00     0.000 HD 
ENDBRANCH  11  13
ENDBRANCH  10  11
ENDBRANCH   9  10
TORSDOF 3
ENDMDL
MODEL      255
REMARK 921   NORMALIZED FREE ENERGY PREDICTED BY IDOCK:   -3.28 KCAL/MOL
REMARK 922        TOTAL FREE ENERGY PREDICTED BY IDOCK:   -4.20 KCAL/MOL
REMARK 923 INTER-LIGAND FREE ENERGY PREDICTED BY IDOCK:   -3.62 KCAL/MOL
REMARK 924 INTRA-LIGAND FREE ENERGY PREDICTED BY IDOCK:   -0.58 KCAL/MOL
REMARK 927      BINDING AFFINITY PREDICTED BY RF-SCORE:    0.00 PKD
ROOT
HETATM    1  O   UNL     1      -6.209   6.565  66.918  1.00  0.00    -0.036 OA 
HETATM    2  C   UNL     1      -7.177   5.706  66.547  1.00  0.00    -0.077 C  
HETATM    3  C   UNL     1      -8.552   6.061  67.001  1.00  0.00    -0.107 A  
HETATM    4  O   UNL     1      -6.941   4.672  65.941  1.00  0.00    -0.060 OA 
HETATM    5  C   UNL     1      -9.445   4.994  67.182  1.00  0.00    -0.146 A  
HETATM    6  C   UNL     1     -10.772   5.229  67.544  1.00  0.00    -0.063 A  
HETATM    7  C   UNL     1     -11.224   6.534  67.717  1.00  0.00    -0.261 A  
HETATM    8  C   UNL     1     -10.349   7.605  67.543  1.00  0.00    -0.326 A  
HETATM    9  C   UNL     1      -9.009   7.374  67.198  1.00  0.00    -0.126 A  
ENDROOT
BRANCH   9  10
HETATM   10  O   UNL     1      -8.133   8.447  66.922  1.00  0.00    -0.098 OA 
BRANCH  10  11
HETATM   11  C   UNL     1      -8.631   9.732  67.069  1.00  0.00    -0.124 C  
HETATM   12  O   UNL     1      -8.629  10.347  68.125  1.00  0.00    -0.121 OA 
BRANCH  11  13
HETATM   13  C   UNL     1      -9.318  10.192  65.830  1.00  0.00    -0.224 A  
HETATM   14  C   UNL     1      -8.742   9.820  64.604  1.00  0.00    -0.218 A  
HETATM   15  C   UNL     1      -9.227  10.352  63.407  1.00  0.00    -0.311 A  
HETATM   16  C   UNL     1     -10.298  11.243  63.426  1.00  0.00    -0.449 A  
HETATM   17  C   UNL     1     -10.906  11.582  64.635  1.00  0.00    -0.372 A  
HETATM   18  C   UNL     1     -10.419  11.055  65.833  1.00  0.00    -0.240 A  
HETATM   19  O   UNL     1     -11.034  11.391  67.005  1.00  0.00    -0.264 OA 
HETATM   20  H   UNL     1     -11.782  11.977  67.007  1.00  0.00     0.000 HD 
ENDBRANCH  11  13
ENDBRANCH  10  11
ENDBRANCH   9  10
TORSDOF 3
ENDMDL
MODEL      256
REMARK 921   NORMALIZED FREE ENERGY PREDICTED BY IDOCK:   -3.16 KCAL/MOL
REMARK 922        TOTAL FREE ENERGY PREDICTED BY IDOCK:   -4.07 KCAL/MOL
REMARK 923 INTER-LIGAND FREE ENERGY PREDICTED BY IDOCK:   -2.94 KCAL/MOL
REMARK 924 INTRA-LIGAND FREE ENERGY PREDICTED BY IDOCK:   -1.13 KCAL/MOL
REMARK 927      BINDING AFFINITY PREDICTED BY RF-SCORE:    0.00 PKD
ROOT
HETATM    1  O   UNL     1      -6.277   5.816  67.655  1.00  0.00    -0.027 OA 
HETATM    2  C   UNL     1      -6.264   4.951  66.623  1.00  0.00    -0.032 C  
HETATM    3  C   UNL     1      -7.606   4.537  66.124  1.00  0.00    -0.090 A  
HETATM    4  O   UNL     1      -5.231   4.484  66.169  1.00  0.00    -0.008 OA 
HETATM    5  C   UNL     1      -7.686   3.272  65.522  1.00  0.00    -0.081 A  
HETATM    6  C   UNL     1      -8.883   2.820  64.967  1.00  0.00    -0.122 A  
HETATM    7  C   UNL     1     -10.012   3.633  64.997  1.00  0.00    -0.110 A  
HETATM    8  C   UNL     1      -9.951   4.892  65.594  1.00  0.00    -0.150 A  
HETATM    9  C   UNL     1      -8.754   5.343  66.170  1.00  0.00    -0.129 A  
ENDROOT
BRANCH   9  10
HETATM   10  O   UNL     1      -8.646   6.652  66.690  1.00  0.00    -0.115 OA 
BRANCH  10  11
HETATM   11  C   UNL     1      -9.779   7.209  67.261  1.00  0.00    -0.155 C  
HETATM   12  O   UNL     1     -10.520   7.991  66.683  1.00  0.00    -0.303 OA 
BRANCH  11  13
HETATM   13  C   UNL     1      -9.879   6.870  68.708  1.00  0.00    -0.149 A  
HETATM   14  C   UNL     1     -11.099   6.336  69.157  1.00  0.00    -0.457 A  
HETATM   15  C   UNL     1     -11.327   6.153  70.522  1.00  0.00    -0.381 A  
HETATM   16  C   UNL     1     -10.337   6.487  71.445  1.00  0.00    -0.234 A  
HETATM   17  C   UNL     1      -9.106   6.975  71.005  1.00  0.00    -0.151 A  
HETATM   18  C   UNL     1      -8.877   7.163  69.640  1.00  0.00    -0.141 A  
HETATM   19  O   UNL     1      -7.663   7.631  69.229  1.00  0.00    -0.100 OA 
HETATM   20  H   UNL     1      -6.982   7.830  69.862  1.00  0.00     0.000 HD 
ENDBRANCH  11  13
ENDBRANCH  10  11
ENDBRANCH   9  10
TORSDOF 3
ENDMDL
MODEL      257
REMARK 921   NORMALIZED FREE ENERGY PREDICTED BY IDOCK:   -3.11 KCAL/MOL
REMARK 922        TOTAL FREE ENERGY PREDICTED BY IDOCK:   -4.01 KCAL/MOL
REMARK 923 INTER-LIGAND FREE ENERGY PREDICTED BY IDOCK:   -3.38 KCAL/MOL
REMARK 924 INTRA-LIGAND FREE ENERGY PREDICTED BY IDOCK:   -0.63 KCAL/MOL
REMARK 927      BINDING AFFINITY PREDICTED BY RF-SCORE:    0.00 PKD
ROOT
HETATM    1  O   UNL     1      -7.063  11.164  69.560  1.00  0.00    -0.126 OA 
HETATM    2  C   UNL     1      -7.923  11.405  68.552  1.00  0.00    -0.143 C  
HETATM    3  C   UNL     1      -8.400  10.197  67.820  1.00  0.00    -0.114 A  
HETATM    4  O   UNL     1      -8.239  12.534  68.213  1.00  0.00    -0.162 OA 
HETATM    5  C   UNL     1      -8.769  10.383  66.480  1.00  0.00    -0.143 A  
HETATM    6  C   UNL     1      -9.288   9.328  65.729  1.00  0.00    -0.306 A  
HETATM    7  C   UNL     1      -9.454   8.076  66.314  1.00  0.00    -0.241 A  
HETATM    8  C   UNL     1      -9.090   7.873  67.645  1.00  0.00    -0.139 A  
HETATM    9  C   UNL     1      -8.550   8.926  68.398  1.00  0.00    -0.134 A  
ENDROOT
BRANCH   9  10
HETATM   10  O   UNL     1      -8.267   8.766  69.773  1.00  0.00    -0.109 OA 
BRANCH  10  11
HETATM   11  C   UNL     1      -8.304   7.480  70.287  1.00  0.00    -0.133 C  
HETATM   12  O   UNL     1      -7.443   6.637  70.081  1.00  0.00    -0.089 OA 
BRANCH  11  13
HETATM   13  C   UNL     1      -9.598   7.208  70.971  1.00  0.00    -0.158 A  
HETATM   14  C   UNL     1     -10.215   5.973  70.704  1.00  0.00    -0.260 A  
HETATM   15  C   UNL     1     -11.506   5.715  71.171  1.00  0.00     0.100 A  
HETATM   16  C   UNL     1     -12.181   6.678  71.919  1.00  0.00    -0.381 A  
HETATM   17  C   UNL     1     -11.559   7.889  72.227  1.00  0.00    -0.406 A  
HETATM   18  C   UNL     1     -10.270   8.150  71.758  1.00  0.00    -0.212 A  
HETATM   19  O   UNL     1      -9.674   9.336  72.079  1.00  0.00    -0.222 OA 
HETATM   20  H   UNL     1     -10.130   9.976  72.613  1.00  0.00     0.000 HD 
ENDBRANCH  11  13
ENDBRANCH  10  11
ENDBRANCH   9  10
TORSDOF 3
ENDMDL
MODEL      258
REMARK 921   NORMALIZED FREE ENERGY PREDICTED BY IDOCK:   -3.07 KCAL/MOL
REMARK 922        TOTAL FREE ENERGY PREDICTED BY IDOCK:   -3.96 KCAL/MOL
REMARK 923 INTER-LIGAND FREE ENERGY PREDICTED BY IDOCK:   -3.14 KCAL/MOL
REMARK 924 INTRA-LIGAND FREE ENERGY PREDICTED BY IDOCK:   -0.82 KCAL/MOL
REMARK 927      BINDING AFFINITY PREDICTED BY RF-SCORE:    0.00 PKD
ROOT
HETATM    1  O   UNL     1      -6.158   9.547  66.536  1.00  0.00    -0.058 OA 
HETATM    2  C   UNL     1      -6.776  10.727  66.731  1.00  0.00    -0.110 C  
HETATM    3  C   UNL     1      -8.265  10.668  66.766  1.00  0.00    -0.130 A  
HETATM    4  O   UNL     1      -6.167  11.784  66.806  1.00  0.00    -0.147 OA 
HETATM    5  C   UNL     1      -8.946  11.828  66.370  1.00  0.00    -0.201 A  
HETATM    6  C   UNL     1     -10.339  11.892  66.428  1.00  0.00    -0.252 A  
HETATM    7  C   UNL     1     -11.065  10.801  66.895  1.00  0.00    -0.204 A  
HETATM    8  C   UNL     1     -10.404   9.638  67.290  1.00  0.00    -0.310 A  
HETATM    9  C   UNL     1      -9.005   9.562  67.215  1.00  0.00    -0.131 A  
ENDROOT
BRANCH   9  10
HETATM   10  O   UNL     1      -8.312   8.432  67.702  1.00  0.00    -0.127 OA 
BRANCH  10  11
HETATM   11  C   UNL     1      -8.546   7.219  67.074  1.00  0.00    -0.122 C  
HETATM   12  O   UNL     1      -8.434   7.042  65.870  1.00  0.00    -0.137 OA 
BRANCH  11  13
HETATM   13  C   UNL     1      -9.114   6.220  68.021  1.00  0.00    -0.112 A  
HETATM   14  C   UNL     1      -9.437   6.673  69.311  1.00  0.00    -0.141 A  
HETATM   15  C   UNL     1      -9.813   5.765  70.303  1.00  0.00    -0.244 A  
HETATM   16  C   UNL     1      -9.884   4.404  70.010  1.00  0.00    -0.294 A  
HETATM   17  C   UNL     1      -9.610   3.950  68.720  1.00  0.00    -0.187 A  
HETATM   18  C   UNL     1      -9.229   4.856  67.728  1.00  0.00    -0.121 A  
HETATM   19  O   UNL     1      -8.975   4.394  66.468  1.00  0.00    -0.112 OA 
HETATM   20  H   UNL     1      -9.054   3.468  66.269  1.00  0.00     0.000 HD 
ENDBRANCH  11  13
ENDBRANCH  10  11
ENDBRANCH   9  10
TORSDOF 3
ENDMDL
MODEL      259
REMARK 921   NORMALIZED FREE ENERGY PREDICTED BY IDOCK:   -2.98 KCAL/MOL
REMARK 922        TOTAL FREE ENERGY PREDICTED BY IDOCK:   -3.85 KCAL/MOL
REMARK 923 INTER-LIGAND FREE ENERGY PREDICTED BY IDOCK:   -3.24 KCAL/MOL
REMARK 924 INTRA-LIGAND FREE ENERGY PREDICTED BY IDOCK:   -0.62 KCAL/MOL
REMARK 927      BINDING AFFINITY PREDICTED BY RF-SCORE:    0.00 PKD
ROOT
HETATM    1  O   UNL     1      -9.311   8.180  68.375  1.00  0.00    -0.136 OA 
HETATM    2  C   UNL     1      -9.745   9.093  69.265  1.00  0.00    -0.164 C  
HETATM    3  C   UNL     1     -10.447   8.536  70.456  1.00  0.00    -0.230 A  
HETATM    4  O   UNL     1      -9.636  10.295  69.080  1.00  0.00    -0.196 OA 
HETATM    5  C   UNL     1     -11.400   9.366  71.065  1.00  0.00    -0.407 A  
HETATM    6  C   UNL     1     -12.064   8.959  72.223  1.00  0.00    -0.392 A  
HETATM    7  C   UNL     1     -11.774   7.723  72.792  1.00  0.00    -0.312 A  
HETATM    8  C   UNL     1     -10.832   6.884  72.198  1.00  0.00    -0.256 A  
HETATM    9  C   UNL     1     -10.175   7.280  71.023  1.00  0.00    -0.192 A  
ENDROOT
BRANCH   9  10
HETATM   10  O   UNL     1      -9.148   6.489  70.462  1.00  0.00    -0.151 OA 
BRANCH  10  11
HETATM   11  C   UNL     1      -9.523   5.331  69.800  1.00  0.00    -0.152 C  
HETATM   12  O   UNL     1     -10.645   5.131  69.357  1.00  0.00    -0.212 OA 
BRANCH  11  13
HETATM   13  C   UNL     1      -8.446   4.304  69.852  1.00  0.00    -0.085 A  
HETATM   14  C   UNL     1      -8.826   2.995  70.192  1.00  0.00    -0.148 A  
HETATM   15  C   UNL     1      -7.856   2.018  70.427  1.00  0.00    -0.047 A  
HETATM   16  C   UNL     1      -6.505   2.336  70.308  1.00  0.00    -0.028 A  
HETATM   17  C   UNL     1      -6.119   3.622  69.925  1.00  0.00    -0.023 A  
HETATM   18  C   UNL     1      -7.087   4.601  69.695  1.00  0.00    -0.050 A  
HETATM   19  O   UNL     1      -6.691   5.850  69.311  1.00  0.00    -0.055 OA 
HETATM   20  H   UNL     1      -5.768   6.052  69.204  1.00  0.00     0.000 HD 
ENDBRANCH  11  13
ENDBRANCH  10  11
ENDBRANCH   9  10
TORSDOF 3
ENDMDL
MODEL      260
REMARK 921   NORMALIZED FREE ENERGY PREDICTED BY IDOCK:   -2.82 KCAL/MOL
REMARK 922        TOTAL FREE ENERGY PREDICTED BY IDOCK:   -3.67 KCAL/MOL
REMARK 923 INTER-LIGAND FREE ENERGY PREDICTED BY IDOCK:   -3.16 KCAL/MOL
REMARK 924 INTRA-LIGAND FREE ENERGY PREDICTED BY IDOCK:   -0.50 KCAL/MOL
REMARK 927      BINDING AFFINITY PREDICTED BY RF-SCORE:    0.00 PKD
ROOT
HETATM    1  O   UNL     1      -6.234   5.970  66.008  1.00  0.00    -0.035 OA 
HETATM    2  C   UNL     1      -6.600   4.751  65.570  1.00  0.00    -0.041 C  
HETATM    3  C   UNL     1      -7.502   3.992  66.483  1.00  0.00    -0.084 A  
HETATM    4  O   UNL     1      -6.173   4.269  64.533  1.00  0.00    -0.025 OA 
HETATM    5  C   UNL     1      -7.433   2.593  66.408  1.00  0.00    -0.071 A  
HETATM    6  C   UNL     1      -8.281   1.795  67.176  1.00  0.00    -0.075 A  
HETATM    7  C   UNL     1      -9.217   2.387  68.019  1.00  0.00    -0.254 A  
HETATM    8  C   UNL     1      -9.297   3.776  68.107  1.00  0.00    -0.228 A  
HETATM    9  C   UNL     1      -8.434   4.583  67.351  1.00  0.00    -0.104 A  
ENDROOT
BRANCH   9  10
HETATM   10  O   UNL     1      -8.565   5.990  67.353  1.00  0.00    -0.105 OA 
BRANCH  10  11
HETATM   11  C   UNL     1      -8.177   6.666  68.499  1.00  0.00    -0.119 C  
HETATM   12  O   UNL     1      -7.051   7.104  68.684  1.00  0.00    -0.079 OA 
BRANCH  11  13
HETATM   13  C   UNL     1      -9.248   6.636  69.534  1.00  0.00    -0.143 A  
HETATM   14  C   UNL     1      -8.879   6.216  70.823  1.00  0.00    -0.140 A  
HETATM   15  C   UNL     1      -9.854   5.999  71.799  1.00  0.00    -0.189 A  
HETATM   16  C   UNL     1     -11.198   6.215  71.500  1.00  0.00    -0.346 A  
HETATM   17  C   UNL     1     -11.569   6.676  70.237  1.00  0.00    -0.454 A  
HETATM   18  C   UNL     1     -10.596   6.889  69.258  1.00  0.00    -0.226 A  
HETATM   19  O   UNL     1     -10.978   7.350  68.031  1.00  0.00    -0.449 OA 
HETATM   20  H   UNL     1     -11.894   7.522  67.844  1.00  0.00     0.000 HD 
ENDBRANCH  11  13
ENDBRANCH  10  11
ENDBRANCH   9  10
TORSDOF 3
ENDMDL
MODEL      261
REMARK 921   NORMALIZED FREE ENERGY PREDICTED BY IDOCK:   -2.79 KCAL/MOL
REMARK 922        TOTAL FREE ENERGY PREDICTED BY IDOCK:   -3.63 KCAL/MOL
REMARK 923 INTER-LIGAND FREE ENERGY PREDICTED BY IDOCK:   -3.47 KCAL/MOL
REMARK 924 INTRA-LIGAND FREE ENERGY PREDICTED BY IDOCK:   -0.16 KCAL/MOL
REMARK 927      BINDING AFFINITY PREDICTED BY RF-SCORE:    0.00 PKD
ROOT
HETATM    1  O   UNL     1      -9.117  11.688  64.270  1.00  0.00     0.080 OA 
HETATM    2  C   UNL     1      -8.872  10.408  64.613  1.00  0.00    -0.198 C  
HETATM    3  C   UNL     1      -7.745  10.210  65.568  1.00  0.00    -0.145 A  
HETATM    4  O   UNL     1      -9.482   9.469  64.126  1.00  0.00    -0.119 OA 
HETATM    5  C   UNL     1      -7.075   8.980  65.497  1.00  0.00    -0.081 A  
HETATM    6  C   UNL     1      -6.048   8.674  66.390  1.00  0.00    -0.056 A  
HETATM    7  C   UNL     1      -5.687   9.591  67.373  1.00  0.00    -0.041 A  
HETATM    8  C   UNL     1      -6.341  10.820  67.456  1.00  0.00    -0.057 A  
HETATM    9  C   UNL     1      -7.361  11.140  66.548  1.00  0.00    -0.129 A  
ENDROOT
BRANCH   9  10
HETATM   10  O   UNL     1      -8.100  12.336  66.677  1.00  0.00    -0.079 OA 
BRANCH  10  11
HETATM   11  C   UNL     1      -9.144  12.348  67.587  1.00  0.00    -0.186 C  
HETATM   12  O   UNL     1      -9.114  11.775  68.667  1.00  0.00    -0.159 OA 
BRANCH  11  13
HETATM   13  C   UNL     1     -10.357  12.993  67.013  1.00  0.00    -0.247 A  
HETATM   14  C   UNL     1     -11.301  12.151  66.401  1.00  0.00    -0.411 A  
HETATM   15  C   UNL     1     -12.376  12.693  65.693  1.00  0.00    -0.390 A  
HETATM   16  C   UNL     1     -12.524  14.076  65.605  1.00  0.00    -0.531 A  
HETATM   17  C   UNL     1     -11.617  14.920  66.248  1.00  0.00    -0.233 A  
HETATM   18  C   UNL     1     -10.540  14.379  66.952  1.00  0.00    -0.278 A  
HETATM   19  O   UNL     1      -9.669  15.221  67.583  1.00  0.00    -0.208 OA 
HETATM   20  H   UNL     1      -9.793  16.163  67.542  1.00  0.00     0.000 HD 
ENDBRANCH  11  13
ENDBRANCH  10  11
ENDBRANCH   9  10
TORSDOF 3
ENDMDL
MODEL      262
REMARK 921   NORMALIZED FREE ENERGY PREDICTED BY IDOCK:   -2.72 KCAL/MOL
REMARK 922        TOTAL FREE ENERGY PREDICTED BY IDOCK:   -3.54 KCAL/MOL
REMARK 923 INTER-LIGAND FREE ENERGY PREDICTED BY IDOCK:   -2.91 KCAL/MOL
REMARK 924 INTRA-LIGAND FREE ENERGY PREDICTED BY IDOCK:   -0.63 KCAL/MOL
REMARK 927      BINDING AFFINITY PREDICTED BY RF-SCORE:    0.00 PKD
ROOT
HETATM    1  O   UNL     1     -10.503  12.175  68.930  1.00  0.00    -0.199 OA 
HETATM    2  C   UNL     1     -10.196  13.433  68.561  1.00  0.00    -0.223 C  
HETATM    3  C   UNL     1      -8.750  13.685  68.303  1.00  0.00    -0.171 A  
HETATM    4  O   UNL     1     -11.029  14.325  68.507  1.00  0.00    -0.236 OA 
HETATM    5  C   UNL     1      -8.297  14.997  68.508  1.00  0.00    -0.161 A  
HETATM    6  C   UNL     1      -6.975  15.347  68.233  1.00  0.00    -0.119 A  
HETATM    7  C   UNL     1      -6.093  14.391  67.738  1.00  0.00    -0.132 A  
HETATM    8  C   UNL     1      -6.526  13.082  67.530  1.00  0.00    -0.159 A  
HETATM    9  C   UNL     1      -7.849  12.721  67.823  1.00  0.00    -0.156 A  
ENDROOT
BRANCH   9  10
HETATM   10  O   UNL     1      -8.332  11.426  67.527  1.00  0.00    -0.130 OA 
BRANCH  10  11
HETATM   11  C   UNL     1      -8.570  11.122  66.197  1.00  0.00    -0.172 C  
HETATM   12  O   UNL     1      -8.816  11.957  65.339  1.00  0.00     0.119 OA 
BRANCH  11  13
HETATM   13  C   UNL     1      -8.661   9.650  65.986  1.00  0.00    -0.155 A  
HETATM   14  C   UNL     1      -9.666   8.964  66.690  1.00  0.00    -0.303 A  
HETATM   15  C   UNL     1      -9.708   7.569  66.677  1.00  0.00    -0.273 A  
HETATM   16  C   UNL     1      -8.759   6.851  65.951  1.00  0.00    -0.146 A  
HETATM   17  C   UNL     1      -7.785   7.524  65.213  1.00  0.00    -0.112 A  
HETATM   18  C   UNL     1      -7.739   8.920  65.228  1.00  0.00    -0.100 A  
HETATM   19  O   UNL     1      -6.786   9.561  64.490  1.00  0.00    -0.087 OA 
HETATM   20  H   UNL     1      -6.160   9.066  63.975  1.00  0.00     0.000 HD 
ENDBRANCH  11  13
ENDBRANCH  10  11
ENDBRANCH   9  10
TORSDOF 3
ENDMDL
MODEL      263
REMARK 921   NORMALIZED FREE ENERGY PREDICTED BY IDOCK:   -2.69 KCAL/MOL
REMARK 922        TOTAL FREE ENERGY PREDICTED BY IDOCK:   -3.52 KCAL/MOL
REMARK 923 INTER-LIGAND FREE ENERGY PREDICTED BY IDOCK:   -2.71 KCAL/MOL
REMARK 924 INTRA-LIGAND FREE ENERGY PREDICTED BY IDOCK:   -0.80 KCAL/MOL
REMARK 927      BINDING AFFINITY PREDICTED BY RF-SCORE:    0.00 PKD
ROOT
HETATM    1  O   UNL     1     -10.386   4.595  69.842  1.00  0.00    -0.195 OA 
HETATM    2  C   UNL     1     -10.769   5.884  69.914  1.00  0.00    -0.336 C  
HETATM    3  C   UNL     1     -10.010   6.823  69.040  1.00  0.00    -0.161 A  
HETATM    4  O   UNL     1     -11.630   6.272  70.688  1.00  0.00    -0.353 OA 
HETATM    5  C   UNL     1      -9.925   8.154  69.477  1.00  0.00    -0.187 A  
HETATM    6  C   UNL     1      -9.291   9.121  68.698  1.00  0.00    -0.135 A  
HETATM    7  C   UNL     1      -8.743   8.772  67.467  1.00  0.00    -0.135 A  
HETATM    8  C   UNL     1      -8.816   7.453  67.019  1.00  0.00    -0.132 A  
HETATM    9  C   UNL     1      -9.436   6.473  67.807  1.00  0.00    -0.119 A  
ENDROOT
BRANCH   9  10
HETATM   10  O   UNL     1      -9.606   5.155  67.328  1.00  0.00    -0.128 OA 
BRANCH  10  11
HETATM   11  C   UNL     1      -8.463   4.435  67.019  1.00  0.00    -0.104 C  
HETATM   12  O   UNL     1      -7.494   4.344  67.757  1.00  0.00    -0.068 OA 
BRANCH  11  13
HETATM   13  C   UNL     1      -8.499   3.939  65.615  1.00  0.00    -0.110 A  
HETATM   14  C   UNL     1      -9.757   3.594  65.091  1.00  0.00    -0.157 A  
HETATM   15  C   UNL     1      -9.854   2.965  63.848  1.00  0.00    -0.153 A  
HETATM   16  C   UNL     1      -8.700   2.689  63.116  1.00  0.00    -0.085 A  
HETATM   17  C   UNL     1      -7.451   3.069  63.608  1.00  0.00    -0.062 A  
HETATM   18  C   UNL     1      -7.352   3.695  64.852  1.00  0.00    -0.072 A  
HETATM   19  O   UNL     1      -6.122   4.068  65.312  1.00  0.00    -0.022 OA 
HETATM   20  H   UNL     1      -5.342   3.903  64.794  1.00  0.00     0.000 HD 
ENDBRANCH  11  13
ENDBRANCH  10  11
ENDBRANCH   9  10
TORSDOF 3
ENDMDL
MODEL      264
REMARK 921   NORMALIZED FREE ENERGY PREDICTED BY IDOCK:   -2.63 KCAL/MOL
REMARK 922        TOTAL FREE ENERGY PREDICTED BY IDOCK:   -3.44 KCAL/MOL
REMARK 923 INTER-LIGAND FREE ENERGY PREDICTED BY IDOCK:   -2.62 KCAL/MOL
REMARK 924 INTRA-LIGAND FREE ENERGY PREDICTED BY IDOCK:   -0.82 KCAL/MOL
REMARK 927      BINDING AFFINITY PREDICTED BY RF-SCORE:    0.00 PKD
ROOT
HETATM    1  O   UNL     1     -10.593  12.144  68.960  1.00  0.00    -0.181 OA 
HETATM    2  C   UNL     1     -10.600  13.264  68.212  1.00  0.00    -0.251 C  
HETATM    3  C   UNL     1      -9.278  13.936  68.061  1.00  0.00    -0.193 A  
HETATM    4  O   UNL     1     -11.625  13.737  67.746  1.00  0.00    -0.306 OA 
HETATM    5  C   UNL     1      -9.302  15.322  67.845  1.00  0.00    -0.189 A  
HETATM    6  C   UNL     1      -8.121  16.031  67.629  1.00  0.00    -0.164 A  
HETATM    7  C   UNL     1      -6.901  15.361  67.614  1.00  0.00    -0.208 A  
HETATM    8  C   UNL     1      -6.859  13.984  67.830  1.00  0.00    -0.187 A  
HETATM    9  C   UNL     1      -8.042  13.269  68.066  1.00  0.00    -0.157 A  
ENDROOT
BRANCH   9  10
HETATM   10  O   UNL     1      -8.030  11.862  68.189  1.00  0.00    -0.134 OA 
BRANCH  10  11
HETATM   11  C   UNL     1      -7.836  11.121  67.034  1.00  0.00    -0.142 C  
HETATM   12  O   UNL     1      -8.392  11.356  65.971  1.00  0.00    -0.129 OA 
BRANCH  11  13
HETATM   13  C   UNL     1      -7.006   9.913  67.299  1.00  0.00    -0.084 A  
HETATM   14  C   UNL     1      -6.748   9.596  68.643  1.00  0.00    -0.052 A  
HETATM   15  C   UNL     1      -5.843   8.583  68.967  1.00  0.00    -0.039 A  
HETATM   16  C   UNL     1      -5.205   7.870  67.954  1.00  0.00    -0.032 A  
HETATM   17  C   UNL     1      -5.490   8.146  66.616  1.00  0.00    -0.032 A  
HETATM   18  C   UNL     1      -6.391   9.162  66.291  1.00  0.00    -0.065 A  
HETATM   19  O   UNL     1      -6.665   9.411  64.976  1.00  0.00    -0.079 OA 
HETATM   20  H   UNL     1      -6.247   8.901  64.291  1.00  0.00     0.000 HD 
ENDBRANCH  11  13
ENDBRANCH  10  11
ENDBRANCH   9  10
TORSDOF 3
ENDMDL
MODEL      265
REMARK 921   NORMALIZED FREE ENERGY PREDICTED BY IDOCK:   -2.57 KCAL/MOL
REMARK 922        TOTAL FREE ENERGY PREDICTED BY IDOCK:   -3.37 KCAL/MOL
REMARK 923 INTER-LIGAND FREE ENERGY PREDICTED BY IDOCK:   -3.22 KCAL/MOL
REMARK 924 INTRA-LIGAND FREE ENERGY PREDICTED BY IDOCK:   -0.15 KCAL/MOL
REMARK 927      BINDING AFFINITY PREDICTED BY RF-SCORE:    0.00 PKD
ROOT
HETATM    1  O   UNL     1     -10.725   8.927  68.325  1.00  0.00    -0.180 OA 
HETATM    2  C   UNL     1      -9.884   8.095  68.968  1.00  0.00    -0.176 C  
HETATM    3  C   UNL     1      -8.439   8.447  68.866  1.00  0.00    -0.124 A  
HETATM    4  O   UNL     1     -10.266   7.084  69.536  1.00  0.00    -0.188 OA 
HETATM    5  C   UNL     1      -7.528   7.385  68.964  1.00  0.00    -0.100 A  
HETATM    6  C   UNL     1      -6.153   7.621  68.944  1.00  0.00    -0.035 A  
HETATM    7  C   UNL     1      -5.673   8.922  68.839  1.00  0.00    -0.040 A  
HETATM    8  C   UNL     1      -6.565   9.990  68.738  1.00  0.00    -0.049 A  
HETATM    9  C   UNL     1      -7.948   9.757  68.738  1.00  0.00    -0.087 A  
ENDROOT
BRANCH   9  10
HETATM   10  O   UNL     1      -8.866  10.830  68.736  1.00  0.00    -0.151 OA 
BRANCH  10  11
HETATM   11  C   UNL     1      -8.398  12.070  68.332  1.00  0.00    -0.151 C  
HETATM   12  O   UNL     1      -7.412  12.615  68.806  1.00  0.00    -0.106 OA 
BRANCH  11  13
HETATM   13  C   UNL     1      -9.342  12.721  67.381  1.00  0.00    -0.193 A  
HETATM   14  C   UNL     1      -9.445  12.159  66.097  1.00  0.00    -0.231 A  
HETATM   15  C   UNL     1     -10.175  12.809  65.100  1.00  0.00    -0.297 A  
HETATM   16  C   UNL     1     -10.819  14.012  65.381  1.00  0.00    -0.331 A  
HETATM   17  C   UNL     1     -10.760  14.555  66.666  1.00  0.00    -0.305 A  
HETATM   18  C   UNL     1     -10.026  13.909  67.663  1.00  0.00    -0.237 A  
HETATM   19  O   UNL     1      -9.989  14.449  68.916  1.00  0.00    -0.245 OA 
HETATM   20  H   UNL     1     -10.454  15.255  69.108  1.00  0.00     0.000 HD 
ENDBRANCH  11  13
ENDBRANCH  10  11
ENDBRANCH   9  10
TORSDOF 3
ENDMDL
MODEL      266
REMARK 921   NORMALIZED FREE ENERGY PREDICTED BY IDOCK:   -2.48 KCAL/MOL
REMARK 922        TOTAL FREE ENERGY PREDICTED BY IDOCK:   -3.27 KCAL/MOL
REMARK 923 INTER-LIGAND FREE ENERGY PREDICTED BY IDOCK:   -3.92 KCAL/MOL
REMARK 924 INTRA-LIGAND FREE ENERGY PREDICTED BY IDOCK:    0.66 KCAL/MOL
REMARK 927      BINDING AFFINITY PREDICTED BY RF-SCORE:    0.00 PKD
ROOT
HETATM    1  O   UNL     1      -9.658  12.531  68.474  1.00  0.00    -0.194 OA 
HETATM    2  C   UNL     1     -10.724  13.343  68.335  1.00  0.00    -0.256 C  
HETATM    3  C   UNL     1     -10.405  14.755  67.979  1.00  0.00    -0.237 A  
HETATM    4  O   UNL     1     -11.866  12.971  68.551  1.00  0.00    -0.313 OA 
HETATM    5  C   UNL     1     -11.327  15.728  68.395  1.00  0.00    -0.372 A  
HETATM    6  C   UNL     1     -11.150  17.069  68.056  1.00  0.00    -0.149 A  
HETATM    7  C   UNL     1     -10.056  17.453  67.287  1.00  0.00    -0.310 A  
HETATM    8  C   UNL     1      -9.128  16.499  66.868  1.00  0.00    -0.241 A  
HETATM    9  C   UNL     1      -9.291  15.152  67.222  1.00  0.00    -0.203 A  
ENDROOT
BRANCH   9  10
HETATM   10  O   UNL     1      -8.418  14.159  66.726  1.00  0.00    -0.146 OA 
BRANCH  10  11
HETATM   11  C   UNL     1      -7.178  14.037  67.333  1.00  0.00    -0.095 C  
HETATM   12  O   UNL     1      -6.559  12.986  67.416  1.00  0.00    -0.164 OA 
BRANCH  11  13
HETATM   13  C   UNL     1      -6.783  15.301  68.015  1.00  0.00    -0.156 A  
HETATM   14  C   UNL     1      -6.162  16.285  67.227  1.00  0.00    -0.205 A  
HETATM   15  C   UNL     1      -5.612  17.421  67.824  1.00  0.00    -0.136 A  
HETATM   16  C   UNL     1      -5.692  17.590  69.205  1.00  0.00    -0.203 A  
HETATM   17  C   UNL     1      -6.346  16.639  69.990  1.00  0.00     0.002 A  
HETATM   18  C   UNL     1      -6.893  15.500  69.395  1.00  0.00    -0.176 A  
HETATM   19  O   UNL     1      -7.539  14.587  70.179  1.00  0.00    -0.367 OA 
HETATM   20  H   UNL     1      -7.614  14.723  71.116  1.00  0.00     0.000 HD 
ENDBRANCH  11  13
ENDBRANCH  10  11
ENDBRANCH   9  10
TORSDOF 3
ENDMDL
MODEL      267
REMARK 921   NORMALIZED FREE ENERGY PREDICTED BY IDOCK:   -2.42 KCAL/MOL
REMARK 922        TOTAL FREE ENERGY PREDICTED BY IDOCK:   -3.19 KCAL/MOL
REMARK 923 INTER-LIGAND FREE ENERGY PREDICTED BY IDOCK:   -2.55 KCAL/MOL
REMARK 924 INTRA-LIGAND FREE ENERGY PREDICTED BY IDOCK:   -0.64 KCAL/MOL
REMARK 927      BINDING AFFINITY PREDICTED BY RF-SCORE:    0.00 PKD
ROOT
HETATM    1  O   UNL     1      -9.814   4.758  70.065  1.00  0.00    -0.189 OA 
HETATM    2  C   UNL     1      -9.895   4.580  71.397  1.00  0.00    -0.194 C  
HETATM    3  C   UNL     1      -9.039   5.488  72.213  1.00  0.00    -0.149 A  
HETATM    4  O   UNL     1     -10.567   3.695  71.903  1.00  0.00     0.075 OA 
HETATM    5  C   UNL     1      -8.619   4.999  73.459  1.00  0.00    -0.108 A  
HETATM    6  C   UNL     1      -7.868   5.797  74.322  1.00  0.00    -0.101 A  
HETATM    7  C   UNL     1      -7.538   7.097  73.954  1.00  0.00    -0.121 A  
HETATM    8  C   UNL     1      -7.944   7.598  72.718  1.00  0.00    -0.140 A  
HETATM    9  C   UNL     1      -8.683   6.793  71.838  1.00  0.00    -0.123 A  
ENDROOT
BRANCH   9  10
HETATM   10  O   UNL     1      -9.187   7.314  70.625  1.00  0.00    -0.157 OA 
BRANCH  10  11
HETATM   11  C   UNL     1      -8.267   7.679  69.656  1.00  0.00    -0.128 C  
HETATM   12  O   UNL     1      -7.144   7.204  69.567  1.00  0.00    -0.067 OA 
BRANCH  11  13
HETATM   13  C   UNL     1      -8.755   8.836  68.854  1.00  0.00    -0.134 A  
HETATM   14  C   UNL     1     -10.095   9.219  69.036  1.00  0.00    -0.207 A  
HETATM   15  C   UNL     1     -10.672  10.179  68.202  1.00  0.00    -0.285 A  
HETATM   16  C   UNL     1      -9.913  10.773  67.195  1.00  0.00    -0.230 A  
HETATM   17  C   UNL     1      -8.570  10.431  67.037  1.00  0.00    -0.130 A  
HETATM   18  C   UNL     1      -7.992   9.468  67.867  1.00  0.00    -0.098 A  
HETATM   19  O   UNL     1      -6.673   9.155  67.703  1.00  0.00    -0.067 OA 
HETATM   20  H   UNL     1      -6.155   9.585  67.033  1.00  0.00     0.000 HD 
ENDBRANCH  11  13
ENDBRANCH  10  11
ENDBRANCH   9  10
TORSDOF 3
ENDMDL
MODEL      268
REMARK 921   NORMALIZED FREE ENERGY PREDICTED BY IDOCK:   -2.05 KCAL/MOL
REMARK 922        TOTAL FREE ENERGY PREDICTED BY IDOCK:   -2.75 KCAL/MOL
REMARK 923 INTER-LIGAND FREE ENERGY PREDICTED BY IDOCK:   -1.89 KCAL/MOL
REMARK 924 INTRA-LIGAND FREE ENERGY PREDICTED BY IDOCK:   -0.87 KCAL/MOL
REMARK 927      BINDING AFFINITY PREDICTED BY RF-SCORE:    0.00 PKD
ROOT
HETATM    1  O   UNL     1     -11.212   9.399  68.037  1.00  0.00    -0.040 OA 
HETATM    2  C   UNL     1      -9.950   9.130  68.421  1.00  0.00    -0.181 C  
HETATM    3  C   UNL     1      -8.913  10.063  67.897  1.00  0.00    -0.131 A  
HETATM    4  O   UNL     1      -9.662   8.154  69.096  1.00  0.00    -0.160 OA 
HETATM    5  C   UNL     1      -7.620   9.539  67.745  1.00  0.00    -0.087 A  
HETATM    6  C   UNL     1      -6.567  10.350  67.321  1.00  0.00    -0.068 A  
HETATM    7  C   UNL     1      -6.792  11.697  67.055  1.00  0.00    -0.144 A  
HETATM    8  C   UNL     1      -8.071  12.234  67.198  1.00  0.00    -0.173 A  
HETATM    9  C   UNL     1      -9.137  11.418  67.606  1.00  0.00    -0.155 A  
ENDROOT
BRANCH   9  10
HETATM   10  O   UNL     1     -10.417  11.963  67.851  1.00  0.00    -0.195 OA 
BRANCH  10  11
HETATM   11  C   UNL     1     -10.589  12.692  69.017  1.00  0.00    -0.041 C  
HETATM   12  O   UNL     1     -10.876  12.196  70.096  1.00  0.00     0.522 OA 
BRANCH  11  13
HETATM   13  C   UNL     1     -10.552  14.157  68.750  1.00  0.00    -0.258 A  
HETATM   14  C   UNL     1     -10.892  14.580  67.454  1.00  0.00    -0.291 A  
HETATM   15  C   UNL     1     -10.718  15.914  67.079  1.00  0.00    -0.292 A  
HETATM   16  C   UNL     1     -10.220  16.835  67.998  1.00  0.00    -0.300 A  
HETATM   17  C   UNL     1      -9.922  16.434  69.301  1.00  0.00    -0.259 A  
HETATM   18  C   UNL     1     -10.092  15.100  69.676  1.00  0.00    -0.190 A  
HETATM   19  O   UNL     1      -9.806  14.728  70.959  1.00  0.00     0.556 OA 
HETATM   20  H   UNL     1      -9.493  15.369  71.588  1.00  0.00     0.000 HD 
ENDBRANCH  11  13
ENDBRANCH  10  11
ENDBRANCH   9  10
TORSDOF 3
ENDMDL
MODEL      269
REMARK 921   NORMALIZED FREE ENERGY PREDICTED BY IDOCK:   -1.98 KCAL/MOL
REMARK 922        TOTAL FREE ENERGY PREDICTED BY IDOCK:   -2.68 KCAL/MOL
REMARK 923 INTER-LIGAND FREE ENERGY PREDICTED BY IDOCK:   -2.64 KCAL/MOL
REMARK 924 INTRA-LIGAND FREE ENERGY PREDICTED BY IDOCK:   -0.04 KCAL/MOL
REMARK 927      BINDING AFFINITY PREDICTED BY RF-SCORE:    0.00 PKD
ROOT
HETATM    1  O   UNL     1      -9.322  12.317  65.977  1.00  0.00    -0.221 OA 
HETATM    2  C   UNL     1      -8.822  11.875  67.147  1.00  0.00    -0.180 C  
HETATM    3  C   UNL     1      -8.228  12.926  68.022  1.00  0.00    -0.168 A  
HETATM    4  O   UNL     1      -8.794  10.691  67.445  1.00  0.00    -0.132 OA 
HETATM    5  C   UNL     1      -7.212  12.511  68.896  1.00  0.00    -0.050 A  
HETATM    6  C   UNL     1      -6.637  13.406  69.798  1.00  0.00     0.028 A  
HETATM    7  C   UNL     1      -7.080  14.725  69.845  1.00  0.00    -0.086 A  
HETATM    8  C   UNL     1      -8.087  15.155  68.981  1.00  0.00    -0.191 A  
HETATM    9  C   UNL     1      -8.655  14.263  68.059  1.00  0.00    -0.169 A  
ENDROOT
BRANCH   9  10
HETATM   10  O   UNL     1      -9.741  14.653  67.245  1.00  0.00    -0.225 OA 
BRANCH  10  11
HETATM   11  C   UNL     1     -11.018  14.447  67.742  1.00  0.00    -0.274 C  
HETATM   12  O   UNL     1     -11.944  14.002  67.080  1.00  0.00    -0.400 OA 
BRANCH  11  13
HETATM   13  C   UNL     1     -11.158  14.996  69.119  1.00  0.00    -0.278 A  
HETATM   14  C   UNL     1     -10.993  16.383  69.275  1.00  0.00    -0.322 A  
HETATM   15  C   UNL     1     -10.941  16.948  70.551  1.00  0.00     0.372 A  
HETATM   16  C   UNL     1     -11.069  16.136  71.677  1.00  0.00     0.153 A  
HETATM   17  C   UNL     1     -11.279  14.764  71.531  1.00  0.00     0.045 A  
HETATM   18  C   UNL     1     -11.327  14.197  70.256  1.00  0.00    -0.034 A  
HETATM   19  O   UNL     1     -11.545  12.855  70.133  1.00  0.00    -0.513 OA 
HETATM   20  H   UNL     1     -11.659  12.312  70.905  1.00  0.00     0.000 HD 
ENDBRANCH  11  13
ENDBRANCH  10  11
ENDBRANCH   9  10
TORSDOF 3
ENDMDL
MODEL      270
REMARK 921   NORMALIZED FREE ENERGY PREDICTED BY IDOCK:   -1.60 KCAL/MOL
REMARK 922        TOTAL FREE ENERGY PREDICTED BY IDOCK:   -2.23 KCAL/MOL
REMARK 923 INTER-LIGAND FREE ENERGY PREDICTED BY IDOCK:   -1.42 KCAL/MOL
REMARK 924 INTRA-LIGAND FREE ENERGY PREDICTED BY IDOCK:   -0.81 KCAL/MOL
REMARK 927      BINDING AFFINITY PREDICTED BY RF-SCORE:    0.00 PKD
ROOT
HETATM    1  O   UNL     1      -8.715   2.825  68.725  1.00  0.00    -0.069 OA 
HETATM    2  C   UNL     1      -8.965   2.429  69.988  1.00  0.00    -0.095 C  
HETATM    3  C   UNL     1      -8.222   3.172  71.046  1.00  0.00    -0.078 A  
HETATM    4  O   UNL     1      -9.694   1.486  70.249  1.00  0.00    -0.075 OA 
HETATM    5  C   UNL     1      -7.965   2.474  72.236  1.00  0.00    -0.054 A  
HETATM    6  C   UNL     1      -7.332   3.102  73.308  1.00  0.00    -0.050 A  
HETATM    7  C   UNL     1      -6.960   4.440  73.209  1.00  0.00    -0.064 A  
HETATM    8  C   UNL     1      -7.206   5.147  72.032  1.00  0.00    -0.085 A  
HETATM    9  C   UNL     1      -7.825   4.515  70.944  1.00  0.00    -0.068 A  
ENDROOT
BRANCH   9  10
HETATM   10  O   UNL     1      -8.170   5.240  69.782  1.00  0.00    -0.095 OA 
BRANCH  10  11
HETATM   11  C   UNL     1      -7.137   5.796  69.045  1.00  0.00    -0.069 C  
HETATM   12  O   UNL     1      -6.214   5.152  68.569  1.00  0.00    -0.028 OA 
BRANCH  11  13
HETATM   13  C   UNL     1      -7.203   7.284  69.058  1.00  0.00    -0.089 A  
HETATM   14  C   UNL     1      -8.317   7.869  69.686  1.00  0.00    -0.131 A  
HETATM   15  C   UNL     1      -8.536   9.245  69.592  1.00  0.00    -0.151 A  
HETATM   16  C   UNL     1      -7.640  10.046  68.887  1.00  0.00    -0.086 A  
HETATM   17  C   UNL     1      -6.508   9.481  68.299  1.00  0.00    -0.053 A  
HETATM   18  C   UNL     1      -6.289   8.104  68.388  1.00  0.00    -0.050 A  
HETATM   19  O   UNL     1      -5.169   7.571  67.816  1.00  0.00    -0.026 OA 
HETATM   20  H   UNL     1      -4.548   8.128  67.361  1.00  0.00     0.000 HD 
ENDBRANCH  11  13
ENDBRANCH  10  11
ENDBRANCH   9  10
TORSDOF 3
ENDMDL
MODEL      271
REMARK 921   NORMALIZED FREE ENERGY PREDICTED BY IDOCK:   -1.54 KCAL/MOL
REMARK 922        TOTAL FREE ENERGY PREDICTED BY IDOCK:   -2.15 KCAL/MOL
REMARK 923 INTER-LIGAND FREE ENERGY PREDICTED BY IDOCK:   -1.53 KCAL/MOL
REMARK 924 INTRA-LIGAND FREE ENERGY PREDICTED BY IDOCK:   -0.63 KCAL/MOL
REMARK 927      BINDING AFFINITY PREDICTED BY RF-SCORE:    0.00 PKD
ROOT
HETATM    1  O   UNL     1      -8.915   3.302  68.981  1.00  0.00    -0.102 OA 
HETATM    2  C   UNL     1      -8.979   4.361  69.810  1.00  0.00    -0.098 C  
HETATM    3  C   UNL     1      -8.008   5.454  69.521  1.00  0.00    -0.089 A  
HETATM    4  O   UNL     1      -9.730   4.398  70.772  1.00  0.00    -0.173 OA 
HETATM    5  C   UNL     1      -7.612   6.242  70.612  1.00  0.00    -0.096 A  
HETATM    6  C   UNL     1      -6.756   7.329  70.434  1.00  0.00    -0.052 A  
HETATM    7  C   UNL     1      -6.295   7.648  69.160  1.00  0.00    -0.036 A  
HETATM    8  C   UNL     1      -6.677   6.873  68.065  1.00  0.00    -0.068 A  
HETATM    9  C   UNL     1      -7.522   5.768  68.242  1.00  0.00    -0.081 A  
ENDROOT
BRANCH   9  10
HETATM   10  O   UNL     1      -7.998   5.032  67.134  1.00  0.00    -0.099 OA 
BRANCH  10  11
HETATM   11  C   UNL     1      -7.102   4.192  66.493  1.00  0.00    -0.064 C  
HETATM   12  O   UNL     1      -6.057   3.801  66.991  1.00  0.00    -0.023 OA 
BRANCH  11  13
HETATM   13  C   UNL     1      -7.488   3.972  65.071  1.00  0.00    -0.077 A  
HETATM   14  C   UNL     1      -8.337   4.926  64.485  1.00  0.00    -0.132 A  
HETATM   15  C   UNL     1      -8.878   4.703  63.217  1.00  0.00    -0.128 A  
HETATM   16  C   UNL     1      -8.562   3.537  62.521  1.00  0.00    -0.081 A  
HETATM   17  C   UNL     1      -7.683   2.607  63.076  1.00  0.00    -0.063 A  
HETATM   18  C   UNL     1      -7.145   2.826  64.346  1.00  0.00    -0.049 A  
HETATM   19  O   UNL     1      -6.278   1.909  64.868  1.00  0.00    -0.017 OA 
HETATM   20  H   UNL     1      -6.046   1.130  64.375  1.00  0.00     0.000 HD 
ENDBRANCH  11  13
ENDBRANCH  10  11
ENDBRANCH   9  10
TORSDOF 3
ENDMDL
MODEL      272
REMARK 921   NORMALIZED FREE ENERGY PREDICTED BY IDOCK:    4.21 KCAL/MOL
REMARK 922        TOTAL FREE ENERGY PREDICTED BY IDOCK:    4.59 KCAL/MOL
REMARK 923 INTER-LIGAND FREE ENERGY PREDICTED BY IDOCK:    4.28 KCAL/MOL
REMARK 924 INTRA-LIGAND FREE ENERGY PREDICTED BY IDOCK:    0.32 KCAL/MOL
REMARK 927      BINDING AFFINITY PREDICTED BY RF-SCORE:    0.00 PKD
ROOT
HETATM    1  O   UNL     1      -8.961  11.731  69.954  1.00  0.00     1.607 OA 
HETATM    2  C   UNL     1      -8.992  13.006  69.522  1.00  0.00     1.609 C  
HETATM    3  C   UNL     1      -7.821  13.427  68.701  1.00  0.00    -0.073 A  
HETATM    4  O   UNL     1      -9.878  13.785  69.835  1.00  0.00     0.974 OA 
HETATM    5  C   UNL     1      -7.492  14.790  68.734  1.00  0.00    -0.133 A  
HETATM    6  C   UNL     1      -6.453  15.293  67.951  1.00  0.00    -0.172 A  
HETATM    7  C   UNL     1      -5.738  14.440  67.115  1.00  0.00     0.874 A  
HETATM    8  C   UNL     1      -6.051  13.081  67.071  1.00  0.00     0.529 A  
HETATM    9  C   UNL     1      -7.082  12.568  67.871  1.00  0.00    -0.111 A  
ENDROOT
BRANCH   9  10
HETATM   10  O   UNL     1      -7.478  11.215  67.768  1.00  0.00    -0.090 OA 
BRANCH  10  11
HETATM   11  C   UNL     1      -6.533  10.306  67.322  1.00  0.00    -0.067 C  
HETATM   12  O   UNL     1      -5.451  10.622  66.849  1.00  0.00    -0.041 OA 
BRANCH  11  13
HETATM   13  C   UNL     1      -7.071   8.917  67.332  1.00  0.00    -0.079 A  
HETATM   14  C   UNL     1      -8.183   8.656  66.513  1.00  0.00    -0.107 A  
HETATM   15  C   UNL     1      -8.846   7.431  66.595  1.00  0.00    -0.157 A  
HETATM   16  C   UNL     1      -8.397   6.454  67.481  1.00  0.00    -0.117 A  
HETATM   17  C   UNL     1      -7.266   6.687  68.266  1.00  0.00    -0.085 A  
HETATM   18  C   UNL     1      -6.604   7.914  68.188  1.00  0.00    -0.059 A  
HETATM   19  O   UNL     1      -5.494   8.119  68.956  1.00  0.00    -0.026 OA 
HETATM   20  H   UNL     1      -5.176   7.437  69.537  1.00  0.00     0.000 HD 
ENDBRANCH  11  13
ENDBRANCH  10  11
ENDBRANCH   9  10
TORSDOF 3
ENDMDL
