MODEL        1
REMARK 921   NORMALIZED FREE ENERGY PREDICTED BY IDOCK:   -6.40 KCAL/MOL
REMARK 922        TOTAL FREE ENERGY PREDICTED BY IDOCK:   -7.63 KCAL/MOL
REMARK 923 INTER-LIGAND FREE ENERGY PREDICTED BY IDOCK:   -7.14 KCAL/MOL
REMARK 924 INTRA-LIGAND FREE ENERGY PREDICTED BY IDOCK:   -0.49 KCAL/MOL
REMARK 927      BINDING AFFINITY PREDICTED BY RF-SCORE:    0.00 PKD
ROOT
HETATM    1  C   UNL     1     -10.852  13.117  65.972  1.00  0.00    -0.272 C  
HETATM    2  C   UNL     1     -10.302  14.576  66.013  1.00  0.00    -0.309 C  
HETATM    3  H   UNL     1     -12.760  13.203  71.363  1.00  0.00     0.000 HD 
HETATM    4  C   UNL     1     -12.523  14.906  70.236  1.00  0.00    -0.336 C  
HETATM    5  N   UNL     1     -10.803  15.342  67.160  1.00  0.00    -0.319 NA 
HETATM    6  H1  UNL     1     -13.399  16.608  70.900  1.00  0.00     0.000 HD 
HETATM    7  H2  UNL     1     -13.749  15.172  71.893  1.00  0.00     0.000 HD 
HETATM    8  N   UNL     1     -13.294  15.613  71.093  1.00  0.00    -0.565 NA 
HETATM    9  H   UNL     1     -10.801  16.361  67.111  1.00  0.00     0.000 HD 
HETATM   10  N   UNL     1     -12.383  13.579  70.493  1.00  0.00    -0.350 N  
HETATM   11  C   UNL     1     -11.281  14.726  68.315  1.00  0.00    -0.286 C  
HETATM   12  C   UNL     1     -11.187  13.373  68.410  1.00  0.00    -0.279 C  
HETATM   13  N   UNL     1     -11.971  15.489  69.223  1.00  0.00    -0.340 NA 
HETATM   14  C   UNL     1     -11.758  12.737  69.630  1.00  0.00    -0.302 C  
HETATM   15  N   UNL     1     -10.776  12.557  67.347  1.00  0.00    -0.225 NA 
HETATM   16  H   UNL     1     -10.436  11.610  67.513  1.00  0.00     0.000 HD 
HETATM   17  O   UNL     1     -11.748  11.516  69.793  1.00  0.00    -0.300 OA 
ENDROOT
BRANCH   1  18
HETATM   18  C   UNL     1     -12.305  12.991  65.397  1.00  0.00    -0.486 C  
HETATM   19  O   UNL     1     -13.047  14.215  65.452  1.00  0.00    -0.743 OA 
HETATM   20  H   UNL     1     -13.928  14.139  65.104  1.00  0.00     0.000 HD 
BRANCH  18  21
HETATM   21  C   UNL     1     -12.338  12.501  63.934  1.00  0.00    -0.485 C  
HETATM   22  C   UNL     1     -11.117  11.646  63.583  1.00  0.00    -0.506 C  
HETATM   23  O   UNL     1     -12.408  13.614  63.046  1.00  0.00    -1.041 OA 
HETATM   24  H   UNL     1     -12.428  13.312  62.146  1.00  0.00     0.000 HD 
ENDBRANCH  18  21
ENDBRANCH   1  18
TORSDOF 2
ENDMDL
MODEL        2
REMARK 921   NORMALIZED FREE ENERGY PREDICTED BY IDOCK:   -6.38 KCAL/MOL
REMARK 922        TOTAL FREE ENERGY PREDICTED BY IDOCK:   -7.62 KCAL/MOL
REMARK 923 INTER-LIGAND FREE ENERGY PREDICTED BY IDOCK:   -7.13 KCAL/MOL
REMARK 924 INTRA-LIGAND FREE ENERGY PREDICTED BY IDOCK:   -0.48 KCAL/MOL
REMARK 927      BINDING AFFINITY PREDICTED BY RF-SCORE:    0.00 PKD
ROOT
HETATM    1  C   UNL     1      -9.837  17.397  65.975  1.00  0.00    -0.183 C  
HETATM    2  C   UNL     1      -8.538  16.606  66.318  1.00  0.00    -0.324 C  
HETATM    3  H   UNL     1     -12.895  12.727  64.730  1.00  0.00     0.000 HD 
HETATM    4  C   UNL     1     -11.271  12.694  65.990  1.00  0.00    -0.306 C  
HETATM    5  N   UNL     1      -8.778  15.170  66.505  1.00  0.00    -0.399 NA 
HETATM    6  H1  UNL     1     -11.014  11.059  67.159  1.00  0.00     0.000 HD 
HETATM    7  H2  UNL     1     -12.502  11.032  66.181  1.00  0.00     0.000 HD 
HETATM    8  N   UNL     1     -11.640  11.488  66.479  1.00  0.00    -0.426 NA 
HETATM    9  H   UNL     1      -8.111  14.626  67.052  1.00  0.00     0.000 HD 
HETATM   10  N   UNL     1     -12.105  13.266  65.083  1.00  0.00    -0.387 N  
HETATM   11  C   UNL     1      -9.886  14.523  65.961  1.00  0.00    -0.318 C  
HETATM   12  C   UNL     1     -10.715  15.236  65.152  1.00  0.00    -0.436 C  
HETATM   13  N   UNL     1     -10.179  13.256  66.396  1.00  0.00    -0.285 NA 
HETATM   14  C   UNL     1     -11.922  14.534  64.631  1.00  0.00    -0.468 C  
HETATM   15  N   UNL     1     -10.597  16.619  64.961  1.00  0.00    -0.703 NA 
HETATM   16  H   UNL     1     -11.019  17.076  64.153  1.00  0.00     0.000 HD 
HETATM   17  O   UNL     1     -12.747  15.104  63.916  1.00  0.00    -0.759 OA 
ENDROOT
BRANCH   1  18
HETATM   18  C   UNL     1     -10.738  17.729  67.215  1.00  0.00    -0.242 C  
HETATM   19  O   UNL     1     -10.354  17.024  68.402  1.00  0.00    -0.308 OA 
HETATM   20  H   UNL     1     -10.899  17.225  69.153  1.00  0.00     0.000 HD 
BRANCH  18  21
HETATM   21  C   UNL     1     -10.762  19.232  67.562  1.00  0.00    -0.463 C  
HETATM   22  C   UNL     1      -9.883  20.058  66.619  1.00  0.00    -0.577 C  
HETATM   23  O   UNL     1     -10.332  19.432  68.906  1.00  0.00    -0.548 OA 
HETATM   24  H   UNL     1     -10.347  20.357  69.120  1.00  0.00     0.000 HD 
ENDBRANCH  18  21
ENDBRANCH   1  18
TORSDOF 2
ENDMDL
MODEL        3
REMARK 921   NORMALIZED FREE ENERGY PREDICTED BY IDOCK:   -6.18 KCAL/MOL
REMARK 922        TOTAL FREE ENERGY PREDICTED BY IDOCK:   -7.39 KCAL/MOL
REMARK 923 INTER-LIGAND FREE ENERGY PREDICTED BY IDOCK:   -6.95 KCAL/MOL
REMARK 924 INTRA-LIGAND FREE ENERGY PREDICTED BY IDOCK:   -0.45 KCAL/MOL
REMARK 927      BINDING AFFINITY PREDICTED BY RF-SCORE:    0.00 PKD
ROOT
HETATM    1  C   UNL     1     -11.706  15.068  69.202  1.00  0.00    -0.319 C  
HETATM    2  C   UNL     1     -10.159  14.903  69.316  1.00  0.00    -0.195 C  
HETATM    3  H   UNL     1     -12.150  11.899  64.462  1.00  0.00     0.000 HD 
HETATM    4  C   UNL     1     -10.611  11.684  65.808  1.00  0.00    -0.271 C  
HETATM    5  N   UNL     1      -9.636  13.826  68.467  1.00  0.00    -0.302 NA 
HETATM    6  H1  UNL     1      -9.467  10.016  65.677  1.00  0.00     0.000 HD 
HETATM    7  H2  UNL     1     -10.831  10.058  64.534  1.00  0.00     0.000 HD 
HETATM    8  N   UNL     1     -10.285  10.480  65.284  1.00  0.00    -0.299 NA 
HETATM    9  H   UNL     1      -8.739  13.404  68.703  1.00  0.00     0.000 HD 
HETATM   10  N   UNL     1     -11.702  12.302  65.285  1.00  0.00    -0.370 N  
HETATM   11  C   UNL     1     -10.325  13.360  67.348  1.00  0.00    -0.240 C  
HETATM   12  C   UNL     1     -11.471  13.996  66.986  1.00  0.00    -0.351 C  
HETATM   13  N   UNL     1      -9.908  12.189  66.769  1.00  0.00    -0.203 NA 
HETATM   14  C   UNL     1     -12.215  13.440  65.821  1.00  0.00    -0.458 C  
HETATM   15  N   UNL     1     -12.073  14.993  67.763  1.00  0.00    -0.474 NA 
HETATM   16  H   UNL     1     -12.742  15.646  67.356  1.00  0.00     0.000 HD 
HETATM   17  O   UNL     1     -13.279  13.928  65.436  1.00  0.00    -0.750 OA 
ENDROOT
BRANCH   1  18
HETATM   18  C   UNL     1     -12.529  14.032  70.044  1.00  0.00    -0.281 C  
HETATM   19  O   UNL     1     -11.735  12.951  70.549  1.00  0.00    -0.530 OA 
HETATM   20  H   UNL     1     -12.234  12.323  71.059  1.00  0.00     0.000 HD 
BRANCH  18  21
HETATM   21  C   UNL     1     -13.255  14.668  71.247  1.00  0.00    -0.369 C  
HETATM   22  C   UNL     1     -13.788  13.615  72.223  1.00  0.00    -0.689 C  
HETATM   23  O   UNL     1     -14.334  15.482  70.794  1.00  0.00    -0.844 OA 
HETATM   24  H   UNL     1     -14.781  15.873  71.535  1.00  0.00     0.000 HD 
ENDBRANCH  18  21
ENDBRANCH   1  18
TORSDOF 2
ENDMDL
MODEL        4
REMARK 921   NORMALIZED FREE ENERGY PREDICTED BY IDOCK:   -6.16 KCAL/MOL
REMARK 922        TOTAL FREE ENERGY PREDICTED BY IDOCK:   -7.37 KCAL/MOL
REMARK 923 INTER-LIGAND FREE ENERGY PREDICTED BY IDOCK:   -6.98 KCAL/MOL
REMARK 924 INTRA-LIGAND FREE ENERGY PREDICTED BY IDOCK:   -0.39 KCAL/MOL
REMARK 927      BINDING AFFINITY PREDICTED BY RF-SCORE:    0.00 PKD
ROOT
HETATM    1  C   UNL     1     -10.124  15.293  65.676  1.00  0.00    -0.371 C  
HETATM    2  C   UNL     1      -9.979  16.666  66.401  1.00  0.00    -0.302 C  
HETATM    3  H   UNL     1     -12.216  12.582  70.258  1.00  0.00     0.000 HD 
HETATM    4  C   UNL     1     -12.387  14.613  69.987  1.00  0.00    -0.315 C  
HETATM    5  N   UNL     1     -10.713  16.720  67.672  1.00  0.00    -0.331 NA 
HETATM    6  H1  UNL     1     -13.708  15.613  71.154  1.00  0.00     0.000 HD 
HETATM    7  H2  UNL     1     -13.709  13.849  71.397  1.00  0.00     0.000 HD 
HETATM    8  N   UNL     1     -13.353  14.684  70.931  1.00  0.00    -0.351 NA 
HETATM    9  H   UNL     1     -10.977  17.630  68.049  1.00  0.00     0.000 HD 
HETATM   10  N   UNL     1     -11.915  13.374  69.690  1.00  0.00    -0.324 N  
HETATM   11  C   UNL     1     -11.061  15.571  68.379  1.00  0.00    -0.315 C  
HETATM   12  C   UNL     1     -10.618  14.371  67.918  1.00  0.00    -0.240 C  
HETATM   13  N   UNL     1     -11.965  15.687  69.404  1.00  0.00    -0.364 NA 
HETATM   14  C   UNL     1     -11.054  13.156  68.662  1.00  0.00    -0.269 C  
HETATM   15  N   UNL     1      -9.962  14.217  66.690  1.00  0.00    -0.269 NA 
HETATM   16  H   UNL     1      -9.392  13.393  66.498  1.00  0.00     0.000 HD 
HETATM   17  O   UNL     1     -10.729  12.023  68.304  1.00  0.00    -0.207 OA 
ENDROOT
BRANCH   1  18
HETATM   18  C   UNL     1     -11.467  15.118  64.885  1.00  0.00    -0.374 C  
HETATM   19  O   UNL     1     -11.693  16.148  63.915  1.00  0.00    -1.348 OA 
HETATM   20  H   UNL     1     -12.507  16.043  63.436  1.00  0.00     0.000 HD 
BRANCH  18  21
HETATM   21  C   UNL     1     -11.566  13.766  64.150  1.00  0.00    -0.331 C  
HETATM   22  C   UNL     1     -12.339  12.722  64.961  1.00  0.00    -0.559 C  
HETATM   23  O   UNL     1     -10.262  13.269  63.859  1.00  0.00    -0.707 OA 
HETATM   24  H   UNL     1     -10.324  12.436  63.407  1.00  0.00     0.000 HD 
ENDBRANCH  18  21
ENDBRANCH   1  18
TORSDOF 2
ENDMDL
MODEL        5
REMARK 921   NORMALIZED FREE ENERGY PREDICTED BY IDOCK:   -6.10 KCAL/MOL
REMARK 922        TOTAL FREE ENERGY PREDICTED BY IDOCK:   -7.30 KCAL/MOL
REMARK 923 INTER-LIGAND FREE ENERGY PREDICTED BY IDOCK:   -6.91 KCAL/MOL
REMARK 924 INTRA-LIGAND FREE ENERGY PREDICTED BY IDOCK:   -0.39 KCAL/MOL
REMARK 927      BINDING AFFINITY PREDICTED BY RF-SCORE:    0.00 PKD
ROOT
HETATM    1  C   UNL     1     -10.546  14.875  66.513  1.00  0.00    -0.306 C  
HETATM    2  C   UNL     1      -9.126  14.347  66.884  1.00  0.00    -0.251 C  
HETATM    3  H   UNL     1      -8.904  20.339  66.114  1.00  0.00     0.000 HD 
HETATM    4  C   UNL     1      -7.611  18.763  65.847  1.00  0.00    -0.158 C  
HETATM    5  N   UNL     1      -8.066  15.328  66.624  1.00  0.00    -0.344 NA 
HETATM    6  H1  UNL     1      -5.815  19.149  64.992  1.00  0.00     0.000 HD 
HETATM    7  H2  UNL     1      -6.897  20.559  65.085  1.00  0.00     0.000 HD 
HETATM    8  N   UNL     1      -6.703  19.573  65.257  1.00  0.00    -0.349 NA 
HETATM    9  H   UNL     1      -7.110  14.998  66.496  1.00  0.00     0.000 HD 
HETATM   10  N   UNL     1      -8.795  19.329  66.200  1.00  0.00    -0.309 N  
HETATM   11  C   UNL     1      -8.322  16.696  66.543  1.00  0.00    -0.287 C  
HETATM   12  C   UNL     1      -9.581  17.133  66.813  1.00  0.00    -0.270 C  
HETATM   13  N   UNL     1      -7.343  17.513  66.039  1.00  0.00    -0.422 NA 
HETATM   14  C   UNL     1      -9.839  18.593  66.663  1.00  0.00    -0.354 C  
HETATM   15  N   UNL     1     -10.666  16.269  67.016  1.00  0.00    -0.279 NA 
HETATM   16  H   UNL     1     -11.509  16.586  67.493  1.00  0.00     0.000 HD 
HETATM   17  O   UNL     1     -10.954  19.079  66.856  1.00  0.00    -0.364 OA 
ENDROOT
BRANCH   1  18
HETATM   18  C   UNL     1     -10.882  14.802  64.983  1.00  0.00    -0.425 C  
HETATM   19  O   UNL     1      -9.931  14.041  64.227  1.00  0.00    -0.668 OA 
HETATM   20  H   UNL     1     -10.134  13.997  63.300  1.00  0.00     0.000 HD 
BRANCH  18  21
HETATM   21  C   UNL     1     -12.276  14.208  64.696  1.00  0.00    -0.445 C  
HETATM   22  C   UNL     1     -12.447  12.812  65.303  1.00  0.00    -0.528 C  
HETATM   23  O   UNL     1     -12.501  14.142  63.289  1.00  0.00    -1.146 OA 
HETATM   24  H   UNL     1     -13.360  13.776  63.113  1.00  0.00     0.000 HD 
ENDBRANCH  18  21
ENDBRANCH   1  18
TORSDOF 2
ENDMDL
MODEL        6
REMARK 921   NORMALIZED FREE ENERGY PREDICTED BY IDOCK:   -6.08 KCAL/MOL
REMARK 922        TOTAL FREE ENERGY PREDICTED BY IDOCK:   -7.28 KCAL/MOL
REMARK 923 INTER-LIGAND FREE ENERGY PREDICTED BY IDOCK:   -6.78 KCAL/MOL
REMARK 924 INTRA-LIGAND FREE ENERGY PREDICTED BY IDOCK:   -0.50 KCAL/MOL
REMARK 927      BINDING AFFINITY PREDICTED BY RF-SCORE:    0.00 PKD
ROOT
HETATM    1  C   UNL     1     -11.038  13.223  66.010  1.00  0.00    -0.283 C  
HETATM    2  C   UNL     1     -10.737  14.675  66.493  1.00  0.00    -0.312 C  
HETATM    3  H   UNL     1     -12.505  11.317  71.199  1.00  0.00     0.000 HD 
HETATM    4  C   UNL     1     -12.644  13.295  70.656  1.00  0.00    -0.231 C  
HETATM    5  N   UNL     1     -11.267  14.951  67.834  1.00  0.00    -0.302 NA 
HETATM    6  H1  UNL     1     -13.736  14.525  71.840  1.00  0.00     0.000 HD 
HETATM    7  H2  UNL     1     -13.763  12.816  72.341  1.00  0.00     0.000 HD 
HETATM    8  N   UNL     1     -13.452  13.554  71.709  1.00  0.00    -0.390 NA 
HETATM    9  H   UNL     1     -11.439  15.919  68.106  1.00  0.00     0.000 HD 
HETATM   10  N   UNL     1     -12.266  12.002  70.483  1.00  0.00    -0.361 N  
HETATM   11  C   UNL     1     -11.544  13.937  68.748  1.00  0.00    -0.335 C  
HETATM   12  C   UNL     1     -11.219  12.660  68.412  1.00  0.00    -0.279 C  
HETATM   13  N   UNL     1     -12.278  14.249  69.865  1.00  0.00    -0.341 NA 
HETATM   14  C   UNL     1     -11.579  11.590  69.385  1.00  0.00    -0.321 C  
HETATM   15  N   UNL     1     -10.762  12.295  67.139  1.00  0.00    -0.228 NA 
HETATM   16  H   UNL     1     -10.257  11.421  66.991  1.00  0.00     0.000 HD 
HETATM   17  O   UNL     1     -11.352  10.401  69.157  1.00  0.00    -0.240 OA 
ENDROOT
BRANCH   1  18
HETATM   18  C   UNL     1     -12.490  13.014  65.457  1.00  0.00    -0.438 C  
HETATM   19  O   UNL     1     -13.351  14.138  65.682  1.00  0.00    -0.697 OA 
HETATM   20  H   UNL     1     -14.232  14.012  65.347  1.00  0.00     0.000 HD 
BRANCH  18  21
HETATM   21  C   UNL     1     -12.526  12.704  63.947  1.00  0.00    -0.407 C  
HETATM   22  C   UNL     1     -11.364  11.807  63.513  1.00  0.00    -0.496 C  
HETATM   23  O   UNL     1     -12.493  13.916  63.197  1.00  0.00    -1.121 OA 
HETATM   24  H   UNL     1     -12.515  13.725  62.267  1.00  0.00     0.000 HD 
ENDBRANCH  18  21
ENDBRANCH   1  18
TORSDOF 2
ENDMDL
MODEL        7
REMARK 921   NORMALIZED FREE ENERGY PREDICTED BY IDOCK:   -5.97 KCAL/MOL
REMARK 922        TOTAL FREE ENERGY PREDICTED BY IDOCK:   -7.16 KCAL/MOL
REMARK 923 INTER-LIGAND FREE ENERGY PREDICTED BY IDOCK:   -6.70 KCAL/MOL
REMARK 924 INTRA-LIGAND FREE ENERGY PREDICTED BY IDOCK:   -0.46 KCAL/MOL
REMARK 927      BINDING AFFINITY PREDICTED BY RF-SCORE:    0.00 PKD
ROOT
HETATM    1  C   UNL     1     -11.058  13.210  63.848  1.00  0.00    -0.308 C  
HETATM    2  C   UNL     1     -12.359  14.022  64.134  1.00  0.00    -0.332 C  
HETATM    3  H   UNL     1      -9.482  12.937  69.339  1.00  0.00     0.000 HD 
HETATM    4  C   UNL     1     -11.437  13.176  68.750  1.00  0.00    -0.307 C  
HETATM    5  N   UNL     1     -12.732  14.020  65.553  1.00  0.00    -0.608 NA 
HETATM    6  H1  UNL     1     -12.885  12.869  70.133  1.00  0.00     0.000 HD 
HETATM    7  H2  UNL     1     -11.236  12.538  70.717  1.00  0.00     0.000 HD 
HETATM    8  N   UNL     1     -11.878  12.828  69.980  1.00  0.00    -0.314 NA 
HETATM    9  H   UNL     1     -13.702  14.206  65.808  1.00  0.00     0.000 HD 
HETATM   10  N   UNL     1     -10.095  13.122  68.545  1.00  0.00    -0.229 N  
HETATM   11  C   UNL     1     -11.807  13.773  66.565  1.00  0.00    -0.407 C  
HETATM   12  C   UNL     1     -10.499  13.625  66.222  1.00  0.00    -0.291 C  
HETATM   13  N   UNL     1     -12.276  13.526  67.831  1.00  0.00    -0.244 NA 
HETATM   14  C   UNL     1      -9.542  13.305  67.318  1.00  0.00    -0.234 C  
HETATM   15  N   UNL     1     -10.059  13.557  64.893  1.00  0.00    -0.585 NA 
HETATM   16  H   UNL     1      -9.085  13.739  64.652  1.00  0.00     0.000 HD 
HETATM   17  O   UNL     1      -8.343  13.123  67.102  1.00  0.00    -0.181 OA 
ENDROOT
BRANCH   1  18
HETATM   18  C   UNL     1     -11.270  11.658  63.770  1.00  0.00    -0.414 C  
HETATM   19  O   UNL     1     -12.324  11.272  62.879  1.00  0.00    -0.876 OA 
HETATM   20  H   UNL     1     -12.453  10.332  62.832  1.00  0.00     0.000 HD 
BRANCH  18  21
HETATM   21  C   UNL     1     -10.002  10.894  63.337  1.00  0.00    -0.361 C  
HETATM   22  C   UNL     1      -9.455  10.001  64.454  1.00  0.00    -0.349 C  
HETATM   23  O   UNL     1      -8.991  11.813  62.928  1.00  0.00    -0.654 OA 
HETATM   24  H   UNL     1      -8.210  11.342  62.662  1.00  0.00     0.000 HD 
ENDBRANCH  18  21
ENDBRANCH   1  18
TORSDOF 2
ENDMDL
MODEL        8
REMARK 921   NORMALIZED FREE ENERGY PREDICTED BY IDOCK:   -5.89 KCAL/MOL
REMARK 922        TOTAL FREE ENERGY PREDICTED BY IDOCK:   -7.06 KCAL/MOL
REMARK 923 INTER-LIGAND FREE ENERGY PREDICTED BY IDOCK:   -6.56 KCAL/MOL
REMARK 924 INTRA-LIGAND FREE ENERGY PREDICTED BY IDOCK:   -0.50 KCAL/MOL
REMARK 927      BINDING AFFINITY PREDICTED BY RF-SCORE:    0.00 PKD
ROOT
HETATM    1  C   UNL     1      -9.343  10.996  65.973  1.00  0.00    -0.201 C  
HETATM    2  C   UNL     1      -8.644  12.034  66.903  1.00  0.00    -0.189 C  
HETATM    3  H   UNL     1     -13.199  14.714  63.968  1.00  0.00     0.000 HD 
HETATM    4  C   UNL     1     -11.370  15.293  64.708  1.00  0.00    -0.391 C  
HETATM    5  N   UNL     1      -9.015  13.419  66.592  1.00  0.00    -0.421 NA 
HETATM    6  H1  UNL     1     -10.746  17.180  64.314  1.00  0.00     0.000 HD 
HETATM    7  H2  UNL     1     -12.292  16.747  63.544  1.00  0.00     0.000 HD 
HETATM    8  N   UNL     1     -11.493  16.510  64.132  1.00  0.00    -1.092 NA 
HETATM    9  H   UNL     1      -8.390  14.173  66.878  1.00  0.00     0.000 HD 
HETATM   10  N   UNL     1     -12.366  14.401  64.465  1.00  0.00    -0.451 N  
HETATM   11  C   UNL     1     -10.193  13.741  65.920  1.00  0.00    -0.313 C  
HETATM   12  C   UNL     1     -11.065  12.738  65.633  1.00  0.00    -0.279 C  
HETATM   13  N   UNL     1     -10.339  15.016  65.436  1.00  0.00    -0.356 NA 
HETATM   14  C   UNL     1     -12.288  13.104  64.863  1.00  0.00    -0.441 C  
HETATM   15  N   UNL     1     -10.773  11.384  65.840  1.00  0.00    -0.267 NA 
HETATM   16  H   UNL     1     -11.515  10.688  65.899  1.00  0.00     0.000 HD 
HETATM   17  O   UNL     1     -13.122  12.261  64.530  1.00  0.00    -0.791 OA 
ENDROOT
BRANCH   1  18
HETATM   18  C   UNL     1      -8.674  10.838  64.563  1.00  0.00    -0.089 C  
HETATM   19  O   UNL     1      -7.321  10.370  64.625  1.00  0.00    -0.265 OA 
HETATM   20  H   UNL     1      -6.915  10.275  63.771  1.00  0.00     0.000 HD 
BRANCH  18  21
HETATM   21  C   UNL     1      -9.446   9.885  63.628  1.00  0.00    -0.095 C  
HETATM   22  C   UNL     1      -8.512   9.095  62.708  1.00  0.00    -0.211 C  
HETATM   23  O   UNL     1     -10.377  10.621  62.838  1.00  0.00    -0.707 OA 
HETATM   24  H   UNL     1     -10.853  10.034  62.262  1.00  0.00     0.000 HD 
ENDBRANCH  18  21
ENDBRANCH   1  18
TORSDOF 2
ENDMDL
MODEL        9
REMARK 921   NORMALIZED FREE ENERGY PREDICTED BY IDOCK:   -5.88 KCAL/MOL
REMARK 922        TOTAL FREE ENERGY PREDICTED BY IDOCK:   -7.05 KCAL/MOL
REMARK 923 INTER-LIGAND FREE ENERGY PREDICTED BY IDOCK:   -6.59 KCAL/MOL
REMARK 924 INTRA-LIGAND FREE ENERGY PREDICTED BY IDOCK:   -0.46 KCAL/MOL
REMARK 927      BINDING AFFINITY PREDICTED BY RF-SCORE:    0.00 PKD
ROOT
HETATM    1  C   UNL     1     -11.492  14.603  71.140  1.00  0.00    -0.140 C  
HETATM    2  C   UNL     1     -12.054  13.412  70.304  1.00  0.00    -0.349 C  
HETATM    3  H   UNL     1      -8.819  17.041  66.709  1.00  0.00     0.000 HD 
HETATM    4  C   UNL     1     -10.450  15.809  66.488  1.00  0.00    -0.303 C  
HETATM    5  N   UNL     1     -11.962  13.638  68.856  1.00  0.00    -0.356 NA 
HETATM    6  H1  UNL     1     -11.399  15.810  64.698  1.00  0.00     0.000 HD 
HETATM    7  H2  UNL     1     -10.065  16.983  64.818  1.00  0.00     0.000 HD 
HETATM    8  N   UNL     1     -10.644  16.249  65.224  1.00  0.00    -0.581 NA 
HETATM    9  H   UNL     1     -12.585  13.120  68.236  1.00  0.00     0.000 HD 
HETATM   10  N   UNL     1      -9.444  16.394  67.190  1.00  0.00    -0.228 N  
HETATM   11  C   UNL     1     -11.055  14.537  68.299  1.00  0.00    -0.261 C  
HETATM   12  C   UNL     1     -10.164  15.148  69.125  1.00  0.00    -0.249 C  
HETATM   13  N   UNL     1     -11.209  14.887  66.982  1.00  0.00    -0.339 NA 
HETATM   14  C   UNL     1      -9.244  16.146  68.510  1.00  0.00    -0.210 C  
HETATM   15  N   UNL     1     -10.211  15.037  70.521  1.00  0.00    -0.459 NA 
HETATM   16  H   UNL     1      -9.394  15.247  71.093  1.00  0.00     0.000 HD 
HETATM   17  O   UNL     1      -8.423  16.773  69.181  1.00  0.00    -0.203 OA 
ENDROOT
BRANCH   1  18
HETATM   18  C   UNL     1     -12.480  15.812  71.286  1.00  0.00    -0.448 C  
HETATM   19  O   UNL     1     -13.749  15.589  70.659  1.00  0.00    -0.851 OA 
HETATM   20  H   UNL     1     -14.347  16.321  70.747  1.00  0.00     0.000 HD 
BRANCH  18  21
HETATM   21  C   UNL     1     -12.755  16.196  72.754  1.00  0.00    -0.392 C  
HETATM   22  C   UNL     1     -12.079  15.239  73.739  1.00  0.00    -0.642 C  
HETATM   23  O   UNL     1     -14.159  16.215  73.001  1.00  0.00    -0.576 OA 
HETATM   24  H   UNL     1     -14.328  16.452  73.905  1.00  0.00     0.000 HD 
ENDBRANCH  18  21
ENDBRANCH   1  18
TORSDOF 2
ENDMDL
MODEL       10
REMARK 921   NORMALIZED FREE ENERGY PREDICTED BY IDOCK:   -5.86 KCAL/MOL
REMARK 922        TOTAL FREE ENERGY PREDICTED BY IDOCK:   -7.04 KCAL/MOL
REMARK 923 INTER-LIGAND FREE ENERGY PREDICTED BY IDOCK:   -6.96 KCAL/MOL
REMARK 924 INTRA-LIGAND FREE ENERGY PREDICTED BY IDOCK:   -0.07 KCAL/MOL
REMARK 927      BINDING AFFINITY PREDICTED BY RF-SCORE:    0.00 PKD
ROOT
HETATM    1  C   UNL     1      -9.928  15.688  68.046  1.00  0.00    -0.222 C  
HETATM    2  C   UNL     1      -9.319  14.257  68.156  1.00  0.00    -0.206 C  
HETATM    3  H   UNL     1     -12.586  14.667  63.085  1.00  0.00     0.000 HD 
HETATM    4  C   UNL     1     -12.106  13.180  64.421  1.00  0.00    -0.410 C  
HETATM    5  N   UNL     1      -9.942  13.300  67.233  1.00  0.00    -0.228 NA 
HETATM    6  H1  UNL     1     -12.984  11.370  64.176  1.00  0.00     0.000 HD 
HETATM    7  H2  UNL     1     -13.543  12.614  63.031  1.00  0.00     0.000 HD 
HETATM    8  N   UNL     1     -12.957  12.322  63.813  1.00  0.00    -0.786 NA 
HETATM    9  H   UNL     1      -9.883  12.304  67.444  1.00  0.00     0.000 HD 
HETATM   10  N   UNL     1     -12.070  14.449  63.938  1.00  0.00    -0.291 N  
HETATM   11  C   UNL     1     -10.611  13.705  66.080  1.00  0.00    -0.291 C  
HETATM   12  C   UNL     1     -10.598  15.026  65.758  1.00  0.00    -0.339 C  
HETATM   13  N   UNL     1     -11.386  12.786  65.420  1.00  0.00    -0.294 NA 
HETATM   14  C   UNL     1     -11.369  15.438  64.552  1.00  0.00    -0.313 C  
HETATM   15  N   UNL     1     -10.078  16.016  66.603  1.00  0.00    -0.269 NA 
HETATM   16  H   UNL     1      -9.812  16.931  66.240  1.00  0.00     0.000 HD 
HETATM   17  O   UNL     1     -11.442  16.615  64.197  1.00  0.00    -1.131 OA 
ENDROOT
BRANCH   1  18
HETATM   18  C   UNL     1     -11.288  15.872  68.805  1.00  0.00    -0.378 C  
HETATM   19  O   UNL     1     -12.331  15.019  68.318  1.00  0.00    -0.561 OA 
HETATM   20  H   UNL     1     -13.155  15.130  68.777  1.00  0.00     0.000 HD 
BRANCH  18  21
HETATM   21  C   UNL     1     -11.171  15.631  70.324  1.00  0.00    -0.344 C  
HETATM   22  C   UNL     1     -12.033  14.455  70.791  1.00  0.00    -0.391 C  
HETATM   23  O   UNL     1     -11.549  16.806  71.037  1.00  0.00    -0.510 OA 
HETATM   24  H   UNL     1     -11.477  16.657  71.973  1.00  0.00     0.000 HD 
ENDBRANCH  18  21
ENDBRANCH   1  18
TORSDOF 2
ENDMDL
MODEL       11
REMARK 921   NORMALIZED FREE ENERGY PREDICTED BY IDOCK:   -5.85 KCAL/MOL
REMARK 922        TOTAL FREE ENERGY PREDICTED BY IDOCK:   -7.02 KCAL/MOL
REMARK 923 INTER-LIGAND FREE ENERGY PREDICTED BY IDOCK:   -6.60 KCAL/MOL
REMARK 924 INTRA-LIGAND FREE ENERGY PREDICTED BY IDOCK:   -0.42 KCAL/MOL
REMARK 927      BINDING AFFINITY PREDICTED BY RF-SCORE:    0.00 PKD
ROOT
HETATM    1  C   UNL     1     -10.692  12.396  63.746  1.00  0.00    -0.451 C  
HETATM    2  C   UNL     1     -12.233  12.248  63.938  1.00  0.00    -0.515 C  
HETATM    3  H   UNL     1     -10.112  16.385  67.803  1.00  0.00     0.000 HD 
HETATM    4  C   UNL     1     -11.650  15.021  67.791  1.00  0.00    -0.319 C  
HETATM    5  N   UNL     1     -12.713  12.857  65.184  1.00  0.00    -0.722 NA 
HETATM    6  H1  UNL     1     -12.735  14.805  69.489  1.00  0.00     0.000 HD 
HETATM    7  H2  UNL     1     -11.366  15.935  69.635  1.00  0.00     0.000 HD 
HETATM    8  N   UNL     1     -11.931  15.286  69.087  1.00  0.00    -0.305 NA 
HETATM    9  H   UNL     1     -13.597  12.538  65.580  1.00  0.00     0.000 HD 
HETATM   10  N   UNL     1     -10.579  15.662  67.256  1.00  0.00    -0.300 N  
HETATM   11  C   UNL     1     -12.002  13.857  65.845  1.00  0.00    -0.407 C  
HETATM   12  C   UNL     1     -10.877  14.345  65.258  1.00  0.00    -0.361 C  
HETATM   13  N   UNL     1     -12.375  14.183  67.125  1.00  0.00    -0.296 NA 
HETATM   14  C   UNL     1     -10.108  15.372  66.015  1.00  0.00    -0.324 C  
HETATM   15  N   UNL     1     -10.314  13.789  64.101  1.00  0.00    -0.667 NA 
HETATM   16  H   UNL     1      -9.666  14.323  63.523  1.00  0.00     0.000 HD 
HETATM   17  O   UNL     1      -9.060  15.851  65.579  1.00  0.00    -0.286 OA 
ENDROOT
BRANCH   1  18
HETATM   18  C   UNL     1      -9.838  11.361  64.558  1.00  0.00    -0.260 C  
HETATM   19  O   UNL     1     -10.538  10.797  65.674  1.00  0.00    -0.215 OA 
HETATM   20  H   UNL     1     -10.021  10.170  66.166  1.00  0.00     0.000 HD 
BRANCH  18  21
HETATM   21  C   UNL     1      -9.327  10.187  63.697  1.00  0.00    -0.290 C  
HETATM   22  C   UNL     1      -7.805  10.209  63.533  1.00  0.00    -0.158 C  
HETATM   23  O   UNL     1      -9.942  10.219  62.410  1.00  0.00    -0.725 OA 
HETATM   24  H   UNL     1      -9.627   9.497  61.880  1.00  0.00     0.000 HD 
ENDBRANCH  18  21
ENDBRANCH   1  18
TORSDOF 2
ENDMDL
MODEL       12
REMARK 921   NORMALIZED FREE ENERGY PREDICTED BY IDOCK:   -5.84 KCAL/MOL
REMARK 922        TOTAL FREE ENERGY PREDICTED BY IDOCK:   -7.01 KCAL/MOL
REMARK 923 INTER-LIGAND FREE ENERGY PREDICTED BY IDOCK:   -6.61 KCAL/MOL
REMARK 924 INTRA-LIGAND FREE ENERGY PREDICTED BY IDOCK:   -0.40 KCAL/MOL
REMARK 927      BINDING AFFINITY PREDICTED BY RF-SCORE:    0.00 PKD
ROOT
HETATM    1  C   UNL     1      -9.605  17.012  65.804  1.00  0.00    -0.009 C  
HETATM    2  C   UNL     1      -8.367  16.156  66.216  1.00  0.00    -0.287 C  
HETATM    3  H   UNL     1     -13.173  12.550  65.543  1.00  0.00     0.000 HD 
HETATM    4  C   UNL     1     -11.479  12.558  66.709  1.00  0.00    -0.362 C  
HETATM    5  N   UNL     1      -8.731  14.806  66.662  1.00  0.00    -0.409 NA 
HETATM    6  H1  UNL     1     -11.304  11.126  68.131  1.00  0.00     0.000 HD 
HETATM    7  H2  UNL     1     -12.849  11.092  67.247  1.00  0.00     0.000 HD 
HETATM    8  N   UNL     1     -11.930  11.498  67.418  1.00  0.00    -0.597 NA 
HETATM    9  H   UNL     1      -8.085  14.295  67.262  1.00  0.00     0.000 HD 
HETATM   10  N   UNL     1     -12.313  13.055  65.758  1.00  0.00    -0.451 N  
HETATM   11  C   UNL     1      -9.930  14.199  66.293  1.00  0.00    -0.303 C  
HETATM   12  C   UNL     1     -10.739  14.849  65.414  1.00  0.00    -0.377 C  
HETATM   13  N   UNL     1     -10.315  13.061  66.957  1.00  0.00    -0.246 NA 
HETATM   14  C   UNL     1     -12.039  14.202  65.083  1.00  0.00    -0.414 C  
HETATM   15  N   UNL     1     -10.502  16.160  64.979  1.00  0.00    -0.615 NA 
HETATM   16  H   UNL     1     -10.930  16.517  64.126  1.00  0.00     0.000 HD 
HETATM   17  O   UNL     1     -12.851  14.727  64.321  1.00  0.00    -0.622 OA 
ENDROOT
BRANCH   1  18
HETATM   18  C   UNL     1     -10.385  17.642  67.010  1.00  0.00    -0.330 C  
HETATM   19  O   UNL     1     -10.179  16.946  68.245  1.00  0.00    -0.283 OA 
HETATM   20  H   UNL     1     -10.652  17.328  68.976  1.00  0.00     0.000 HD 
BRANCH  18  21
HETATM   21  C   UNL     1     -10.031  19.124  67.254  1.00  0.00    -0.356 C  
HETATM   22  C   UNL     1     -10.108  19.500  68.736  1.00  0.00    -0.519 C  
HETATM   23  O   UNL     1     -10.905  19.966  66.506  1.00  0.00    -0.430 OA 
HETATM   24  H   UNL     1     -10.687  20.878  66.656  1.00  0.00     0.000 HD 
ENDBRANCH  18  21
ENDBRANCH   1  18
TORSDOF 2
ENDMDL
MODEL       13
REMARK 921   NORMALIZED FREE ENERGY PREDICTED BY IDOCK:   -5.83 KCAL/MOL
REMARK 922        TOTAL FREE ENERGY PREDICTED BY IDOCK:   -6.99 KCAL/MOL
REMARK 923 INTER-LIGAND FREE ENERGY PREDICTED BY IDOCK:   -6.97 KCAL/MOL
REMARK 924 INTRA-LIGAND FREE ENERGY PREDICTED BY IDOCK:   -0.02 KCAL/MOL
REMARK 927      BINDING AFFINITY PREDICTED BY RF-SCORE:    0.00 PKD
ROOT
HETATM    1  C   UNL     1     -12.199  13.079  64.705  1.00  0.00    -0.435 C  
HETATM    2  C   UNL     1     -10.964  12.708  63.828  1.00  0.00    -0.435 C  
HETATM    3  H   UNL     1      -9.926  11.069  69.554  1.00  0.00     0.000 HD 
HETATM    4  C   UNL     1      -8.785  11.702  67.965  1.00  0.00    -0.157 C  
HETATM    5  N   UNL     1      -9.772  12.392  64.625  1.00  0.00    -0.486 NA 
HETATM    6  H1  UNL     1      -6.812  12.031  68.290  1.00  0.00     0.000 HD 
HETATM    7  H2  UNL     1      -7.728  11.584  69.750  1.00  0.00     0.000 HD 
HETATM    8  N   UNL     1      -7.686  11.775  68.749  1.00  0.00    -0.120 NA 
HETATM    9  H   UNL     1      -8.853  12.475  64.191  1.00  0.00     0.000 HD 
HETATM   10  N   UNL     1      -9.949  11.361  68.577  1.00  0.00    -0.196 N  
HETATM   11  C   UNL     1      -9.854  11.982  65.954  1.00  0.00    -0.238 C  
HETATM   12  C   UNL     1     -11.086  11.779  66.492  1.00  0.00    -0.310 C  
HETATM   13  N   UNL     1      -8.704  11.963  66.701  1.00  0.00    -0.195 NA 
HETATM   14  C   UNL     1     -11.144  11.397  67.931  1.00  0.00    -0.261 C  
HETATM   15  N   UNL     1     -12.276  12.107  65.828  1.00  0.00    -0.532 NA 
HETATM   16  H   UNL     1     -13.165  11.692  66.105  1.00  0.00     0.000 HD 
HETATM   17  O   UNL     1     -12.214  11.221  68.514  1.00  0.00    -0.588 OA 
ENDROOT
BRANCH   1  18
HETATM   18  C   UNL     1     -12.190  14.553  65.242  1.00  0.00    -0.321 C  
HETATM   19  O   UNL     1     -12.085  14.638  66.669  1.00  0.00    -0.347 OA 
HETATM   20  H   UNL     1     -12.080  15.531  66.994  1.00  0.00     0.000 HD 
BRANCH  18  21
HETATM   21  C   UNL     1     -11.053  15.409  64.647  1.00  0.00    -0.347 C  
HETATM   22  C   UNL     1     -10.175  16.038  65.731  1.00  0.00    -0.401 C  
HETATM   23  O   UNL     1     -11.594  16.437  63.820  1.00  0.00    -1.605 OA 
HETATM   24  H   UNL     1     -10.894  16.963  63.454  1.00  0.00     0.000 HD 
ENDBRANCH  18  21
ENDBRANCH   1  18
TORSDOF 2
ENDMDL
MODEL       14
REMARK 921   NORMALIZED FREE ENERGY PREDICTED BY IDOCK:   -5.82 KCAL/MOL
REMARK 922        TOTAL FREE ENERGY PREDICTED BY IDOCK:   -6.99 KCAL/MOL
REMARK 923 INTER-LIGAND FREE ENERGY PREDICTED BY IDOCK:   -6.68 KCAL/MOL
REMARK 924 INTRA-LIGAND FREE ENERGY PREDICTED BY IDOCK:   -0.31 KCAL/MOL
REMARK 927      BINDING AFFINITY PREDICTED BY RF-SCORE:    0.00 PKD
ROOT
HETATM    1  C   UNL     1     -11.490  14.587  66.025  1.00  0.00    -0.348 C  
HETATM    2  C   UNL     1     -12.741  14.022  65.284  1.00  0.00    -0.439 C  
HETATM    3  H   UNL     1      -8.117  10.182  64.633  1.00  0.00     0.000 HD 
HETATM    4  C   UNL     1      -9.756  10.728  63.519  1.00  0.00    -0.341 C  
HETATM    5  N   UNL     1     -12.412  12.929  64.361  1.00  0.00    -0.606 NA 
HETATM    6  H1  UNL     1      -9.926   9.963  61.650  1.00  0.00     0.000 HD 
HETATM    7  H2  UNL     1      -8.423   9.510  62.491  1.00  0.00     0.000 HD 
HETATM    8  N   UNL     1      -9.318   9.999  62.467  1.00  0.00    -0.292 NA 
HETATM    9  H   UNL     1     -13.052  12.723  63.594  1.00  0.00     0.000 HD 
HETATM   10  N   UNL     1      -8.946  10.776  64.608  1.00  0.00    -0.193 N  
HETATM   11  C   UNL     1     -11.255  12.164  64.496  1.00  0.00    -0.331 C  
HETATM   12  C   UNL     1     -10.461  12.382  65.578  1.00  0.00    -0.275 C  
HETATM   13  N   UNL     1     -10.888  11.349  63.455  1.00  0.00    -0.358 NA 
HETATM   14  C   UNL     1      -9.203  11.589  65.666  1.00  0.00    -0.170 C  
HETATM   15  N   UNL     1     -10.664  13.436  66.478  1.00  0.00    -0.284 NA 
HETATM   16  H   UNL     1     -10.259  13.414  67.414  1.00  0.00     0.000 HD 
HETATM   17  O   UNL     1      -8.404  11.737  66.592  1.00  0.00    -0.175 OA 
ENDROOT
BRANCH   1  18
HETATM   18  C   UNL     1     -10.634  15.588  65.175  1.00  0.00    -0.431 C  
HETATM   19  O   UNL     1     -11.339  16.127  64.050  1.00  0.00    -1.193 OA 
HETATM   20  H   UNL     1     -10.820  16.734  63.535  1.00  0.00     0.000 HD 
BRANCH  18  21
HETATM   21  C   UNL     1     -10.102  16.781  65.997  1.00  0.00    -0.332 C  
HETATM   22  C   UNL     1     -10.659  16.794  67.423  1.00  0.00    -0.291 C  
HETATM   23  O   UNL     1     -10.431  18.008  65.349  1.00  0.00    -0.621 OA 
HETATM   24  H   UNL     1     -10.104  18.742  65.855  1.00  0.00     0.000 HD 
ENDBRANCH  18  21
ENDBRANCH   1  18
TORSDOF 2
ENDMDL
MODEL       15
REMARK 921   NORMALIZED FREE ENERGY PREDICTED BY IDOCK:   -5.82 KCAL/MOL
REMARK 922        TOTAL FREE ENERGY PREDICTED BY IDOCK:   -6.98 KCAL/MOL
REMARK 923 INTER-LIGAND FREE ENERGY PREDICTED BY IDOCK:   -6.52 KCAL/MOL
REMARK 924 INTRA-LIGAND FREE ENERGY PREDICTED BY IDOCK:   -0.47 KCAL/MOL
REMARK 927      BINDING AFFINITY PREDICTED BY RF-SCORE:    0.00 PKD
ROOT
HETATM    1  C   UNL     1     -11.994  14.783  66.254  1.00  0.00    -0.159 C  
HETATM    2  C   UNL     1     -12.507  13.647  65.317  1.00  0.00    -0.479 C  
HETATM    3  H   UNL     1     -10.971  11.297  70.672  1.00  0.00     0.000 HD 
HETATM    4  C   UNL     1     -10.983  10.652  68.719  1.00  0.00    -0.246 C  
HETATM    5  N   UNL     1     -12.177  12.306  65.814  1.00  0.00    -0.603 NA 
HETATM    6  H1  UNL     1     -10.182   8.833  68.321  1.00  0.00     0.000 HD 
HETATM    7  H2  UNL     1     -10.032   9.340  70.021  1.00  0.00     0.000 HD 
HETATM    8  N   UNL     1     -10.341   9.512  69.065  1.00  0.00    -0.199 NA 
HETATM    9  H   UNL     1     -12.146  11.530  65.153  1.00  0.00     0.000 HD 
HETATM   10  N   UNL     1     -11.195  11.556  69.711  1.00  0.00    -0.209 N  
HETATM   11  C   UNL     1     -11.905  12.056  67.157  1.00  0.00    -0.178 C  
HETATM   12  C   UNL     1     -12.047  13.077  68.044  1.00  0.00    -0.174 C  
HETATM   13  N   UNL     1     -11.351  10.848  67.496  1.00  0.00    -0.457 NA 
HETATM   14  C   UNL     1     -11.694  12.795  69.464  1.00  0.00    -0.318 C  
HETATM   15  N   UNL     1     -12.303  14.399  67.657  1.00  0.00    -0.601 NA 
HETATM   16  H   UNL     1     -12.688  15.075  68.316  1.00  0.00     0.000 HD 
HETATM   17  O   UNL     1     -11.761  13.664  70.335  1.00  0.00    -0.257 OA 
ENDROOT
BRANCH   1  18
HETATM   18  C   UNL     1     -10.471  15.118  66.089  1.00  0.00    -0.312 C  
HETATM   19  O   UNL     1      -9.752  14.139  65.329  1.00  0.00    -0.560 OA 
HETATM   20  H   UNL     1      -8.830  14.341  65.229  1.00  0.00     0.000 HD 
BRANCH  18  21
HETATM   21  C   UNL     1     -10.220  16.488  65.425  1.00  0.00    -0.148 C  
HETATM   22  C   UNL     1     -10.399  17.648  66.408  1.00  0.00    -0.345 C  
HETATM   23  O   UNL     1     -11.100  16.665  64.318  1.00  0.00    -1.270 OA 
HETATM   24  H   UNL     1     -10.945  17.508  63.910  1.00  0.00     0.000 HD 
ENDBRANCH  18  21
ENDBRANCH   1  18
TORSDOF 2
ENDMDL
MODEL       16
REMARK 921   NORMALIZED FREE ENERGY PREDICTED BY IDOCK:   -5.79 KCAL/MOL
REMARK 922        TOTAL FREE ENERGY PREDICTED BY IDOCK:   -6.96 KCAL/MOL
REMARK 923 INTER-LIGAND FREE ENERGY PREDICTED BY IDOCK:   -6.48 KCAL/MOL
REMARK 924 INTRA-LIGAND FREE ENERGY PREDICTED BY IDOCK:   -0.48 KCAL/MOL
REMARK 927      BINDING AFFINITY PREDICTED BY RF-SCORE:    0.00 PKD
ROOT
HETATM    1  C   UNL     1      -8.618  17.177  66.737  1.00  0.00    -0.243 C  
HETATM    2  C   UNL     1      -7.810  15.873  67.023  1.00  0.00    -0.232 C  
HETATM    3  H   UNL     1     -12.979  14.462  64.222  1.00  0.00     0.000 HD 
HETATM    4  C   UNL     1     -11.744  13.558  65.594  1.00  0.00    -0.339 C  
HETATM    5  N   UNL     1      -8.618  14.657  66.870  1.00  0.00    -0.318 NA 
HETATM    6  H1  UNL     1     -12.353  11.801  66.399  1.00  0.00     0.000 HD 
HETATM    7  H2  UNL     1     -13.537  12.550  65.301  1.00  0.00     0.000 HD 
HETATM    8  N   UNL     1     -12.632  12.554  65.772  1.00  0.00    -0.454 NA 
HETATM    9  H   UNL     1      -8.322  13.806  67.347  1.00  0.00     0.000 HD 
HETATM   10  N   UNL     1     -12.117  14.561  64.757  1.00  0.00    -0.437 N  
HETATM   11  C   UNL     1      -9.776  14.625  66.095  1.00  0.00    -0.319 C  
HETATM   12  C   UNL     1     -10.107  15.737  65.384  1.00  0.00    -0.302 C  
HETATM   13  N   UNL     1     -10.610  13.543  66.215  1.00  0.00    -0.285 NA 
HETATM   14  C   UNL     1     -11.379  15.693  64.611  1.00  0.00    -0.349 C  
HETATM   15  N   UNL     1      -9.430  16.957  65.510  1.00  0.00    -0.392 NA 
HETATM   16  H   UNL     1      -9.492  17.670  64.785  1.00  0.00     0.000 HD 
HETATM   17  O   UNL     1     -11.779  16.660  63.961  1.00  0.00    -1.143 OA 
ENDROOT
BRANCH   1  18
HETATM   18  C   UNL     1      -9.522  17.651  67.928  1.00  0.00    -0.276 C  
HETATM   19  O   UNL     1      -9.470  16.778  69.063  1.00  0.00    -0.258 OA 
HETATM   20  H   UNL     1     -10.018  17.065  69.785  1.00  0.00     0.000 HD 
BRANCH  18  21
HETATM   21  C   UNL     1      -9.176  19.070  68.424  1.00  0.00    -0.352 C  
HETATM   22  C   UNL     1     -10.299  20.071  68.141  1.00  0.00    -0.503 C  
HETATM   23  O   UNL     1      -7.972  19.524  67.810  1.00  0.00    -0.279 OA 
HETATM   24  H   UNL     1      -7.760  20.398  68.116  1.00  0.00     0.000 HD 
ENDBRANCH  18  21
ENDBRANCH   1  18
TORSDOF 2
ENDMDL
MODEL       17
REMARK 921   NORMALIZED FREE ENERGY PREDICTED BY IDOCK:   -5.77 KCAL/MOL
REMARK 922        TOTAL FREE ENERGY PREDICTED BY IDOCK:   -6.93 KCAL/MOL
REMARK 923 INTER-LIGAND FREE ENERGY PREDICTED BY IDOCK:   -6.47 KCAL/MOL
REMARK 924 INTRA-LIGAND FREE ENERGY PREDICTED BY IDOCK:   -0.46 KCAL/MOL
REMARK 927      BINDING AFFINITY PREDICTED BY RF-SCORE:    0.00 PKD
ROOT
HETATM    1  C   UNL     1     -10.480  11.409  67.492  1.00  0.00    -0.201 C  
HETATM    2  C   UNL     1     -10.110  12.600  68.430  1.00  0.00    -0.222 C  
HETATM    3  H   UNL     1     -12.962  14.710  63.535  1.00  0.00     0.000 HD 
HETATM    4  C   UNL     1     -11.517  15.405  64.821  1.00  0.00    -0.336 C  
HETATM    5  N   UNL     1     -10.222  13.904  67.767  1.00  0.00    -0.234 NA 
HETATM    6  H1  UNL     1     -10.640  17.180  64.387  1.00  0.00     0.000 HD 
HETATM    7  H2  UNL     1     -11.803  16.620  63.160  1.00  0.00     0.000 HD 
HETATM    8  N   UNL     1     -11.311  16.493  64.045  1.00  0.00    -1.064 NA 
HETATM    9  H   UNL     1      -9.696  14.693  68.141  1.00  0.00     0.000 HD 
HETATM   10  N   UNL     1     -12.411  14.490  64.364  1.00  0.00    -0.402 N  
HETATM   11  C   UNL     1     -11.022  14.102  66.643  1.00  0.00    -0.303 C  
HETATM   12  C   UNL     1     -11.795  13.069  66.213  1.00  0.00    -0.408 C  
HETATM   13  N   UNL     1     -10.869  15.264  65.931  1.00  0.00    -0.335 NA 
HETATM   14  C   UNL     1     -12.596  13.291  64.976  1.00  0.00    -0.423 C  
HETATM   15  N   UNL     1     -11.714  11.776  66.746  1.00  0.00    -0.571 NA 
HETATM   16  H   UNL     1     -12.475  11.109  66.627  1.00  0.00     0.000 HD 
HETATM   17  O   UNL     1     -13.303  12.407  64.492  1.00  0.00    -0.800 OA 
ENDROOT
BRANCH   1  18
HETATM   18  C   UNL     1      -9.337  10.985  66.506  1.00  0.00    -0.180 C  
HETATM   19  O   UNL     1      -8.194  10.427  67.167  1.00  0.00    -0.120 OA 
HETATM   20  H   UNL     1      -7.501  10.170  66.570  1.00  0.00     0.000 HD 
BRANCH  18  21
HETATM   21  C   UNL     1      -9.798   9.962  65.447  1.00  0.00    -0.313 C  
HETATM   22  C   UNL     1      -8.624   9.191  64.837  1.00  0.00    -0.208 C  
HETATM   23  O   UNL     1     -10.520  10.623  64.409  1.00  0.00    -0.350 OA 
HETATM   24  H   UNL     1     -10.803   9.993  63.757  1.00  0.00     0.000 HD 
ENDBRANCH  18  21
ENDBRANCH   1  18
TORSDOF 2
ENDMDL
MODEL       18
REMARK 921   NORMALIZED FREE ENERGY PREDICTED BY IDOCK:   -5.74 KCAL/MOL
REMARK 922        TOTAL FREE ENERGY PREDICTED BY IDOCK:   -6.90 KCAL/MOL
REMARK 923 INTER-LIGAND FREE ENERGY PREDICTED BY IDOCK:   -6.55 KCAL/MOL
REMARK 924 INTRA-LIGAND FREE ENERGY PREDICTED BY IDOCK:   -0.35 KCAL/MOL
REMARK 927      BINDING AFFINITY PREDICTED BY RF-SCORE:    0.00 PKD
ROOT
HETATM    1  C   UNL     1     -11.040  15.334  67.266  1.00  0.00    -0.325 C  
HETATM    2  C   UNL     1     -10.144  14.440  68.177  1.00  0.00    -0.226 C  
HETATM    3  H   UNL     1      -8.285  20.181  68.542  1.00  0.00     0.000 HD 
HETATM    4  C   UNL     1      -7.404  18.328  68.677  1.00  0.00    -0.290 C  
HETATM    5  N   UNL     1      -8.912  15.114  68.604  1.00  0.00    -0.182 NA 
HETATM    6  H1  UNL     1      -5.386  18.251  68.843  1.00  0.00     0.000 HD 
HETATM    7  H2  UNL     1      -6.039  19.894  68.631  1.00  0.00     0.000 HD 
HETATM    8  N   UNL     1      -6.173  18.887  68.719  1.00  0.00    -0.224 NA 
HETATM    9  H   UNL     1      -8.115  14.548  68.894  1.00  0.00     0.000 HD 
HETATM   10  N   UNL     1      -8.453  19.176  68.512  1.00  0.00    -0.354 N  
HETATM   11  C   UNL     1      -8.793  16.503  68.625  1.00  0.00    -0.237 C  
HETATM   12  C   UNL     1      -9.892  17.249  68.332  1.00  0.00    -0.309 C  
HETATM   13  N   UNL     1      -7.543  17.047  68.776  1.00  0.00    -0.235 NA 
HETATM   14  C   UNL     1      -9.720  18.728  68.307  1.00  0.00    -0.362 C  
HETATM   15  N   UNL     1     -11.090  16.696  67.863  1.00  0.00    -0.273 NA 
HETATM   16  H   UNL     1     -11.968  17.210  67.927  1.00  0.00     0.000 HD 
HETATM   17  O   UNL     1     -10.648  19.486  68.023  1.00  0.00    -0.415 OA 
ENDROOT
BRANCH   1  18
HETATM   18  C   UNL     1     -10.579  15.396  65.769  1.00  0.00    -0.348 C  
HETATM   19  O   UNL     1      -9.603  14.403  65.432  1.00  0.00    -0.538 OA 
HETATM   20  H   UNL     1      -9.323  14.441  64.525  1.00  0.00     0.000 HD 
BRANCH  18  21
HETATM   21  C   UNL     1     -11.745  15.250  64.769  1.00  0.00    -0.276 C  
HETATM   22  C   UNL     1     -11.803  13.852  64.149  1.00  0.00    -0.417 C  
HETATM   23  O   UNL     1     -11.627  16.223  63.733  1.00  0.00    -1.539 OA 
HETATM   24  H   UNL     1     -12.345  16.132  63.117  1.00  0.00     0.000 HD 
ENDBRANCH  18  21
ENDBRANCH   1  18
TORSDOF 2
ENDMDL
MODEL       19
REMARK 921   NORMALIZED FREE ENERGY PREDICTED BY IDOCK:   -5.70 KCAL/MOL
REMARK 922        TOTAL FREE ENERGY PREDICTED BY IDOCK:   -6.85 KCAL/MOL
REMARK 923 INTER-LIGAND FREE ENERGY PREDICTED BY IDOCK:   -6.41 KCAL/MOL
REMARK 924 INTRA-LIGAND FREE ENERGY PREDICTED BY IDOCK:   -0.45 KCAL/MOL
REMARK 927      BINDING AFFINITY PREDICTED BY RF-SCORE:    0.00 PKD
ROOT
HETATM    1  C   UNL     1     -10.941  12.703  69.421  1.00  0.00     0.019 C  
HETATM    2  C   UNL     1     -11.375  11.309  68.872  1.00  0.00    -0.275 C  
HETATM    3  H   UNL     1     -10.745  15.175  64.266  1.00  0.00     0.000 HD 
HETATM    4  C   UNL     1     -11.919  13.537  64.675  1.00  0.00    -0.400 C  
HETATM    5  N   UNL     1     -11.844  11.364  67.482  1.00  0.00    -0.627 NA 
HETATM    6  H1  UNL     1     -13.368  13.058  63.343  1.00  0.00     0.000 HD 
HETATM    7  H2  UNL     1     -12.477  14.547  62.947  1.00  0.00     0.000 HD 
HETATM    8  N   UNL     1     -12.645  13.744  63.553  1.00  0.00    -0.808 NA 
HETATM    9  H   UNL     1     -12.457  10.625  67.140  1.00  0.00     0.000 HD 
HETATM   10  N   UNL     1     -10.954  14.452  64.955  1.00  0.00    -0.387 N  
HETATM   11  C   UNL     1     -11.481  12.393  66.615  1.00  0.00    -0.370 C  
HETATM   12  C   UNL     1     -10.585  13.318  67.051  1.00  0.00    -0.259 C  
HETATM   13  N   UNL     1     -12.163  12.517  65.431  1.00  0.00    -0.578 NA 
HETATM   14  C   UNL     1     -10.260  14.437  66.123  1.00  0.00    -0.306 C  
HETATM   15  N   UNL     1     -10.128  13.378  68.374  1.00  0.00    -0.245 NA 
HETATM   16  H   UNL     1      -9.266  13.868  68.611  1.00  0.00     0.000 HD 
HETATM   17  O   UNL     1      -9.483  15.339  66.439  1.00  0.00    -0.255 OA 
ENDROOT
BRANCH   1  18
HETATM   18  C   UNL     1     -12.130  13.616  69.879  1.00  0.00    -0.341 C  
HETATM   19  O   UNL     1     -12.805  13.128  71.045  1.00  0.00    -0.296 OA 
HETATM   20  H   UNL     1     -13.527  13.681  71.323  1.00  0.00     0.000 HD 
BRANCH  18  21
HETATM   21  C   UNL     1     -11.702  15.069  70.172  1.00  0.00    -0.299 C  
HETATM   22  C   UNL     1     -12.307  15.598  71.475  1.00  0.00    -0.490 C  
HETATM   23  O   UNL     1     -12.085  15.919  69.093  1.00  0.00    -0.487 OA 
HETATM   24  H   UNL     1     -11.822  16.814  69.274  1.00  0.00     0.000 HD 
ENDBRANCH  18  21
ENDBRANCH   1  18
TORSDOF 2
ENDMDL
MODEL       20
REMARK 921   NORMALIZED FREE ENERGY PREDICTED BY IDOCK:   -5.70 KCAL/MOL
REMARK 922        TOTAL FREE ENERGY PREDICTED BY IDOCK:   -6.85 KCAL/MOL
REMARK 923 INTER-LIGAND FREE ENERGY PREDICTED BY IDOCK:   -6.35 KCAL/MOL
REMARK 924 INTRA-LIGAND FREE ENERGY PREDICTED BY IDOCK:   -0.50 KCAL/MOL
REMARK 927      BINDING AFFINITY PREDICTED BY RF-SCORE:    0.00 PKD
ROOT
HETATM    1  C   UNL     1     -11.928  12.627  65.474  1.00  0.00    -0.456 C  
HETATM    2  C   UNL     1     -12.020  12.650  67.031  1.00  0.00    -0.260 C  
HETATM    3  H   UNL     1     -10.209  18.065  65.046  1.00  0.00     0.000 HD 
HETATM    4  C   UNL     1      -9.902  16.927  66.730  1.00  0.00    -0.279 C  
HETATM    5  N   UNL     1     -11.341  13.807  67.626  1.00  0.00    -0.290 NA 
HETATM    6  H1  UNL     1      -8.576  17.609  68.102  1.00  0.00     0.000 HD 
HETATM    7  H2  UNL     1      -8.693  18.614  66.638  1.00  0.00     0.000 HD 
HETATM    8  N   UNL     1      -8.977  17.802  67.185  1.00  0.00    -0.242 NA 
HETATM    9  H   UNL     1     -11.039  13.755  68.598  1.00  0.00     0.000 HD 
HETATM   10  N   UNL     1     -10.436  17.185  65.508  1.00  0.00    -0.235 N  
HETATM   11  C   UNL     1     -11.095  14.976  66.907  1.00  0.00    -0.331 C  
HETATM   12  C   UNL     1     -11.590  15.072  65.644  1.00  0.00    -0.188 C  
HETATM   13  N   UNL     1     -10.232  15.899  67.440  1.00  0.00    -0.264 NA 
HETATM   14  C   UNL     1     -11.262  16.308  64.880  1.00  0.00    -0.236 C  
HETATM   15  N   UNL     1     -12.200  14.002  64.976  1.00  0.00    -0.412 NA 
HETATM   16  H   UNL     1     -12.810  14.160  64.175  1.00  0.00     0.000 HD 
HETATM   17  O   UNL     1     -11.639  16.474  63.719  1.00  0.00    -1.109 OA 
ENDROOT
BRANCH   1  18
HETATM   18  C   UNL     1     -10.564  12.090  64.916  1.00  0.00    -0.291 C  
HETATM   19  O   UNL     1      -9.829  11.307  65.866  1.00  0.00    -0.214 OA 
HETATM   20  H   UNL     1      -9.003  10.982  65.528  1.00  0.00     0.000 HD 
BRANCH  18  21
HETATM   21  C   UNL     1     -10.725  11.233  63.643  1.00  0.00    -0.367 C  
HETATM   22  C   UNL     1      -9.511  11.339  62.717  1.00  0.00    -0.355 C  
HETATM   23  O   UNL     1     -11.898  11.625  62.933  1.00  0.00    -0.822 OA 
HETATM   24  H   UNL     1     -11.997  11.098  62.150  1.00  0.00     0.000 HD 
ENDBRANCH  18  21
ENDBRANCH   1  18
TORSDOF 2
ENDMDL
MODEL       21
REMARK 921   NORMALIZED FREE ENERGY PREDICTED BY IDOCK:   -5.68 KCAL/MOL
REMARK 922        TOTAL FREE ENERGY PREDICTED BY IDOCK:   -6.84 KCAL/MOL
REMARK 923 INTER-LIGAND FREE ENERGY PREDICTED BY IDOCK:   -6.38 KCAL/MOL
REMARK 924 INTRA-LIGAND FREE ENERGY PREDICTED BY IDOCK:   -0.46 KCAL/MOL
REMARK 927      BINDING AFFINITY PREDICTED BY RF-SCORE:    0.00 PKD
ROOT
HETATM    1  C   UNL     1     -11.288  11.897  68.355  1.00  0.00    -0.276 C  
HETATM    2  C   UNL     1     -11.253  13.197  69.216  1.00  0.00    -0.206 C  
HETATM    3  H   UNL     1     -12.489  14.621  63.471  1.00  0.00     0.000 HD 
HETATM    4  C   UNL     1     -11.529  15.527  65.048  1.00  0.00    -0.218 C  
HETATM    5  N   UNL     1     -11.181  14.417  68.403  1.00  0.00    -0.261 NA 
HETATM    6  H1  UNL     1     -10.600  17.294  64.700  1.00  0.00     0.000 HD 
HETATM    7  H2  UNL     1     -11.311  16.545  63.249  1.00  0.00     0.000 HD 
HETATM    8  N   UNL     1     -11.116  16.538  64.251  1.00  0.00    -0.933 NA 
HETATM    9  H   UNL     1     -10.815  15.270  68.825  1.00  0.00     0.000 HD 
HETATM   10  N   UNL     1     -12.218  14.521  64.449  1.00  0.00    -0.488 N  
HETATM   11  C   UNL     1     -11.597  14.451  67.073  1.00  0.00    -0.384 C  
HETATM   12  C   UNL     1     -12.176  13.337  66.550  1.00  0.00    -0.327 C  
HETATM   13  N   UNL     1     -11.255  15.539  66.311  1.00  0.00    -0.175 NA 
HETATM   14  C   UNL     1     -12.558  13.383  65.111  1.00  0.00    -0.440 C  
HETATM   15  N   UNL     1     -12.236  12.113  67.230  1.00  0.00    -0.393 NA 
HETATM   16  H   UNL     1     -12.909  11.395  66.962  1.00  0.00     0.000 HD 
HETATM   17  O   UNL     1     -13.060  12.415  64.540  1.00  0.00    -0.823 OA 
ENDROOT
BRANCH   1  18
HETATM   18  C   UNL     1      -9.886  11.437  67.823  1.00  0.00    -0.175 C  
HETATM   19  O   UNL     1      -8.826  11.635  68.767  1.00  0.00    -0.325 OA 
HETATM   20  H   UNL     1      -7.977  11.357  68.445  1.00  0.00     0.000 HD 
BRANCH  18  21
HETATM   21  C   UNL     1      -9.854   9.953  67.403  1.00  0.00    -0.179 C  
HETATM   22  C   UNL     1      -9.426   9.774  65.944  1.00  0.00    -0.285 C  
HETATM   23  O   UNL     1     -11.136   9.361  67.596  1.00  0.00    -0.488 OA 
HETATM   24  H   UNL     1     -11.116   8.447  67.337  1.00  0.00     0.000 HD 
ENDBRANCH  18  21
ENDBRANCH   1  18
TORSDOF 2
ENDMDL
MODEL       22
REMARK 921   NORMALIZED FREE ENERGY PREDICTED BY IDOCK:   -5.68 KCAL/MOL
REMARK 922        TOTAL FREE ENERGY PREDICTED BY IDOCK:   -6.83 KCAL/MOL
REMARK 923 INTER-LIGAND FREE ENERGY PREDICTED BY IDOCK:   -6.35 KCAL/MOL
REMARK 924 INTRA-LIGAND FREE ENERGY PREDICTED BY IDOCK:   -0.49 KCAL/MOL
REMARK 927      BINDING AFFINITY PREDICTED BY RF-SCORE:    0.00 PKD
ROOT
HETATM    1  C   UNL     1      -9.746  12.411  68.283  1.00  0.00    -0.218 C  
HETATM    2  C   UNL     1      -9.077  11.921  66.962  1.00  0.00    -0.191 C  
HETATM    3  H   UNL     1     -11.057  17.587  66.232  1.00  0.00     0.000 HD 
HETATM    4  C   UNL     1     -10.803  15.940  65.027  1.00  0.00    -0.426 C  
HETATM    5  N   UNL     1      -9.389  12.779  65.813  1.00  0.00    -0.458 NA 
HETATM    6  H1  UNL     1     -11.461  16.058  63.114  1.00  0.00     0.000 HD 
HETATM    7  H2  UNL     1     -11.819  17.497  64.100  1.00  0.00     0.000 HD 
HETATM    8  N   UNL     1     -11.418  16.565  63.997  1.00  0.00    -1.122 NA 
HETATM    9  H   UNL     1      -9.309  12.391  64.873  1.00  0.00     0.000 HD 
HETATM   10  N   UNL     1     -10.745  16.616  66.204  1.00  0.00    -0.198 N  
HETATM   11  C   UNL     1      -9.791  14.105  65.962  1.00  0.00    -0.309 C  
HETATM   12  C   UNL     1      -9.798  14.640  67.212  1.00  0.00    -0.231 C  
HETATM   13  N   UNL     1     -10.315  14.753  64.872  1.00  0.00    -0.388 NA 
HETATM   14  C   UNL     1     -10.287  16.041  67.347  1.00  0.00    -0.294 C  
HETATM   15  N   UNL     1      -9.570  13.885  68.370  1.00  0.00    -0.218 NA 
HETATM   16  H   UNL     1      -9.293  14.333  69.243  1.00  0.00     0.000 HD 
HETATM   17  O   UNL     1     -10.359  16.602  68.441  1.00  0.00    -0.266 OA 
ENDROOT
BRANCH   1  18
HETATM   18  C   UNL     1     -11.257  12.019  68.426  1.00  0.00    -0.262 C  
HETATM   19  O   UNL     1     -11.811  11.443  67.236  1.00  0.00    -0.594 OA 
HETATM   20  H   UNL     1     -12.727  11.206  67.322  1.00  0.00     0.000 HD 
BRANCH  18  21
HETATM   21  C   UNL     1     -11.521  11.029  69.579  1.00  0.00    -0.299 C  
HETATM   22  C   UNL     1     -12.299  11.674  70.729  1.00  0.00    -0.454 C  
HETATM   23  O   UNL     1     -10.287  10.513  70.074  1.00  0.00    -0.419 OA 
HETATM   24  H   UNL     1     -10.450   9.904  70.784  1.00  0.00     0.000 HD 
ENDBRANCH  18  21
ENDBRANCH   1  18
TORSDOF 2
ENDMDL
MODEL       23
REMARK 921   NORMALIZED FREE ENERGY PREDICTED BY IDOCK:   -5.66 KCAL/MOL
REMARK 922        TOTAL FREE ENERGY PREDICTED BY IDOCK:   -6.81 KCAL/MOL
REMARK 923 INTER-LIGAND FREE ENERGY PREDICTED BY IDOCK:   -6.43 KCAL/MOL
REMARK 924 INTRA-LIGAND FREE ENERGY PREDICTED BY IDOCK:   -0.38 KCAL/MOL
REMARK 927      BINDING AFFINITY PREDICTED BY RF-SCORE:    0.00 PKD
ROOT
HETATM    1  C   UNL     1     -10.239  10.430  69.371  1.00  0.00    -0.234 C  
HETATM    2  C   UNL     1     -10.341   9.549  68.088  1.00  0.00    -0.208 C  
HETATM    3  H   UNL     1     -11.493  15.311  66.668  1.00  0.00     0.000 HD 
HETATM    4  C   UNL     1     -12.090  13.469  65.979  1.00  0.00    -0.445 C  
HETATM    5  N   UNL     1     -11.004  10.238  66.975  1.00  0.00    -0.181 NA 
HETATM    6  H1  UNL     1     -13.525  13.414  64.549  1.00  0.00     0.000 HD 
HETATM    7  H2  UNL     1     -13.153  15.049  65.148  1.00  0.00     0.000 HD 
HETATM    8  N   UNL     1     -13.000  14.041  65.158  1.00  0.00    -0.771 NA 
HETATM    9  H   UNL     1     -11.429   9.682  66.233  1.00  0.00     0.000 HD 
HETATM   10  N   UNL     1     -11.390  14.304  66.790  1.00  0.00    -0.335 N  
HETATM   11  C   UNL     1     -11.073  11.628  66.895  1.00  0.00    -0.308 C  
HETATM   12  C   UNL     1     -10.418  12.360  67.836  1.00  0.00    -0.215 C  
HETATM   13  N   UNL     1     -11.927  12.186  65.979  1.00  0.00    -0.585 NA 
HETATM   14  C   UNL     1     -10.557  13.842  67.758  1.00  0.00    -0.246 C  
HETATM   15  N   UNL     1      -9.808  11.793  68.962  1.00  0.00    -0.413 NA 
HETATM   16  H   UNL     1      -9.093  12.298  69.484  1.00  0.00     0.000 HD 
HETATM   17  O   UNL     1     -10.026  14.588  68.582  1.00  0.00    -0.227 OA 
ENDROOT
BRANCH   1  18
HETATM   18  C   UNL     1     -11.557  10.491  70.219  1.00  0.00    -0.332 C  
HETATM   19  O   UNL     1     -12.748  10.432  69.424  1.00  0.00    -0.658 OA 
HETATM   20  H   UNL     1     -13.546  10.470  69.938  1.00  0.00     0.000 HD 
BRANCH  18  21
HETATM   21  C   UNL     1     -11.653   9.368  71.273  1.00  0.00    -0.364 C  
HETATM   22  C   UNL     1     -10.274   8.888  71.734  1.00  0.00    -0.414 C  
HETATM   23  O   UNL     1     -12.387   8.265  70.748  1.00  0.00    -0.496 OA 
HETATM   24  H   UNL     1     -12.446   7.574  71.397  1.00  0.00     0.000 HD 
ENDBRANCH  18  21
ENDBRANCH   1  18
TORSDOF 2
ENDMDL
MODEL       24
REMARK 921   NORMALIZED FREE ENERGY PREDICTED BY IDOCK:   -5.62 KCAL/MOL
REMARK 922        TOTAL FREE ENERGY PREDICTED BY IDOCK:   -6.77 KCAL/MOL
REMARK 923 INTER-LIGAND FREE ENERGY PREDICTED BY IDOCK:   -6.26 KCAL/MOL
REMARK 924 INTRA-LIGAND FREE ENERGY PREDICTED BY IDOCK:   -0.51 KCAL/MOL
REMARK 927      BINDING AFFINITY PREDICTED BY RF-SCORE:    0.00 PKD
ROOT
HETATM    1  C   UNL     1      -9.941  12.998  66.186  1.00  0.00    -0.278 C  
HETATM    2  C   UNL     1     -10.431  13.334  64.744  1.00  0.00    -0.384 C  
HETATM    3  H   UNL     1      -8.690  18.419  67.512  1.00  0.00     0.000 HD 
HETATM    4  C   UNL     1     -10.080  17.912  66.084  1.00  0.00    -0.320 C  
HETATM    5  N   UNL     1     -10.671  14.768  64.543  1.00  0.00    -0.605 NA 
HETATM    6  H1  UNL     1     -11.349  19.356  65.445  1.00  0.00     0.000 HD 
HETATM    7  H2  UNL     1     -10.254  19.872  66.751  1.00  0.00     0.000 HD 
HETATM    8  N   UNL     1     -10.598  19.161  66.106  1.00  0.00    -0.452 NA 
HETATM    9  H   UNL     1     -11.298  15.062  63.795  1.00  0.00     0.000 HD 
HETATM   10  N   UNL     1      -9.079  17.651  66.965  1.00  0.00    -0.244 N  
HETATM   11  C   UNL     1     -10.071  15.742  65.339  1.00  0.00    -0.302 C  
HETATM   12  C   UNL     1      -9.161  15.344  66.268  1.00  0.00    -0.320 C  
HETATM   13  N   UNL     1     -10.545  17.027  65.264  1.00  0.00    -0.655 NA 
HETATM   14  C   UNL     1      -8.579  16.400  67.143  1.00  0.00    -0.181 C  
HETATM   15  N   UNL     1      -8.909  13.999  66.568  1.00  0.00    -0.466 NA 
HETATM   16  H   UNL     1      -8.047  13.715  67.033  1.00  0.00     0.000 HD 
HETATM   17  O   UNL     1      -7.770  16.135  68.033  1.00  0.00    -0.133 OA 
ENDROOT
BRANCH   1  18
HETATM   18  C   UNL     1     -11.084  12.937  67.258  1.00  0.00    -0.274 C  
HETATM   19  O   UNL     1     -12.084  11.952  66.968  1.00  0.00    -0.600 OA 
HETATM   20  H   UNL     1     -12.777  11.915  67.617  1.00  0.00     0.000 HD 
BRANCH  18  21
HETATM   21  C   UNL     1     -10.565  12.657  68.683  1.00  0.00    -0.222 C  
HETATM   22  C   UNL     1     -11.593  11.909  69.537  1.00  0.00    -0.394 C  
HETATM   23  O   UNL     1     -10.216  13.880  69.327  1.00  0.00    -0.431 OA 
HETATM   24  H   UNL     1      -9.897  13.707  70.205  1.00  0.00     0.000 HD 
ENDBRANCH  18  21
ENDBRANCH   1  18
TORSDOF 2
ENDMDL
MODEL       25
REMARK 921   NORMALIZED FREE ENERGY PREDICTED BY IDOCK:   -5.60 KCAL/MOL
REMARK 922        TOTAL FREE ENERGY PREDICTED BY IDOCK:   -6.75 KCAL/MOL
REMARK 923 INTER-LIGAND FREE ENERGY PREDICTED BY IDOCK:   -6.28 KCAL/MOL
REMARK 924 INTRA-LIGAND FREE ENERGY PREDICTED BY IDOCK:   -0.47 KCAL/MOL
REMARK 927      BINDING AFFINITY PREDICTED BY RF-SCORE:    0.00 PKD
ROOT
HETATM    1  C   UNL     1     -12.261  14.181  64.816  1.00  0.00    -0.440 C  
HETATM    2  C   UNL     1     -12.743  13.471  63.514  1.00  0.00     0.248 C  
HETATM    3  H   UNL     1      -8.765   9.931  66.375  1.00  0.00     0.000 HD 
HETATM    4  C   UNL     1      -9.310  10.268  64.422  1.00  0.00    -0.277 C  
HETATM    5  N   UNL     1     -11.895  12.334  63.136  1.00  0.00    -0.728 NA 
HETATM    6  H1  UNL     1      -8.240   9.345  62.969  1.00  0.00     0.000 HD 
HETATM    7  H2  UNL     1      -7.624   9.069  64.617  1.00  0.00     0.000 HD 
HETATM    8  N   UNL     1      -8.297   9.490  63.977  1.00  0.00    -0.158 NA 
HETATM    9  H   UNL     1     -11.894  12.022  62.165  1.00  0.00     0.000 HD 
HETATM   10  N   UNL     1      -9.387  10.460  65.764  1.00  0.00    -0.175 N  
HETATM   11  C   UNL     1     -11.092  11.667  64.058  1.00  0.00    -0.384 C  
HETATM   12  C   UNL     1     -11.177  12.026  65.367  1.00  0.00    -0.322 C  
HETATM   13  N   UNL     1     -10.140  10.800  63.585  1.00  0.00    -0.335 NA 
HETATM   14  C   UNL     1     -10.265  11.334  66.321  1.00  0.00    -0.236 C  
HETATM   15  N   UNL     1     -11.914  13.132  65.812  1.00  0.00    -0.400 NA 
HETATM   16  H   UNL     1     -12.203  13.214  66.786  1.00  0.00     0.000 HD 
HETATM   17  O   UNL     1     -10.247  11.613  67.520  1.00  0.00    -0.191 OA 
ENDROOT
BRANCH   1  18
HETATM   18  C   UNL     1     -11.062  15.170  64.606  1.00  0.00    -0.324 C  
HETATM   19  O   UNL     1     -11.433  16.378  63.931  1.00  0.00    -1.569 OA 
HETATM   20  H   UNL     1     -10.706  16.977  63.803  1.00  0.00     0.000 HD 
BRANCH  18  21
HETATM   21  C   UNL     1     -10.372  15.576  65.925  1.00  0.00    -0.347 C  
HETATM   22  C   UNL     1      -9.860  17.018  65.890  1.00  0.00    -0.202 C  
HETATM   23  O   UNL     1      -9.285  14.695  66.201  1.00  0.00    -0.441 OA 
HETATM   24  H   UNL     1      -8.861  14.945  67.013  1.00  0.00     0.000 HD 
ENDBRANCH  18  21
ENDBRANCH   1  18
TORSDOF 2
ENDMDL
MODEL       26
REMARK 921   NORMALIZED FREE ENERGY PREDICTED BY IDOCK:   -5.60 KCAL/MOL
REMARK 922        TOTAL FREE ENERGY PREDICTED BY IDOCK:   -6.74 KCAL/MOL
REMARK 923 INTER-LIGAND FREE ENERGY PREDICTED BY IDOCK:   -6.52 KCAL/MOL
REMARK 924 INTRA-LIGAND FREE ENERGY PREDICTED BY IDOCK:   -0.22 KCAL/MOL
REMARK 927      BINDING AFFINITY PREDICTED BY RF-SCORE:    0.00 PKD
ROOT
HETATM    1  C   UNL     1     -10.262  15.849  67.543  1.00  0.00    -0.269 C  
HETATM    2  C   UNL     1      -9.011  15.588  68.437  1.00  0.00    -0.189 C  
HETATM    3  H   UNL     1      -9.424  21.498  67.232  1.00  0.00     0.000 HD 
HETATM    4  C   UNL     1      -7.902  20.162  67.585  1.00  0.00    -0.300 C  
HETATM    5  N   UNL     1      -8.088  16.729  68.473  1.00  0.00    -0.229 NA 
HETATM    6  H1  UNL     1      -5.997  20.824  67.383  1.00  0.00     0.000 HD 
HETATM    7  H2  UNL     1      -7.238  22.028  66.957  1.00  0.00     0.000 HD 
HETATM    8  N   UNL     1      -6.974  21.097  67.278  1.00  0.00    -0.493 NA 
HETATM    9  H   UNL     1      -7.112  16.566  68.721  1.00  0.00     0.000 HD 
HETATM   10  N   UNL     1      -9.203  20.526  67.446  1.00  0.00    -0.377 N  
HETATM   11  C   UNL     1      -8.499  18.028  68.180  1.00  0.00    -0.269 C  
HETATM   12  C   UNL     1      -9.820  18.249  67.948  1.00  0.00    -0.317 C  
HETATM   13  N   UNL     1      -7.537  18.985  67.977  1.00  0.00    -0.263 NA 
HETATM   14  C   UNL     1     -10.221  19.636  67.581  1.00  0.00    -0.435 C  
HETATM   15  N   UNL     1     -10.763  17.218  67.838  1.00  0.00    -0.375 NA 
HETATM   16  H   UNL     1     -11.759  17.400  67.957  1.00  0.00     0.000 HD 
HETATM   17  O   UNL     1     -11.390  19.928  67.323  1.00  0.00    -0.058 OA 
ENDROOT
BRANCH   1  18
HETATM   18  C   UNL     1     -10.007  15.666  66.007  1.00  0.00    -0.333 C  
HETATM   19  O   UNL     1      -9.317  14.452  65.685  1.00  0.00    -0.527 OA 
HETATM   20  H   UNL     1      -9.163  14.341  64.754  1.00  0.00     0.000 HD 
BRANCH  18  21
HETATM   21  C   UNL     1     -11.302  15.694  65.169  1.00  0.00    -0.198 C  
HETATM   22  C   UNL     1     -11.673  14.309  64.632  1.00  0.00    -0.439 C  
HETATM   23  O   UNL     1     -11.162  16.602  64.079  1.00  0.00    -1.449 OA 
HETATM   24  H   UNL     1     -11.960  16.618  63.564  1.00  0.00     0.000 HD 
ENDBRANCH  18  21
ENDBRANCH   1  18
TORSDOF 2
ENDMDL
MODEL       27
REMARK 921   NORMALIZED FREE ENERGY PREDICTED BY IDOCK:   -5.59 KCAL/MOL
REMARK 922        TOTAL FREE ENERGY PREDICTED BY IDOCK:   -6.73 KCAL/MOL
REMARK 923 INTER-LIGAND FREE ENERGY PREDICTED BY IDOCK:   -6.27 KCAL/MOL
REMARK 924 INTRA-LIGAND FREE ENERGY PREDICTED BY IDOCK:   -0.46 KCAL/MOL
REMARK 927      BINDING AFFINITY PREDICTED BY RF-SCORE:    0.00 PKD
ROOT
HETATM    1  C   UNL     1     -10.493  18.273  66.165  1.00  0.00    -0.383 C  
HETATM    2  C   UNL     1     -11.024  18.731  67.558  1.00  0.00    -0.207 C  
HETATM    3  H   UNL     1      -5.113  19.936  67.165  1.00  0.00     0.000 HD 
HETATM    4  C   UNL     1      -6.428  19.447  68.668  1.00  0.00    -0.258 C  
HETATM    5  N   UNL     1      -9.947  19.003  68.517  1.00  0.00    -0.402 NA 
HETATM    6  H1  UNL     1      -5.669  19.125  70.519  1.00  0.00     0.000 HD 
HETATM    7  H2  UNL     1      -4.439  19.442  69.271  1.00  0.00     0.000 HD 
HETATM    8  N   UNL     1      -5.412  19.331  69.554  1.00  0.00    -0.202 NA 
HETATM    9  H   UNL     1     -10.155  18.969  69.515  1.00  0.00     0.000 HD 
HETATM   10  N   UNL     1      -6.086  19.721  67.382  1.00  0.00    -0.188 N  
HETATM   11  C   UNL     1      -8.649  19.307  68.112  1.00  0.00    -0.327 C  
HETATM   12  C   UNL     1      -8.406  19.448  66.781  1.00  0.00    -0.296 C  
HETATM   13  N   UNL     1      -7.651  19.286  69.053  1.00  0.00    -0.346 NA 
HETATM   14  C   UNL     1      -6.998  19.717  66.374  1.00  0.00    -0.226 C  
HETATM   15  N   UNL     1      -9.354  19.154  65.793  1.00  0.00    -0.322 NA 
HETATM   16  H   UNL     1      -9.266  19.532  64.850  1.00  0.00     0.000 HD 
HETATM   17  O   UNL     1      -6.673  19.829  65.192  1.00  0.00    -0.283 OA 
ENDROOT
BRANCH   1  18
HETATM   18  C   UNL     1     -10.077  16.763  66.097  1.00  0.00    -0.345 C  
HETATM   19  O   UNL     1     -10.007  16.133  67.382  1.00  0.00    -0.239 OA 
HETATM   20  H   UNL     1      -9.755  15.218  67.341  1.00  0.00     0.000 HD 
BRANCH  18  21
HETATM   21  C   UNL     1     -11.020  15.912  65.221  1.00  0.00    -0.324 C  
HETATM   22  C   UNL     1     -10.419  14.545  64.883  1.00  0.00    -0.435 C  
HETATM   23  O   UNL     1     -11.325  16.606  64.013  1.00  0.00    -1.486 OA 
HETATM   24  H   UNL     1     -11.905  16.082  63.474  1.00  0.00     0.000 HD 
ENDBRANCH  18  21
ENDBRANCH   1  18
TORSDOF 2
ENDMDL
MODEL       28
REMARK 921   NORMALIZED FREE ENERGY PREDICTED BY IDOCK:   -5.59 KCAL/MOL
REMARK 922        TOTAL FREE ENERGY PREDICTED BY IDOCK:   -6.73 KCAL/MOL
REMARK 923 INTER-LIGAND FREE ENERGY PREDICTED BY IDOCK:   -6.43 KCAL/MOL
REMARK 924 INTRA-LIGAND FREE ENERGY PREDICTED BY IDOCK:   -0.30 KCAL/MOL
REMARK 927      BINDING AFFINITY PREDICTED BY RF-SCORE:    0.00 PKD
ROOT
HETATM    1  C   UNL     1     -10.842  13.082  65.959  1.00  0.00    -0.272 C  
HETATM    2  C   UNL     1     -10.864  14.290  66.945  1.00  0.00    -0.298 C  
HETATM    3  H   UNL     1     -11.614   9.154  70.045  1.00  0.00     0.000 HD 
HETATM    4  C   UNL     1     -12.228  11.106  70.243  1.00  0.00    -0.352 C  
HETATM    5  N   UNL     1     -11.388  13.936  68.270  1.00  0.00    -0.277 NA 
HETATM    6  H1  UNL     1     -13.525  11.542  71.737  1.00  0.00     0.000 HD 
HETATM    7  H2  UNL     1     -13.136   9.810  71.590  1.00  0.00     0.000 HD 
HETATM    8  N   UNL     1     -13.030  10.777  71.280  1.00  0.00    -0.400 NA 
HETATM    9  H   UNL     1     -11.767  14.674  68.863  1.00  0.00     0.000 HD 
HETATM   10  N   UNL     1     -11.569  10.086  69.634  1.00  0.00    -0.152 N  
HETATM   11  C   UNL     1     -11.386  12.626  68.745  1.00  0.00    -0.289 C  
HETATM   12  C   UNL     1     -10.788  11.667  67.988  1.00  0.00    -0.215 C  
HETATM   13  N   UNL     1     -12.125  12.338  69.864  1.00  0.00    -0.282 NA 
HETATM   14  C   UNL     1     -10.851  10.267  68.494  1.00  0.00    -0.240 C  
HETATM   15  N   UNL     1     -10.313  11.900  66.691  1.00  0.00    -0.207 NA 
HETATM   16  H   UNL     1      -9.626  11.279  66.263  1.00  0.00     0.000 HD 
HETATM   17  O   UNL     1     -10.366   9.326  67.865  1.00  0.00    -0.202 OA 
ENDROOT
BRANCH   1  18
HETATM   18  C   UNL     1     -12.228  12.758  65.303  1.00  0.00    -0.483 C  
HETATM   19  O   UNL     1     -13.215  13.773  65.527  1.00  0.00    -0.662 OA 
HETATM   20  H   UNL     1     -14.055  13.577  65.129  1.00  0.00     0.000 HD 
BRANCH  18  21
HETATM   21  C   UNL     1     -12.140  12.533  63.779  1.00  0.00    -0.529 C  
HETATM   22  C   UNL     1     -10.770  11.999  63.351  1.00  0.00    -0.475 C  
HETATM   23  O   UNL     1     -12.410  13.750  63.087  1.00  0.00    -1.099 OA 
HETATM   24  H   UNL     1     -12.356  13.611  62.149  1.00  0.00     0.000 HD 
ENDBRANCH  18  21
ENDBRANCH   1  18
TORSDOF 2
ENDMDL
MODEL       29
REMARK 921   NORMALIZED FREE ENERGY PREDICTED BY IDOCK:   -5.45 KCAL/MOL
REMARK 922        TOTAL FREE ENERGY PREDICTED BY IDOCK:   -6.58 KCAL/MOL
REMARK 923 INTER-LIGAND FREE ENERGY PREDICTED BY IDOCK:   -6.12 KCAL/MOL
REMARK 924 INTRA-LIGAND FREE ENERGY PREDICTED BY IDOCK:   -0.45 KCAL/MOL
REMARK 927      BINDING AFFINITY PREDICTED BY RF-SCORE:    0.00 PKD
ROOT
HETATM    1  C   UNL     1      -9.903  14.822  67.372  1.00  0.00    -0.222 C  
HETATM    2  C   UNL     1     -11.385  14.983  67.833  1.00  0.00    -0.333 C  
HETATM    3  H   UNL     1     -11.067  10.753  63.525  1.00  0.00     0.000 HD 
HETATM    4  C   UNL     1     -12.458  12.134  64.145  1.00  0.00    -0.396 C  
HETATM    5  N   UNL     1     -12.340  14.357  66.911  1.00  0.00    -0.547 NA 
HETATM    6  H1  UNL     1     -14.149  12.331  63.044  1.00  0.00     0.000 HD 
HETATM    7  H2  UNL     1     -12.967  11.184  62.368  1.00  0.00     0.000 HD 
HETATM    8  N   UNL     1     -13.252  11.849  63.087  1.00  0.00    -0.431 NA 
HETATM    9  H   UNL     1     -13.307  14.679  66.910  1.00  0.00     0.000 HD 
HETATM   10  N   UNL     1     -11.263  11.491  64.201  1.00  0.00    -0.346 N  
HETATM   11  C   UNL     1     -11.970  13.337  66.036  1.00  0.00    -0.423 C  
HETATM   12  C   UNL     1     -10.703  12.848  66.115  1.00  0.00    -0.272 C  
HETATM   13  N   UNL     1     -12.840  12.992  65.033  1.00  0.00    -0.753 NA 
HETATM   14  C   UNL     1     -10.319  11.799  65.129  1.00  0.00    -0.279 C  
HETATM   15  N   UNL     1      -9.710  13.418  66.922  1.00  0.00    -0.246 NA 
HETATM   16  H   UNL     1      -8.882  12.887  67.191  1.00  0.00     0.000 HD 
HETATM   17  O   UNL     1      -9.187  11.316  65.102  1.00  0.00    -0.210 OA 
ENDROOT
BRANCH   1  18
HETATM   18  C   UNL     1      -9.460  15.833  66.258  1.00  0.00    -0.317 C  
HETATM   19  O   UNL     1     -10.538  16.629  65.750  1.00  0.00    -0.338 OA 
HETATM   20  H   UNL     1     -10.270  17.241  65.075  1.00  0.00     0.000 HD 
BRANCH  18  21
HETATM   21  C   UNL     1      -8.353  16.802  66.723  1.00  0.00    -0.237 C  
HETATM   22  C   UNL     1      -8.780  17.625  67.941  1.00  0.00    -0.245 C  
HETATM   23  O   UNL     1      -7.994  17.681  65.660  1.00  0.00    -0.529 OA 
HETATM   24  H   UNL     1      -7.313  18.278  65.946  1.00  0.00     0.000 HD 
ENDBRANCH  18  21
ENDBRANCH   1  18
TORSDOF 2
ENDMDL
MODEL       30
REMARK 921   NORMALIZED FREE ENERGY PREDICTED BY IDOCK:   -5.43 KCAL/MOL
REMARK 922        TOTAL FREE ENERGY PREDICTED BY IDOCK:   -6.56 KCAL/MOL
REMARK 923 INTER-LIGAND FREE ENERGY PREDICTED BY IDOCK:   -6.07 KCAL/MOL
REMARK 924 INTRA-LIGAND FREE ENERGY PREDICTED BY IDOCK:   -0.49 KCAL/MOL
REMARK 927      BINDING AFFINITY PREDICTED BY RF-SCORE:    0.00 PKD
ROOT
HETATM    1  C   UNL     1      -9.324  19.099  67.410  1.00  0.00    -0.304 C  
HETATM    2  C   UNL     1     -10.258  19.332  66.182  1.00  0.00    -0.470 C  
HETATM    3  H   UNL     1     -10.141  13.439  67.529  1.00  0.00     0.000 HD 
HETATM    4  C   UNL     1     -10.369  14.565  65.823  1.00  0.00    -0.331 C  
HETATM    5  N   UNL     1     -10.585  18.091  65.470  1.00  0.00    -0.601 NA 
HETATM    6  H1  UNL     1     -10.456  13.586  64.051  1.00  0.00     0.000 HD 
HETATM    7  H2  UNL     1     -10.157  12.531  65.453  1.00  0.00     0.000 HD 
HETATM    8  N   UNL     1     -10.321  13.454  65.052  1.00  0.00    -0.346 NA 
HETATM    9  H   UNL     1     -10.881  18.145  64.496  1.00  0.00     0.000 HD 
HETATM   10  N   UNL     1     -10.188  14.388  67.158  1.00  0.00    -0.256 N  
HETATM   11  C   UNL     1     -10.503  16.840  66.080  1.00  0.00    -0.293 C  
HETATM   12  C   UNL     1     -10.204  16.787  67.405  1.00  0.00    -0.288 C  
HETATM   13  N   UNL     1     -10.564  15.724  65.285  1.00  0.00    -0.409 NA 
HETATM   14  C   UNL     1     -10.068  15.435  68.016  1.00  0.00    -0.226 C  
HETATM   15  N   UNL     1      -9.825  17.911  68.151  1.00  0.00    -0.315 NA 
HETATM   16  H   UNL     1      -9.889  17.914  69.169  1.00  0.00     0.000 HD 
HETATM   17  O   UNL     1      -9.770  15.284  69.201  1.00  0.00    -0.218 OA 
ENDROOT
BRANCH   1  18
HETATM   18  C   UNL     1      -7.808  18.933  67.045  1.00  0.00    -0.243 C  
HETATM   19  O   UNL     1      -7.566  18.871  65.634  1.00  0.00    -0.485 OA 
HETATM   20  H   UNL     1      -6.647  18.770  65.413  1.00  0.00     0.000 HD 
BRANCH  18  21
HETATM   21  C   UNL     1      -6.921  20.059  67.613  1.00  0.00    -0.261 C  
HETATM   22  C   UNL     1      -6.777  19.971  69.135  1.00  0.00    -0.326 C  
HETATM   23  O   UNL     1      -7.459  21.332  67.262  1.00  0.00    -0.698 OA 
HETATM   24  H   UNL     1      -6.912  22.025  67.612  1.00  0.00     0.000 HD 
ENDBRANCH  18  21
ENDBRANCH   1  18
TORSDOF 2
ENDMDL
MODEL       31
REMARK 921   NORMALIZED FREE ENERGY PREDICTED BY IDOCK:   -5.43 KCAL/MOL
REMARK 922        TOTAL FREE ENERGY PREDICTED BY IDOCK:   -6.56 KCAL/MOL
REMARK 923 INTER-LIGAND FREE ENERGY PREDICTED BY IDOCK:   -6.04 KCAL/MOL
REMARK 924 INTRA-LIGAND FREE ENERGY PREDICTED BY IDOCK:   -0.52 KCAL/MOL
REMARK 927      BINDING AFFINITY PREDICTED BY RF-SCORE:    0.00 PKD
ROOT
HETATM    1  C   UNL     1     -10.079  15.301  68.995  1.00  0.00    -0.239 C  
HETATM    2  C   UNL     1      -9.602  14.770  67.608  1.00  0.00    -0.208 C  
HETATM    3  H   UNL     1     -10.418  20.753  67.300  1.00  0.00     0.000 HD 
HETATM    4  C   UNL     1     -10.575  19.168  65.999  1.00  0.00    -0.442 C  
HETATM    5  N   UNL     1      -9.796  15.744  66.527  1.00  0.00    -0.255 NA 
HETATM    6  H1  UNL     1     -11.303  19.536  64.145  1.00  0.00     0.000 HD 
HETATM    7  H2  UNL     1     -11.302  20.953  65.223  1.00  0.00     0.000 HD 
HETATM    8  N   UNL     1     -11.107  19.968  65.047  1.00  0.00     0.024 NA 
HETATM    9  H   UNL     1      -9.851  15.409  65.566  1.00  0.00     0.000 HD 
HETATM   10  N   UNL     1     -10.314  19.743  67.202  1.00  0.00    -0.436 N  
HETATM   11  C   UNL     1      -9.909  17.112  66.769  1.00  0.00    -0.285 C  
HETATM   12  C   UNL     1      -9.735  17.558  68.042  1.00  0.00    -0.287 C  
HETATM   13  N   UNL     1     -10.351  17.919  65.752  1.00  0.00    -0.615 NA 
HETATM   14  C   UNL     1      -9.918  19.017  68.280  1.00  0.00    -0.394 C  
HETATM   15  N   UNL     1      -9.601  16.701  69.143  1.00  0.00    -0.243 NA 
HETATM   16  H   UNL     1      -9.189  17.027  70.016  1.00  0.00     0.000 HD 
HETATM   17  O   UNL     1      -9.811  19.511  69.404  1.00  0.00    -0.379 OA 
ENDROOT
BRANCH   1  18
HETATM   18  C   UNL     1     -11.628  15.213  69.221  1.00  0.00    -0.324 C  
HETATM   19  O   UNL     1     -12.295  14.371  68.271  1.00  0.00    -0.604 OA 
HETATM   20  H   UNL     1     -13.234  14.318  68.408  1.00  0.00     0.000 HD 
BRANCH  18  21
HETATM   21  C   UNL     1     -12.008  14.707  70.628  1.00  0.00    -0.315 C  
HETATM   22  C   UNL     1     -13.431  15.112  71.024  1.00  0.00    -0.493 C  
HETATM   23  O   UNL     1     -11.087  15.208  71.594  1.00  0.00    -0.548 OA 
HETATM   24  H   UNL     1     -11.321  14.896  72.460  1.00  0.00     0.000 HD 
ENDBRANCH  18  21
ENDBRANCH   1  18
TORSDOF 2
ENDMDL
MODEL       32
REMARK 921   NORMALIZED FREE ENERGY PREDICTED BY IDOCK:   -5.41 KCAL/MOL
REMARK 922        TOTAL FREE ENERGY PREDICTED BY IDOCK:   -6.53 KCAL/MOL
REMARK 923 INTER-LIGAND FREE ENERGY PREDICTED BY IDOCK:   -6.18 KCAL/MOL
REMARK 924 INTRA-LIGAND FREE ENERGY PREDICTED BY IDOCK:   -0.35 KCAL/MOL
REMARK 927      BINDING AFFINITY PREDICTED BY RF-SCORE:    0.00 PKD
ROOT
HETATM    1  C   UNL     1     -10.744  12.953  66.184  1.00  0.00    -0.272 C  
HETATM    2  C   UNL     1      -9.327  12.342  66.409  1.00  0.00    -0.219 C  
HETATM    3  H   UNL     1      -9.480  17.946  68.671  1.00  0.00     0.000 HD 
HETATM    4  C   UNL     1      -8.056  16.731  67.819  1.00  0.00    -0.179 C  
HETATM    5  N   UNL     1      -8.323  13.348  66.776  1.00  0.00    -0.420 NA 
HETATM    6  H1  UNL     1      -6.226  17.526  67.465  1.00  0.00     0.000 HD 
HETATM    7  H2  UNL     1      -7.413  18.686  68.109  1.00  0.00     0.000 HD 
HETATM    8  N   UNL     1      -7.163  17.746  67.802  1.00  0.00    -0.200 NA 
HETATM    9  H   UNL     1      -7.338  13.144  66.613  1.00  0.00     0.000 HD 
HETATM   10  N   UNL     1      -9.304  17.026  68.268  1.00  0.00    -0.247 N  
HETATM   11  C   UNL     1      -8.671  14.573  67.342  1.00  0.00    -0.199 C  
HETATM   12  C   UNL     1      -9.978  14.795  67.647  1.00  0.00    -0.226 C  
HETATM   13  N   UNL     1      -7.714  15.554  67.409  1.00  0.00    -0.175 NA 
HETATM   14  C   UNL     1     -10.328  16.135  68.197  1.00  0.00    -0.269 C  
HETATM   15  N   UNL     1     -11.009  13.919  67.283  1.00  0.00    -0.286 NA 
HETATM   16  H   UNL     1     -11.911  13.943  67.757  1.00  0.00     0.000 HD 
HETATM   17  O   UNL     1     -11.488  16.440  68.475  1.00  0.00    -0.351 OA 
ENDROOT
BRANCH   1  18
HETATM   18  C   UNL     1     -10.940  13.632  64.784  1.00  0.00    -0.378 C  
HETATM   19  O   UNL     1      -9.924  13.283  63.835  1.00  0.00    -0.753 OA 
HETATM   20  H   UNL     1     -10.043  13.694  62.987  1.00  0.00     0.000 HD 
BRANCH  18  21
HETATM   21  C   UNL     1     -12.302  13.307  64.138  1.00  0.00    -0.341 C  
HETATM   22  C   UNL     1     -12.393  11.848  63.683  1.00  0.00    -0.591 C  
HETATM   23  O   UNL     1     -12.533  14.165  63.023  1.00  0.00    -1.077 OA 
HETATM   24  H   UNL     1     -13.372  13.964  62.625  1.00  0.00     0.000 HD 
ENDBRANCH  18  21
ENDBRANCH   1  18
TORSDOF 2
ENDMDL
MODEL       33
REMARK 921   NORMALIZED FREE ENERGY PREDICTED BY IDOCK:   -5.36 KCAL/MOL
REMARK 922        TOTAL FREE ENERGY PREDICTED BY IDOCK:   -6.48 KCAL/MOL
REMARK 923 INTER-LIGAND FREE ENERGY PREDICTED BY IDOCK:   -6.01 KCAL/MOL
REMARK 924 INTRA-LIGAND FREE ENERGY PREDICTED BY IDOCK:   -0.47 KCAL/MOL
REMARK 927      BINDING AFFINITY PREDICTED BY RF-SCORE:    0.00 PKD
ROOT
HETATM    1  C   UNL     1     -12.090  13.770  66.157  1.00  0.00    -0.441 C  
HETATM    2  C   UNL     1     -12.539  14.134  64.708  1.00  0.00    -0.302 C  
HETATM    3  H   UNL     1      -8.892   9.315  64.531  1.00  0.00     0.000 HD 
HETATM    4  C   UNL     1      -9.319  10.896  63.287  1.00  0.00    -0.309 C  
HETATM    5  N   UNL     1     -11.730  13.473  63.677  1.00  0.00    -0.689 NA 
HETATM    6  H1  UNL     1      -8.221  11.089  61.595  1.00  0.00     0.000 HD 
HETATM    7  H2  UNL     1      -7.706   9.751  62.650  1.00  0.00     0.000 HD 
HETATM    8  N   UNL     1      -8.324  10.536  62.445  1.00  0.00    -0.184 NA 
HETATM    9  H   UNL     1     -11.693  13.881  62.743  1.00  0.00     0.000 HD 
HETATM   10  N   UNL     1      -9.455  10.158  64.420  1.00  0.00    -0.290 N  
HETATM   11  C   UNL     1     -11.009  12.308  63.931  1.00  0.00    -0.406 C  
HETATM   12  C   UNL     1     -11.143  11.719  65.149  1.00  0.00    -0.282 C  
HETATM   13  N   UNL     1     -10.077  11.904  63.008  1.00  0.00    -0.296 NA 
HETATM   14  C   UNL     1     -10.317  10.507  65.411  1.00  0.00    -0.222 C  
HETATM   15  N   UNL     1     -11.847  12.303  66.210  1.00  0.00    -0.581 NA 
HETATM   16  H   UNL     1     -12.182  11.742  66.992  1.00  0.00     0.000 HD 
HETATM   17  O   UNL     1     -10.347   9.921  66.494  1.00  0.00    -0.228 OA 
ENDROOT
BRANCH   1  18
HETATM   18  C   UNL     1     -10.835  14.563  66.662  1.00  0.00    -0.311 C  
HETATM   19  O   UNL     1     -10.316  15.482  65.693  1.00  0.00    -0.328 OA 
HETATM   20  H   UNL     1      -9.555  15.963  65.999  1.00  0.00     0.000 HD 
BRANCH  18  21
HETATM   21  C   UNL     1     -11.102  15.361  67.955  1.00  0.00    -0.323 C  
HETATM   22  C   UNL     1     -10.071  15.056  69.045  1.00  0.00    -0.241 C  
HETATM   23  O   UNL     1     -12.409  15.075  68.447  1.00  0.00    -0.576 OA 
HETATM   24  H   UNL     1     -12.573  15.566  69.243  1.00  0.00     0.000 HD 
ENDBRANCH  18  21
ENDBRANCH   1  18
TORSDOF 2
ENDMDL
MODEL       34
REMARK 921   NORMALIZED FREE ENERGY PREDICTED BY IDOCK:   -5.36 KCAL/MOL
REMARK 922        TOTAL FREE ENERGY PREDICTED BY IDOCK:   -6.48 KCAL/MOL
REMARK 923 INTER-LIGAND FREE ENERGY PREDICTED BY IDOCK:   -6.01 KCAL/MOL
REMARK 924 INTRA-LIGAND FREE ENERGY PREDICTED BY IDOCK:   -0.46 KCAL/MOL
REMARK 927      BINDING AFFINITY PREDICTED BY RF-SCORE:    0.00 PKD
ROOT
HETATM    1  C   UNL     1     -10.268  16.887  66.486  1.00  0.00    -0.318 C  
HETATM    2  C   UNL     1     -10.906  17.440  65.176  1.00  0.00     0.142 C  
HETATM    3  H   UNL     1     -12.410  11.623  65.843  1.00  0.00     0.000 HD 
HETATM    4  C   UNL     1     -12.083  12.896  64.262  1.00  0.00    -0.419 C  
HETATM    5  N   UNL     1     -11.397  16.379  64.288  1.00  0.00    -1.293 NA 
HETATM    6  H1  UNL     1     -12.110  12.110  62.394  1.00  0.00     0.000 HD 
HETATM    7  H2  UNL     1     -12.302  10.909  63.695  1.00  0.00     0.000 HD 
HETATM    8  N   UNL     1     -12.175  11.872  63.383  1.00  0.00    -0.518 NA 
HETATM    9  H   UNL     1     -11.509  16.581  63.295  1.00  0.00     0.000 HD 
HETATM   10  N   UNL     1     -12.170  12.578  65.580  1.00  0.00    -0.431 N  
HETATM   11  C   UNL     1     -11.715  15.106  64.756  1.00  0.00    -0.331 C  
HETATM   12  C   UNL     1     -11.657  14.878  66.095  1.00  0.00    -0.228 C  
HETATM   13  N   UNL     1     -11.908  14.105  63.838  1.00  0.00    -0.262 NA 
HETATM   14  C   UNL     1     -11.947  13.492  66.560  1.00  0.00    -0.413 C  
HETATM   15  N   UNL     1     -11.149  15.809  67.010  1.00  0.00    -0.219 NA 
HETATM   16  H   UNL     1     -11.377  15.750  68.002  1.00  0.00     0.000 HD 
HETATM   17  O   UNL     1     -11.891  13.181  67.750  1.00  0.00    -0.344 OA 
ENDROOT
BRANCH   1  18
HETATM   18  C   UNL     1      -8.796  16.372  66.320  1.00  0.00    -0.332 C  
HETATM   19  O   UNL     1      -7.924  17.331  65.707  1.00  0.00    -0.511 OA 
HETATM   20  H   UNL     1      -7.032  17.019  65.606  1.00  0.00     0.000 HD 
BRANCH  18  21
HETATM   21  C   UNL     1      -8.146  15.950  67.654  1.00  0.00    -0.144 C  
HETATM   22  C   UNL     1      -8.036  14.428  67.787  1.00  0.00    -0.166 C  
HETATM   23  O   UNL     1      -8.897  16.467  68.750  1.00  0.00    -0.225 OA 
HETATM   24  H   UNL     1      -8.497  16.206  69.571  1.00  0.00     0.000 HD 
ENDBRANCH  18  21
ENDBRANCH   1  18
TORSDOF 2
ENDMDL
MODEL       35
REMARK 921   NORMALIZED FREE ENERGY PREDICTED BY IDOCK:   -5.33 KCAL/MOL
REMARK 922        TOTAL FREE ENERGY PREDICTED BY IDOCK:   -6.44 KCAL/MOL
REMARK 923 INTER-LIGAND FREE ENERGY PREDICTED BY IDOCK:   -5.97 KCAL/MOL
REMARK 924 INTRA-LIGAND FREE ENERGY PREDICTED BY IDOCK:   -0.47 KCAL/MOL
REMARK 927      BINDING AFFINITY PREDICTED BY RF-SCORE:    0.00 PKD
ROOT
HETATM    1  C   UNL     1     -12.323   8.195  71.588  1.00  0.00    -0.314 C  
HETATM    2  C   UNL     1     -13.610   8.498  72.416  1.00  0.00    -0.279 C  
HETATM    3  H   UNL     1     -11.719  13.564  69.711  1.00  0.00     0.000 HD 
HETATM    4  C   UNL     1     -12.705  13.095  71.453  1.00  0.00    -0.297 C  
HETATM    5  N   UNL     1     -13.835   9.935  72.614  1.00  0.00    -0.561 NA 
HETATM    6  H1  UNL     1     -13.090  14.599  72.756  1.00  0.00     0.000 HD 
HETATM    7  H2  UNL     1     -12.146  15.092  71.329  1.00  0.00     0.000 HD 
HETATM    8  N   UNL     1     -12.633  14.379  71.871  1.00  0.00    -0.341 NA 
HETATM    9  H   UNL     1     -14.414  10.240  73.396  1.00  0.00     0.000 HD 
HETATM   10  N   UNL     1     -12.096  12.802  70.275  1.00  0.00    -0.342 N  
HETATM   11  C   UNL     1     -13.285  10.898  71.770  1.00  0.00    -0.408 C  
HETATM   12  C   UNL     1     -12.597  10.477  70.674  1.00  0.00    -0.369 C  
HETATM   13  N   UNL     1     -13.319  12.210  72.168  1.00  0.00    -0.466 NA 
HETATM   14  C   UNL     1     -11.972  11.527  69.822  1.00  0.00    -0.346 C  
HETATM   15  N   UNL     1     -12.285   9.133  70.435  1.00  0.00    -0.458 NA 
HETATM   16  H   UNL     1     -12.040   8.808  69.500  1.00  0.00     0.000 HD 
HETATM   17  O   UNL     1     -11.305  11.244  68.826  1.00  0.00    -0.220 OA 
ENDROOT
BRANCH   1  18
HETATM   18  C   UNL     1     -10.991   8.271  72.414  1.00  0.00    -0.368 C  
HETATM   19  O   UNL     1     -11.063   7.591  73.673  1.00  0.00    -0.573 OA 
HETATM   20  H   UNL     1     -10.257   7.637  74.173  1.00  0.00     0.000 HD 
BRANCH  18  21
HETATM   21  C   UNL     1      -9.774   7.703  71.655  1.00  0.00    -0.161 C  
HETATM   22  C   UNL     1      -8.742   8.785  71.325  1.00  0.00    -0.273 C  
HETATM   23  O   UNL     1     -10.199   7.071  70.449  1.00  0.00    -0.194 OA 
HETATM   24  H   UNL     1      -9.450   6.722  69.983  1.00  0.00     0.000 HD 
ENDBRANCH  18  21
ENDBRANCH   1  18
TORSDOF 2
ENDMDL
MODEL       36
REMARK 921   NORMALIZED FREE ENERGY PREDICTED BY IDOCK:   -5.31 KCAL/MOL
REMARK 922        TOTAL FREE ENERGY PREDICTED BY IDOCK:   -6.42 KCAL/MOL
REMARK 923 INTER-LIGAND FREE ENERGY PREDICTED BY IDOCK:   -6.16 KCAL/MOL
REMARK 924 INTRA-LIGAND FREE ENERGY PREDICTED BY IDOCK:   -0.25 KCAL/MOL
REMARK 927      BINDING AFFINITY PREDICTED BY RF-SCORE:    0.00 PKD
ROOT
HETATM    1  C   UNL     1     -12.081  13.662  67.564  1.00  0.00    -0.316 C  
HETATM    2  C   UNL     1     -11.514  13.592  69.016  1.00  0.00    -0.303 C  
HETATM    3  H   UNL     1      -7.847  16.957  65.584  1.00  0.00     0.000 HD 
HETATM    4  C   UNL     1      -7.629  15.716  67.209  1.00  0.00    -0.214 C  
HETATM    5  N   UNL     1     -10.120  14.040  69.105  1.00  0.00    -0.432 NA 
HETATM    6  H1  UNL     1      -5.748  15.324  67.853  1.00  0.00     0.000 HD 
HETATM    7  H2  UNL     1      -5.822  16.325  66.382  1.00  0.00     0.000 HD 
HETATM    8  N   UNL     1      -6.282  15.804  67.129  1.00  0.00    -0.315 NA 
HETATM    9  H   UNL     1      -9.550  13.726  69.891  1.00  0.00     0.000 HD 
HETATM   10  N   UNL     1      -8.340  16.356  66.244  1.00  0.00    -0.325 N  
HETATM   11  C   UNL     1      -9.546  14.881  68.153  1.00  0.00    -0.210 C  
HETATM   12  C   UNL     1     -10.340  15.373  67.165  1.00  0.00    -0.271 C  
HETATM   13  N   UNL     1      -8.183  15.038  68.160  1.00  0.00    -0.135 NA 
HETATM   14  C   UNL     1      -9.687  16.222  66.130  1.00  0.00    -0.329 C  
HETATM   15  N   UNL     1     -11.664  14.958  66.968  1.00  0.00    -0.314 NA 
HETATM   16  H   UNL     1     -12.319  15.528  66.433  1.00  0.00     0.000 HD 
HETATM   17  O   UNL     1     -10.317  16.688  65.179  1.00  0.00    -0.630 OA 
ENDROOT
BRANCH   1  18
HETATM   18  C   UNL     1     -11.658  12.462  66.647  1.00  0.00    -0.385 C  
HETATM   19  O   UNL     1     -12.009  11.182  67.186  1.00  0.00    -0.366 OA 
HETATM   20  H   UNL     1     -11.752  10.455  66.631  1.00  0.00     0.000 HD 
BRANCH  18  21
HETATM   21  C   UNL     1     -12.257  12.543  65.228  1.00  0.00    -0.433 C  
HETATM   22  C   UNL     1     -11.177  12.544  64.143  1.00  0.00    -0.437 C  
HETATM   23  O   UNL     1     -13.058  13.716  65.100  1.00  0.00    -0.750 OA 
HETATM   24  H   UNL     1     -13.426  13.765  64.226  1.00  0.00     0.000 HD 
ENDBRANCH  18  21
ENDBRANCH   1  18
TORSDOF 2
ENDMDL
MODEL       37
REMARK 921   NORMALIZED FREE ENERGY PREDICTED BY IDOCK:   -5.28 KCAL/MOL
REMARK 922        TOTAL FREE ENERGY PREDICTED BY IDOCK:   -6.39 KCAL/MOL
REMARK 923 INTER-LIGAND FREE ENERGY PREDICTED BY IDOCK:   -5.92 KCAL/MOL
REMARK 924 INTRA-LIGAND FREE ENERGY PREDICTED BY IDOCK:   -0.47 KCAL/MOL
REMARK 927      BINDING AFFINITY PREDICTED BY RF-SCORE:    0.00 PKD
ROOT
HETATM    1  C   UNL     1     -12.150  15.351  69.069  1.00  0.00    -0.226 C  
HETATM    2  C   UNL     1     -11.021  16.345  68.656  1.00  0.00    -0.345 C  
HETATM    3  H   UNL     1      -9.574  10.777  66.798  1.00  0.00     0.000 HD 
HETATM    4  C   UNL     1      -8.545  12.447  67.413  1.00  0.00    -0.181 C  
HETATM    5  N   UNL     1      -9.784  15.667  68.252  1.00  0.00    -0.200 NA 
HETATM    6  H1  UNL     1      -6.535  12.294  67.623  1.00  0.00     0.000 HD 
HETATM    7  H2  UNL     1      -7.342  10.768  67.186  1.00  0.00     0.000 HD 
HETATM    8  N   UNL     1      -7.377  11.764  67.403  1.00  0.00    -0.127 NA 
HETATM    9  H   UNL     1      -8.904  16.180  68.296  1.00  0.00     0.000 HD 
HETATM   10  N   UNL     1      -9.667  11.740  67.119  1.00  0.00    -0.182 N  
HETATM   11  C   UNL     1      -9.770  14.345  67.809  1.00  0.00    -0.221 C  
HETATM   12  C   UNL     1     -10.960  13.704  67.659  1.00  0.00    -0.267 C  
HETATM   13  N   UNL     1      -8.561  13.706  67.705  1.00  0.00    -0.168 NA 
HETATM   14  C   UNL     1     -10.911  12.275  67.239  1.00  0.00    -0.245 C  
HETATM   15  N   UNL     1     -12.182  14.249  68.070  1.00  0.00    -0.584 NA 
HETATM   16  H   UNL     1     -13.066  13.902  67.697  1.00  0.00     0.000 HD 
HETATM   17  O   UNL     1     -11.933  11.601  67.105  1.00  0.00    -0.614 OA 
ENDROOT
BRANCH   1  18
HETATM   18  C   UNL     1     -12.009  14.782  70.524  1.00  0.00    -0.312 C  
HETATM   19  O   UNL     1     -10.861  15.282  71.221  1.00  0.00    -0.504 OA 
HETATM   20  H   UNL     1     -10.776  14.937  72.103  1.00  0.00     0.000 HD 
BRANCH  18  21
HETATM   21  C   UNL     1     -13.241  15.065  71.407  1.00  0.00    -0.421 C  
HETATM   22  C   UNL     1     -13.809  13.788  72.033  1.00  0.00    -0.576 C  
HETATM   23  O   UNL     1     -14.257  15.708  70.641  1.00  0.00    -0.749 OA 
HETATM   24  H   UNL     1     -15.016  15.882  71.185  1.00  0.00     0.000 HD 
ENDBRANCH  18  21
ENDBRANCH   1  18
TORSDOF 2
ENDMDL
MODEL       38
REMARK 921   NORMALIZED FREE ENERGY PREDICTED BY IDOCK:   -5.28 KCAL/MOL
REMARK 922        TOTAL FREE ENERGY PREDICTED BY IDOCK:   -6.39 KCAL/MOL
REMARK 923 INTER-LIGAND FREE ENERGY PREDICTED BY IDOCK:   -5.88 KCAL/MOL
REMARK 924 INTRA-LIGAND FREE ENERGY PREDICTED BY IDOCK:   -0.51 KCAL/MOL
REMARK 927      BINDING AFFINITY PREDICTED BY RF-SCORE:    0.00 PKD
ROOT
HETATM    1  C   UNL     1     -12.090  11.514  69.672  1.00  0.00    -0.296 C  
HETATM    2  C   UNL     1     -10.714  11.220  69.000  1.00  0.00    -0.217 C  
HETATM    3  H   UNL     1     -11.563   7.393  73.603  1.00  0.00     0.000 HD 
HETATM    4  C   UNL     1      -9.947   8.287  72.699  1.00  0.00    -0.287 C  
HETATM    5  N   UNL     1      -9.848  10.367  69.823  1.00  0.00    -0.413 NA 
HETATM    6  H1  UNL     1      -8.123   8.010  73.537  1.00  0.00     0.000 HD 
HETATM    7  H2  UNL     1      -9.466   7.280  74.451  1.00  0.00     0.000 HD 
HETATM    8  N   UNL     1      -9.116   7.811  73.654  1.00  0.00    -0.271 NA 
HETATM    9  H   UNL     1      -8.841  10.390  69.666  1.00  0.00     0.000 HD 
HETATM   10  N   UNL     1     -11.271   8.022  72.855  1.00  0.00    -0.386 N  
HETATM   11  C   UNL     1     -10.356   9.526  70.812  1.00  0.00    -0.306 C  
HETATM   12  C   UNL     1     -11.705   9.429  70.945  1.00  0.00    -0.308 C  
HETATM   13  N   UNL     1      -9.477   8.969  71.706  1.00  0.00    -0.327 NA 
HETATM   14  C   UNL     1     -12.217   8.567  72.047  1.00  0.00    -0.366 C  
HETATM   15  N   UNL     1     -12.606  10.242  70.244  1.00  0.00    -0.525 NA 
HETATM   16  H   UNL     1     -13.582   9.971  70.131  1.00  0.00     0.000 HD 
HETATM   17  O   UNL     1     -13.423   8.439  72.266  1.00  0.00    -0.316 OA 
ENDROOT
BRANCH   1  18
HETATM   18  C   UNL     1     -12.049  12.641  70.761  1.00  0.00    -0.146 C  
HETATM   19  O   UNL     1     -11.629  13.912  70.249  1.00  0.00    -0.444 OA 
HETATM   20  H   UNL     1     -11.604  14.595  70.909  1.00  0.00     0.000 HD 
BRANCH  18  21
HETATM   21  C   UNL     1     -13.406  12.856  71.464  1.00  0.00    -0.173 C  
HETATM   22  C   UNL     1     -13.579  14.294  71.959  1.00  0.00    -0.520 C  
HETATM   23  O   UNL     1     -13.535  11.958  72.563  1.00  0.00    -0.578 OA 
HETATM   24  H   UNL     1     -14.371  12.090  72.996  1.00  0.00     0.000 HD 
ENDBRANCH  18  21
ENDBRANCH   1  18
TORSDOF 2
ENDMDL
MODEL       39
REMARK 921   NORMALIZED FREE ENERGY PREDICTED BY IDOCK:   -5.27 KCAL/MOL
REMARK 922        TOTAL FREE ENERGY PREDICTED BY IDOCK:   -6.37 KCAL/MOL
REMARK 923 INTER-LIGAND FREE ENERGY PREDICTED BY IDOCK:   -5.95 KCAL/MOL
REMARK 924 INTRA-LIGAND FREE ENERGY PREDICTED BY IDOCK:   -0.43 KCAL/MOL
REMARK 927      BINDING AFFINITY PREDICTED BY RF-SCORE:    0.00 PKD
ROOT
HETATM    1  C   UNL     1      -9.110  11.880  68.343  1.00  0.00    -0.167 C  
HETATM    2  C   UNL     1      -8.174  11.623  67.121  1.00  0.00    -0.165 C  
HETATM    3  H   UNL     1     -13.493  13.733  65.170  1.00  0.00     0.000 HD 
HETATM    4  C   UNL     1     -12.045  12.467  64.442  1.00  0.00    -0.424 C  
HETATM    5  N   UNL     1      -8.894  11.619  65.842  1.00  0.00    -0.378 NA 
HETATM    6  H1  UNL     1     -12.418  11.508  62.697  1.00  0.00     0.000 HD 
HETATM    7  H2  UNL     1     -13.774  12.500  63.290  1.00  0.00     0.000 HD 
HETATM    8  N   UNL     1     -12.825  12.137  63.388  1.00  0.00    -0.777 NA 
HETATM    9  H   UNL     1      -8.480  11.136  65.045  1.00  0.00     0.000 HD 
HETATM   10  N   UNL     1     -12.587  13.306  65.363  1.00  0.00    -0.488 N  
HETATM   11  C   UNL     1     -10.125  12.252  65.679  1.00  0.00    -0.252 C  
HETATM   12  C   UNL     1     -10.620  12.976  66.719  1.00  0.00    -0.262 C  
HETATM   13  N   UNL     1     -10.852  11.982  64.548  1.00  0.00    -0.297 NA 
HETATM   14  C   UNL     1     -11.963  13.595  66.535  1.00  0.00    -0.424 C  
HETATM   15  N   UNL     1     -10.032  12.992  67.990  1.00  0.00    -0.227 NA 
HETATM   16  H   UNL     1     -10.231  13.741  68.653  1.00  0.00     0.000 HD 
HETATM   17  O   UNL     1     -12.507  14.243  67.429  1.00  0.00    -0.204 OA 
ENDROOT
BRANCH   1  18
HETATM   18  C   UNL     1      -9.910  10.619  68.820  1.00  0.00    -0.191 C  
HETATM   19  O   UNL     1      -9.137   9.729  69.634  1.00  0.00    -0.189 OA 
HETATM   20  H   UNL     1      -9.622   8.965  69.923  1.00  0.00     0.000 HD 
BRANCH  18  21
HETATM   21  C   UNL     1     -11.185  10.974  69.612  1.00  0.00    -0.278 C  
HETATM   22  C   UNL     1     -11.397  10.048  70.813  1.00  0.00    -0.439 C  
HETATM   23  O   UNL     1     -12.326  10.911  68.759  1.00  0.00    -0.783 OA 
HETATM   24  H   UNL     1     -13.111  11.130  69.247  1.00  0.00     0.000 HD 
ENDBRANCH  18  21
ENDBRANCH   1  18
TORSDOF 2
ENDMDL
MODEL       40
REMARK 921   NORMALIZED FREE ENERGY PREDICTED BY IDOCK:   -5.24 KCAL/MOL
REMARK 922        TOTAL FREE ENERGY PREDICTED BY IDOCK:   -6.34 KCAL/MOL
REMARK 923 INTER-LIGAND FREE ENERGY PREDICTED BY IDOCK:   -5.88 KCAL/MOL
REMARK 924 INTRA-LIGAND FREE ENERGY PREDICTED BY IDOCK:   -0.45 KCAL/MOL
REMARK 927      BINDING AFFINITY PREDICTED BY RF-SCORE:    0.00 PKD
ROOT
HETATM    1  C   UNL     1     -11.551  10.486  69.167  1.00  0.00    -0.224 C  
HETATM    2  C   UNL     1     -11.822  11.404  70.399  1.00  0.00    -0.335 C  
HETATM    3  H   UNL     1     -11.593  14.780  65.388  1.00  0.00     0.000 HD 
HETATM    4  C   UNL     1     -11.138  15.046  67.376  1.00  0.00    -0.324 C  
HETATM    5  N   UNL     1     -11.614  12.827  70.106  1.00  0.00    -0.536 NA 
HETATM    6  H1  UNL     1     -10.259  16.789  67.918  1.00  0.00     0.000 HD 
HETATM    7  H2  UNL     1     -10.519  16.617  66.165  1.00  0.00     0.000 HD 
HETATM    8  N   UNL     1     -10.593  16.256  67.116  1.00  0.00    -0.310 NA 
HETATM    9  H   UNL     1     -11.424  13.466  70.878  1.00  0.00     0.000 HD 
HETATM   10  N   UNL     1     -11.583  14.336  66.306  1.00  0.00    -0.360 N  
HETATM   11  C   UNL     1     -11.668  13.336  68.810  1.00  0.00    -0.329 C  
HETATM   12  C   UNL     1     -12.021  12.494  67.801  1.00  0.00    -0.223 C  
HETATM   13  N   UNL     1     -11.206  14.609  68.590  1.00  0.00    -0.262 NA 
HETATM   14  C   UNL     1     -12.014  13.052  66.420  1.00  0.00    -0.402 C  
HETATM   15  N   UNL     1     -12.183  11.114  67.976  1.00  0.00    -0.567 NA 
HETATM   16  H   UNL     1     -12.716  10.558  67.308  1.00  0.00     0.000 HD 
HETATM   17  O   UNL     1     -12.289  12.361  65.438  1.00  0.00    -0.596 OA 
ENDROOT
BRANCH   1  18
HETATM   18  C   UNL     1     -10.033  10.190  68.904  1.00  0.00    -0.199 C  
HETATM   19  O   UNL     1      -9.265  10.047  70.105  1.00  0.00    -0.363 OA 
HETATM   20  H   UNL     1      -8.346   9.868  69.946  1.00  0.00     0.000 HD 
BRANCH  18  21
HETATM   21  C   UNL     1      -9.800   8.922  68.057  1.00  0.00    -0.168 C  
HETATM   22  C   UNL     1      -9.298   9.252  66.648  1.00  0.00    -0.219 C  
HETATM   23  O   UNL     1     -11.006   8.167  67.964  1.00  0.00    -0.466 OA 
HETATM   24  H   UNL     1     -10.862   7.386  67.442  1.00  0.00     0.000 HD 
ENDBRANCH  18  21
ENDBRANCH   1  18
TORSDOF 2
ENDMDL
MODEL       41
REMARK 921   NORMALIZED FREE ENERGY PREDICTED BY IDOCK:   -5.21 KCAL/MOL
REMARK 922        TOTAL FREE ENERGY PREDICTED BY IDOCK:   -6.30 KCAL/MOL
REMARK 923 INTER-LIGAND FREE ENERGY PREDICTED BY IDOCK:   -5.83 KCAL/MOL
REMARK 924 INTRA-LIGAND FREE ENERGY PREDICTED BY IDOCK:   -0.48 KCAL/MOL
REMARK 927      BINDING AFFINITY PREDICTED BY RF-SCORE:    0.00 PKD
ROOT
HETATM    1  C   UNL     1     -11.380   8.809  70.965  1.00  0.00    -0.278 C  
HETATM    2  C   UNL     1     -10.139   8.541  71.871  1.00  0.00    -0.297 C  
HETATM    3  H   UNL     1     -10.323   4.428  67.443  1.00  0.00     0.000 HD 
HETATM    4  C   UNL     1      -9.663   4.480  69.390  1.00  0.00    -0.202 C  
HETATM    5  N   UNL     1      -9.548   7.216  71.650  1.00  0.00    -0.156 NA 
HETATM    6  H1  UNL     1      -9.000   2.749  70.209  1.00  0.00     0.000 HD 
HETATM    7  H2  UNL     1      -9.642   2.576  68.557  1.00  0.00     0.000 HD 
HETATM    8  N   UNL     1      -9.418   3.150  69.370  1.00  0.00    -0.156 NA 
HETATM    9  H   UNL     1      -8.980   6.801  72.388  1.00  0.00     0.000 HD 
HETATM   10  N   UNL     1     -10.221   5.014  68.272  1.00  0.00    -0.114 N  
HETATM   11  C   UNL     1      -9.737   6.504  70.467  1.00  0.00    -0.172 C  
HETATM   12  C   UNL     1     -10.412   7.108  69.452  1.00  0.00    -0.222 C  
HETATM   13  N   UNL     1      -9.381   5.179  70.440  1.00  0.00    -0.149 NA 
HETATM   14  C   UNL     1     -10.647   6.303  68.221  1.00  0.00    -0.258 C  
HETATM   15  N   UNL     1     -11.057   8.344  69.590  1.00  0.00    -0.439 NA 
HETATM   16  H   UNL     1     -11.296   8.906  68.773  1.00  0.00     0.000 HD 
HETATM   17  O   UNL     1     -11.274   6.752  67.261  1.00  0.00    -0.348 OA 
ENDROOT
BRANCH   1  18
HETATM   18  C   UNL     1     -12.708   8.153  71.479  1.00  0.00    -0.308 C  
HETATM   19  O   UNL     1     -12.503   7.197  72.526  1.00  0.00    -0.493 OA 
HETATM   20  H   UNL     1     -13.307   6.799  72.838  1.00  0.00     0.000 HD 
BRANCH  18  21
HETATM   21  C   UNL     1     -13.734   9.184  71.994  1.00  0.00    -0.448 C  
HETATM   22  C   UNL     1     -13.193  10.615  71.941  1.00  0.00    -0.528 C  
HETATM   23  O   UNL     1     -14.114   8.871  73.332  1.00  0.00    -1.256 OA 
HETATM   24  H   UNL     1     -14.745   9.506  73.649  1.00  0.00     0.000 HD 
ENDBRANCH  18  21
ENDBRANCH   1  18
TORSDOF 2
ENDMDL
MODEL       42
REMARK 921   NORMALIZED FREE ENERGY PREDICTED BY IDOCK:   -5.14 KCAL/MOL
REMARK 922        TOTAL FREE ENERGY PREDICTED BY IDOCK:   -6.23 KCAL/MOL
REMARK 923 INTER-LIGAND FREE ENERGY PREDICTED BY IDOCK:   -5.76 KCAL/MOL
REMARK 924 INTRA-LIGAND FREE ENERGY PREDICTED BY IDOCK:   -0.47 KCAL/MOL
REMARK 927      BINDING AFFINITY PREDICTED BY RF-SCORE:    0.00 PKD
ROOT
HETATM    1  C   UNL     1     -11.473  11.808  67.751  1.00  0.00    -0.311 C  
HETATM    2  C   UNL     1     -10.313  11.003  67.089  1.00  0.00    -0.220 C  
HETATM    3  H   UNL     1     -11.291   8.896  72.670  1.00  0.00     0.000 HD 
HETATM    4  C   UNL     1      -9.671   9.072  71.417  1.00  0.00    -0.299 C  
HETATM    5  N   UNL     1      -9.545  10.210  68.056  1.00  0.00    -0.144 NA 
HETATM    6  H1  UNL     1      -7.850   8.573  72.151  1.00  0.00     0.000 HD 
HETATM    7  H2  UNL     1      -9.168   8.482  73.345  1.00  0.00     0.000 HD 
HETATM    8  N   UNL     1      -8.833   8.673  72.400  1.00  0.00    -0.380 NA 
HETATM    9  H   UNL     1      -8.592   9.933  67.820  1.00  0.00     0.000 HD 
HETATM   10  N   UNL     1     -10.982   9.205  71.749  1.00  0.00    -0.370 N  
HETATM   11  C   UNL     1     -10.072   9.823  69.286  1.00  0.00    -0.198 C  
HETATM   12  C   UNL     1     -11.375  10.112  69.549  1.00  0.00    -0.206 C  
HETATM   13  N   UNL     1      -9.216   9.320  70.233  1.00  0.00    -0.217 NA 
HETATM   14  C   UNL     1     -11.894   9.737  70.894  1.00  0.00    -0.336 C  
HETATM   15  N   UNL     1     -12.166  10.911  68.713  1.00  0.00    -0.793 NA 
HETATM   16  H   UNL     1     -13.184  10.877  68.763  1.00  0.00     0.000 HD 
HETATM   17  O   UNL     1     -13.051   9.985  71.236  1.00  0.00    -0.365 OA 
ENDROOT
BRANCH   1  18
HETATM   18  C   UNL     1     -11.021  13.136  68.451  1.00  0.00    -0.262 C  
HETATM   19  O   UNL     1      -9.606  13.212  68.666  1.00  0.00    -0.371 OA 
HETATM   20  H   UNL     1      -9.332  14.017  69.090  1.00  0.00     0.000 HD 
BRANCH  18  21
HETATM   21  C   UNL     1     -11.435  14.403  67.675  1.00  0.00    -0.346 C  
HETATM   22  C   UNL     1     -11.656  15.602  68.600  1.00  0.00    -0.391 C  
HETATM   23  O   UNL     1     -12.626  14.154  66.931  1.00  0.00    -0.553 OA 
HETATM   24  H   UNL     1     -12.881  14.934  66.453  1.00  0.00     0.000 HD 
ENDBRANCH  18  21
ENDBRANCH   1  18
TORSDOF 2
ENDMDL
MODEL       43
REMARK 921   NORMALIZED FREE ENERGY PREDICTED BY IDOCK:   -5.14 KCAL/MOL
REMARK 922        TOTAL FREE ENERGY PREDICTED BY IDOCK:   -6.23 KCAL/MOL
REMARK 923 INTER-LIGAND FREE ENERGY PREDICTED BY IDOCK:   -5.75 KCAL/MOL
REMARK 924 INTRA-LIGAND FREE ENERGY PREDICTED BY IDOCK:   -0.47 KCAL/MOL
REMARK 927      BINDING AFFINITY PREDICTED BY RF-SCORE:    0.00 PKD
ROOT
HETATM    1  C   UNL     1      -9.153  16.734  67.616  1.00  0.00    -0.218 C  
HETATM    2  C   UNL     1      -8.491  16.019  68.834  1.00  0.00    -0.232 C  
HETATM    3  H   UNL     1     -11.683  12.000  65.638  1.00  0.00     0.000 HD 
HETATM    4  C   UNL     1     -11.169  12.249  67.613  1.00  0.00    -0.290 C  
HETATM    5  N   UNL     1      -9.060  14.692  69.095  1.00  0.00    -0.374 NA 
HETATM    6  H1  UNL     1     -11.971  10.972  68.967  1.00  0.00     0.000 HD 
HETATM    7  H2  UNL     1     -12.558  10.736  67.302  1.00  0.00     0.000 HD 
HETATM    8  N   UNL     1     -11.975  11.227  67.980  1.00  0.00    -0.641 NA 
HETATM    9  H   UNL     1      -8.966  14.290  70.027  1.00  0.00     0.000 HD 
HETATM   10  N   UNL     1     -11.174  12.588  66.298  1.00  0.00    -0.299 N  
HETATM   11  C   UNL     1      -9.724  13.961  68.112  1.00  0.00    -0.222 C  
HETATM   12  C   UNL     1      -9.757  14.461  66.848  1.00  0.00    -0.262 C  
HETATM   13  N   UNL     1     -10.451  12.863  68.497  1.00  0.00    -0.252 NA 
HETATM   14  C   UNL     1     -10.523  13.686  65.832  1.00  0.00    -0.296 C  
HETATM   15  N   UNL     1      -9.291  15.740  66.518  1.00  0.00    -0.259 NA 
HETATM   16  H   UNL     1      -9.055  15.982  65.556  1.00  0.00     0.000 HD 
HETATM   17  O   UNL     1     -10.635  14.074  64.668  1.00  0.00    -0.419 OA 
ENDROOT
BRANCH   1  18
HETATM   18  C   UNL     1     -10.532  17.409  67.935  1.00  0.00    -0.383 C  
HETATM   19  O   UNL     1     -10.968  17.203  69.285  1.00  0.00    -0.315 OA 
HETATM   20  H   UNL     1     -11.803  17.612  69.478  1.00  0.00     0.000 HD 
BRANCH  18  21
HETATM   21  C   UNL     1     -10.536  18.930  67.679  1.00  0.00    -0.428 C  
HETATM   22  C   UNL     1     -10.028  19.283  66.278  1.00  0.00    -0.484 C  
HETATM   23  O   UNL     1      -9.734  19.593  68.654  1.00  0.00    -0.380 OA 
HETATM   24  H   UNL     1      -9.737  20.530  68.496  1.00  0.00     0.000 HD 
ENDBRANCH  18  21
ENDBRANCH   1  18
TORSDOF 2
ENDMDL
MODEL       44
REMARK 921   NORMALIZED FREE ENERGY PREDICTED BY IDOCK:   -5.13 KCAL/MOL
REMARK 922        TOTAL FREE ENERGY PREDICTED BY IDOCK:   -6.22 KCAL/MOL
REMARK 923 INTER-LIGAND FREE ENERGY PREDICTED BY IDOCK:   -5.76 KCAL/MOL
REMARK 924 INTRA-LIGAND FREE ENERGY PREDICTED BY IDOCK:   -0.46 KCAL/MOL
REMARK 927      BINDING AFFINITY PREDICTED BY RF-SCORE:    0.00 PKD
ROOT
HETATM    1  C   UNL     1     -11.054  15.085  66.116  1.00  0.00    -0.329 C  
HETATM    2  C   UNL     1     -10.923  14.816  64.585  1.00  0.00    -0.316 C  
HETATM    3  H   UNL     1     -10.947   9.550  67.556  1.00  0.00     0.000 HD 
HETATM    4  C   UNL     1     -10.104  10.270  65.824  1.00  0.00    -0.255 C  
HETATM    5  N   UNL     1     -10.503  13.443  64.281  1.00  0.00    -0.570 NA 
HETATM    6  H1  UNL     1      -8.828   9.058  64.820  1.00  0.00     0.000 HD 
HETATM    7  H2  UNL     1      -9.422   8.381  66.356  1.00  0.00     0.000 HD 
HETATM    8  N   UNL     1      -9.394   9.130  65.665  1.00  0.00    -0.238 NA 
HETATM    9  H   UNL     1     -10.061  13.250  63.383  1.00  0.00     0.000 HD 
HETATM   10  N   UNL     1     -10.859  10.366  66.950  1.00  0.00    -0.206 N  
HETATM   11  C   UNL     1     -10.688  12.392  65.178  1.00  0.00    -0.292 C  
HETATM   12  C   UNL     1     -11.367  12.640  66.330  1.00  0.00    -0.331 C  
HETATM   13  N   UNL     1     -10.038  11.208  64.938  1.00  0.00    -0.268 NA 
HETATM   14  C   UNL     1     -11.500  11.513  67.295  1.00  0.00    -0.263 C  
HETATM   15  N   UNL     1     -11.756  13.926  66.729  1.00  0.00    -0.376 NA 
HETATM   16  H   UNL     1     -12.495  14.062  67.418  1.00  0.00     0.000 HD 
HETATM   17  O   UNL     1     -12.071  11.648  68.378  1.00  0.00    -0.522 OA 
ENDROOT
BRANCH   1  18
HETATM   18  C   UNL     1      -9.692  15.361  66.842  1.00  0.00    -0.231 C  
HETATM   19  O   UNL     1      -8.551  14.905  66.104  1.00  0.00    -0.418 OA 
HETATM   20  H   UNL     1      -7.726  15.072  66.544  1.00  0.00     0.000 HD 
BRANCH  18  21
HETATM   21  C   UNL     1      -9.465  16.854  67.159  1.00  0.00    -0.237 C  
HETATM   22  C   UNL     1     -10.586  17.439  68.022  1.00  0.00    -0.389 C  
HETATM   23  O   UNL     1      -9.361  17.601  65.949  1.00  0.00    -0.520 OA 
HETATM   24  H   UNL     1      -9.222  18.520  66.144  1.00  0.00     0.000 HD 
ENDBRANCH  18  21
ENDBRANCH   1  18
TORSDOF 2
ENDMDL
MODEL       45
REMARK 921   NORMALIZED FREE ENERGY PREDICTED BY IDOCK:   -5.13 KCAL/MOL
REMARK 922        TOTAL FREE ENERGY PREDICTED BY IDOCK:   -6.22 KCAL/MOL
REMARK 923 INTER-LIGAND FREE ENERGY PREDICTED BY IDOCK:   -5.77 KCAL/MOL
REMARK 924 INTRA-LIGAND FREE ENERGY PREDICTED BY IDOCK:   -0.45 KCAL/MOL
REMARK 927      BINDING AFFINITY PREDICTED BY RF-SCORE:    0.00 PKD
ROOT
HETATM    1  C   UNL     1      -9.906  11.347  68.445  1.00  0.00    -0.205 C  
HETATM    2  C   UNL     1      -8.972  10.907  67.276  1.00  0.00    -0.137 C  
HETATM    3  H   UNL     1     -12.782  15.170  65.310  1.00  0.00     0.000 HD 
HETATM    4  C   UNL     1     -11.825  13.546  64.489  1.00  0.00    -0.405 C  
HETATM    5  N   UNL     1      -9.452  11.355  65.963  1.00  0.00    -0.217 NA 
HETATM    6  H1  UNL     1     -12.279  13.049  62.577  1.00  0.00     0.000 HD 
HETATM    7  H2  UNL     1     -13.235  14.404  63.226  1.00  0.00     0.000 HD 
HETATM    8  N   UNL     1     -12.515  13.690  63.334  1.00  0.00    -0.800 NA 
HETATM    9  H   UNL     1      -9.141  10.858  65.129  1.00  0.00     0.000 HD 
HETATM   10  N   UNL     1     -12.139  14.401  65.497  1.00  0.00    -0.372 N  
HETATM   11  C   UNL     1     -10.321  12.435  65.817  1.00  0.00    -0.263 C  
HETATM   12  C   UNL     1     -10.651  13.151  66.925  1.00  0.00    -0.263 C  
HETATM   13  N   UNL     1     -10.928  12.623  64.601  1.00  0.00    -0.298 NA 
HETATM   14  C   UNL     1     -11.625  14.264  66.747  1.00  0.00    -0.391 C  
HETATM   15  N   UNL     1     -10.286  12.768  68.223  1.00  0.00    -0.238 NA 
HETATM   16  H   UNL     1     -10.282  13.440  68.988  1.00  0.00     0.000 HD 
HETATM   17  O   UNL     1     -12.008  14.950  67.696  1.00  0.00    -0.317 OA 
ENDROOT
BRANCH   1  18
HETATM   18  C   UNL     1     -11.179  10.450  68.627  1.00  0.00    -0.248 C  
HETATM   19  O   UNL     1     -11.175   9.282  67.796  1.00  0.00    -0.484 OA 
HETATM   20  H   UNL     1     -11.947   8.738  67.906  1.00  0.00     0.000 HD 
BRANCH  18  21
HETATM   21  C   UNL     1     -11.385   9.977  70.081  1.00  0.00    -0.291 C  
HETATM   22  C   UNL     1     -12.440  10.808  70.816  1.00  0.00    -0.481 C  
HETATM   23  O   UNL     1     -10.153  10.038  70.796  1.00  0.00    -0.356 OA 
HETATM   24  H   UNL     1     -10.280   9.747  71.691  1.00  0.00     0.000 HD 
ENDBRANCH  18  21
ENDBRANCH   1  18
TORSDOF 2
ENDMDL
MODEL       46
REMARK 921   NORMALIZED FREE ENERGY PREDICTED BY IDOCK:   -5.12 KCAL/MOL
REMARK 922        TOTAL FREE ENERGY PREDICTED BY IDOCK:   -6.20 KCAL/MOL
REMARK 923 INTER-LIGAND FREE ENERGY PREDICTED BY IDOCK:   -6.18 KCAL/MOL
REMARK 924 INTRA-LIGAND FREE ENERGY PREDICTED BY IDOCK:   -0.02 KCAL/MOL
REMARK 927      BINDING AFFINITY PREDICTED BY RF-SCORE:    0.00 PKD
ROOT
HETATM    1  C   UNL     1     -10.271  14.444  66.128  1.00  0.00    -0.306 C  
HETATM    2  C   UNL     1     -11.515  14.272  67.054  1.00  0.00    -0.361 C  
HETATM    3  H   UNL     1      -8.298   9.153  67.041  1.00  0.00     0.000 HD 
HETATM    4  C   UNL     1     -10.281   9.656  67.245  1.00  0.00    -0.233 C  
HETATM    5  N   UNL     1     -11.780  12.871  67.400  1.00  0.00    -0.362 NA 
HETATM    6  H1  UNL     1     -11.632   8.148  67.344  1.00  0.00     0.000 HD 
HETATM    7  H2  UNL     1      -9.957   7.611  67.067  1.00  0.00     0.000 HD 
HETATM    8  N   UNL     1     -10.642   8.352  67.214  1.00  0.00    -0.298 NA 
HETATM    9  H   UNL     1     -12.719  12.605  67.692  1.00  0.00     0.000 HD 
HETATM   10  N   UNL     1      -8.961   9.927  67.071  1.00  0.00    -0.138 N  
HETATM   11  C   UNL     1     -10.791  11.890  67.341  1.00  0.00    -0.243 C  
HETATM   12  C   UNL     1      -9.520  12.273  67.047  1.00  0.00    -0.204 C  
HETATM   13  N   UNL     1     -11.173  10.575  67.419  1.00  0.00    -0.356 NA 
HETATM   14  C   UNL     1      -8.496  11.197  66.935  1.00  0.00    -0.147 C  
HETATM   15  N   UNL     1      -9.184  13.574  66.650  1.00  0.00    -0.356 NA 
HETATM   16  H   UNL     1      -8.225  13.914  66.718  1.00  0.00     0.000 HD 
HETATM   17  O   UNL     1      -7.325  11.441  66.643  1.00  0.00    -0.144 OA 
ENDROOT
BRANCH   1  18
HETATM   18  C   UNL     1     -10.548  14.143  64.614  1.00  0.00    -0.368 C  
HETATM   19  O   UNL     1      -9.803  13.028  64.109  1.00  0.00    -0.663 OA 
HETATM   20  H   UNL     1      -9.971  12.846  63.192  1.00  0.00     0.000 HD 
BRANCH  18  21
HETATM   21  C   UNL     1     -12.037  13.875  64.311  1.00  0.00    -0.440 C  
HETATM   22  C   UNL     1     -12.253  12.522  63.628  1.00  0.00    -0.642 C  
HETATM   23  O   UNL     1     -12.564  14.911  63.485  1.00  0.00    -0.920 OA 
HETATM   24  H   UNL     1     -13.480  14.745  63.299  1.00  0.00     0.000 HD 
ENDBRANCH  18  21
ENDBRANCH   1  18
TORSDOF 2
ENDMDL
MODEL       47
REMARK 921   NORMALIZED FREE ENERGY PREDICTED BY IDOCK:   -5.11 KCAL/MOL
REMARK 922        TOTAL FREE ENERGY PREDICTED BY IDOCK:   -6.19 KCAL/MOL
REMARK 923 INTER-LIGAND FREE ENERGY PREDICTED BY IDOCK:   -5.72 KCAL/MOL
REMARK 924 INTRA-LIGAND FREE ENERGY PREDICTED BY IDOCK:   -0.48 KCAL/MOL
REMARK 927      BINDING AFFINITY PREDICTED BY RF-SCORE:    0.00 PKD
ROOT
HETATM    1  C   UNL     1     -10.573  15.248  67.717  1.00  0.00    -0.266 C  
HETATM    2  C   UNL     1      -9.084  14.817  67.545  1.00  0.00    -0.189 C  
HETATM    3  H   UNL     1     -12.319  12.785  62.859  1.00  0.00     0.000 HD 
HETATM    4  C   UNL     1     -10.655  12.159  63.893  1.00  0.00    -0.415 C  
HETATM    5  N   UNL     1      -8.905  13.778  66.524  1.00  0.00    -0.453 NA 
HETATM    6  H1  UNL     1      -9.870  10.353  63.415  1.00  0.00     0.000 HD 
HETATM    7  H2  UNL     1     -11.364  10.756  62.534  1.00  0.00     0.000 HD 
HETATM    8  N   UNL     1     -10.640  10.990  63.213  1.00  0.00    -0.232 NA 
HETATM    9  H   UNL     1      -8.074  13.188  66.561  1.00  0.00     0.000 HD 
HETATM   10  N   UNL     1     -11.682  13.007  63.624  1.00  0.00    -0.486 N  
HETATM   11  C   UNL     1      -9.832  13.569  65.505  1.00  0.00    -0.143 C  
HETATM   12  C   UNL     1     -10.885  14.424  65.406  1.00  0.00    -0.344 C  
HETATM   13  N   UNL     1      -9.732  12.422  64.758  1.00  0.00    -0.053 NA 
HETATM   14  C   UNL     1     -11.890  14.142  64.342  1.00  0.00    -0.428 C  
HETATM   15  N   UNL     1     -11.167  15.407  66.363  1.00  0.00    -0.231 NA 
HETATM   16  H   UNL     1     -11.760  16.206  66.139  1.00  0.00     0.000 HD 
HETATM   17  O   UNL     1     -12.893  14.841  64.193  1.00  0.00    -0.678 OA 
ENDROOT
BRANCH   1  18
HETATM   18  C   UNL     1     -11.431  14.268  68.592  1.00  0.00    -0.296 C  
HETATM   19  O   UNL     1     -10.727  13.080  68.972  1.00  0.00    -0.372 OA 
HETATM   20  H   UNL     1     -11.246  12.487  69.502  1.00  0.00     0.000 HD 
BRANCH  18  21
HETATM   21  C   UNL     1     -11.964  14.919  69.885  1.00  0.00    -0.330 C  
HETATM   22  C   UNL     1     -11.293  16.264  70.175  1.00  0.00    -0.292 C  
HETATM   23  O   UNL     1     -11.766  14.043  70.992  1.00  0.00    -0.507 OA 
HETATM   24  H   UNL     1     -12.094  14.444  71.788  1.00  0.00     0.000 HD 
ENDBRANCH  18  21
ENDBRANCH   1  18
TORSDOF 2
ENDMDL
MODEL       48
REMARK 921   NORMALIZED FREE ENERGY PREDICTED BY IDOCK:   -5.11 KCAL/MOL
REMARK 922        TOTAL FREE ENERGY PREDICTED BY IDOCK:   -6.19 KCAL/MOL
REMARK 923 INTER-LIGAND FREE ENERGY PREDICTED BY IDOCK:   -5.80 KCAL/MOL
REMARK 924 INTRA-LIGAND FREE ENERGY PREDICTED BY IDOCK:   -0.39 KCAL/MOL
REMARK 927      BINDING AFFINITY PREDICTED BY RF-SCORE:    0.00 PKD
ROOT
HETATM    1  C   UNL     1     -10.921  12.940  66.638  1.00  0.00    -0.276 C  
HETATM    2  C   UNL     1     -11.828  12.377  67.775  1.00  0.00    -0.298 C  
HETATM    3  H   UNL     1      -7.869   8.136  66.077  1.00  0.00     0.000 HD 
HETATM    4  C   UNL     1      -9.786   8.160  66.818  1.00  0.00    -0.259 C  
HETATM    5  N   UNL     1     -11.740  10.918  67.906  1.00  0.00    -0.682 NA 
HETATM    6  H1  UNL     1     -10.773   6.394  66.942  1.00  0.00     0.000 HD 
HETATM    7  H2  UNL     1      -9.162   6.279  66.194  1.00  0.00     0.000 HD 
HETATM    8  N   UNL     1      -9.905   6.826  66.629  1.00  0.00    -0.173 NA 
HETATM    9  H   UNL     1     -12.508  10.416  68.351  1.00  0.00     0.000 HD 
HETATM   10  N   UNL     1      -8.628   8.734  66.401  1.00  0.00    -0.123 N  
HETATM   11  C   UNL     1     -10.643  10.195  67.442  1.00  0.00    -0.272 C  
HETATM   12  C   UNL     1      -9.582  10.883  66.941  1.00  0.00    -0.178 C  
HETATM   13  N   UNL     1     -10.750   8.829  67.359  1.00  0.00    -0.223 NA 
HETATM   14  C   UNL     1      -8.448  10.081  66.401  1.00  0.00    -0.129 C  
HETATM   15  N   UNL     1      -9.598  12.267  66.727  1.00  0.00    -0.212 NA 
HETATM   16  H   UNL     1      -8.731  12.796  66.635  1.00  0.00     0.000 HD 
HETATM   17  O   UNL     1      -7.457  10.613  65.899  1.00  0.00    -0.145 OA 
ENDROOT
BRANCH   1  18
HETATM   18  C   UNL     1     -11.526  12.794  65.198  1.00  0.00    -0.321 C  
HETATM   19  O   UNL     1     -12.924  12.475  65.198  1.00  0.00    -0.700 OA 
HETATM   20  H   UNL     1     -13.290  12.386  64.326  1.00  0.00     0.000 HD 
BRANCH  18  21
HETATM   21  C   UNL     1     -11.345  14.059  64.333  1.00  0.00    -0.319 C  
HETATM   22  C   UNL     1     -11.219  15.327  65.182  1.00  0.00    -0.374 C  
HETATM   23  O   UNL     1     -12.443  14.199  63.434  1.00  0.00    -1.122 OA 
HETATM   24  H   UNL     1     -12.331  14.977  62.902  1.00  0.00     0.000 HD 
ENDBRANCH  18  21
ENDBRANCH   1  18
TORSDOF 2
ENDMDL
MODEL       49
REMARK 921   NORMALIZED FREE ENERGY PREDICTED BY IDOCK:   -5.04 KCAL/MOL
REMARK 922        TOTAL FREE ENERGY PREDICTED BY IDOCK:   -6.11 KCAL/MOL
REMARK 923 INTER-LIGAND FREE ENERGY PREDICTED BY IDOCK:   -5.62 KCAL/MOL
REMARK 924 INTRA-LIGAND FREE ENERGY PREDICTED BY IDOCK:   -0.49 KCAL/MOL
REMARK 927      BINDING AFFINITY PREDICTED BY RF-SCORE:    0.00 PKD
ROOT
HETATM    1  C   UNL     1     -10.197  16.844  66.843  1.00  0.00    -0.296 C  
HETATM    2  C   UNL     1     -10.726  16.225  65.513  1.00  0.00    -0.313 C  
HETATM    3  H   UNL     1     -12.174  12.601  70.131  1.00  0.00     0.000 HD 
HETATM    4  C   UNL     1     -11.730  12.355  68.138  1.00  0.00    -0.353 C  
HETATM    5  N   UNL     1     -11.114  14.816  65.654  1.00  0.00    -0.332 NA 
HETATM    6  H1  UNL     1     -11.573  10.463  67.432  1.00  0.00     0.000 HD 
HETATM    7  H2  UNL     1     -11.859  10.566  69.186  1.00  0.00     0.000 HD 
HETATM    8  N   UNL     1     -11.722  11.010  68.279  1.00  0.00    -0.529 NA 
HETATM    9  H   UNL     1     -11.139  14.226  64.823  1.00  0.00     0.000 HD 
HETATM   10  N   UNL     1     -11.929  13.085  69.267  1.00  0.00    -0.302 N  
HETATM   11  C   UNL     1     -11.449  14.257  66.886  1.00  0.00    -0.363 C  
HETATM   12  C   UNL     1     -11.508  15.075  67.970  1.00  0.00    -0.342 C  
HETATM   13  N   UNL     1     -11.540  12.891  66.977  1.00  0.00    -0.342 NA 
HETATM   14  C   UNL     1     -11.813  14.439  69.283  1.00  0.00    -0.325 C  
HETATM   15  N   UNL     1     -11.102  16.415  67.943  1.00  0.00    -0.297 NA 
HETATM   16  H   UNL     1     -11.417  17.075  68.653  1.00  0.00     0.000 HD 
HETATM   17  O   UNL     1     -11.858  15.091  70.327  1.00  0.00    -0.269 OA 
ENDROOT
BRANCH   1  18
HETATM   18  C   UNL     1      -8.707  16.487  67.175  1.00  0.00    -0.195 C  
HETATM   19  O   UNL     1      -8.156  15.486  66.310  1.00  0.00    -0.315 OA 
HETATM   20  H   UNL     1      -7.253  15.269  66.511  1.00  0.00     0.000 HD 
BRANCH  18  21
HETATM   21  C   UNL     1      -7.765  17.707  67.123  1.00  0.00    -0.207 C  
HETATM   22  C   UNL     1      -8.090  18.735  68.209  1.00  0.00    -0.353 C  
HETATM   23  O   UNL     1      -7.841  18.331  65.843  1.00  0.00    -0.491 OA 
HETATM   24  H   UNL     1      -7.260  19.082  65.811  1.00  0.00     0.000 HD 
ENDBRANCH  18  21
ENDBRANCH   1  18
TORSDOF 2
ENDMDL
MODEL       50
REMARK 921   NORMALIZED FREE ENERGY PREDICTED BY IDOCK:   -5.03 KCAL/MOL
REMARK 922        TOTAL FREE ENERGY PREDICTED BY IDOCK:   -6.11 KCAL/MOL
REMARK 923 INTER-LIGAND FREE ENERGY PREDICTED BY IDOCK:   -5.67 KCAL/MOL
REMARK 924 INTRA-LIGAND FREE ENERGY PREDICTED BY IDOCK:   -0.43 KCAL/MOL
REMARK 927      BINDING AFFINITY PREDICTED BY RF-SCORE:    0.00 PKD
ROOT
HETATM    1  C   UNL     1      -8.207  13.126  67.870  1.00  0.00    -0.162 C  
HETATM    2  C   UNL     1      -8.012  14.555  67.278  1.00  0.00    -0.191 C  
HETATM    3  H   UNL     1     -13.246  12.260  65.308  1.00  0.00     0.000 HD 
HETATM    4  C   UNL     1     -11.832  13.561  64.578  1.00  0.00    -0.405 C  
HETATM    5  N   UNL     1      -8.925  14.841  66.165  1.00  0.00    -0.495 NA 
HETATM    6  H1  UNL     1     -12.049  14.222  62.674  1.00  0.00     0.000 HD 
HETATM    7  H2  UNL     1     -13.267  13.023  63.175  1.00  0.00     0.000 HD 
HETATM    8  N   UNL     1     -12.447  13.596  63.373  1.00  0.00    -0.800 NA 
HETATM    9  H   UNL     1      -8.674  15.568  65.495  1.00  0.00     0.000 HD 
HETATM   10  N   UNL     1     -12.362  12.727  65.509  1.00  0.00    -0.472 N  
HETATM   11  C   UNL     1     -10.124  14.152  65.991  1.00  0.00    -0.316 C  
HETATM   12  C   UNL     1     -10.496  13.255  66.943  1.00  0.00    -0.261 C  
HETATM   13  N   UNL     1     -10.785  14.287  64.796  1.00  0.00    -0.422 NA 
HETATM   14  C   UNL     1     -11.754  12.493  66.701  1.00  0.00    -0.387 C  
HETATM   15  N   UNL     1      -9.667  12.878  68.007  1.00  0.00    -0.218 NA 
HETATM   16  H   UNL     1     -10.051  12.448  68.847  1.00  0.00     0.000 HD 
HETATM   17  O   UNL     1     -12.157  11.638  67.490  1.00  0.00    -0.611 OA 
ENDROOT
BRANCH   1  18
HETATM   18  C   UNL     1      -7.522  11.984  67.041  1.00  0.00    -0.106 C  
HETATM   19  O   UNL     1      -6.187  12.304  66.627  1.00  0.00    -0.485 OA 
HETATM   20  H   UNL     1      -5.772  11.613  66.124  1.00  0.00     0.000 HD 
BRANCH  18  21
HETATM   21  C   UNL     1      -7.458  10.641  67.795  1.00  0.00    -0.091 C  
HETATM   22  C   UNL     1      -8.546   9.667  67.336  1.00  0.00    -0.125 C  
HETATM   23  O   UNL     1      -7.581  10.860  69.199  1.00  0.00    -0.125 OA 
HETATM   24  H   UNL     1      -7.541  10.033  69.663  1.00  0.00     0.000 HD 
ENDBRANCH  18  21
ENDBRANCH   1  18
TORSDOF 2
ENDMDL
MODEL       51
REMARK 921   NORMALIZED FREE ENERGY PREDICTED BY IDOCK:   -5.03 KCAL/MOL
REMARK 922        TOTAL FREE ENERGY PREDICTED BY IDOCK:   -6.10 KCAL/MOL
REMARK 923 INTER-LIGAND FREE ENERGY PREDICTED BY IDOCK:   -5.72 KCAL/MOL
REMARK 924 INTRA-LIGAND FREE ENERGY PREDICTED BY IDOCK:   -0.38 KCAL/MOL
REMARK 927      BINDING AFFINITY PREDICTED BY RF-SCORE:    0.00 PKD
ROOT
HETATM    1  C   UNL     1     -11.372  10.274  69.151  1.00  0.00    -0.186 C  
HETATM    2  C   UNL     1     -11.680  10.997  70.498  1.00  0.00    -0.318 C  
HETATM    3  H   UNL     1     -11.796  15.019  65.986  1.00  0.00     0.000 HD 
HETATM    4  C   UNL     1     -11.317  15.050  67.985  1.00  0.00    -0.327 C  
HETATM    5  N   UNL     1     -11.578  12.457  70.397  1.00  0.00    -0.493 NA 
HETATM    6  H1  UNL     1     -10.550  16.764  68.747  1.00  0.00     0.000 HD 
HETATM    7  H2  UNL     1     -10.836  16.809  66.990  1.00  0.00     0.000 HD 
HETATM    8  N   UNL     1     -10.864  16.320  67.884  1.00  0.00    -0.334 NA 
HETATM    9  H   UNL     1     -11.416  12.999  71.246  1.00  0.00     0.000 HD 
HETATM   10  N   UNL     1     -11.735  14.458  66.836  1.00  0.00    -0.389 N  
HETATM   11  C   UNL     1     -11.696  13.129  69.182  1.00  0.00    -0.325 C  
HETATM   12  C   UNL     1     -12.011  12.407  68.074  1.00  0.00    -0.203 C  
HETATM   13  N   UNL     1     -11.328  14.450  69.130  1.00  0.00    -0.262 NA 
HETATM   14  C   UNL     1     -12.073  13.143  66.780  1.00  0.00    -0.327 C  
HETATM   15  N   UNL     1     -12.072  11.007  68.063  1.00  0.00    -0.727 NA 
HETATM   16  H   UNL     1     -12.580  10.509  67.333  1.00  0.00     0.000 HD 
HETATM   17  O   UNL     1     -12.321  12.571  65.718  1.00  0.00    -0.627 OA 
ENDROOT
BRANCH   1  18
HETATM   18  C   UNL     1      -9.844  10.126  68.832  1.00  0.00    -0.189 C  
HETATM   19  O   UNL     1      -8.995  10.566  69.899  1.00  0.00    -0.388 OA 
HETATM   20  H   UNL     1      -8.069  10.476  69.705  1.00  0.00     0.000 HD 
BRANCH  18  21
HETATM   21  C   UNL     1      -9.434   8.679  68.486  1.00  0.00    -0.142 C  
HETATM   22  C   UNL     1     -10.398   8.027  67.491  1.00  0.00    -0.330 C  
HETATM   23  O   UNL     1      -9.373   7.890  69.672  1.00  0.00    -0.153 OA 
HETATM   24  H   UNL     1      -9.120   7.000  69.459  1.00  0.00     0.000 HD 
ENDBRANCH  18  21
ENDBRANCH   1  18
TORSDOF 2
ENDMDL
MODEL       52
REMARK 921   NORMALIZED FREE ENERGY PREDICTED BY IDOCK:   -4.98 KCAL/MOL
REMARK 922        TOTAL FREE ENERGY PREDICTED BY IDOCK:   -6.06 KCAL/MOL
REMARK 923 INTER-LIGAND FREE ENERGY PREDICTED BY IDOCK:   -5.72 KCAL/MOL
REMARK 924 INTRA-LIGAND FREE ENERGY PREDICTED BY IDOCK:   -0.33 KCAL/MOL
REMARK 927      BINDING AFFINITY PREDICTED BY RF-SCORE:    0.00 PKD
ROOT
HETATM    1  C   UNL     1     -11.094  13.230  66.562  1.00  0.00    -0.294 C  
HETATM    2  C   UNL     1     -11.698  12.927  67.968  1.00  0.00    -0.356 C  
HETATM    3  H   UNL     1      -8.842   8.013  65.905  1.00  0.00     0.000 HD 
HETATM    4  C   UNL     1     -10.460   8.386  67.117  1.00  0.00    -0.310 C  
HETATM    5  N   UNL     1     -11.730  11.492  68.277  1.00  0.00    -0.474 NA 
HETATM    6  H1  UNL     1     -11.552   6.800  67.749  1.00  0.00     0.000 HD 
HETATM    7  H2  UNL     1     -10.236   6.379  66.625  1.00  0.00     0.000 HD 
HETATM    8  N   UNL     1     -10.766   7.069  67.159  1.00  0.00    -0.338 NA 
HETATM    9  H   UNL     1     -12.389  11.154  68.977  1.00  0.00     0.000 HD 
HETATM   10  N   UNL     1      -9.413   8.744  66.329  1.00  0.00    -0.216 N  
HETATM   11  C   UNL     1     -10.889  10.576  67.648  1.00  0.00    -0.300 C  
HETATM   12  C   UNL     1      -9.946  11.051  66.790  1.00  0.00    -0.203 C  
HETATM   13  N   UNL     1     -11.158   9.239  67.793  1.00  0.00     0.000 NA 
HETATM   14  C   UNL     1      -9.100  10.044  66.089  1.00  0.00    -0.156 C  
HETATM   15  N   UNL     1      -9.877  12.392  66.392  1.00  0.00    -0.235 NA 
HETATM   16  H   UNL     1      -9.020  12.781  65.999  1.00  0.00     0.000 HD 
HETATM   17  O   UNL     1      -8.240  10.374  65.271  1.00  0.00    -0.157 OA 
ENDROOT
BRANCH   1  18
HETATM   18  C   UNL     1     -12.091  13.015  65.371  1.00  0.00    -0.444 C  
HETATM   19  O   UNL     1     -13.244  13.863  65.434  1.00  0.00    -0.750 OA 
HETATM   20  H   UNL     1     -13.848  13.732  64.712  1.00  0.00     0.000 HD 
BRANCH  18  21
HETATM   21  C   UNL     1     -11.440  13.228  63.989  1.00  0.00    -0.388 C  
HETATM   22  C   UNL     1     -11.295  11.919  63.209  1.00  0.00    -0.373 C  
HETATM   23  O   UNL     1     -10.158  13.833  64.139  1.00  0.00    -0.729 OA 
HETATM   24  H   UNL     1      -9.757  13.965  63.288  1.00  0.00     0.000 HD 
ENDBRANCH  18  21
ENDBRANCH   1  18
TORSDOF 2
ENDMDL
MODEL       53
REMARK 921   NORMALIZED FREE ENERGY PREDICTED BY IDOCK:   -4.98 KCAL/MOL
REMARK 922        TOTAL FREE ENERGY PREDICTED BY IDOCK:   -6.05 KCAL/MOL
REMARK 923 INTER-LIGAND FREE ENERGY PREDICTED BY IDOCK:   -5.62 KCAL/MOL
REMARK 924 INTRA-LIGAND FREE ENERGY PREDICTED BY IDOCK:   -0.43 KCAL/MOL
REMARK 927      BINDING AFFINITY PREDICTED BY RF-SCORE:    0.00 PKD
ROOT
HETATM    1  C   UNL     1      -9.867  14.318  66.216  1.00  0.00    -0.307 C  
HETATM    2  C   UNL     1     -10.481  15.242  65.120  1.00  0.00    -0.411 C  
HETATM    3  H   UNL     1      -8.156  18.643  69.544  1.00  0.00     0.000 HD 
HETATM    4  C   UNL     1      -9.714  18.808  68.213  1.00  0.00    -0.362 C  
HETATM    5  N   UNL     1     -10.652  16.628  65.572  1.00  0.00    -0.515 NA 
HETATM    6  H1  UNL     1     -10.950  20.403  68.398  1.00  0.00     0.000 HD 
HETATM    7  H2  UNL     1      -9.697  20.300  69.659  1.00  0.00     0.000 HD 
HETATM    8  N   UNL     1     -10.148  19.936  68.820  1.00  0.00    -0.430 NA 
HETATM    9  H   UNL     1     -11.333  17.220  65.098  1.00  0.00     0.000 HD 
HETATM   10  N   UNL     1      -8.645  18.186  68.776  1.00  0.00    -0.257 N  
HETATM   11  C   UNL     1      -9.914  17.162  66.627  1.00  0.00    -0.295 C  
HETATM   12  C   UNL     1      -8.940  16.396  67.186  1.00  0.00    -0.202 C  
HETATM   13  N   UNL     1     -10.314  18.363  67.158  1.00  0.00    -0.376 NA 
HETATM   14  C   UNL     1      -8.208  16.972  68.348  1.00  0.00    -0.250 C  
HETATM   15  N   UNL     1      -8.742  15.048  66.859  1.00  0.00    -0.242 NA 
HETATM   16  H   UNL     1      -7.856  14.584  67.055  1.00  0.00     0.000 HD 
HETATM   17  O   UNL     1      -7.329  16.343  68.940  1.00  0.00    -0.187 OA 
ENDROOT
BRANCH   1  18
HETATM   18  C   UNL     1     -10.896  13.820  67.290  1.00  0.00    -0.285 C  
HETATM   19  O   UNL     1     -12.038  14.676  67.424  1.00  0.00    -0.535 OA 
HETATM   20  H   UNL     1     -12.661  14.374  68.075  1.00  0.00     0.000 HD 
BRANCH  18  21
HETATM   21  C   UNL     1     -11.420  12.396  67.014  1.00  0.00    -0.358 C  
HETATM   22  C   UNL     1     -11.770  11.647  68.303  1.00  0.00    -0.374 C  
HETATM   23  O   UNL     1     -10.450  11.650  66.282  1.00  0.00    -0.230 OA 
HETATM   24  H   UNL     1     -10.773  10.773  66.112  1.00  0.00     0.000 HD 
ENDBRANCH  18  21
ENDBRANCH   1  18
TORSDOF 2
ENDMDL
MODEL       54
REMARK 921   NORMALIZED FREE ENERGY PREDICTED BY IDOCK:   -4.96 KCAL/MOL
REMARK 922        TOTAL FREE ENERGY PREDICTED BY IDOCK:   -6.03 KCAL/MOL
REMARK 923 INTER-LIGAND FREE ENERGY PREDICTED BY IDOCK:   -5.54 KCAL/MOL
REMARK 924 INTRA-LIGAND FREE ENERGY PREDICTED BY IDOCK:   -0.48 KCAL/MOL
REMARK 927      BINDING AFFINITY PREDICTED BY RF-SCORE:    0.00 PKD
ROOT
HETATM    1  C   UNL     1     -11.183  14.622  67.008  1.00  0.00    -0.344 C  
HETATM    2  C   UNL     1     -11.728  13.502  66.070  1.00  0.00    -0.359 C  
HETATM    3  H   UNL     1     -12.261  11.736  71.827  1.00  0.00     0.000 HD 
HETATM    4  C   UNL     1     -11.956  10.811  70.017  1.00  0.00    -0.347 C  
HETATM    5  N   UNL     1     -11.902  12.217  66.757  1.00  0.00    -0.606 NA 
HETATM    6  H1  UNL     1     -11.595   8.817  70.024  1.00  0.00     0.000 HD 
HETATM    7  H2  UNL     1     -11.744   9.538  71.645  1.00  0.00     0.000 HD 
HETATM    8  N   UNL     1     -11.748   9.623  70.629  1.00  0.00    -0.279 NA 
HETATM    9  H   UNL     1     -11.914  11.360  66.204  1.00  0.00     0.000 HD 
HETATM   10  N   UNL     1     -12.160  11.885  70.823  1.00  0.00    -0.313 N  
HETATM   11  C   UNL     1     -12.051  12.126  68.140  1.00  0.00     0.009 C  
HETATM   12  C   UNL     1     -12.133  13.279  68.856  1.00  0.00    -0.222 C  
HETATM   13  N   UNL     1     -11.941  10.892  68.727  1.00  0.00    -0.475 NA 
HETATM   14  C   UNL     1     -12.234  13.152  70.337  1.00  0.00    -0.316 C  
HETATM   15  N   UNL     1     -11.923  14.546  68.296  1.00  0.00    -0.518 NA 
HETATM   16  H   UNL     1     -12.267  15.389  68.756  1.00  0.00     0.000 HD 
HETATM   17  O   UNL     1     -12.283  14.138  71.073  1.00  0.00    -0.329 OA 
ENDROOT
BRANCH   1  18
HETATM   18  C   UNL     1      -9.634  14.564  67.250  1.00  0.00    -0.226 C  
HETATM   19  O   UNL     1      -8.864  14.904  66.090  1.00  0.00    -0.474 OA 
HETATM   20  H   UNL     1      -7.926  14.869  66.236  1.00  0.00     0.000 HD 
BRANCH  18  21
HETATM   21  C   UNL     1      -9.164  15.483  68.397  1.00  0.00    -0.191 C  
HETATM   22  C   UNL     1      -7.764  16.049  68.148  1.00  0.00    -0.136 C  
HETATM   23  O   UNL     1      -9.174  14.770  69.631  1.00  0.00    -0.421 OA 
HETATM   24  H   UNL     1      -8.884  15.336  70.337  1.00  0.00     0.000 HD 
ENDBRANCH  18  21
ENDBRANCH   1  18
TORSDOF 2
ENDMDL
MODEL       55
REMARK 921   NORMALIZED FREE ENERGY PREDICTED BY IDOCK:   -4.96 KCAL/MOL
REMARK 922        TOTAL FREE ENERGY PREDICTED BY IDOCK:   -6.02 KCAL/MOL
REMARK 923 INTER-LIGAND FREE ENERGY PREDICTED BY IDOCK:   -5.56 KCAL/MOL
REMARK 924 INTRA-LIGAND FREE ENERGY PREDICTED BY IDOCK:   -0.47 KCAL/MOL
REMARK 927      BINDING AFFINITY PREDICTED BY RF-SCORE:    0.00 PKD
ROOT
HETATM    1  C   UNL     1     -11.406  13.515  68.097  1.00  0.00    -0.286 C  
HETATM    2  C   UNL     1     -12.085  14.083  69.381  1.00  0.00    -0.340 C  
HETATM    3  H   UNL     1      -9.408  18.588  66.368  1.00  0.00     0.000 HD 
HETATM    4  C   UNL     1      -9.821  18.163  68.336  1.00  0.00    -0.370 C  
HETATM    5  N   UNL     1     -11.634  15.439  69.714  1.00  0.00    -0.298 NA 
HETATM    6  H1  UNL     1      -9.091  19.421  69.747  1.00  0.00     0.000 HD 
HETATM    7  H2  UNL     1      -8.592  19.820  68.085  1.00  0.00     0.000 HD 
HETATM    8  N   UNL     1      -9.101  19.232  68.746  1.00  0.00    -0.372 NA 
HETATM    9  H   UNL     1     -11.729  15.768  70.674  1.00  0.00     0.000 HD 
HETATM   10  N   UNL     1      -9.834  17.912  67.001  1.00  0.00    -0.300 N  
HETATM   11  C   UNL     1     -11.078  16.292  68.762  1.00  0.00    -0.355 C  
HETATM   12  C   UNL     1     -11.047  15.880  67.467  1.00  0.00    -0.235 C  
HETATM   13  N   UNL     1     -10.444  17.428  69.198  1.00  0.00    -0.313 NA 
HETATM   14  C   UNL     1     -10.397  16.790  66.482  1.00  0.00    -0.301 C  
HETATM   15  N   UNL     1     -11.403  14.586  67.065  1.00  0.00    -0.337 NA 
HETATM   16  H   UNL     1     -11.652  14.386  66.097  1.00  0.00     0.000 HD 
HETATM   17  O   UNL     1     -10.293  16.491  65.292  1.00  0.00    -0.596 OA 
ENDROOT
BRANCH   1  18
HETATM   18  C   UNL     1      -9.959  12.956  68.325  1.00  0.00    -0.234 C  
HETATM   19  O   UNL     1      -9.924  11.789  69.156  1.00  0.00    -0.412 OA 
HETATM   20  H   UNL     1      -9.048  11.450  69.295  1.00  0.00     0.000 HD 
BRANCH  18  21
HETATM   21  C   UNL     1      -9.229  12.606  67.012  1.00  0.00    -0.212 C  
HETATM   22  C   UNL     1      -8.115  11.578  67.226  1.00  0.00    -0.153 C  
HETATM   23  O   UNL     1      -8.680  13.784  66.426  1.00  0.00    -0.446 OA 
HETATM   24  H   UNL     1      -8.231  13.568  65.618  1.00  0.00     0.000 HD 
ENDBRANCH  18  21
ENDBRANCH   1  18
TORSDOF 2
ENDMDL
MODEL       56
REMARK 921   NORMALIZED FREE ENERGY PREDICTED BY IDOCK:   -4.96 KCAL/MOL
REMARK 922        TOTAL FREE ENERGY PREDICTED BY IDOCK:   -6.02 KCAL/MOL
REMARK 923 INTER-LIGAND FREE ENERGY PREDICTED BY IDOCK:   -5.57 KCAL/MOL
REMARK 924 INTRA-LIGAND FREE ENERGY PREDICTED BY IDOCK:   -0.45 KCAL/MOL
REMARK 927      BINDING AFFINITY PREDICTED BY RF-SCORE:    0.00 PKD
ROOT
HETATM    1  C   UNL     1     -10.383  13.014  68.625  1.00  0.00    -0.191 C  
HETATM    2  C   UNL     1     -11.754  13.741  68.783  1.00  0.00    -0.356 C  
HETATM    3  H   UNL     1     -11.260  11.580  63.159  1.00  0.00     0.000 HD 
HETATM    4  C   UNL     1     -12.178  13.189  64.052  1.00  0.00    -0.414 C  
HETATM    5  N   UNL     1     -12.404  14.018  67.497  1.00  0.00    -0.521 NA 
HETATM    6  H1  UNL     1     -13.073  14.553  62.850  1.00  0.00     0.000 HD 
HETATM    7  H2  UNL     1     -12.223  13.256  61.975  1.00  0.00     0.000 HD 
HETATM    8  N   UNL     1     -12.514  13.700  62.846  1.00  0.00    -0.416 NA 
HETATM    9  H   UNL     1     -13.098  14.763  67.446  1.00  0.00     0.000 HD 
HETATM   10  N   UNL     1     -11.433  12.052  64.046  1.00  0.00    -0.377 N  
HETATM   11  C   UNL     1     -12.106  13.296  66.342  1.00  0.00    -0.394 C  
HETATM   12  C   UNL     1     -11.254  12.241  66.443  1.00  0.00    -0.324 C  
HETATM   13  N   UNL     1     -12.550  13.781  65.138  1.00  0.00    -0.614 NA 
HETATM   14  C   UNL     1     -10.910  11.524  65.183  1.00  0.00    -0.265 C  
HETATM   15  N   UNL     1     -10.546  11.937  67.613  1.00  0.00    -0.206 NA 
HETATM   16  H   UNL     1     -10.155  11.008  67.765  1.00  0.00     0.000 HD 
HETATM   17  O   UNL     1     -10.125  10.576  65.169  1.00  0.00    -0.291 OA 
ENDROOT
BRANCH   1  18
HETATM   18  C   UNL     1      -9.190  13.960  68.248  1.00  0.00    -0.207 C  
HETATM   19  O   UNL     1      -8.837  14.875  69.293  1.00  0.00    -0.323 OA 
HETATM   20  H   UNL     1      -8.115  15.448  69.064  1.00  0.00     0.000 HD 
BRANCH  18  21
HETATM   21  C   UNL     1      -7.909  13.195  67.857  1.00  0.00    -0.151 C  
HETATM   22  C   UNL     1      -6.654  14.060  67.994  1.00  0.00    -0.150 C  
HETATM   23  O   UNL     1      -8.012  12.720  66.517  1.00  0.00    -0.374 OA 
HETATM   24  H   UNL     1      -7.223  12.249  66.276  1.00  0.00     0.000 HD 
ENDBRANCH  18  21
ENDBRANCH   1  18
TORSDOF 2
ENDMDL
MODEL       57
REMARK 921   NORMALIZED FREE ENERGY PREDICTED BY IDOCK:   -4.87 KCAL/MOL
REMARK 922        TOTAL FREE ENERGY PREDICTED BY IDOCK:   -5.93 KCAL/MOL
REMARK 923 INTER-LIGAND FREE ENERGY PREDICTED BY IDOCK:   -5.53 KCAL/MOL
REMARK 924 INTRA-LIGAND FREE ENERGY PREDICTED BY IDOCK:   -0.40 KCAL/MOL
REMARK 927      BINDING AFFINITY PREDICTED BY RF-SCORE:    0.00 PKD
ROOT
HETATM    1  C   UNL     1     -11.700  14.156  67.375  1.00  0.00    -0.391 C  
HETATM    2  C   UNL     1     -11.346  13.370  68.675  1.00  0.00    -0.286 C  
HETATM    3  H   UNL     1      -6.483  16.424  66.784  1.00  0.00     0.000 HD 
HETATM    4  C   UNL     1      -6.828  14.664  67.790  1.00  0.00    -0.176 C  
HETATM    5  N   UNL     1      -9.900  13.284  68.914  1.00  0.00    -0.426 NA 
HETATM    6  H1  UNL     1      -5.233  13.484  68.203  1.00  0.00     0.000 HD 
HETATM    7  H2  UNL     1      -4.841  14.931  67.243  1.00  0.00     0.000 HD 
HETATM    8  N   UNL     1      -5.515  14.344  67.733  1.00  0.00    -0.303 NA 
HETATM    9  H   UNL     1      -9.542  12.535  69.505  1.00  0.00     0.000 HD 
HETATM   10  N   UNL     1      -7.203  15.810  67.163  1.00  0.00    -0.213 N  
HETATM   11  C   UNL     1      -8.999  14.191  68.358  1.00  0.00    -0.189 C  
HETATM   12  C   UNL     1      -9.495  15.243  67.653  1.00  0.00    -0.205 C  
HETATM   13  N   UNL     1      -7.661  13.893  68.407  1.00  0.00    -0.132 NA 
HETATM   14  C   UNL     1      -8.508  16.164  67.024  1.00  0.00    -0.208 C  
HETATM   15  N   UNL     1     -10.852  15.377  67.329  1.00  0.00    -0.312 NA 
HETATM   16  H   UNL     1     -11.244  16.281  67.068  1.00  0.00     0.000 HD 
HETATM   17  O   UNL     1      -8.859  17.126  66.341  1.00  0.00    -0.245 OA 
ENDROOT
BRANCH   1  18
HETATM   18  C   UNL     1     -11.552  13.321  66.056  1.00  0.00    -0.349 C  
HETATM   19  O   UNL     1     -12.341  12.125  66.048  1.00  0.00    -0.550 OA 
HETATM   20  H   UNL     1     -12.251  11.619  65.249  1.00  0.00     0.000 HD 
BRANCH  18  21
HETATM   21  C   UNL     1     -11.918  14.121  64.788  1.00  0.00    -0.431 C  
HETATM   22  C   UNL     1     -11.965  13.236  63.540  1.00  0.00    -0.537 C  
HETATM   23  O   UNL     1     -10.979  15.175  64.586  1.00  0.00    -0.572 OA 
HETATM   24  H   UNL     1     -11.205  15.667  63.805  1.00  0.00     0.000 HD 
ENDBRANCH  18  21
ENDBRANCH   1  18
TORSDOF 2
ENDMDL
MODEL       58
REMARK 921   NORMALIZED FREE ENERGY PREDICTED BY IDOCK:   -4.85 KCAL/MOL
REMARK 922        TOTAL FREE ENERGY PREDICTED BY IDOCK:   -5.91 KCAL/MOL
REMARK 923 INTER-LIGAND FREE ENERGY PREDICTED BY IDOCK:   -5.60 KCAL/MOL
REMARK 924 INTRA-LIGAND FREE ENERGY PREDICTED BY IDOCK:   -0.31 KCAL/MOL
REMARK 927      BINDING AFFINITY PREDICTED BY RF-SCORE:    0.00 PKD
ROOT
HETATM    1  C   UNL     1      -9.251   9.037  66.962  1.00  0.00    -0.136 C  
HETATM    2  C   UNL     1      -8.713   8.857  65.508  1.00  0.00    -0.183 C  
HETATM    3  H   UNL     1     -12.374  13.664  65.717  1.00  0.00     0.000 HD 
HETATM    4  C   UNL     1     -11.863  12.251  64.313  1.00  0.00    -0.403 C  
HETATM    5  N   UNL     1      -9.463   9.643  64.522  1.00  0.00    -0.432 NA 
HETATM    6  H1  UNL     1     -12.855  12.273  62.547  1.00  0.00     0.000 HD 
HETATM    7  H2  UNL     1     -13.442  13.469  63.728  1.00  0.00     0.000 HD 
HETATM    8  N   UNL     1     -12.808  12.715  63.464  1.00  0.00    -0.701 NA 
HETATM    9  H   UNL     1      -9.441   9.356  63.543  1.00  0.00     0.000 HD 
HETATM   10  N   UNL     1     -11.800  12.841  65.536  1.00  0.00    -0.398 N  
HETATM   11  C   UNL     1     -10.206  10.768  64.875  1.00  0.00    -0.320 C  
HETATM   12  C   UNL     1     -10.148  11.199  66.164  1.00  0.00    -0.238 C  
HETATM   13  N   UNL     1     -11.083  11.285  63.956  1.00  0.00    -0.330 NA 
HETATM   14  C   UNL     1     -10.997  12.370  66.525  1.00  0.00    -0.272 C  
HETATM   15  N   UNL     1      -9.506  10.485  67.183  1.00  0.00    -0.158 NA 
HETATM   16  H   UNL     1      -9.223  10.943  68.049  1.00  0.00     0.000 HD 
HETATM   17  O   UNL     1     -11.036  12.815  67.673  1.00  0.00    -0.231 OA 
ENDROOT
BRANCH   1  18
HETATM   18  C   UNL     1     -10.529   8.188  67.287  1.00  0.00    -0.309 C  
HETATM   19  O   UNL     1     -10.720   7.083  66.394  1.00  0.00    -0.464 OA 
HETATM   20  H   UNL     1     -11.494   6.569  66.591  1.00  0.00     0.000 HD 
BRANCH  18  21
HETATM   21  C   UNL     1     -10.533   7.624  68.722  1.00  0.00    -0.189 C  
HETATM   22  C   UNL     1     -11.071   6.192  68.780  1.00  0.00    -0.398 C  
HETATM   23  O   UNL     1     -11.317   8.458  69.574  1.00  0.00    -0.438 OA 
HETATM   24  H   UNL     1     -11.320   8.110  70.458  1.00  0.00     0.000 HD 
ENDBRANCH  18  21
ENDBRANCH   1  18
TORSDOF 2
ENDMDL
MODEL       59
REMARK 921   NORMALIZED FREE ENERGY PREDICTED BY IDOCK:   -4.84 KCAL/MOL
REMARK 922        TOTAL FREE ENERGY PREDICTED BY IDOCK:   -5.90 KCAL/MOL
REMARK 923 INTER-LIGAND FREE ENERGY PREDICTED BY IDOCK:   -5.43 KCAL/MOL
REMARK 924 INTRA-LIGAND FREE ENERGY PREDICTED BY IDOCK:   -0.47 KCAL/MOL
REMARK 927      BINDING AFFINITY PREDICTED BY RF-SCORE:    0.00 PKD
ROOT
HETATM    1  C   UNL     1     -10.966  15.187  68.537  1.00  0.00    -0.262 C  
HETATM    2  C   UNL     1     -11.026  15.989  69.874  1.00  0.00    -0.353 C  
HETATM    3  H   UNL     1      -9.387  19.689  65.382  1.00  0.00     0.000 HD 
HETATM    4  C   UNL     1      -9.018  19.556  67.400  1.00  0.00    -0.307 C  
HETATM    5  N   UNL     1     -10.363  17.296  69.785  1.00  0.00    -0.075 NA 
HETATM    6  H1  UNL     1      -7.680  20.849  68.203  1.00  0.00     0.000 HD 
HETATM    7  H2  UNL     1      -7.851  20.980  66.435  1.00  0.00     0.000 HD 
HETATM    8  N   UNL     1      -8.104  20.550  67.325  1.00  0.00    -0.338 NA 
HETATM    9  H   UNL     1     -10.039  17.743  70.642  1.00  0.00     0.000 HD 
HETATM   10  N   UNL     1      -9.583  19.158  66.230  1.00  0.00    -0.355 N  
HETATM   11  C   UNL     1     -10.160  17.946  68.569  1.00  0.00    -0.391 C  
HETATM   12  C   UNL     1     -10.683  17.389  67.445  1.00  0.00    -0.251 C  
HETATM   13  N   UNL     1      -9.308  19.021  68.540  1.00  0.00    -0.358 NA 
HETATM   14  C   UNL     1     -10.401  18.076  66.153  1.00  0.00    -0.366 C  
HETATM   15  N   UNL     1     -11.281  16.122  67.424  1.00  0.00    -0.131 NA 
HETATM   16  H   UNL     1     -11.911  15.850  66.670  1.00  0.00     0.000 HD 
HETATM   17  O   UNL     1     -10.806  17.632  65.078  1.00  0.00    -0.758 OA 
ENDROOT
BRANCH   1  18
HETATM   18  C   UNL     1      -9.602  14.456  68.284  1.00  0.00    -0.211 C  
HETATM   19  O   UNL     1      -8.656  14.631  69.347  1.00  0.00    -0.381 OA 
HETATM   20  H   UNL     1      -7.830  14.188  69.193  1.00  0.00     0.000 HD 
BRANCH  18  21
HETATM   21  C   UNL     1      -9.760  12.938  68.057  1.00  0.00    -0.224 C  
HETATM   22  C   UNL     1     -11.215  12.482  68.195  1.00  0.00    -0.312 C  
HETATM   23  O   UNL     1      -8.948  12.217  68.981  1.00  0.00    -0.359 OA 
HETATM   24  H   UNL     1      -9.046  11.283  68.841  1.00  0.00     0.000 HD 
ENDBRANCH  18  21
ENDBRANCH   1  18
TORSDOF 2
ENDMDL
MODEL       60
REMARK 921   NORMALIZED FREE ENERGY PREDICTED BY IDOCK:   -4.83 KCAL/MOL
REMARK 922        TOTAL FREE ENERGY PREDICTED BY IDOCK:   -5.88 KCAL/MOL
REMARK 923 INTER-LIGAND FREE ENERGY PREDICTED BY IDOCK:   -5.40 KCAL/MOL
REMARK 924 INTRA-LIGAND FREE ENERGY PREDICTED BY IDOCK:   -0.49 KCAL/MOL
REMARK 927      BINDING AFFINITY PREDICTED BY RF-SCORE:    0.00 PKD
ROOT
HETATM    1  C   UNL     1     -10.431   7.025  73.234  1.00  0.00    -0.330 C  
HETATM    2  C   UNL     1      -9.147   7.852  72.915  1.00  0.00    -0.220 C  
HETATM    3  H   UNL     1     -13.955  10.581  70.467  1.00  0.00     0.000 HD 
HETATM    4  C   UNL     1     -11.957  10.410  70.011  1.00  0.00    -0.247 C  
HETATM    5  N   UNL     1      -9.358   8.846  71.857  1.00  0.00    -0.352 NA 
HETATM    6  H1  UNL     1     -11.318  11.196  68.256  1.00  0.00     0.000 HD 
HETATM    7  H2  UNL     1     -13.077  11.307  68.508  1.00  0.00     0.000 HD 
HETATM    8  N   UNL     1     -12.148  11.027  68.823  1.00  0.00    -0.535 NA 
HETATM    9  H   UNL     1      -8.551   9.189  71.335  1.00  0.00     0.000 HD 
HETATM   10  N   UNL     1     -13.064  10.185  70.766  1.00  0.00    -0.343 N  
HETATM   11  C   UNL     1     -10.622   9.339  71.539  1.00  0.00    -0.335 C  
HETATM   12  C   UNL     1     -11.677   8.950  72.305  1.00  0.00    -0.280 C  
HETATM   13  N   UNL     1     -10.770  10.054  70.377  1.00  0.00    -0.303 NA 
HETATM   14  C   UNL     1     -13.023   9.447  71.907  1.00  0.00    -0.417 C  
HETATM   15  N   UNL     1     -11.582   7.966  73.297  1.00  0.00    -0.550 NA 
HETATM   16  H   UNL     1     -12.278   7.897  74.038  1.00  0.00     0.000 HD 
HETATM   17  O   UNL     1     -14.042   9.126  72.520  1.00  0.00    -0.472 OA 
ENDROOT
BRANCH   1  18
HETATM   18  C   UNL     1     -10.717   5.861  72.223  1.00  0.00    -0.234 C  
HETATM   19  O   UNL     1     -10.061   6.029  70.960  1.00  0.00    -0.182 OA 
HETATM   20  H   UNL     1     -10.234   5.324  70.348  1.00  0.00     0.000 HD 
BRANCH  18  21
HETATM   21  C   UNL     1     -10.315   4.474  72.767  1.00  0.00    -0.187 C  
HETATM   22  C   UNL     1     -10.334   4.424  74.297  1.00  0.00    -0.296 C  
HETATM   23  O   UNL     1      -9.015   4.122  72.298  1.00  0.00    -0.112 OA 
HETATM   24  H   UNL     1      -8.768   3.268  72.633  1.00  0.00     0.000 HD 
ENDBRANCH  18  21
ENDBRANCH   1  18
TORSDOF 2
ENDMDL
MODEL       61
REMARK 921   NORMALIZED FREE ENERGY PREDICTED BY IDOCK:   -4.80 KCAL/MOL
REMARK 922        TOTAL FREE ENERGY PREDICTED BY IDOCK:   -5.85 KCAL/MOL
REMARK 923 INTER-LIGAND FREE ENERGY PREDICTED BY IDOCK:   -5.38 KCAL/MOL
REMARK 924 INTRA-LIGAND FREE ENERGY PREDICTED BY IDOCK:   -0.47 KCAL/MOL
REMARK 927      BINDING AFFINITY PREDICTED BY RF-SCORE:    0.00 PKD
ROOT
HETATM    1  C   UNL     1      -9.907  17.436  68.349  1.00  0.00    -0.316 C  
HETATM    2  C   UNL     1     -10.529  16.738  67.100  1.00  0.00    -0.299 C  
HETATM    3  H   UNL     1     -12.459  13.971  72.116  1.00  0.00     0.000 HD 
HETATM    4  C   UNL     1     -12.069  13.416  70.175  1.00  0.00    -0.344 C  
HETATM    5  N   UNL     1     -11.118  15.430  67.411  1.00  0.00    -0.324 NA 
HETATM    6  H1  UNL     1     -12.195  11.447  69.712  1.00  0.00     0.000 HD 
HETATM    7  H2  UNL     1     -12.451  11.809  71.437  1.00  0.00     0.000 HD 
HETATM    8  N   UNL     1     -12.257  12.112  70.482  1.00  0.00    -0.349 NA 
HETATM    9  H   UNL     1     -11.235  14.751  66.659  1.00  0.00     0.000 HD 
HETATM   10  N   UNL     1     -12.152  14.302  71.202  1.00  0.00    -0.345 N  
HETATM   11  C   UNL     1     -11.522  15.084  68.699  1.00  0.00    -0.311 C  
HETATM   12  C   UNL     1     -11.454  16.031  69.672  1.00  0.00    -0.326 C  
HETATM   13  N   UNL     1     -11.811  13.769  68.959  1.00  0.00    -0.338 NA 
HETATM   14  C   UNL     1     -11.839  15.615  71.050  1.00  0.00    -0.400 C  
HETATM   15  N   UNL     1     -10.857  17.284  69.482  1.00  0.00    -0.303 NA 
HETATM   16  H   UNL     1     -11.067  18.066  70.102  1.00  0.00     0.000 HD 
HETATM   17  O   UNL     1     -11.781  16.393  72.004  1.00  0.00    -0.499 OA 
ENDROOT
BRANCH   1  18
HETATM   18  C   UNL     1      -8.482  16.909  68.739  1.00  0.00    -0.244 C  
HETATM   19  O   UNL     1      -8.109  15.710  68.047  1.00  0.00    -0.133 OA 
HETATM   20  H   UNL     1      -7.246  15.391  68.284  1.00  0.00     0.000 HD 
BRANCH  18  21
HETATM   21  C   UNL     1      -7.365  17.945  68.496  1.00  0.00    -0.268 C  
HETATM   22  C   UNL     1      -6.115  17.654  69.331  1.00  0.00    -0.242 C  
HETATM   23  O   UNL     1      -7.839  19.256  68.795  1.00  0.00    -0.342 OA 
HETATM   24  H   UNL     1      -7.151  19.893  68.646  1.00  0.00     0.000 HD 
ENDBRANCH  18  21
ENDBRANCH   1  18
TORSDOF 2
ENDMDL
MODEL       62
REMARK 921   NORMALIZED FREE ENERGY PREDICTED BY IDOCK:   -4.79 KCAL/MOL
REMARK 922        TOTAL FREE ENERGY PREDICTED BY IDOCK:   -5.84 KCAL/MOL
REMARK 923 INTER-LIGAND FREE ENERGY PREDICTED BY IDOCK:   -5.42 KCAL/MOL
REMARK 924 INTRA-LIGAND FREE ENERGY PREDICTED BY IDOCK:   -0.42 KCAL/MOL
REMARK 927      BINDING AFFINITY PREDICTED BY RF-SCORE:    0.00 PKD
ROOT
HETATM    1  C   UNL     1     -11.872   7.657  70.960  1.00  0.00    -0.285 C  
HETATM    2  C   UNL     1     -13.316   7.566  71.544  1.00  0.00    -0.352 C  
HETATM    3  H   UNL     1     -11.925  13.358  70.509  1.00  0.00     0.000 HD 
HETATM    4  C   UNL     1     -13.098  12.334  71.851  1.00  0.00    -0.363 C  
HETATM    5  N   UNL     1     -13.826   8.863  72.006  1.00  0.00    -0.435 NA 
HETATM    6  H1  UNL     1     -13.966  13.391  73.346  1.00  0.00     0.000 HD 
HETATM    7  H2  UNL     1     -12.892  14.353  72.300  1.00  0.00     0.000 HD 
HETATM    8  N   UNL     1     -13.330  13.467  72.553  1.00  0.00    -0.527 NA 
HETATM    9  H   UNL     1     -14.577   8.878  72.696  1.00  0.00     0.000 HD 
HETATM   10  N   UNL     1     -12.251  12.435  70.794  1.00  0.00    -0.333 N  
HETATM   11  C   UNL     1     -13.320  10.073  71.536  1.00  0.00    -0.361 C  
HETATM   12  C   UNL     1     -12.389  10.040  70.545  1.00  0.00    -0.200 C  
HETATM   13  N   UNL     1     -13.657  11.223  72.203  1.00  0.00    -0.163 NA 
HETATM   14  C   UNL     1     -11.824  11.346  70.103  1.00  0.00    -0.355 C  
HETATM   15  N   UNL     1     -11.804   8.854  70.081  1.00  0.00    -0.443 NA 
HETATM   16  H   UNL     1     -11.346   8.814  69.171  1.00  0.00     0.000 HD 
HETATM   17  O   UNL     1     -10.955  11.417  69.233  1.00  0.00    -0.233 OA 
ENDROOT
BRANCH   1  18
HETATM   18  C   UNL     1     -10.739   7.694  72.044  1.00  0.00    -0.227 C  
HETATM   19  O   UNL     1     -11.217   7.456  73.374  1.00  0.00    -0.587 OA 
HETATM   20  H   UNL     1     -10.530   7.479  74.031  1.00  0.00     0.000 HD 
BRANCH  18  21
HETATM   21  C   UNL     1      -9.609   6.679  71.775  1.00  0.00    -0.158 C  
HETATM   22  C   UNL     1     -10.141   5.354  71.221  1.00  0.00    -0.270 C  
HETATM   23  O   UNL     1      -8.878   6.431  72.974  1.00  0.00    -0.127 OA 
HETATM   24  H   UNL     1      -8.182   5.806  72.808  1.00  0.00     0.000 HD 
ENDBRANCH  18  21
ENDBRANCH   1  18
TORSDOF 2
ENDMDL
MODEL       63
REMARK 921   NORMALIZED FREE ENERGY PREDICTED BY IDOCK:   -4.74 KCAL/MOL
REMARK 922        TOTAL FREE ENERGY PREDICTED BY IDOCK:   -5.78 KCAL/MOL
REMARK 923 INTER-LIGAND FREE ENERGY PREDICTED BY IDOCK:   -5.29 KCAL/MOL
REMARK 924 INTRA-LIGAND FREE ENERGY PREDICTED BY IDOCK:   -0.49 KCAL/MOL
REMARK 927      BINDING AFFINITY PREDICTED BY RF-SCORE:    0.00 PKD
ROOT
HETATM    1  C   UNL     1     -11.004  10.484  67.900  1.00  0.00    -0.295 C  
HETATM    2  C   UNL     1     -11.387  10.569  69.410  1.00  0.00    -0.269 C  
HETATM    3  H   UNL     1     -11.803  16.062  66.918  1.00  0.00     0.000 HD 
HETATM    4  C   UNL     1     -11.349  15.310  68.777  1.00  0.00    -0.308 C  
HETATM    5  N   UNL     1     -11.410  11.947  69.915  1.00  0.00    -0.505 NA 
HETATM    6  H1  UNL     1     -10.740  16.616  70.201  1.00  0.00     0.000 HD 
HETATM    7  H2  UNL     1     -11.010  17.352  68.603  1.00  0.00     0.000 HD 
HETATM    8  N   UNL     1     -11.005  16.540  69.220  1.00  0.00    -0.318 NA 
HETATM    9  H   UNL     1     -11.304  12.106  70.917  1.00  0.00     0.000 HD 
HETATM   10  N   UNL     1     -11.702  15.210  67.469  1.00  0.00    -0.277 N  
HETATM   11  C   UNL     1     -11.573  13.046  69.073  1.00  0.00    -0.318 C  
HETATM   12  C   UNL     1     -11.813  12.817  67.754  1.00  0.00    -0.332 C  
HETATM   13  N   UNL     1     -11.320  14.296  69.578  1.00  0.00    -0.265 NA 
HETATM   14  C   UNL     1     -11.925  14.011  66.869  1.00  0.00    -0.447 C  
HETATM   15  N   UNL     1     -11.754  11.544  67.174  1.00  0.00    -0.577 NA 
HETATM   16  H   UNL     1     -12.209  11.350  66.282  1.00  0.00     0.000 HD 
HETATM   17  O   UNL     1     -12.112  13.905  65.656  1.00  0.00    -0.374 OA 
ENDROOT
BRANCH   1  18
HETATM   18  C   UNL     1      -9.466  10.594  67.616  1.00  0.00    -0.153 C  
HETATM   19  O   UNL     1      -8.722   9.454  68.066  1.00  0.00    -0.124 OA 
HETATM   20  H   UNL     1      -7.790   9.520  67.894  1.00  0.00     0.000 HD 
BRANCH  18  21
HETATM   21  C   UNL     1      -9.137  10.796  66.123  1.00  0.00    -0.174 C  
HETATM   22  C   UNL     1      -7.902  10.001  65.690  1.00  0.00    -0.138 C  
HETATM   23  O   UNL     1      -8.928  12.180  65.850  1.00  0.00    -0.416 OA 
HETATM   24  H   UNL     1      -8.725  12.304  64.931  1.00  0.00     0.000 HD 
ENDBRANCH  18  21
ENDBRANCH   1  18
TORSDOF 2
ENDMDL
MODEL       64
REMARK 921   NORMALIZED FREE ENERGY PREDICTED BY IDOCK:   -4.70 KCAL/MOL
REMARK 922        TOTAL FREE ENERGY PREDICTED BY IDOCK:   -5.74 KCAL/MOL
REMARK 923 INTER-LIGAND FREE ENERGY PREDICTED BY IDOCK:   -5.46 KCAL/MOL
REMARK 924 INTRA-LIGAND FREE ENERGY PREDICTED BY IDOCK:   -0.28 KCAL/MOL
REMARK 927      BINDING AFFINITY PREDICTED BY RF-SCORE:    0.00 PKD
ROOT
HETATM    1  C   UNL     1      -9.747  15.237  69.134  1.00  0.00    -0.243 C  
HETATM    2  C   UNL     1     -11.205  15.775  69.274  1.00  0.00    -0.324 C  
HETATM    3  H   UNL     1     -11.103  11.262  65.251  1.00  0.00     0.000 HD 
HETATM    4  C   UNL     1     -12.207  12.975  65.528  1.00  0.00    -0.469 C  
HETATM    5  N   UNL     1     -12.087  15.318  68.193  1.00  0.00    -0.470 NA 
HETATM    6  H1  UNL     1     -13.553  13.473  64.097  1.00  0.00     0.000 HD 
HETATM    7  H2  UNL     1     -12.579  12.032  63.714  1.00  0.00     0.000 HD 
HETATM    8  N   UNL     1     -12.827  12.800  64.339  1.00  0.00    -0.735 NA 
HETATM    9  H   UNL     1     -12.927  15.856  67.983  1.00  0.00     0.000 HD 
HETATM   10  N   UNL     1     -11.240  12.077  65.850  1.00  0.00    -0.329 N  
HETATM   11  C   UNL     1     -11.815  14.175  67.444  1.00  0.00    -0.413 C  
HETATM   12  C   UNL     1     -10.747  13.411  67.797  1.00  0.00    -0.248 C  
HETATM   13  N   UNL     1     -12.532  13.964  66.293  1.00  0.00    -0.443 NA 
HETATM   14  C   UNL     1     -10.448  12.227  66.943  1.00  0.00    -0.217 C  
HETATM   15  N   UNL     1      -9.820  13.796  68.775  1.00  0.00    -0.393 NA 
HETATM   16  H   UNL     1      -9.215  13.109  69.225  1.00  0.00     0.000 HD 
HETATM   17  O   UNL     1      -9.484  11.493  67.165  1.00  0.00    -0.175 OA 
ENDROOT
BRANCH   1  18
HETATM   18  C   UNL     1      -8.864  16.025  68.106  1.00  0.00    -0.178 C  
HETATM   19  O   UNL     1      -8.910  17.446  68.288  1.00  0.00    -0.248 OA 
HETATM   20  H   UNL     1      -8.375  17.924  67.665  1.00  0.00     0.000 HD 
BRANCH  18  21
HETATM   21  C   UNL     1      -7.379  15.608  68.137  1.00  0.00    -0.118 C  
HETATM   22  C   UNL     1      -6.441  16.814  68.225  1.00  0.00    -0.141 C  
HETATM   23  O   UNL     1      -7.060  14.844  66.975  1.00  0.00    -0.316 OA 
HETATM   24  H   UNL     1      -6.146  14.588  66.994  1.00  0.00     0.000 HD 
ENDBRANCH  18  21
ENDBRANCH   1  18
TORSDOF 2
ENDMDL
MODEL       65
REMARK 921   NORMALIZED FREE ENERGY PREDICTED BY IDOCK:   -4.70 KCAL/MOL
REMARK 922        TOTAL FREE ENERGY PREDICTED BY IDOCK:   -5.73 KCAL/MOL
REMARK 923 INTER-LIGAND FREE ENERGY PREDICTED BY IDOCK:   -5.25 KCAL/MOL
REMARK 924 INTRA-LIGAND FREE ENERGY PREDICTED BY IDOCK:   -0.48 KCAL/MOL
REMARK 927      BINDING AFFINITY PREDICTED BY RF-SCORE:    0.00 PKD
ROOT
HETATM    1  C   UNL     1      -8.241  18.092  66.342  1.00  0.00    -0.253 C  
HETATM    2  C   UNL     1      -8.053  19.611  66.042  1.00  0.00    -0.313 C  
HETATM    3  H   UNL     1      -5.137  18.196  71.146  1.00  0.00     0.000 HD 
HETATM    4  C   UNL     1      -6.091  19.857  70.397  1.00  0.00    -0.313 C  
HETATM    5  N   UNL     1      -7.540  20.361  67.195  1.00  0.00    -0.311 NA 
HETATM    6  H1  UNL     1      -6.297  21.459  71.619  1.00  0.00     0.000 HD 
HETATM    7  H2  UNL     1      -5.550  20.041  72.395  1.00  0.00     0.000 HD 
HETATM    8  N   UNL     1      -5.962  20.497  71.581  1.00  0.00    -0.666 NA 
HETATM    9  H   UNL     1      -7.701  21.367  67.239  1.00  0.00     0.000 HD 
HETATM   10  N   UNL     1      -5.644  18.575  70.345  1.00  0.00    -0.230 N  
HETATM   11  C   UNL     1      -6.841  19.746  68.231  1.00  0.00    -0.291 C  
HETATM   12  C   UNL     1      -6.547  18.423  68.114  1.00  0.00    -0.216 C  
HETATM   13  N   UNL     1      -6.630  20.456  69.386  1.00  0.00    -0.197 NA 
HETATM   14  C   UNL     1      -5.849  17.780  69.263  1.00  0.00    -0.221 C  
HETATM   15  N   UNL     1      -7.040  17.617  67.081  1.00  0.00    -0.168 NA 
HETATM   16  H   UNL     1      -6.592  16.733  66.843  1.00  0.00     0.000 HD 
HETATM   17  O   UNL     1      -5.567  16.581  69.263  1.00  0.00    -0.129 OA 
ENDROOT
BRANCH   1  18
HETATM   18  C   UNL     1      -9.553  17.746  67.127  1.00  0.00    -0.276 C  
HETATM   19  O   UNL     1     -10.334  18.899  67.466  1.00  0.00    -0.375 OA 
HETATM   20  H   UNL     1     -11.130  18.689  67.942  1.00  0.00     0.000 HD 
BRANCH  18  21
HETATM   21  C   UNL     1     -10.477  16.774  66.365  1.00  0.00    -0.269 C  
HETATM   22  C   UNL     1      -9.895  15.360  66.292  1.00  0.00    -0.320 C  
HETATM   23  O   UNL     1     -10.714  17.257  65.044  1.00  0.00    -0.708 OA 
HETATM   24  H   UNL     1     -11.283  16.658  64.575  1.00  0.00     0.000 HD 
ENDBRANCH  18  21
ENDBRANCH   1  18
TORSDOF 2
ENDMDL
MODEL       66
REMARK 921   NORMALIZED FREE ENERGY PREDICTED BY IDOCK:   -4.65 KCAL/MOL
REMARK 922        TOTAL FREE ENERGY PREDICTED BY IDOCK:   -5.68 KCAL/MOL
REMARK 923 INTER-LIGAND FREE ENERGY PREDICTED BY IDOCK:   -5.17 KCAL/MOL
REMARK 924 INTRA-LIGAND FREE ENERGY PREDICTED BY IDOCK:   -0.51 KCAL/MOL
REMARK 927      BINDING AFFINITY PREDICTED BY RF-SCORE:    0.00 PKD
ROOT
HETATM    1  C   UNL     1     -11.289  11.899  68.212  1.00  0.00    -0.277 C  
HETATM    2  C   UNL     1     -12.147  11.168  69.291  1.00  0.00    -0.308 C  
HETATM    3  H   UNL     1     -11.810  17.053  70.637  1.00  0.00     0.000 HD 
HETATM    4  C   UNL     1     -11.978  15.299  71.696  1.00  0.00    -0.372 C  
HETATM    5  N   UNL     1     -12.356  11.978  70.497  1.00  0.00    -0.319 NA 
HETATM    6  H1  UNL     1     -11.890  15.404  73.718  1.00  0.00     0.000 HD 
HETATM    7  H2  UNL     1     -11.634  16.962  72.894  1.00  0.00     0.000 HD 
HETATM    8  N   UNL     1     -11.818  15.959  72.866  1.00  0.00    -0.474 NA 
HETATM    9  H   UNL     1     -12.586  11.508  71.372  1.00  0.00     0.000 HD 
HETATM   10  N   UNL     1     -11.882  16.038  70.560  1.00  0.00    -0.342 N  
HETATM   11  C   UNL     1     -12.251  13.368  70.488  1.00  0.00    -0.352 C  
HETATM   12  C   UNL     1     -12.042  13.990  69.297  1.00  0.00    -0.338 C  
HETATM   13  N   UNL     1     -12.197  14.025  71.691  1.00  0.00    -0.231 NA 
HETATM   14  C   UNL     1     -11.878  15.471  69.326  1.00  0.00    -0.353 C  
HETATM   15  N   UNL     1     -11.776  13.300  68.107  1.00  0.00    -0.342 NA 
HETATM   16  H   UNL     1     -11.912  13.744  67.200  1.00  0.00     0.000 HD 
HETATM   17  O   UNL     1     -11.655  16.120  68.303  1.00  0.00    -0.321 OA 
ENDROOT
BRANCH   1  18
HETATM   18  C   UNL     1      -9.745  11.862  68.481  1.00  0.00    -0.169 C  
HETATM   19  O   UNL     1      -9.360  10.885  69.456  1.00  0.00    -0.409 OA 
HETATM   20  H   UNL     1      -8.424  10.863  69.619  1.00  0.00     0.000 HD 
BRANCH  18  21
HETATM   21  C   UNL     1      -8.914  11.594  67.210  1.00  0.00    -0.169 C  
HETATM   22  C   UNL     1      -7.483  12.126  67.331  1.00  0.00    -0.156 C  
HETATM   23  O   UNL     1      -9.545  12.188  66.077  1.00  0.00    -0.238 OA 
HETATM   24  H   UNL     1      -9.033  12.022  65.295  1.00  0.00     0.000 HD 
ENDBRANCH  18  21
ENDBRANCH   1  18
TORSDOF 2
ENDMDL
MODEL       67
REMARK 921   NORMALIZED FREE ENERGY PREDICTED BY IDOCK:   -4.65 KCAL/MOL
REMARK 922        TOTAL FREE ENERGY PREDICTED BY IDOCK:   -5.68 KCAL/MOL
REMARK 923 INTER-LIGAND FREE ENERGY PREDICTED BY IDOCK:   -5.20 KCAL/MOL
REMARK 924 INTRA-LIGAND FREE ENERGY PREDICTED BY IDOCK:   -0.48 KCAL/MOL
REMARK 927      BINDING AFFINITY PREDICTED BY RF-SCORE:    0.00 PKD
ROOT
HETATM    1  C   UNL     1      -9.820  11.499  68.327  1.00  0.00    -0.203 C  
HETATM    2  C   UNL     1     -10.591  12.706  68.944  1.00  0.00    -0.124 C  
HETATM    3  H   UNL     1     -11.969   7.670  71.992  1.00  0.00     0.000 HD 
HETATM    4  C   UNL     1     -12.930   9.425  71.520  1.00  0.00    -0.371 C  
HETATM    5  N   UNL     1     -11.677  12.291  69.841  1.00  0.00    -0.463 NA 
HETATM    6  H1  UNL     1     -14.884   9.598  72.029  1.00  0.00     0.000 HD 
HETATM    7  H2  UNL     1     -14.174   8.006  72.389  1.00  0.00     0.000 HD 
HETATM    8  N   UNL     1     -14.093   8.956  72.027  1.00  0.00    -0.425 NA 
HETATM    9  H   UNL     1     -12.442  12.940  70.021  1.00  0.00     0.000 HD 
HETATM   10  N   UNL     1     -11.876   8.568  71.518  1.00  0.00    -0.284 N  
HETATM   11  C   UNL     1     -11.698  11.040  70.454  1.00  0.00    -0.343 C  
HETATM   12  C   UNL     1     -10.625  10.221  70.286  1.00  0.00    -0.204 C  
HETATM   13  N   UNL     1     -12.860  10.629  71.055  1.00  0.00    -0.386 NA 
HETATM   14  C   UNL     1     -10.701   8.869  70.906  1.00  0.00    -0.231 C  
HETATM   15  N   UNL     1      -9.572  10.508  69.408  1.00  0.00    -0.357 NA 
HETATM   16  H   UNL     1      -8.665  10.053  69.507  1.00  0.00     0.000 HD 
HETATM   17  O   UNL     1      -9.792   8.046  70.784  1.00  0.00    -0.182 OA 
ENDROOT
BRANCH   1  18
HETATM   18  C   UNL     1     -10.543  10.827  67.108  1.00  0.00    -0.256 C  
HETATM   19  O   UNL     1     -11.894  11.272  66.932  1.00  0.00    -0.423 OA 
HETATM   20  H   UNL     1     -12.332  10.864  66.194  1.00  0.00     0.000 HD 
BRANCH  18  21
HETATM   21  C   UNL     1      -9.809  11.049  65.770  1.00  0.00    -0.235 C  
HETATM   22  C   UNL     1      -9.426   9.730  65.094  1.00  0.00    -0.338 C  
HETATM   23  O   UNL     1      -8.635  11.832  65.978  1.00  0.00    -0.371 OA 
HETATM   24  H   UNL     1      -8.184  11.969  65.154  1.00  0.00     0.000 HD 
ENDBRANCH  18  21
ENDBRANCH   1  18
TORSDOF 2
ENDMDL
MODEL       68
REMARK 921   NORMALIZED FREE ENERGY PREDICTED BY IDOCK:   -4.56 KCAL/MOL
REMARK 922        TOTAL FREE ENERGY PREDICTED BY IDOCK:   -5.58 KCAL/MOL
REMARK 923 INTER-LIGAND FREE ENERGY PREDICTED BY IDOCK:   -5.12 KCAL/MOL
REMARK 924 INTRA-LIGAND FREE ENERGY PREDICTED BY IDOCK:   -0.46 KCAL/MOL
REMARK 927      BINDING AFFINITY PREDICTED BY RF-SCORE:    0.00 PKD
ROOT
HETATM    1  C   UNL     1      -9.812  16.512  66.058  1.00  0.00    -0.322 C  
HETATM    2  C   UNL     1     -10.636  17.801  66.360  1.00  0.00    -0.218 C  
HETATM    3  H   UNL     1      -4.974  18.522  68.354  1.00  0.00     0.000 HD 
HETATM    4  C   UNL     1      -6.836  19.194  68.909  1.00  0.00    -0.322 C  
HETATM    5  N   UNL     1      -9.971  18.691  67.319  1.00  0.00    -0.315 NA 
HETATM    6  H1  UNL     1      -6.980  20.276  70.616  1.00  0.00     0.000 HD 
HETATM    7  H2  UNL     1      -5.345  19.658  70.279  1.00  0.00     0.000 HD 
HETATM    8  N   UNL     1      -6.329  19.754  70.031  1.00  0.00    -0.332 NA 
HETATM    9  H   UNL     1     -10.535  19.360  67.844  1.00  0.00     0.000 HD 
HETATM   10  N   UNL     1      -5.968  18.497  68.129  1.00  0.00    -0.190 N  
HETATM   11  C   UNL     1      -8.595  18.654  67.538  1.00  0.00    -0.269 C  
HETATM   12  C   UNL     1      -7.841  17.830  66.764  1.00  0.00    -0.233 C  
HETATM   13  N   UNL     1      -8.091  19.320  68.627  1.00  0.00    -0.363 NA 
HETATM   14  C   UNL     1      -6.382  17.769  67.059  1.00  0.00    -0.162 C  
HETATM   15  N   UNL     1      -8.391  16.907  65.864  1.00  0.00    -0.485 NA 
HETATM   16  H   UNL     1      -7.836  16.519  65.103  1.00  0.00     0.000 HD 
HETATM   17  O   UNL     1      -5.622  17.030  66.432  1.00  0.00    -0.305 OA 
ENDROOT
BRANCH   1  18
HETATM   18  C   UNL     1      -9.937  15.395  67.152  1.00  0.00    -0.234 C  
HETATM   19  O   UNL     1     -11.089  15.545  67.990  1.00  0.00    -0.299 OA 
HETATM   20  H   UNL     1     -11.165  14.869  68.653  1.00  0.00     0.000 HD 
BRANCH  18  21
HETATM   21  C   UNL     1      -9.982  13.970  66.562  1.00  0.00    -0.284 C  
HETATM   22  C   UNL     1      -8.866  13.079  67.113  1.00  0.00    -0.218 C  
HETATM   23  O   UNL     1      -9.885  14.025  65.140  1.00  0.00    -0.570 OA 
HETATM   24  H   UNL     1      -9.913  13.148  64.777  1.00  0.00     0.000 HD 
ENDBRANCH  18  21
ENDBRANCH   1  18
TORSDOF 2
ENDMDL
MODEL       69
REMARK 921   NORMALIZED FREE ENERGY PREDICTED BY IDOCK:   -4.55 KCAL/MOL
REMARK 922        TOTAL FREE ENERGY PREDICTED BY IDOCK:   -5.57 KCAL/MOL
REMARK 923 INTER-LIGAND FREE ENERGY PREDICTED BY IDOCK:   -5.08 KCAL/MOL
REMARK 924 INTRA-LIGAND FREE ENERGY PREDICTED BY IDOCK:   -0.50 KCAL/MOL
REMARK 927      BINDING AFFINITY PREDICTED BY RF-SCORE:    0.00 PKD
ROOT
HETATM    1  C   UNL     1      -9.781  10.467  68.853  1.00  0.00    -0.199 C  
HETATM    2  C   UNL     1     -10.745  11.693  68.903  1.00  0.00    -0.207 C  
HETATM    3  H   UNL     1     -12.196   7.815  73.309  1.00  0.00     0.000 HD 
HETATM    4  C   UNL     1     -13.206   9.164  72.131  1.00  0.00    -0.458 C  
HETATM    5  N   UNL     1     -11.929  11.454  69.736  1.00  0.00    -0.334 NA 
HETATM    6  H1  UNL     1     -15.226   9.226  72.285  1.00  0.00     0.000 HD 
HETATM    7  H2  UNL     1     -14.457   7.957  73.270  1.00  0.00     0.000 HD 
HETATM    8  N   UNL     1     -14.395   8.735  72.613  1.00  0.00    -0.574 NA 
HETATM    9  H   UNL     1     -12.766  12.014  69.576  1.00  0.00     0.000 HD 
HETATM   10  N   UNL     1     -12.099   8.509  72.568  1.00  0.00    -0.375 N  
HETATM   11  C   UNL     1     -11.950  10.487  70.740  1.00  0.00    -0.370 C  
HETATM   12  C   UNL     1     -10.799   9.815  71.012  1.00  0.00    -0.308 C  
HETATM   13  N   UNL     1     -13.159  10.143  71.288  1.00  0.00    -0.385 NA 
HETATM   14  C   UNL     1     -10.866   8.748  72.049  1.00  0.00    -0.358 C  
HETATM   15  N   UNL     1      -9.639   9.936  70.235  1.00  0.00    -0.377 NA 
HETATM   16  H   UNL     1      -8.728   9.668  70.606  1.00  0.00     0.000 HD 
HETATM   17  O   UNL     1      -9.884   8.065  72.343  1.00  0.00    -0.200 OA 
ENDROOT
BRANCH   1  18
HETATM   18  C   UNL     1     -10.226   9.336  67.863  1.00  0.00    -0.214 C  
HETATM   19  O   UNL     1     -10.279   9.765  66.496  1.00  0.00    -0.232 OA 
HETATM   20  H   UNL     1     -10.549   9.080  65.896  1.00  0.00     0.000 HD 
BRANCH  18  21
HETATM   21  C   UNL     1      -9.317   8.090  67.917  1.00  0.00    -0.138 C  
HETATM   22  C   UNL     1      -9.143   7.441  66.541  1.00  0.00    -0.195 C  
HETATM   23  O   UNL     1      -9.853   7.132  68.827  1.00  0.00    -0.154 OA 
HETATM   24  H   UNL     1      -9.293   6.366  68.860  1.00  0.00     0.000 HD 
ENDBRANCH  18  21
ENDBRANCH   1  18
TORSDOF 2
ENDMDL
MODEL       70
REMARK 921   NORMALIZED FREE ENERGY PREDICTED BY IDOCK:   -4.54 KCAL/MOL
REMARK 922        TOTAL FREE ENERGY PREDICTED BY IDOCK:   -5.55 KCAL/MOL
REMARK 923 INTER-LIGAND FREE ENERGY PREDICTED BY IDOCK:   -5.32 KCAL/MOL
REMARK 924 INTRA-LIGAND FREE ENERGY PREDICTED BY IDOCK:   -0.24 KCAL/MOL
REMARK 927      BINDING AFFINITY PREDICTED BY RF-SCORE:    0.00 PKD
ROOT
HETATM    1  C   UNL     1     -11.740  13.512  67.365  1.00  0.00    -0.380 C  
HETATM    2  C   UNL     1     -11.707  13.320  68.913  1.00  0.00    -0.327 C  
HETATM    3  H   UNL     1      -7.840  17.696  67.346  1.00  0.00     0.000 HD 
HETATM    4  C   UNL     1      -7.951  16.280  68.833  1.00  0.00    -0.230 C  
HETATM    5  N   UNL     1     -10.550  13.967  69.543  1.00  0.00    -0.444 NA 
HETATM    6  H1  UNL     1      -6.370  16.102  70.088  1.00  0.00     0.000 HD 
HETATM    7  H2  UNL     1      -6.132  17.284  68.777  1.00  0.00     0.000 HD 
HETATM    8  N   UNL     1      -6.706  16.593  69.260  1.00  0.00    -0.213 NA 
HETATM    9  H   UNL     1     -10.236  13.636  70.454  1.00  0.00     0.000 HD 
HETATM   10  N   UNL     1      -8.398  16.933  67.729  1.00  0.00    -0.192 N  
HETATM   11  C   UNL     1      -9.865  15.019  68.938  1.00  0.00    -0.233 C  
HETATM   12  C   UNL     1     -10.351  15.519  67.770  1.00  0.00    -0.263 C  
HETATM   13  N   UNL     1      -8.649  15.389  69.456  1.00  0.00    -0.255 NA 
HETATM   14  C   UNL     1      -9.567  16.604  67.118  1.00  0.00    -0.241 C  
HETATM   15  N   UNL     1     -11.413  14.932  67.069  1.00  0.00    -0.349 NA 
HETATM   16  H   UNL     1     -11.944  15.462  66.379  1.00  0.00     0.000 HD 
HETATM   17  O   UNL     1      -9.910  17.099  66.044  1.00  0.00    -0.420 OA 
ENDROOT
BRANCH   1  18
HETATM   18  C   UNL     1     -10.793  12.544  66.574  1.00  0.00    -0.256 C  
HETATM   19  O   UNL     1     -11.180  11.168  66.666  1.00  0.00    -0.257 OA 
HETATM   20  H   UNL     1     -10.606  10.581  66.187  1.00  0.00     0.000 HD 
BRANCH  18  21
HETATM   21  C   UNL     1     -10.686  12.891  65.075  1.00  0.00    -0.305 C  
HETATM   22  C   UNL     1     -11.933  12.468  64.293  1.00  0.00    -0.484 C  
HETATM   23  O   UNL     1      -9.537  12.265  64.507  1.00  0.00    -0.470 OA 
HETATM   24  H   UNL     1      -9.472  12.479  63.584  1.00  0.00     0.000 HD 
ENDBRANCH  18  21
ENDBRANCH   1  18
TORSDOF 2
ENDMDL
MODEL       71
REMARK 921   NORMALIZED FREE ENERGY PREDICTED BY IDOCK:   -4.52 KCAL/MOL
REMARK 922        TOTAL FREE ENERGY PREDICTED BY IDOCK:   -5.54 KCAL/MOL
REMARK 923 INTER-LIGAND FREE ENERGY PREDICTED BY IDOCK:   -5.14 KCAL/MOL
REMARK 924 INTRA-LIGAND FREE ENERGY PREDICTED BY IDOCK:   -0.40 KCAL/MOL
REMARK 927      BINDING AFFINITY PREDICTED BY RF-SCORE:    0.00 PKD
ROOT
HETATM    1  C   UNL     1      -8.796  13.469  68.330  1.00  0.00    -0.179 C  
HETATM    2  C   UNL     1      -7.625  13.840  67.368  1.00  0.00    -0.137 C  
HETATM    3  H   UNL     1     -11.277  18.614  68.025  1.00  0.00     0.000 HD 
HETATM    4  C   UNL     1     -10.067  17.868  66.539  1.00  0.00    -0.370 C  
HETATM    5  N   UNL     1      -7.874  15.077  66.618  1.00  0.00    -0.252 NA 
HETATM    6  H1  UNL     1     -10.107  18.791  64.736  1.00  0.00     0.000 HD 
HETATM    7  H2  UNL     1     -11.263  19.450  65.919  1.00  0.00     0.000 HD 
HETATM    8  N   UNL     1     -10.529  18.790  65.664  1.00  0.00    -0.585 NA 
HETATM    9  H   UNL     1      -7.373  15.231  65.743  1.00  0.00     0.000 HD 
HETATM   10  N   UNL     1     -10.629  17.866  67.776  1.00  0.00    -0.404 N  
HETATM   11  C   UNL     1      -8.772  16.047  67.059  1.00  0.00    -0.210 C  
HETATM   12  C   UNL     1      -9.359  15.877  68.273  1.00  0.00    -0.194 C  
HETATM   13  N   UNL     1      -9.145  17.035  66.183  1.00  0.00    -0.456 NA 
HETATM   14  C   UNL     1     -10.357  16.901  68.693  1.00  0.00    -0.332 C  
HETATM   15  N   UNL     1      -9.226  14.707  69.033  1.00  0.00    -0.347 NA 
HETATM   16  H   UNL     1      -9.417  14.705  70.034  1.00  0.00     0.000 HD 
HETATM   17  O   UNL     1     -10.964  16.818  69.761  1.00  0.00    -0.293 OA 
ENDROOT
BRANCH   1  18
HETATM   18  C   UNL     1     -10.013  12.774  67.627  1.00  0.00    -0.217 C  
HETATM   19  O   UNL     1      -9.715  12.303  66.306  1.00  0.00    -0.235 OA 
HETATM   20  H   UNL     1     -10.453  11.883  65.880  1.00  0.00     0.000 HD 
BRANCH  18  21
HETATM   21  C   UNL     1     -10.573  11.578  68.424  1.00  0.00    -0.201 C  
HETATM   22  C   UNL     1     -11.688  11.995  69.387  1.00  0.00    -0.402 C  
HETATM   23  O   UNL     1      -9.527  10.946  69.159  1.00  0.00    -0.324 OA 
HETATM   24  H   UNL     1      -9.871  10.210  69.650  1.00  0.00     0.000 HD 
ENDBRANCH  18  21
ENDBRANCH   1  18
TORSDOF 2
ENDMDL
MODEL       72
REMARK 921   NORMALIZED FREE ENERGY PREDICTED BY IDOCK:   -4.51 KCAL/MOL
REMARK 922        TOTAL FREE ENERGY PREDICTED BY IDOCK:   -5.52 KCAL/MOL
REMARK 923 INTER-LIGAND FREE ENERGY PREDICTED BY IDOCK:   -5.07 KCAL/MOL
REMARK 924 INTRA-LIGAND FREE ENERGY PREDICTED BY IDOCK:   -0.45 KCAL/MOL
REMARK 927      BINDING AFFINITY PREDICTED BY RF-SCORE:    0.00 PKD
ROOT
HETATM    1  C   UNL     1     -11.429  12.127  65.183  1.00  0.00    -0.323 C  
HETATM    2  C   UNL     1     -10.593  10.982  64.534  1.00  0.00    -0.313 C  
HETATM    3  H   UNL     1     -10.151  10.628  70.553  1.00  0.00     0.000 HD 
HETATM    4  C   UNL     1      -8.945  10.175  68.951  1.00  0.00    -0.155 C  
HETATM    5  N   UNL     1      -9.666  10.347  65.478  1.00  0.00    -0.229 NA 
HETATM    6  H1  UNL     1      -7.050   9.569  69.336  1.00  0.00     0.000 HD 
HETATM    7  H2  UNL     1      -7.977  10.033  70.784  1.00  0.00     0.000 HD 
HETATM    8  N   UNL     1      -7.907   9.905  69.774  1.00  0.00    -0.147 NA 
HETATM    9  H   UNL     1      -8.853   9.851  65.113  1.00  0.00     0.000 HD 
HETATM   10  N   UNL     1     -10.087  10.623  69.535  1.00  0.00    -0.180 N  
HETATM   11  C   UNL     1      -9.858  10.398  66.858  1.00  0.00    -0.191 C  
HETATM   12  C   UNL     1     -10.995  10.975  67.329  1.00  0.00    -0.297 C  
HETATM   13  N   UNL     1      -8.823  10.017  67.674  1.00  0.00    -0.122 NA 
HETATM   14  C   UNL     1     -11.146  11.066  68.809  1.00  0.00    -0.239 C  
HETATM   15  N   UNL     1     -11.907  11.653  66.510  1.00  0.00    -0.440 NA 
HETATM   16  H   UNL     1     -12.866  11.817  66.814  1.00  0.00     0.000 HD 
HETATM   17  O   UNL     1     -12.126  11.599  69.330  1.00  0.00    -0.306 OA 
ENDROOT
BRANCH   1  18
HETATM   18  C   UNL     1     -10.664  13.489  65.318  1.00  0.00    -0.323 C  
HETATM   19  O   UNL     1      -9.801  13.769  64.209  1.00  0.00    -0.692 OA 
HETATM   20  H   UNL     1      -9.337  14.594  64.290  1.00  0.00     0.000 HD 
BRANCH  18  21
HETATM   21  C   UNL     1     -11.606  14.700  65.483  1.00  0.00    -0.335 C  
HETATM   22  C   UNL     1     -10.856  16.032  65.397  1.00  0.00    -0.340 C  
HETATM   23  O   UNL     1     -12.290  14.622  66.731  1.00  0.00    -0.442 OA 
HETATM   24  H   UNL     1     -12.870  15.367  66.833  1.00  0.00     0.000 HD 
ENDBRANCH  18  21
ENDBRANCH   1  18
TORSDOF 2
ENDMDL
MODEL       73
REMARK 921   NORMALIZED FREE ENERGY PREDICTED BY IDOCK:   -4.51 KCAL/MOL
REMARK 922        TOTAL FREE ENERGY PREDICTED BY IDOCK:   -5.52 KCAL/MOL
REMARK 923 INTER-LIGAND FREE ENERGY PREDICTED BY IDOCK:   -5.06 KCAL/MOL
REMARK 924 INTRA-LIGAND FREE ENERGY PREDICTED BY IDOCK:   -0.46 KCAL/MOL
REMARK 927      BINDING AFFINITY PREDICTED BY RF-SCORE:    0.00 PKD
ROOT
HETATM    1  C   UNL     1      -9.969  13.352  66.485  1.00  0.00    -0.286 C  
HETATM    2  C   UNL     1     -10.427  13.602  67.955  1.00  0.00    -0.247 C  
HETATM    3  H   UNL     1      -6.658   8.877  67.798  1.00  0.00     0.000 HD 
HETATM    4  C   UNL     1      -8.261   9.455  68.948  1.00  0.00    -0.111 C  
HETATM    5  N   UNL     1     -10.128  12.474  68.844  1.00  0.00    -0.428 NA 
HETATM    6  H1  UNL     1      -8.947   8.149  70.336  1.00  0.00     0.000 HD 
HETATM    7  H2  UNL     1      -7.624   7.514  69.327  1.00  0.00     0.000 HD 
HETATM    8  N   UNL     1      -8.267   8.262  69.585  1.00  0.00    -0.116 NA 
HETATM    9  H   UNL     1     -10.665  12.369  69.705  1.00  0.00     0.000 HD 
HETATM   10  N   UNL     1      -7.355   9.607  67.947  1.00  0.00    -0.082 N  
HETATM   11  C   UNL     1      -9.136  11.539  68.553  1.00  0.00    -0.157 C  
HETATM   12  C   UNL     1      -8.361  11.743  67.455  1.00  0.00    -0.159 C  
HETATM   13  N   UNL     1      -9.097  10.380  69.287  1.00  0.00    -0.190 NA 
HETATM   14  C   UNL     1      -7.347  10.698  67.137  1.00  0.00    -0.098 C  
HETATM   15  N   UNL     1      -8.607  12.757  66.520  1.00  0.00    -0.427 NA 
HETATM   16  H   UNL     1      -7.875  13.077  65.886  1.00  0.00     0.000 HD 
HETATM   17  O   UNL     1      -6.619  10.778  66.147  1.00  0.00    -0.121 OA 
ENDROOT
BRANCH   1  18
HETATM   18  C   UNL     1     -10.948  12.458  65.647  1.00  0.00    -0.286 C  
HETATM   19  O   UNL     1     -12.266  12.382  66.204  1.00  0.00    -0.635 OA 
HETATM   20  H   UNL     1     -12.859  11.840  65.696  1.00  0.00     0.000 HD 
BRANCH  18  21
HETATM   21  C   UNL     1     -11.094  12.925  64.184  1.00  0.00    -0.399 C  
HETATM   22  C   UNL     1     -12.193  12.161  63.440  1.00  0.00    -0.635 C  
HETATM   23  O   UNL     1      -9.857  12.768  63.493  1.00  0.00    -0.682 OA 
HETATM   24  H   UNL     1      -9.948  13.056  62.592  1.00  0.00     0.000 HD 
ENDBRANCH  18  21
ENDBRANCH   1  18
TORSDOF 2
ENDMDL
MODEL       74
REMARK 921   NORMALIZED FREE ENERGY PREDICTED BY IDOCK:   -4.49 KCAL/MOL
REMARK 922        TOTAL FREE ENERGY PREDICTED BY IDOCK:   -5.51 KCAL/MOL
REMARK 923 INTER-LIGAND FREE ENERGY PREDICTED BY IDOCK:   -5.05 KCAL/MOL
REMARK 924 INTRA-LIGAND FREE ENERGY PREDICTED BY IDOCK:   -0.46 KCAL/MOL
REMARK 927      BINDING AFFINITY PREDICTED BY RF-SCORE:    0.00 PKD
ROOT
HETATM    1  C   UNL     1      -9.488   6.755  68.473  1.00  0.00    -0.131 C  
HETATM    2  C   UNL     1      -9.081   8.246  68.268  1.00  0.00    -0.135 C  
HETATM    3  H   UNL     1     -12.780   7.808  73.030  1.00  0.00     0.000 HD 
HETATM    4  C   UNL     1     -12.377   9.222  71.593  1.00  0.00    -0.372 C  
HETATM    5  N   UNL     1      -9.930   9.178  69.021  1.00  0.00    -0.178 NA 
HETATM    6  H1  UNL     1     -13.526  10.891  71.562  1.00  0.00     0.000 HD 
HETATM    7  H2  UNL     1     -14.020   9.687  72.777  1.00  0.00     0.000 HD 
HETATM    8  N   UNL     1     -13.402   9.992  72.025  1.00  0.00    -0.439 NA 
HETATM    9  H   UNL     1      -9.992  10.147  68.712  1.00  0.00     0.000 HD 
HETATM   10  N   UNL     1     -12.212   8.023  72.211  1.00  0.00    -0.330 N  
HETATM   11  C   UNL     1     -10.653   8.782  70.144  1.00  0.00    -0.221 C  
HETATM   12  C   UNL     1     -10.486   7.513  70.605  1.00  0.00    -0.216 C  
HETATM   13  N   UNL     1     -11.618   9.629  70.629  1.00  0.00    -0.284 NA 
HETATM   14  C   UNL     1     -11.315   7.101  71.772  1.00  0.00    -0.252 C  
HETATM   15  N   UNL     1      -9.743   6.541  69.923  1.00  0.00    -0.163 NA 
HETATM   16  H   UNL     1      -9.389   5.715  70.404  1.00  0.00     0.000 HD 
HETATM   17  O   UNL     1     -11.257   5.965  72.242  1.00  0.00    -0.264 OA 
ENDROOT
BRANCH   1  18
HETATM   18  C   UNL     1     -10.718   6.297  67.616  1.00  0.00    -0.313 C  
HETATM   19  O   UNL     1     -11.259   7.339  66.795  1.00  0.00    -0.504 OA 
HETATM   20  H   UNL     1     -12.005   7.062  66.275  1.00  0.00     0.000 HD 
BRANCH  18  21
HETATM   21  C   UNL     1     -10.403   5.103  66.691  1.00  0.00    -0.281 C  
HETATM   22  C   UNL     1      -8.961   5.136  66.175  1.00  0.00    -0.135 C  
HETATM   23  O   UNL     1     -11.301   5.089  65.584  1.00  0.00    -0.832 OA 
HETATM   24  H   UNL     1     -11.106   4.354  65.015  1.00  0.00     0.000 HD 
ENDBRANCH  18  21
ENDBRANCH   1  18
TORSDOF 2
ENDMDL
MODEL       75
REMARK 921   NORMALIZED FREE ENERGY PREDICTED BY IDOCK:   -4.49 KCAL/MOL
REMARK 922        TOTAL FREE ENERGY PREDICTED BY IDOCK:   -5.51 KCAL/MOL
REMARK 923 INTER-LIGAND FREE ENERGY PREDICTED BY IDOCK:   -5.07 KCAL/MOL
REMARK 924 INTRA-LIGAND FREE ENERGY PREDICTED BY IDOCK:   -0.44 KCAL/MOL
REMARK 927      BINDING AFFINITY PREDICTED BY RF-SCORE:    0.00 PKD
ROOT
HETATM    1  C   UNL     1      -9.294  16.981  66.746  1.00  0.00    -0.252 C  
HETATM    2  C   UNL     1      -7.891  16.325  66.564  1.00  0.00    -0.263 C  
HETATM    3  H   UNL     1     -11.977  12.032  67.754  1.00  0.00     0.000 HD 
HETATM    4  C   UNL     1      -9.972  12.307  68.113  1.00  0.00    -0.210 C  
HETATM    5  N   UNL     1      -7.841  14.941  67.050  1.00  0.00    -0.316 NA 
HETATM    6  H1  UNL     1      -9.019  10.934  69.258  1.00  0.00     0.000 HD 
HETATM    7  H2  UNL     1     -10.771  10.658  69.092  1.00  0.00     0.000 HD 
HETATM    8  N   UNL     1      -9.931  11.200  68.888  1.00  0.00    -0.197 NA 
HETATM    9  H   UNL     1      -6.938  14.539  67.301  1.00  0.00     0.000 HD 
HETATM   10  N   UNL     1     -11.187  12.662  67.620  1.00  0.00    -0.266 N  
HETATM   11  C   UNL     1      -8.985  14.157  67.180  1.00  0.00    -0.225 C  
HETATM   12  C   UNL     1     -10.170  14.668  66.749  1.00  0.00    -0.268 C  
HETATM   13  N   UNL     1      -8.893  12.982  67.882  1.00  0.00    -0.183 NA 
HETATM   14  C   UNL     1     -11.384  13.829  66.953  1.00  0.00    -0.328 C  
HETATM   15  N   UNL     1     -10.323  15.994  66.324  1.00  0.00    -0.308 NA 
HETATM   16  H   UNL     1     -11.114  16.273  65.745  1.00  0.00     0.000 HD 
HETATM   17  O   UNL     1     -12.505  14.218  66.624  1.00  0.00    -0.407 OA 
ENDROOT
BRANCH   1  18
HETATM   18  C   UNL     1      -9.580  17.501  68.198  1.00  0.00    -0.294 C  
HETATM   19  O   UNL     1      -8.730  16.913  69.191  1.00  0.00    -0.193 OA 
HETATM   20  H   UNL     1      -8.904  17.228  70.070  1.00  0.00     0.000 HD 
BRANCH  18  21
HETATM   21  C   UNL     1      -9.450  19.032  68.331  1.00  0.00    -0.364 C  
HETATM   22  C   UNL     1      -8.014  19.466  68.636  1.00  0.00    -0.403 C  
HETATM   23  O   UNL     1     -10.317  19.511  69.357  1.00  0.00    -0.589 OA 
HETATM   24  H   UNL     1     -10.236  20.453  69.439  1.00  0.00     0.000 HD 
ENDBRANCH  18  21
ENDBRANCH   1  18
TORSDOF 2
ENDMDL
MODEL       76
REMARK 921   NORMALIZED FREE ENERGY PREDICTED BY IDOCK:   -4.48 KCAL/MOL
REMARK 922        TOTAL FREE ENERGY PREDICTED BY IDOCK:   -5.50 KCAL/MOL
REMARK 923 INTER-LIGAND FREE ENERGY PREDICTED BY IDOCK:   -5.53 KCAL/MOL
REMARK 924 INTRA-LIGAND FREE ENERGY PREDICTED BY IDOCK:    0.03 KCAL/MOL
REMARK 927      BINDING AFFINITY PREDICTED BY RF-SCORE:    0.00 PKD
ROOT
HETATM    1  C   UNL     1     -10.262  12.452  66.561  1.00  0.00    -0.227 C  
HETATM    2  C   UNL     1     -11.574  13.100  66.021  1.00  0.00    -0.353 C  
HETATM    3  H   UNL     1      -7.799  17.446  67.870  1.00  0.00     0.000 HD 
HETATM    4  C   UNL     1      -9.838  17.199  67.770  1.00  0.00    -0.274 C  
HETATM    5  N   UNL     1     -11.711  14.512  66.399  1.00  0.00    -0.376 NA 
HETATM    6  H1  UNL     1     -11.005  18.644  68.580  1.00  0.00     0.000 HD 
HETATM    7  H2  UNL     1      -9.258  18.903  68.809  1.00  0.00     0.000 HD 
HETATM    8  N   UNL     1     -10.037  18.352  68.448  1.00  0.00    -0.376 NA 
HETATM    9  H   UNL     1     -12.640  14.931  66.410  1.00  0.00     0.000 HD 
HETATM   10  N   UNL     1      -8.548  16.811  67.593  1.00  0.00    -0.204 N  
HETATM   11  C   UNL     1     -10.614  15.299  66.744  1.00  0.00    -0.304 C  
HETATM   12  C   UNL     1      -9.371  14.759  66.630  1.00  0.00    -0.268 C  
HETATM   13  N   UNL     1     -10.845  16.515  67.336  1.00  0.00    -0.256 NA 
HETATM   14  C   UNL     1      -8.222  15.604  67.060  1.00  0.00    -0.233 C  
HETATM   15  N   UNL     1      -9.147  13.408  66.331  1.00  0.00    -0.459 NA 
HETATM   16  H   UNL     1      -8.248  13.092  65.969  1.00  0.00     0.000 HD 
HETATM   17  O   UNL     1      -7.062  15.192  67.023  1.00  0.00    -0.199 OA 
ENDROOT
BRANCH   1  18
HETATM   18  C   UNL     1     -10.328  12.022  68.068  1.00  0.00    -0.195 C  
HETATM   19  O   UNL     1     -10.192  13.119  68.979  1.00  0.00    -0.427 OA 
HETATM   20  H   UNL     1     -10.232  12.858  69.892  1.00  0.00     0.000 HD 
BRANCH  18  21
HETATM   21  C   UNL     1     -11.633  11.283  68.431  1.00  0.00    -0.308 C  
HETATM   22  C   UNL     1     -11.847  11.198  69.945  1.00  0.00    -0.439 C  
HETATM   23  O   UNL     1     -11.621   9.968  67.880  1.00  0.00    -0.629 OA 
HETATM   24  H   UNL     1     -12.424   9.513  68.104  1.00  0.00     0.000 HD 
ENDBRANCH  18  21
ENDBRANCH   1  18
TORSDOF 2
ENDMDL
MODEL       77
REMARK 921   NORMALIZED FREE ENERGY PREDICTED BY IDOCK:   -4.47 KCAL/MOL
REMARK 922        TOTAL FREE ENERGY PREDICTED BY IDOCK:   -5.48 KCAL/MOL
REMARK 923 INTER-LIGAND FREE ENERGY PREDICTED BY IDOCK:   -5.47 KCAL/MOL
REMARK 924 INTRA-LIGAND FREE ENERGY PREDICTED BY IDOCK:   -0.01 KCAL/MOL
REMARK 927      BINDING AFFINITY PREDICTED BY RF-SCORE:    0.00 PKD
ROOT
HETATM    1  C   UNL     1     -10.627  15.269  65.804  1.00  0.00    -0.347 C  
HETATM    2  C   UNL     1      -9.264  15.041  66.526  1.00  0.00    -0.290 C  
HETATM    3  H   UNL     1     -10.999   9.908  63.845  1.00  0.00     0.000 HD 
HETATM    4  C   UNL     1      -9.919  10.412  65.520  1.00  0.00    -0.282 C  
HETATM    5  N   UNL     1      -8.925  13.620  66.671  1.00  0.00    -0.423 NA 
HETATM    6  H1  UNL     1      -9.334   8.914  66.753  1.00  0.00     0.000 HD 
HETATM    7  H2  UNL     1     -10.347   8.383  65.389  1.00  0.00     0.000 HD 
HETATM    8  N   UNL     1      -9.870   9.118  65.911  1.00  0.00    -0.282 NA 
HETATM    9  H   UNL     1      -8.269  13.342  67.400  1.00  0.00     0.000 HD 
HETATM   10  N   UNL     1     -10.634  10.683  64.398  1.00  0.00    -0.206 N  
HETATM   11  C   UNL     1      -9.470  12.638  65.847  1.00  0.00    -0.089 C  
HETATM   12  C   UNL     1     -10.266  13.030  64.816  1.00  0.00    -0.291 C  
HETATM   13  N   UNL     1      -9.316  11.324  66.210  1.00  0.00    -0.200 NA 
HETATM   14  C   UNL     1     -10.880  11.955  63.986  1.00  0.00    -0.379 C  
HETATM   15  N   UNL     1     -10.687  14.354  64.633  1.00  0.00    -0.585 NA 
HETATM   16  H   UNL     1     -11.024  14.678  63.727  1.00  0.00     0.000 HD 
HETATM   17  O   UNL     1     -11.638  12.209  63.050  1.00  0.00    -0.233 OA 
ENDROOT
BRANCH   1  18
HETATM   18  C   UNL     1     -11.884  15.083  66.723  1.00  0.00    -0.082 C  
HETATM   19  O   UNL     1     -12.745  14.018  66.302  1.00  0.00    -0.488 OA 
HETATM   20  H   UNL     1     -13.507  13.906  66.858  1.00  0.00     0.000 HD 
BRANCH  18  21
HETATM   21  C   UNL     1     -11.522  14.823  68.200  1.00  0.00    -0.323 C  
HETATM   22  C   UNL     1     -11.832  13.385  68.626  1.00  0.00    -0.397 C  
HETATM   23  O   UNL     1     -12.228  15.729  69.045  1.00  0.00    -0.575 OA 
HETATM   24  H   UNL     1     -12.005  15.569  69.954  1.00  0.00     0.000 HD 
ENDBRANCH  18  21
ENDBRANCH   1  18
TORSDOF 2
ENDMDL
MODEL       78
REMARK 921   NORMALIZED FREE ENERGY PREDICTED BY IDOCK:   -4.45 KCAL/MOL
REMARK 922        TOTAL FREE ENERGY PREDICTED BY IDOCK:   -5.46 KCAL/MOL
REMARK 923 INTER-LIGAND FREE ENERGY PREDICTED BY IDOCK:   -5.07 KCAL/MOL
REMARK 924 INTRA-LIGAND FREE ENERGY PREDICTED BY IDOCK:   -0.40 KCAL/MOL
REMARK 927      BINDING AFFINITY PREDICTED BY RF-SCORE:    0.00 PKD
ROOT
HETATM    1  C   UNL     1      -9.773  10.281  67.550  1.00  0.00    -0.169 C  
HETATM    2  C   UNL     1      -9.218  10.756  68.927  1.00  0.00    -0.173 C  
HETATM    3  H   UNL     1     -12.051   5.461  69.622  1.00  0.00     0.000 HD 
HETATM    4  C   UNL     1     -11.725   7.129  70.779  1.00  0.00    -0.323 C  
HETATM    5  N   UNL     1      -9.793  10.019  70.059  1.00  0.00    -0.355 NA 
HETATM    6  H1  UNL     1     -12.634   7.216  72.588  1.00  0.00     0.000 HD 
HETATM    7  H2  UNL     1     -13.061   5.780  71.625  1.00  0.00     0.000 HD 
HETATM    8  N   UNL     1     -12.549   6.655  71.741  1.00  0.00    -0.338 NA 
HETATM    9  H   UNL     1      -9.781  10.449  70.984  1.00  0.00     0.000 HD 
HETATM   10  N   UNL     1     -11.612   6.381  69.650  1.00  0.00    -0.382 N  
HETATM   11  C   UNL     1     -10.354   8.752  69.913  1.00  0.00    -0.206 C  
HETATM   12  C   UNL     1     -10.275   8.148  68.698  1.00  0.00    -0.207 C  
HETATM   13  N   UNL     1     -11.100   8.247  70.948  1.00  0.00    -0.256 NA 
HETATM   14  C   UNL     1     -10.934   6.819  68.557  1.00  0.00    -0.192 C  
HETATM   15  N   UNL     1      -9.797   8.794  67.550  1.00  0.00    -0.168 NA 
HETATM   16  H   UNL     1      -9.475   8.261  66.742  1.00  0.00     0.000 HD 
HETATM   17  O   UNL     1     -10.943   6.208  67.488  1.00  0.00    -0.316 OA 
ENDROOT
BRANCH   1  18
HETATM   18  C   UNL     1     -11.184  10.862  67.187  1.00  0.00    -0.184 C  
HETATM   19  O   UNL     1     -11.918  11.327  68.326  1.00  0.00    -0.582 OA 
HETATM   20  H   UNL     1     -12.773  11.678  68.106  1.00  0.00     0.000 HD 
BRANCH  18  21
HETATM   21  C   UNL     1     -11.119  12.026  66.177  1.00  0.00    -0.322 C  
HETATM   22  C   UNL     1     -10.617  13.322  66.820  1.00  0.00    -0.276 C  
HETATM   23  O   UNL     1     -12.405  12.250  65.604  1.00  0.00    -0.619 OA 
HETATM   24  H   UNL     1     -12.365  12.967  64.982  1.00  0.00     0.000 HD 
ENDBRANCH  18  21
ENDBRANCH   1  18
TORSDOF 2
ENDMDL
MODEL       79
REMARK 921   NORMALIZED FREE ENERGY PREDICTED BY IDOCK:   -4.45 KCAL/MOL
REMARK 922        TOTAL FREE ENERGY PREDICTED BY IDOCK:   -5.45 KCAL/MOL
REMARK 923 INTER-LIGAND FREE ENERGY PREDICTED BY IDOCK:   -5.05 KCAL/MOL
REMARK 924 INTRA-LIGAND FREE ENERGY PREDICTED BY IDOCK:   -0.40 KCAL/MOL
REMARK 927      BINDING AFFINITY PREDICTED BY RF-SCORE:    0.00 PKD
ROOT
HETATM    1  C   UNL     1      -9.250   8.525  68.984  1.00  0.00    -0.146 C  
HETATM    2  C   UNL     1      -9.231   9.978  69.552  1.00  0.00    -0.221 C  
HETATM    3  H   UNL     1     -13.285   6.682  72.594  1.00  0.00     0.000 HD 
HETATM    4  C   UNL     1     -13.084   8.657  72.059  1.00  0.00    -0.381 C  
HETATM    5  N   UNL     1     -10.390  10.272  70.404  1.00  0.00    -0.422 NA 
HETATM    6  H1  UNL     1     -14.620   9.910  72.477  1.00  0.00     0.000 HD 
HETATM    7  H2  UNL     1     -14.935   8.206  72.888  1.00  0.00     0.000 HD 
HETATM    8  N   UNL     1     -14.325   8.935  72.519  1.00  0.00    -0.586 NA 
HETATM    9  H   UNL     1     -10.666  11.244  70.541  1.00  0.00     0.000 HD 
HETATM   10  N   UNL     1     -12.690   7.357  72.115  1.00  0.00    -0.176 N  
HETATM   11  C   UNL     1     -11.127   9.269  71.030  1.00  0.00    -0.326 C  
HETATM   12  C   UNL     1     -10.691   7.985  70.921  1.00  0.00    -0.221 C  
HETATM   13  N   UNL     1     -12.338   9.599  71.584  1.00  0.00    -0.380 NA 
HETATM   14  C   UNL     1     -11.530   6.928  71.552  1.00  0.00    -0.277 C  
HETATM   15  N   UNL     1      -9.632   7.604  70.087  1.00  0.00    -0.168 NA 
HETATM   16  H   UNL     1      -9.139   6.723  70.232  1.00  0.00     0.000 HD 
HETATM   17  O   UNL     1     -11.235   5.735  71.481  1.00  0.00    -0.253 OA 
ENDROOT
BRANCH   1  18
HETATM   18  C   UNL     1     -10.187   8.330  67.742  1.00  0.00    -0.223 C  
HETATM   19  O   UNL     1     -11.251   9.287  67.676  1.00  0.00    -0.454 OA 
HETATM   20  H   UNL     1     -11.820   9.168  66.924  1.00  0.00     0.000 HD 
BRANCH  18  21
HETATM   21  C   UNL     1      -9.433   8.389  66.398  1.00  0.00    -0.227 C  
HETATM   22  C   UNL     1      -9.938   9.523  65.501  1.00  0.00    -0.209 C  
HETATM   23  O   UNL     1      -9.562   7.148  65.708  1.00  0.00    -0.383 OA 
HETATM   24  H   UNL     1      -9.098   7.185  64.880  1.00  0.00     0.000 HD 
ENDBRANCH  18  21
ENDBRANCH   1  18
TORSDOF 2
ENDMDL
MODEL       80
REMARK 921   NORMALIZED FREE ENERGY PREDICTED BY IDOCK:   -4.42 KCAL/MOL
REMARK 922        TOTAL FREE ENERGY PREDICTED BY IDOCK:   -5.42 KCAL/MOL
REMARK 923 INTER-LIGAND FREE ENERGY PREDICTED BY IDOCK:   -5.39 KCAL/MOL
REMARK 924 INTRA-LIGAND FREE ENERGY PREDICTED BY IDOCK:   -0.03 KCAL/MOL
REMARK 927      BINDING AFFINITY PREDICTED BY RF-SCORE:    0.00 PKD
ROOT
HETATM    1  C   UNL     1     -10.522  12.814  67.639  1.00  0.00    -0.220 C  
HETATM    2  C   UNL     1      -9.217  13.040  66.813  1.00  0.00    -0.228 C  
HETATM    3  H   UNL     1     -10.947  18.267  69.310  1.00  0.00     0.000 HD 
HETATM    4  C   UNL     1      -9.964  17.698  67.597  1.00  0.00    -0.323 C  
HETATM    5  N   UNL     1      -8.939  14.459  66.565  1.00  0.00    -0.447 NA 
HETATM    6  H1  UNL     1      -9.513  19.138  66.244  1.00  0.00     0.000 HD 
HETATM    7  H2  UNL     1     -10.452  19.717  67.642  1.00  0.00     0.000 HD 
HETATM    8  N   UNL     1      -9.986  18.968  67.131  1.00  0.00    -0.322 NA 
HETATM    9  H   UNL     1      -8.342  14.714  65.779  1.00  0.00     0.000 HD 
HETATM   10  N   UNL     1     -10.593  17.472  68.779  1.00  0.00    -0.301 N  
HETATM   11  C   UNL     1      -9.461  15.471  67.368  1.00  0.00    -0.211 C  
HETATM   12  C   UNL     1     -10.173  15.117  68.471  1.00  0.00    -0.231 C  
HETATM   13  N   UNL     1      -9.376  16.766  66.921  1.00  0.00    -0.229 NA 
HETATM   14  C   UNL     1     -10.767  16.220  69.278  1.00  0.00    -0.307 C  
HETATM   15  N   UNL     1     -10.536  13.794  68.757  1.00  0.00    -0.300 NA 
HETATM   16  H   UNL     1     -10.801  13.513  69.700  1.00  0.00     0.000 HD 
HETATM   17  O   UNL     1     -11.453  15.998  70.276  1.00  0.00    -0.337 OA 
ENDROOT
BRANCH   1  18
HETATM   18  C   UNL     1     -11.842  12.906  66.798  1.00  0.00    -0.385 C  
HETATM   19  O   UNL     1     -12.654  14.037  67.136  1.00  0.00    -0.491 OA 
HETATM   20  H   UNL     1     -13.454  14.093  66.627  1.00  0.00     0.000 HD 
BRANCH  18  21
HETATM   21  C   UNL     1     -11.590  12.962  65.277  1.00  0.00    -0.340 C  
HETATM   22  C   UNL     1     -12.067  14.279  64.659  1.00  0.00    -0.478 C  
HETATM   23  O   UNL     1     -12.245  11.872  64.631  1.00  0.00    -0.242 OA 
HETATM   24  H   UNL     1     -12.090  11.907  63.695  1.00  0.00     0.000 HD 
ENDBRANCH  18  21
ENDBRANCH   1  18
TORSDOF 2
ENDMDL
MODEL       81
REMARK 921   NORMALIZED FREE ENERGY PREDICTED BY IDOCK:   -4.40 KCAL/MOL
REMARK 922        TOTAL FREE ENERGY PREDICTED BY IDOCK:   -5.41 KCAL/MOL
REMARK 923 INTER-LIGAND FREE ENERGY PREDICTED BY IDOCK:   -4.96 KCAL/MOL
REMARK 924 INTRA-LIGAND FREE ENERGY PREDICTED BY IDOCK:   -0.45 KCAL/MOL
REMARK 927      BINDING AFFINITY PREDICTED BY RF-SCORE:    0.00 PKD
ROOT
HETATM    1  C   UNL     1     -10.612   9.127  69.360  1.00  0.00    -0.223 C  
HETATM    2  C   UNL     1     -11.399   9.356  70.688  1.00  0.00    -0.292 C  
HETATM    3  H   UNL     1     -11.926  14.246  67.173  1.00  0.00     0.000 HD 
HETATM    4  C   UNL     1     -11.888  13.872  69.194  1.00  0.00    -0.358 C  
HETATM    5  N   UNL     1     -11.761  10.762  70.901  1.00  0.00    -0.313 NA 
HETATM    6  H1  UNL     1     -11.888  15.464  70.449  1.00  0.00     0.000 HD 
HETATM    7  H2  UNL     1     -11.819  15.895  68.723  1.00  0.00     0.000 HD 
HETATM    8  N   UNL     1     -11.862  15.197  69.465  1.00  0.00    -0.316 NA 
HETATM    9  H   UNL     1     -11.955  11.082  71.850  1.00  0.00     0.000 HD 
HETATM   10  N   UNL     1     -11.854  13.518  67.883  1.00  0.00    -0.358 N  
HETATM   11  C   UNL     1     -11.848  11.675  69.852  1.00  0.00    -0.358 C  
HETATM   12  C   UNL     1     -11.685  11.216  68.583  1.00  0.00    -0.320 C  
HETATM   13  N   UNL     1     -11.929  13.010  70.156  1.00  0.00    -0.335 NA 
HETATM   14  C   UNL     1     -11.727  12.224  67.487  1.00  0.00    -0.332 C  
HETATM   15  N   UNL     1     -11.284   9.907  68.287  1.00  0.00    -0.514 NA 
HETATM   16  H   UNL     1     -11.447   9.502  67.365  1.00  0.00     0.000 HD 
HETATM   17  O   UNL     1     -11.560  11.910  66.308  1.00  0.00    -0.445 OA 
ENDROOT
BRANCH   1  18
HETATM   18  C   UNL     1      -9.088   9.487  69.443  1.00  0.00    -0.168 C  
HETATM   19  O   UNL     1      -8.692   9.995  70.723  1.00  0.00    -0.316 OA 
HETATM   20  H   UNL     1      -7.769  10.213  70.773  1.00  0.00     0.000 HD 
BRANCH  18  21
HETATM   21  C   UNL     1      -8.165   8.295  69.117  1.00  0.00    -0.121 C  
HETATM   22  C   UNL     1      -8.320   7.151  70.124  1.00  0.00    -0.137 C  
HETATM   23  O   UNL     1      -6.805   8.721  69.091  1.00  0.00    -0.053 OA 
HETATM   24  H   UNL     1      -6.237   7.987  68.891  1.00  0.00     0.000 HD 
ENDBRANCH  18  21
ENDBRANCH   1  18
TORSDOF 2
ENDMDL
MODEL       82
REMARK 921   NORMALIZED FREE ENERGY PREDICTED BY IDOCK:   -4.37 KCAL/MOL
REMARK 922        TOTAL FREE ENERGY PREDICTED BY IDOCK:   -5.37 KCAL/MOL
REMARK 923 INTER-LIGAND FREE ENERGY PREDICTED BY IDOCK:   -4.92 KCAL/MOL
REMARK 924 INTRA-LIGAND FREE ENERGY PREDICTED BY IDOCK:   -0.45 KCAL/MOL
REMARK 927      BINDING AFFINITY PREDICTED BY RF-SCORE:    0.00 PKD
ROOT
HETATM    1  C   UNL     1      -9.231  11.242  68.220  1.00  0.00    -0.176 C  
HETATM    2  C   UNL     1      -7.870  11.803  67.703  1.00  0.00    -0.138 C  
HETATM    3  H   UNL     1     -12.178  15.982  66.972  1.00  0.00     0.000 HD 
HETATM    4  C   UNL     1     -10.442  15.459  66.002  1.00  0.00    -0.321 C  
HETATM    5  N   UNL     1      -8.026  13.011  66.884  1.00  0.00    -0.401 NA 
HETATM    6  H1  UNL     1     -10.003  16.415  64.270  1.00  0.00     0.000 HD 
HETATM    7  H2  UNL     1     -11.574  16.868  64.976  1.00  0.00     0.000 HD 
HETATM    8  N   UNL     1     -10.709  16.328  65.000  1.00  0.00    -0.656 NA 
HETATM    9  H   UNL     1      -7.287  13.260  66.227  1.00  0.00     0.000 HD 
HETATM   10  N   UNL     1     -11.384  15.343  66.975  1.00  0.00    -0.240 N  
HETATM   11  C   UNL     1      -9.151  13.830  66.972  1.00  0.00    -0.246 C  
HETATM   12  C   UNL     1     -10.084  13.544  67.919  1.00  0.00    -0.248 C  
HETATM   13  N   UNL     1      -9.344  14.777  65.998  1.00  0.00    -0.259 NA 
HETATM   14  C   UNL     1     -11.301  14.402  67.952  1.00  0.00    -0.301 C  
HETATM   15  N   UNL     1     -10.047  12.386  68.706  1.00  0.00    -0.406 NA 
HETATM   16  H   UNL     1     -10.564  12.329  69.583  1.00  0.00     0.000 HD 
HETATM   17  O   UNL     1     -12.215  14.203  68.753  1.00  0.00    -0.319 OA 
ENDROOT
BRANCH   1  18
HETATM   18  C   UNL     1     -10.024  10.398  67.162  1.00  0.00    -0.195 C  
HETATM   19  O   UNL     1      -9.432  10.419  65.857  1.00  0.00    -0.171 OA 
HETATM   20  H   UNL     1      -9.913   9.908  65.217  1.00  0.00     0.000 HD 
BRANCH  18  21
HETATM   21  C   UNL     1     -10.190   8.919  67.567  1.00  0.00    -0.248 C  
HETATM   22  C   UNL     1      -9.000   8.406  68.382  1.00  0.00    -0.136 C  
HETATM   23  O   UNL     1     -10.352   8.108  66.405  1.00  0.00    -0.458 OA 
HETATM   24  H   UNL     1     -10.454   7.197  66.655  1.00  0.00     0.000 HD 
ENDBRANCH  18  21
ENDBRANCH   1  18
TORSDOF 2
ENDMDL
MODEL       83
REMARK 921   NORMALIZED FREE ENERGY PREDICTED BY IDOCK:   -4.34 KCAL/MOL
REMARK 922        TOTAL FREE ENERGY PREDICTED BY IDOCK:   -5.33 KCAL/MOL
REMARK 923 INTER-LIGAND FREE ENERGY PREDICTED BY IDOCK:   -4.93 KCAL/MOL
REMARK 924 INTRA-LIGAND FREE ENERGY PREDICTED BY IDOCK:   -0.40 KCAL/MOL
REMARK 927      BINDING AFFINITY PREDICTED BY RF-SCORE:    0.00 PKD
ROOT
HETATM    1  C   UNL     1     -10.631  10.910  68.970  1.00  0.00    -0.216 C  
HETATM    2  C   UNL     1     -12.137  10.938  69.372  1.00  0.00    -0.290 C  
HETATM    3  H   UNL     1      -9.177   7.055  72.937  1.00  0.00     0.000 HD 
HETATM    4  C   UNL     1     -11.081   7.212  72.178  1.00  0.00    -0.248 C  
HETATM    5  N   UNL     1     -12.518   9.814  70.236  1.00  0.00    -0.493 NA 
HETATM    6  H1  UNL     1     -12.364   5.682  72.522  1.00  0.00     0.000 HD 
HETATM    7  H2  UNL     1     -10.715   5.403  73.133  1.00  0.00     0.000 HD 
HETATM    8  N   UNL     1     -11.402   5.989  72.658  1.00  0.00    -0.286 NA 
HETATM    9  H   UNL     1     -13.498   9.534  70.277  1.00  0.00     0.000 HD 
HETATM   10  N   UNL     1      -9.799   7.621  72.360  1.00  0.00    -0.169 N  
HETATM   11  C   UNL     1     -11.586   9.116  71.002  1.00  0.00    -0.306 C  
HETATM   12  C   UNL     1     -10.301   9.560  71.016  1.00  0.00    -0.283 C  
HETATM   13  N   UNL     1     -11.969   7.927  71.568  1.00  0.00    -0.292 NA 
HETATM   14  C   UNL     1      -9.316   8.760  71.798  1.00  0.00    -0.280 C  
HETATM   15  N   UNL     1      -9.835  10.586  70.184  1.00  0.00    -0.318 NA 
HETATM   16  H   UNL     1      -8.979  11.094  70.404  1.00  0.00     0.000 HD 
HETATM   17  O   UNL     1      -8.124   9.065  71.846  1.00  0.00    -0.359 OA 
ENDROOT
BRANCH   1  18
HETATM   18  C   UNL     1     -10.292   9.922  67.800  1.00  0.00    -0.221 C  
HETATM   19  O   UNL     1     -11.220   8.836  67.686  1.00  0.00    -0.407 OA 
HETATM   20  H   UNL     1     -11.015   8.237  66.978  1.00  0.00     0.000 HD 
BRANCH  18  21
HETATM   21  C   UNL     1     -10.225  10.613  66.423  1.00  0.00    -0.234 C  
HETATM   22  C   UNL     1      -9.739   9.665  65.323  1.00  0.00    -0.330 C  
HETATM   23  O   UNL     1      -9.362  11.747  66.485  1.00  0.00    -0.198 OA 
HETATM   24  H   UNL     1      -9.321  12.172  65.636  1.00  0.00     0.000 HD 
ENDBRANCH  18  21
ENDBRANCH   1  18
TORSDOF 2
ENDMDL
MODEL       84
REMARK 921   NORMALIZED FREE ENERGY PREDICTED BY IDOCK:   -4.32 KCAL/MOL
REMARK 922        TOTAL FREE ENERGY PREDICTED BY IDOCK:   -5.32 KCAL/MOL
REMARK 923 INTER-LIGAND FREE ENERGY PREDICTED BY IDOCK:   -5.23 KCAL/MOL
REMARK 924 INTRA-LIGAND FREE ENERGY PREDICTED BY IDOCK:   -0.08 KCAL/MOL
REMARK 927      BINDING AFFINITY PREDICTED BY RF-SCORE:    0.00 PKD
ROOT
HETATM    1  C   UNL     1     -10.701  10.241  68.483  1.00  0.00    -0.227 C  
HETATM    2  C   UNL     1      -9.210  10.602  68.767  1.00  0.00    -0.180 C  
HETATM    3  H   UNL     1     -10.976   6.229  72.550  1.00  0.00     0.000 HD 
HETATM    4  C   UNL     1      -9.644   7.793  72.614  1.00  0.00    -0.202 C  
HETATM    5  N   UNL     1      -8.729  10.071  70.048  1.00  0.00    -0.357 NA 
HETATM    6  H1  UNL     1      -8.707   8.166  74.372  1.00  0.00     0.000 HD 
HETATM    7  H2  UNL     1      -9.913   6.858  74.450  1.00  0.00     0.000 HD 
HETATM    8  N   UNL     1      -9.411   7.576  73.928  1.00  0.00    -0.267 NA 
HETATM    9  H   UNL     1      -7.924  10.512  70.493  1.00  0.00     0.000 HD 
HETATM   10  N   UNL     1     -10.581   7.007  72.023  1.00  0.00    -0.209 N  
HETATM   11  C   UNL     1      -9.335   8.985  70.678  1.00  0.00    -0.234 C  
HETATM   12  C   UNL     1     -10.343   8.344  70.030  1.00  0.00    -0.211 C  
HETATM   13  N   UNL     1      -9.001   8.720  71.982  1.00  0.00    -0.369 NA 
HETATM   14  C   UNL     1     -11.009   7.224  70.752  1.00  0.00    -0.251 C  
HETATM   15  N   UNL     1     -10.904   8.810  68.833  1.00  0.00    -0.429 NA 
HETATM   16  H   UNL     1     -11.435   8.189  68.224  1.00  0.00     0.000 HD 
HETATM   17  O   UNL     1     -11.951   6.602  70.259  1.00  0.00    -0.387 OA 
ENDROOT
BRANCH   1  18
HETATM   18  C   UNL     1     -11.738  11.152  69.228  1.00  0.00    -0.331 C  
HETATM   19  O   UNL     1     -11.464  11.301  70.626  1.00  0.00    -0.437 OA 
HETATM   20  H   UNL     1     -12.092  11.853  71.077  1.00  0.00     0.000 HD 
BRANCH  18  21
HETATM   21  C   UNL     1     -11.843  12.569  68.627  1.00  0.00    -0.297 C  
HETATM   22  C   UNL     1     -11.612  12.574  67.113  1.00  0.00    -0.437 C  
HETATM   23  O   UNL     1     -10.900  13.437  69.252  1.00  0.00    -0.408 OA 
HETATM   24  H   UNL     1     -10.964  14.309  68.882  1.00  0.00     0.000 HD 
ENDBRANCH  18  21
ENDBRANCH   1  18
TORSDOF 2
ENDMDL
MODEL       85
REMARK 921   NORMALIZED FREE ENERGY PREDICTED BY IDOCK:   -4.32 KCAL/MOL
REMARK 922        TOTAL FREE ENERGY PREDICTED BY IDOCK:   -5.32 KCAL/MOL
REMARK 923 INTER-LIGAND FREE ENERGY PREDICTED BY IDOCK:   -4.87 KCAL/MOL
REMARK 924 INTRA-LIGAND FREE ENERGY PREDICTED BY IDOCK:   -0.44 KCAL/MOL
REMARK 927      BINDING AFFINITY PREDICTED BY RF-SCORE:    0.00 PKD
ROOT
HETATM    1  C   UNL     1     -10.278   8.889  68.818  1.00  0.00    -0.206 C  
HETATM    2  C   UNL     1      -8.935   8.094  68.803  1.00  0.00    -0.144 C  
HETATM    3  H   UNL     1     -12.378   6.139  73.371  1.00  0.00     0.000 HD 
HETATM    4  C   UNL     1     -10.363   6.317  73.007  1.00  0.00    -0.212 C  
HETATM    5  N   UNL     1      -8.698   7.352  70.046  1.00  0.00    -0.140 NA 
HETATM    6  H1  UNL     1      -9.087   5.889  74.523  1.00  0.00     0.000 HD 
HETATM    7  H2  UNL     1     -10.809   5.802  74.970  1.00  0.00     0.000 HD 
HETATM    8  N   UNL     1     -10.075   5.971  74.283  1.00  0.00    -0.268 NA 
HETATM    9  H   UNL     1      -7.743   7.092  70.291  1.00  0.00     0.000 HD 
HETATM   10  N   UNL     1     -11.679   6.427  72.688  1.00  0.00    -0.168 N  
HETATM   11  C   UNL     1      -9.734   6.990  70.906  1.00  0.00    -0.174 C  
HETATM   12  C   UNL     1     -11.012   7.254  70.523  1.00  0.00    -0.260 C  
HETATM   13  N   UNL     1      -9.411   6.540  72.161  1.00  0.00    -0.149 NA 
HETATM   14  C   UNL     1     -12.094   6.908  71.486  1.00  0.00    -0.358 C  
HETATM   15  N   UNL     1     -11.331   8.004  69.383  1.00  0.00    -0.356 NA 
HETATM   16  H   UNL     1     -12.255   7.946  68.957  1.00  0.00     0.000 HD 
HETATM   17  O   UNL     1     -13.279   7.136  71.242  1.00  0.00    -0.377 OA 
ENDROOT
BRANCH   1  18
HETATM   18  C   UNL     1     -10.214  10.249  69.594  1.00  0.00    -0.235 C  
HETATM   19  O   UNL     1      -8.913  10.852  69.579  1.00  0.00    -0.401 OA 
HETATM   20  H   UNL     1      -8.875  11.677  70.050  1.00  0.00     0.000 HD 
BRANCH  18  21
HETATM   21  C   UNL     1     -11.211  11.299  69.063  1.00  0.00    -0.258 C  
HETATM   22  C   UNL     1     -11.831  12.130  70.189  1.00  0.00    -0.368 C  
HETATM   23  O   UNL     1     -12.248  10.659  68.322  1.00  0.00    -0.799 OA 
HETATM   24  H   UNL     1     -12.862  11.305  67.995  1.00  0.00     0.000 HD 
ENDBRANCH  18  21
ENDBRANCH   1  18
TORSDOF 2
ENDMDL
MODEL       86
REMARK 921   NORMALIZED FREE ENERGY PREDICTED BY IDOCK:   -4.32 KCAL/MOL
REMARK 922        TOTAL FREE ENERGY PREDICTED BY IDOCK:   -5.32 KCAL/MOL
REMARK 923 INTER-LIGAND FREE ENERGY PREDICTED BY IDOCK:   -4.85 KCAL/MOL
REMARK 924 INTRA-LIGAND FREE ENERGY PREDICTED BY IDOCK:   -0.46 KCAL/MOL
REMARK 927      BINDING AFFINITY PREDICTED BY RF-SCORE:    0.00 PKD
ROOT
HETATM    1  C   UNL     1     -10.987  13.130  69.173  1.00  0.00    -0.145 C  
HETATM    2  C   UNL     1     -12.006  11.952  69.074  1.00  0.00    -0.262 C  
HETATM    3  H   UNL     1      -7.457  11.008  65.204  1.00  0.00     0.000 HD 
HETATM    4  C   UNL     1      -9.461  10.554  65.274  1.00  0.00    -0.229 C  
HETATM    5  N   UNL     1     -11.805  11.125  67.878  1.00  0.00    -0.632 NA 
HETATM    6  H1  UNL     1     -10.289   9.684  63.641  1.00  0.00     0.000 HD 
HETATM    7  H2  UNL     1      -8.576  10.128  63.442  1.00  0.00     0.000 HD 
HETATM    8  N   UNL     1      -9.425  10.084  64.006  1.00  0.00    -0.277 NA 
HETATM    9  H   UNL     1     -12.584  10.566  67.530  1.00  0.00     0.000 HD 
HETATM   10  N   UNL     1      -8.309  11.087  65.759  1.00  0.00    -0.135 N  
HETATM   11  C   UNL     1     -10.587  11.076  67.203  1.00  0.00    -0.250 C  
HETATM   12  C   UNL     1      -9.529  11.745  67.732  1.00  0.00    -0.181 C  
HETATM   13  N   UNL     1     -10.555  10.497  65.959  1.00  0.00    -0.147 NA 
HETATM   14  C   UNL     1      -8.256  11.722  66.959  1.00  0.00    -0.172 C  
HETATM   15  N   UNL     1      -9.638  12.603  68.835  1.00  0.00    -0.397 NA 
HETATM   16  H   UNL     1      -8.820  12.858  69.387  1.00  0.00     0.000 HD 
HETATM   17  O   UNL     1      -7.251  12.323  67.341  1.00  0.00    -0.127 OA 
ENDROOT
BRANCH   1  18
HETATM   18  C   UNL     1     -11.344  14.369  68.279  1.00  0.00    -0.287 C  
HETATM   19  O   UNL     1     -12.543  14.192  67.514  1.00  0.00    -0.480 OA 
HETATM   20  H   UNL     1     -12.758  14.942  66.973  1.00  0.00     0.000 HD 
BRANCH  18  21
HETATM   21  C   UNL     1     -11.503  15.673  69.087  1.00  0.00    -0.359 C  
HETATM   22  C   UNL     1     -10.256  15.999  69.912  1.00  0.00    -0.188 C  
HETATM   23  O   UNL     1     -12.632  15.579  69.953  1.00  0.00    -0.582 OA 
HETATM   24  H   UNL     1     -12.730  16.382  70.450  1.00  0.00     0.000 HD 
ENDBRANCH  18  21
ENDBRANCH   1  18
TORSDOF 2
ENDMDL
MODEL       87
REMARK 921   NORMALIZED FREE ENERGY PREDICTED BY IDOCK:   -4.28 KCAL/MOL
REMARK 922        TOTAL FREE ENERGY PREDICTED BY IDOCK:   -5.27 KCAL/MOL
REMARK 923 INTER-LIGAND FREE ENERGY PREDICTED BY IDOCK:   -4.94 KCAL/MOL
REMARK 924 INTRA-LIGAND FREE ENERGY PREDICTED BY IDOCK:   -0.34 KCAL/MOL
REMARK 927      BINDING AFFINITY PREDICTED BY RF-SCORE:    0.00 PKD
ROOT
HETATM    1  C   UNL     1     -10.470  14.564  67.693  1.00  0.00    -0.246 C  
HETATM    2  C   UNL     1     -11.904  14.122  67.265  1.00  0.00    -0.419 C  
HETATM    3  H   UNL     1      -8.368   9.245  67.782  1.00  0.00     0.000 HD 
HETATM    4  C   UNL     1      -9.984   9.788  66.633  1.00  0.00    -0.229 C  
HETATM    5  N   UNL     1     -11.952  12.740  66.774  1.00  0.00    -0.466 NA 
HETATM    6  H1  UNL     1     -10.571   8.516  65.168  1.00  0.00     0.000 HD 
HETATM    7  H2  UNL     1      -9.104   8.002  66.037  1.00  0.00     0.000 HD 
HETATM    8  N   UNL     1      -9.864   8.666  65.887  1.00  0.00    -0.120 NA 
HETATM    9  H   UNL     1     -12.720  12.460  66.164  1.00  0.00     0.000 HD 
HETATM   10  N   UNL     1      -9.042   9.987  67.591  1.00  0.00    -0.134 N  
HETATM   11  C   UNL     1     -10.984  11.796  67.113  1.00  0.00    -0.276 C  
HETATM   12  C   UNL     1     -10.021  12.152  68.005  1.00  0.00    -0.203 C  
HETATM   13  N   UNL     1     -10.950  10.618  66.411  1.00  0.00    -0.064 NA 
HETATM   14  C   UNL     1      -8.968  11.141  68.304  1.00  0.00    -0.166 C  
HETATM   15  N   UNL     1      -9.863  13.459  68.482  1.00  0.00    -0.338 NA 
HETATM   16  H   UNL     1      -9.349  13.647  69.342  1.00  0.00     0.000 HD 
HETATM   17  O   UNL     1      -8.037  11.380  69.075  1.00  0.00    -0.106 OA 
ENDROOT
BRANCH   1  18
HETATM   18  C   UNL     1      -9.539  14.976  66.500  1.00  0.00    -0.277 C  
HETATM   19  O   UNL     1      -9.757  14.201  65.314  1.00  0.00    -0.560 OA 
HETATM   20  H   UNL     1      -9.192  14.450  64.592  1.00  0.00     0.000 HD 
BRANCH  18  21
HETATM   21  C   UNL     1      -9.676  16.462  66.108  1.00  0.00    -0.327 C  
HETATM   22  C   UNL     1     -10.207  17.317  67.262  1.00  0.00    -0.320 C  
HETATM   23  O   UNL     1     -10.543  16.594  64.984  1.00  0.00    -0.683 OA 
HETATM   24  H   UNL     1     -10.627  17.509  64.743  1.00  0.00     0.000 HD 
ENDBRANCH  18  21
ENDBRANCH   1  18
TORSDOF 2
ENDMDL
MODEL       88
REMARK 921   NORMALIZED FREE ENERGY PREDICTED BY IDOCK:   -4.24 KCAL/MOL
REMARK 922        TOTAL FREE ENERGY PREDICTED BY IDOCK:   -5.22 KCAL/MOL
REMARK 923 INTER-LIGAND FREE ENERGY PREDICTED BY IDOCK:   -4.78 KCAL/MOL
REMARK 924 INTRA-LIGAND FREE ENERGY PREDICTED BY IDOCK:   -0.44 KCAL/MOL
REMARK 927      BINDING AFFINITY PREDICTED BY RF-SCORE:    0.00 PKD
ROOT
HETATM    1  C   UNL     1      -9.603  11.373  66.618  1.00  0.00    -0.191 C  
HETATM    2  C   UNL     1      -9.459  12.422  67.763  1.00  0.00    -0.199 C  
HETATM    3  H   UNL     1     -11.225   7.130  70.094  1.00  0.00     0.000 HD 
HETATM    4  C   UNL     1     -11.499   9.116  70.552  1.00  0.00    -0.229 C  
HETATM    5  N   UNL     1     -10.095  11.991  69.014  1.00  0.00    -0.416 NA 
HETATM    6  H1  UNL     1     -12.766   9.569  72.067  1.00  0.00     0.000 HD 
HETATM    7  H2  UNL     1     -12.677   7.832  71.685  1.00  0.00     0.000 HD 
HETATM    8  N   UNL     1     -12.392   8.797  71.517  1.00  0.00    -0.316 NA 
HETATM    9  H   UNL     1     -10.366  12.697  69.697  1.00  0.00     0.000 HD 
HETATM   10  N   UNL     1     -11.000   8.086  69.819  1.00  0.00    -0.191 N  
HETATM   11  C   UNL     1     -10.341  10.649  69.300  1.00  0.00    -0.218 C  
HETATM   12  C   UNL     1      -9.886   9.711  68.427  1.00  0.00    -0.153 C  
HETATM   13  N   UNL     1     -11.167  10.349  70.352  1.00  0.00    -0.314 NA 
HETATM   14  C   UNL     1     -10.213   8.289  68.730  1.00  0.00    -0.210 C  
HETATM   15  N   UNL     1      -9.320  10.028  67.186  1.00  0.00    -0.148 NA 
HETATM   16  H   UNL     1      -8.733   9.359  66.689  1.00  0.00     0.000 HD 
HETATM   17  O   UNL     1      -9.871   7.370  67.985  1.00  0.00    -0.141 OA 
ENDROOT
BRANCH   1  18
HETATM   18  C   UNL     1     -10.994  11.392  65.894  1.00  0.00    -0.207 C  
HETATM   19  O   UNL     1     -12.017  12.055  66.647  1.00  0.00    -0.614 OA 
HETATM   20  H   UNL     1     -12.860  12.067  66.210  1.00  0.00     0.000 HD 
BRANCH  18  21
HETATM   21  C   UNL     1     -10.945  12.057  64.503  1.00  0.00    -0.318 C  
HETATM   22  C   UNL     1     -11.173  13.569  64.577  1.00  0.00    -0.392 C  
HETATM   23  O   UNL     1     -11.923  11.472  63.646  1.00  0.00    -0.521 OA 
HETATM   24  H   UNL     1     -11.893  11.882  62.790  1.00  0.00     0.000 HD 
ENDBRANCH  18  21
ENDBRANCH   1  18
TORSDOF 2
ENDMDL
MODEL       89
REMARK 921   NORMALIZED FREE ENERGY PREDICTED BY IDOCK:   -4.20 KCAL/MOL
REMARK 922        TOTAL FREE ENERGY PREDICTED BY IDOCK:   -5.18 KCAL/MOL
REMARK 923 INTER-LIGAND FREE ENERGY PREDICTED BY IDOCK:   -4.92 KCAL/MOL
REMARK 924 INTRA-LIGAND FREE ENERGY PREDICTED BY IDOCK:   -0.26 KCAL/MOL
REMARK 927      BINDING AFFINITY PREDICTED BY RF-SCORE:    0.00 PKD
ROOT
HETATM    1  C   UNL     1     -10.653   6.872  70.461  1.00  0.00    -0.220 C  
HETATM    2  C   UNL     1     -11.214   5.969  69.319  1.00  0.00    -0.297 C  
HETATM    3  H   UNL     1      -8.101  10.557  66.908  1.00  0.00     0.000 HD 
HETATM    4  C   UNL     1      -9.719   9.413  66.357  1.00  0.00    -0.250 C  
HETATM    5  N   UNL     1     -11.153   6.613  68.002  1.00  0.00    -0.516 NA 
HETATM    6  H1  UNL     1     -10.701   9.923  64.660  1.00  0.00     0.000 HD 
HETATM    7  H2  UNL     1      -9.382  11.034  65.101  1.00  0.00     0.000 HD 
HETATM    8  N   UNL     1      -9.943  10.202  65.282  1.00  0.00    -0.317 NA 
HETATM    9  H   UNL     1     -11.780   6.288  67.266  1.00  0.00     0.000 HD 
HETATM   10  N   UNL     1      -8.708   9.785  67.186  1.00  0.00    -0.132 N  
HETATM   11  C   UNL     1     -10.270   7.653  67.722  1.00  0.00    -0.201 C  
HETATM   12  C   UNL     1      -9.372   8.011  68.678  1.00  0.00    -0.146 C  
HETATM   13  N   UNL     1     -10.455   8.372  66.568  1.00  0.00    -0.161 NA 
HETATM   14  C   UNL     1      -8.478   9.163  68.371  1.00  0.00    -0.128 C  
HETATM   15  N   UNL     1      -9.390   7.493  69.979  1.00  0.00    -0.154 NA 
HETATM   16  H   UNL     1      -8.565   7.541  70.577  1.00  0.00     0.000 HD 
HETATM   17  O   UNL     1      -7.654   9.581  69.185  1.00  0.00    -0.071 OA 
ENDROOT
BRANCH   1  18
HETATM   18  C   UNL     1     -11.655   7.965  70.971  1.00  0.00    -0.282 C  
HETATM   19  O   UNL     1     -13.027   7.644  70.711  1.00  0.00    -0.553 OA 
HETATM   20  H   UNL     1     -13.634   8.306  71.020  1.00  0.00     0.000 HD 
BRANCH  18  21
HETATM   21  C   UNL     1     -11.528   8.246  72.482  1.00  0.00    -0.384 C  
HETATM   22  C   UNL     1     -10.721   7.165  73.206  1.00  0.00    -0.403 C  
HETATM   23  O   UNL     1     -12.822   8.345  73.073  1.00  0.00    -0.706 OA 
HETATM   24  H   UNL     1     -12.743   8.518  74.003  1.00  0.00     0.000 HD 
ENDBRANCH  18  21
ENDBRANCH   1  18
TORSDOF 2
ENDMDL
MODEL       90
REMARK 921   NORMALIZED FREE ENERGY PREDICTED BY IDOCK:   -4.20 KCAL/MOL
REMARK 922        TOTAL FREE ENERGY PREDICTED BY IDOCK:   -5.18 KCAL/MOL
REMARK 923 INTER-LIGAND FREE ENERGY PREDICTED BY IDOCK:   -4.69 KCAL/MOL
REMARK 924 INTRA-LIGAND FREE ENERGY PREDICTED BY IDOCK:   -0.49 KCAL/MOL
REMARK 927      BINDING AFFINITY PREDICTED BY RF-SCORE:    0.00 PKD
ROOT
HETATM    1  C   UNL     1      -9.876  11.533  65.856  1.00  0.00    -0.231 C  
HETATM    2  C   UNL     1     -11.294  11.830  65.277  1.00  0.00    -0.222 C  
HETATM    3  H   UNL     1      -9.929  15.969  69.466  1.00  0.00     0.000 HD 
HETATM    4  C   UNL     1     -11.645  15.073  68.773  1.00  0.00    -0.335 C  
HETATM    5  N   UNL     1     -12.057  12.779  66.095  1.00  0.00    -0.528 NA 
HETATM    6  H1  UNL     1     -13.381  15.490  69.732  1.00  0.00     0.000 HD 
HETATM    7  H2  UNL     1     -11.942  16.234  70.471  1.00  0.00     0.000 HD 
HETATM    8  N   UNL     1     -12.375  15.657  69.751  1.00  0.00    -0.278 NA 
HETATM    9  H   UNL     1     -13.074  12.785  66.024  1.00  0.00     0.000 HD 
HETATM   10  N   UNL     1     -10.305  15.296  68.799  1.00  0.00    -0.225 N  
HETATM   11  C   UNL     1     -11.440  13.674  66.967  1.00  0.00    -0.343 C  
HETATM   12  C   UNL     1     -10.081  13.727  66.981  1.00  0.00    -0.256 C  
HETATM   13  N   UNL     1     -12.220  14.335  67.882  1.00  0.00    -0.249 NA 
HETATM   14  C   UNL     1      -9.449  14.651  67.964  1.00  0.00    -0.207 C  
HETATM   15  N   UNL     1      -9.271  12.825  66.278  1.00  0.00    -0.416 NA 
HETATM   16  H   UNL     1      -8.300  13.046  66.064  1.00  0.00     0.000 HD 
HETATM   17  O   UNL     1      -8.225  14.746  68.073  1.00  0.00    -0.130 OA 
ENDROOT
BRANCH   1  18
HETATM   18  C   UNL     1      -9.863  10.498  67.034  1.00  0.00    -0.183 C  
HETATM   19  O   UNL     1     -11.174  10.108  67.462  1.00  0.00    -0.371 OA 
HETATM   20  H   UNL     1     -11.166   9.481  68.176  1.00  0.00     0.000 HD 
BRANCH  18  21
HETATM   21  C   UNL     1      -9.087   9.208  66.699  1.00  0.00    -0.148 C  
HETATM   22  C   UNL     1      -7.741   9.499  66.029  1.00  0.00    -0.100 C  
HETATM   23  O   UNL     1      -9.868   8.373  65.847  1.00  0.00    -0.471 OA 
HETATM   24  H   UNL     1      -9.390   7.579  65.641  1.00  0.00     0.000 HD 
ENDBRANCH  18  21
ENDBRANCH   1  18
TORSDOF 2
ENDMDL
MODEL       91
REMARK 921   NORMALIZED FREE ENERGY PREDICTED BY IDOCK:   -4.19 KCAL/MOL
REMARK 922        TOTAL FREE ENERGY PREDICTED BY IDOCK:   -5.16 KCAL/MOL
REMARK 923 INTER-LIGAND FREE ENERGY PREDICTED BY IDOCK:   -4.91 KCAL/MOL
REMARK 924 INTRA-LIGAND FREE ENERGY PREDICTED BY IDOCK:   -0.26 KCAL/MOL
REMARK 927      BINDING AFFINITY PREDICTED BY RF-SCORE:    0.00 PKD
ROOT
HETATM    1  C   UNL     1     -10.527  12.640  67.553  1.00  0.00    -0.221 C  
HETATM    2  C   UNL     1     -11.894  12.092  68.067  1.00  0.00    -0.269 C  
HETATM    3  H   UNL     1      -7.461   8.343  69.756  1.00  0.00     0.000 HD 
HETATM    4  C   UNL     1      -9.450   8.160  69.269  1.00  0.00    -0.159 C  
HETATM    5  N   UNL     1     -11.819  10.693  68.506  1.00  0.00    -0.741 NA 
HETATM    6  H1  UNL     1     -10.227   6.292  69.157  1.00  0.00     0.000 HD 
HETATM    7  H2  UNL     1      -8.478   6.337  69.485  1.00  0.00     0.000 HD 
HETATM    8  N   UNL     1      -9.364   6.811  69.310  1.00  0.00    -0.144 NA 
HETATM    9  H   UNL     1     -12.673  10.137  68.529  1.00  0.00     0.000 HD 
HETATM   10  N   UNL     1      -8.299   8.852  69.473  1.00  0.00    -0.116 N  
HETATM   11  C   UNL     1     -10.619  10.098  68.891  1.00  0.00    -0.215 C  
HETATM   12  C   UNL     1      -9.504  10.875  68.952  1.00  0.00    -0.172 C  
HETATM   13  N   UNL     1     -10.584   8.734  69.030  1.00  0.00    -0.206 NA 
HETATM   14  C   UNL     1      -8.226  10.199  69.312  1.00  0.00    -0.156 C  
HETATM   15  N   UNL     1      -9.468  12.201  68.501  1.00  0.00    -0.346 NA 
HETATM   16  H   UNL     1      -8.740  12.843  68.812  1.00  0.00     0.000 HD 
HETATM   17  O   UNL     1      -7.159  10.812  69.363  1.00  0.00    -0.096 OA 
ENDROOT
BRANCH   1  18
HETATM   18  C   UNL     1     -10.173  12.219  66.085  1.00  0.00    -0.239 C  
HETATM   19  O   UNL     1     -10.505  10.857  65.788  1.00  0.00    -0.248 OA 
HETATM   20  H   UNL     1     -10.290  10.601  64.898  1.00  0.00     0.000 HD 
BRANCH  18  21
HETATM   21  C   UNL     1     -10.857  13.100  65.019  1.00  0.00    -0.315 C  
HETATM   22  C   UNL     1     -12.073  12.411  64.393  1.00  0.00    -0.505 C  
HETATM   23  O   UNL     1      -9.927  13.441  63.994  1.00  0.00    -0.764 OA 
HETATM   24  H   UNL     1     -10.349  13.983  63.338  1.00  0.00     0.000 HD 
ENDBRANCH  18  21
ENDBRANCH   1  18
TORSDOF 2
ENDMDL
MODEL       92
REMARK 921   NORMALIZED FREE ENERGY PREDICTED BY IDOCK:   -4.17 KCAL/MOL
REMARK 922        TOTAL FREE ENERGY PREDICTED BY IDOCK:   -5.15 KCAL/MOL
REMARK 923 INTER-LIGAND FREE ENERGY PREDICTED BY IDOCK:   -4.76 KCAL/MOL
REMARK 924 INTRA-LIGAND FREE ENERGY PREDICTED BY IDOCK:   -0.38 KCAL/MOL
REMARK 927      BINDING AFFINITY PREDICTED BY RF-SCORE:    0.00 PKD
ROOT
HETATM    1  C   UNL     1      -9.029  12.347  67.596  1.00  0.00    -0.183 C  
HETATM    2  C   UNL     1      -7.705  13.126  67.323  1.00  0.00    -0.098 C  
HETATM    3  H   UNL     1     -12.084  17.041  68.758  1.00  0.00     0.000 HD 
HETATM    4  C   UNL     1     -10.402  17.068  67.575  1.00  0.00    -0.329 C  
HETATM    5  N   UNL     1      -7.919  14.567  67.144  1.00  0.00    -0.321 NA 
HETATM    6  H1  UNL     1     -10.072  18.714  66.440  1.00  0.00     0.000 HD 
HETATM    7  H2  UNL     1     -11.603  18.748  67.348  1.00  0.00     0.000 HD 
HETATM    8  N   UNL     1     -10.734  18.284  67.085  1.00  0.00    -0.356 NA 
HETATM    9  H   UNL     1      -7.220  15.109  66.636  1.00  0.00     0.000 HD 
HETATM   10  N   UNL     1     -11.285  16.495  68.435  1.00  0.00    -0.337 N  
HETATM   11  C   UNL     1      -9.043  15.221  67.645  1.00  0.00    -0.183 C  
HETATM   12  C   UNL     1      -9.917  14.509  68.405  1.00  0.00    -0.241 C  
HETATM   13  N   UNL     1      -9.300  16.497  67.213  1.00  0.00    -0.220 NA 
HETATM   14  C   UNL     1     -11.138  15.220  68.879  1.00  0.00    -0.266 C  
HETATM   15  N   UNL     1      -9.826  13.123  68.584  1.00  0.00    -0.400 NA 
HETATM   16  H   UNL     1     -10.290  12.661  69.365  1.00  0.00     0.000 HD 
HETATM   17  O   UNL     1     -12.003  14.652  69.547  1.00  0.00    -0.297 OA 
ENDROOT
BRANCH   1  18
HETATM   18  C   UNL     1      -9.875  12.042  66.311  1.00  0.00    -0.231 C  
HETATM   19  O   UNL     1      -9.645  12.971  65.245  1.00  0.00    -0.488 OA 
HETATM   20  H   UNL     1     -10.157  12.787  64.466  1.00  0.00     0.000 HD 
BRANCH  18  21
HETATM   21  C   UNL     1      -9.632  10.627  65.747  1.00  0.00    -0.210 C  
HETATM   22  C   UNL     1      -9.830  10.568  64.230  1.00  0.00    -0.402 C  
HETATM   23  O   UNL     1     -10.506   9.692  66.375  1.00  0.00    -0.202 OA 
HETATM   24  H   UNL     1     -10.356   8.821  66.027  1.00  0.00     0.000 HD 
ENDBRANCH  18  21
ENDBRANCH   1  18
TORSDOF 2
ENDMDL
MODEL       93
REMARK 921   NORMALIZED FREE ENERGY PREDICTED BY IDOCK:   -4.16 KCAL/MOL
REMARK 922        TOTAL FREE ENERGY PREDICTED BY IDOCK:   -5.13 KCAL/MOL
REMARK 923 INTER-LIGAND FREE ENERGY PREDICTED BY IDOCK:   -4.90 KCAL/MOL
REMARK 924 INTRA-LIGAND FREE ENERGY PREDICTED BY IDOCK:   -0.23 KCAL/MOL
REMARK 927      BINDING AFFINITY PREDICTED BY RF-SCORE:    0.00 PKD
ROOT
HETATM    1  C   UNL     1     -10.807   9.330  69.804  1.00  0.00    -0.224 C  
HETATM    2  C   UNL     1     -11.881   8.665  70.718  1.00  0.00    -0.171 C  
HETATM    3  H   UNL     1     -12.805  14.638  70.545  1.00  0.00     0.000 HD 
HETATM    4  C   UNL     1     -13.099  13.133  71.915  1.00  0.00    -0.385 C  
HETATM    5  N   UNL     1     -12.600   9.636  71.552  1.00  0.00    -0.363 NA 
HETATM    6  H1  UNL     1     -13.732  13.652  73.769  1.00  0.00     0.000 HD 
HETATM    7  H2  UNL     1     -13.412  15.034  72.692  1.00  0.00     0.000 HD 
HETATM    8  N   UNL     1     -13.442  14.030  72.867  1.00  0.00    -0.663 NA 
HETATM    9  H   UNL     1     -13.055   9.311  72.404  1.00  0.00     0.000 HD 
HETATM   10  N   UNL     1     -12.713  13.636  70.714  1.00  0.00    -0.298 N  
HETATM   11  C   UNL     1     -12.681  10.987  71.219  1.00  0.00    -0.432 C  
HETATM   12  C   UNL     1     -12.156  11.391  70.031  1.00  0.00    -0.340 C  
HETATM   13  N   UNL     1     -13.134  11.866  72.170  1.00  0.00    -0.377 NA 
HETATM   14  C   UNL     1     -12.207  12.849  69.729  1.00  0.00    -0.162 C  
HETATM   15  N   UNL     1     -11.406  10.550  69.199  1.00  0.00    -0.282 NA 
HETATM   16  H   UNL     1     -11.275  10.767  68.212  1.00  0.00     0.000 HD 
HETATM   17  O   UNL     1     -11.731  13.315  68.693  1.00  0.00    -0.299 OA 
ENDROOT
BRANCH   1  18
HETATM   18  C   UNL     1      -9.461   9.671  70.532  1.00  0.00    -0.181 C  
HETATM   19  O   UNL     1      -9.175   8.802  71.635  1.00  0.00    -0.231 OA 
HETATM   20  H   UNL     1      -8.359   9.009  72.077  1.00  0.00     0.000 HD 
BRANCH  18  21
HETATM   21  C   UNL     1      -8.237   9.638  69.593  1.00  0.00    -0.144 C  
HETATM   22  C   UNL     1      -7.154   8.675  70.088  1.00  0.00    -0.044 C  
HETATM   23  O   UNL     1      -7.684  10.946  69.463  1.00  0.00    -0.308 OA 
HETATM   24  H   UNL     1      -6.930  10.925  68.885  1.00  0.00     0.000 HD 
ENDBRANCH  18  21
ENDBRANCH   1  18
TORSDOF 2
ENDMDL
MODEL       94
REMARK 921   NORMALIZED FREE ENERGY PREDICTED BY IDOCK:   -4.15 KCAL/MOL
REMARK 922        TOTAL FREE ENERGY PREDICTED BY IDOCK:   -5.12 KCAL/MOL
REMARK 923 INTER-LIGAND FREE ENERGY PREDICTED BY IDOCK:   -4.67 KCAL/MOL
REMARK 924 INTRA-LIGAND FREE ENERGY PREDICTED BY IDOCK:   -0.45 KCAL/MOL
REMARK 927      BINDING AFFINITY PREDICTED BY RF-SCORE:    0.00 PKD
ROOT
HETATM    1  C   UNL     1      -9.003  13.229  68.273  1.00  0.00    -0.176 C  
HETATM    2  C   UNL     1      -9.243  14.669  68.823  1.00  0.00    -0.184 C  
HETATM    3  H   UNL     1     -12.846  13.706  64.065  1.00  0.00     0.000 HD 
HETATM    4  C   UNL     1     -11.900  15.329  64.901  1.00  0.00    -0.170 C  
HETATM    5  N   UNL     1      -9.987  15.520  67.886  1.00  0.00    -0.218 NA 
HETATM    6  H1  UNL     1     -12.006  17.096  63.916  1.00  0.00     0.000 HD 
HETATM    7  H2  UNL     1     -12.771  15.735  63.059  1.00  0.00     0.000 HD 
HETATM    8  N   UNL     1     -12.264  16.112  63.860  1.00  0.00    -0.802 NA 
HETATM    9  H   UNL     1      -9.906  16.533  67.970  1.00  0.00     0.000 HD 
HETATM   10  N   UNL     1     -12.244  14.016  64.827  1.00  0.00    -0.423 N  
HETATM   11  C   UNL     1     -10.802  14.991  66.887  1.00  0.00    -0.315 C  
HETATM   12  C   UNL     1     -10.981  13.644  66.847  1.00  0.00    -0.289 C  
HETATM   13  N   UNL     1     -11.246  15.830  65.897  1.00  0.00    -0.088 NA 
HETATM   14  C   UNL     1     -11.811  13.103  65.734  1.00  0.00    -0.397 C  
HETATM   15  N   UNL     1     -10.271  12.751  67.662  1.00  0.00    -0.216 NA 
HETATM   16  H   UNL     1     -10.614  11.806  67.829  1.00  0.00     0.000 HD 
HETATM   17  O   UNL     1     -12.006  11.894  65.597  1.00  0.00    -0.429 OA 
ENDROOT
BRANCH   1  18
HETATM   18  C   UNL     1      -7.815  13.116  67.256  1.00  0.00    -0.117 C  
HETATM   19  O   UNL     1      -7.176  14.370  66.986  1.00  0.00    -0.348 OA 
HETATM   20  H   UNL     1      -6.456  14.301  66.369  1.00  0.00     0.000 HD 
BRANCH  18  21
HETATM   21  C   UNL     1      -6.718  12.131  67.712  1.00  0.00    -0.103 C  
HETATM   22  C   UNL     1      -6.361  12.307  69.190  1.00  0.00    -0.095 C  
HETATM   23  O   UNL     1      -5.546  12.302  66.918  1.00  0.00    -0.303 OA 
HETATM   24  H   UNL     1      -4.871  11.696  67.199  1.00  0.00     0.000 HD 
ENDBRANCH  18  21
ENDBRANCH   1  18
TORSDOF 2
ENDMDL
MODEL       95
REMARK 921   NORMALIZED FREE ENERGY PREDICTED BY IDOCK:   -4.15 KCAL/MOL
REMARK 922        TOTAL FREE ENERGY PREDICTED BY IDOCK:   -5.12 KCAL/MOL
REMARK 923 INTER-LIGAND FREE ENERGY PREDICTED BY IDOCK:   -5.13 KCAL/MOL
REMARK 924 INTRA-LIGAND FREE ENERGY PREDICTED BY IDOCK:    0.01 KCAL/MOL
REMARK 927      BINDING AFFINITY PREDICTED BY RF-SCORE:    0.00 PKD
ROOT
HETATM    1  C   UNL     1     -11.371  14.632  67.753  1.00  0.00    -0.322 C  
HETATM    2  C   UNL     1     -10.145  15.449  67.241  1.00  0.00    -0.238 C  
HETATM    3  H   UNL     1     -11.659  11.295  63.117  1.00  0.00     0.000 HD 
HETATM    4  C   UNL     1      -9.924  12.216  63.724  1.00  0.00    -0.318 C  
HETATM    5  N   UNL     1      -9.472  14.813  66.102  1.00  0.00    -0.382 NA 
HETATM    6  H1  UNL     1      -8.181  11.576  62.912  1.00  0.00     0.000 HD 
HETATM    7  H2  UNL     1      -9.611  10.648  62.397  1.00  0.00     0.000 HD 
HETATM    8  N   UNL     1      -9.185  11.401  62.937  1.00  0.00    -0.324 NA 
HETATM    9  H   UNL     1      -8.499  15.051  65.910  1.00  0.00     0.000 HD 
HETATM   10  N   UNL     1     -11.262  11.983  63.757  1.00  0.00    -0.402 N  
HETATM   11  C   UNL     1     -10.116  13.896  65.275  1.00  0.00    -0.303 C  
HETATM   12  C   UNL     1     -11.440  13.662  65.479  1.00  0.00    -0.305 C  
HETATM   13  N   UNL     1      -9.355  13.154  64.408  1.00  0.00     0.673 NA 
HETATM   14  C   UNL     1     -12.088  12.634  64.617  1.00  0.00    -0.420 C  
HETATM   15  N   UNL     1     -12.150  14.179  66.571  1.00  0.00    -0.446 NA 
HETATM   16  H   UNL     1     -13.168  14.241  66.555  1.00  0.00     0.000 HD 
HETATM   17  O   UNL     1     -13.275  12.331  64.747  1.00  0.00    -0.697 OA 
ENDROOT
BRANCH   1  18
HETATM   18  C   UNL     1     -10.999  13.420  68.676  1.00  0.00    -0.260 C  
HETATM   19  O   UNL     1     -11.345  13.625  70.052  1.00  0.00    -0.467 OA 
HETATM   20  H   UNL     1     -11.119  12.891  70.611  1.00  0.00     0.000 HD 
BRANCH  18  21
HETATM   21  C   UNL     1     -11.653  12.096  68.231  1.00  0.00    -0.325 C  
HETATM   22  C   UNL     1     -12.107  11.247  69.422  1.00  0.00    -0.384 C  
HETATM   23  O   UNL     1     -10.742  11.343  67.434  1.00  0.00    -0.207 OA 
HETATM   24  H   UNL     1     -11.145  10.528  67.160  1.00  0.00     0.000 HD 
ENDBRANCH  18  21
ENDBRANCH   1  18
TORSDOF 2
ENDMDL
MODEL       96
REMARK 921   NORMALIZED FREE ENERGY PREDICTED BY IDOCK:   -4.14 KCAL/MOL
REMARK 922        TOTAL FREE ENERGY PREDICTED BY IDOCK:   -5.11 KCAL/MOL
REMARK 923 INTER-LIGAND FREE ENERGY PREDICTED BY IDOCK:   -4.67 KCAL/MOL
REMARK 924 INTRA-LIGAND FREE ENERGY PREDICTED BY IDOCK:   -0.44 KCAL/MOL
REMARK 927      BINDING AFFINITY PREDICTED BY RF-SCORE:    0.00 PKD
ROOT
HETATM    1  C   UNL     1      -8.932  14.409  66.735  1.00  0.00    -0.233 C  
HETATM    2  C   UNL     1     -10.481  14.528  66.601  1.00  0.00    -0.274 C  
HETATM    3  H   UNL     1      -8.059  20.059  66.909  1.00  0.00     0.000 HD 
HETATM    4  C   UNL     1      -9.833  19.186  67.473  1.00  0.00    -0.329 C  
HETATM    5  N   UNL     1     -10.980  15.871  66.922  1.00  0.00    -0.236 NA 
HETATM    6  H1  UNL     1     -11.147  20.312  68.528  1.00  0.00     0.000 HD 
HETATM    7  H2  UNL     1      -9.604  21.128  68.176  1.00  0.00     0.000 HD 
HETATM    8  N   UNL     1     -10.216  20.315  68.112  1.00  0.00    -0.339 NA 
HETATM    9  H   UNL     1     -11.954  15.981  67.202  1.00  0.00     0.000 HD 
HETATM   10  N   UNL     1      -8.592  19.190  66.920  1.00  0.00    -0.289 N  
HETATM   11  C   UNL     1     -10.168  17.002  66.856  1.00  0.00    -0.305 C  
HETATM   12  C   UNL     1      -8.900  16.858  66.386  1.00  0.00    -0.287 C  
HETATM   13  N   UNL     1     -10.625  18.166  67.420  1.00  0.00    -0.405 NA 
HETATM   14  C   UNL     1      -8.037  18.073  66.381  1.00  0.00    -0.260 C  
HETATM   15  N   UNL     1      -8.321  15.612  66.109  1.00  0.00    -0.311 NA 
HETATM   16  H   UNL     1      -7.508  15.534  65.500  1.00  0.00     0.000 HD 
HETATM   17  O   UNL     1      -6.866  18.036  66.003  1.00  0.00    -0.246 OA 
ENDROOT
BRANCH   1  18
HETATM   18  C   UNL     1      -8.423  14.225  68.207  1.00  0.00    -0.167 C  
HETATM   19  O   UNL     1      -9.032  13.119  68.885  1.00  0.00    -0.379 OA 
HETATM   20  H   UNL     1      -8.724  13.008  69.777  1.00  0.00     0.000 HD 
BRANCH  18  21
HETATM   21  C   UNL     1      -6.895  14.036  68.301  1.00  0.00    -0.108 C  
HETATM   22  C   UNL     1      -6.178  15.324  68.714  1.00  0.00    -0.090 C  
HETATM   23  O   UNL     1      -6.378  13.588  67.051  1.00  0.00    -0.412 OA 
HETATM   24  H   UNL     1      -5.438  13.472  67.109  1.00  0.00     0.000 HD 
ENDBRANCH  18  21
ENDBRANCH   1  18
TORSDOF 2
ENDMDL
MODEL       97
REMARK 921   NORMALIZED FREE ENERGY PREDICTED BY IDOCK:   -4.12 KCAL/MOL
REMARK 922        TOTAL FREE ENERGY PREDICTED BY IDOCK:   -5.09 KCAL/MOL
REMARK 923 INTER-LIGAND FREE ENERGY PREDICTED BY IDOCK:   -4.60 KCAL/MOL
REMARK 924 INTRA-LIGAND FREE ENERGY PREDICTED BY IDOCK:   -0.49 KCAL/MOL
REMARK 927      BINDING AFFINITY PREDICTED BY RF-SCORE:    0.00 PKD
ROOT
HETATM    1  C   UNL     1     -11.305   8.301  70.814  1.00  0.00    -0.266 C  
HETATM    2  C   UNL     1     -11.809   9.729  71.190  1.00  0.00    -0.382 C  
HETATM    3  H   UNL     1      -8.722   9.987  65.997  1.00  0.00     0.000 HD 
HETATM    4  C   UNL     1      -9.059  11.250  67.585  1.00  0.00    -0.149 C  
HETATM    5  N   UNL     1     -11.146  10.788  70.419  1.00  0.00    -0.462 NA 
HETATM    6  H1  UNL     1      -8.063  13.014  67.615  1.00  0.00     0.000 HD 
HETATM    7  H2  UNL     1      -7.625  11.953  66.254  1.00  0.00     0.000 HD 
HETATM    8  N   UNL     1      -8.167  12.143  67.098  1.00  0.00    -0.178 NA 
HETATM    9  H   UNL     1     -11.129  11.735  70.798  1.00  0.00     0.000 HD 
HETATM   10  N   UNL     1      -9.198  10.088  66.894  1.00  0.00    -0.145 N  
HETATM   11  C   UNL     1     -10.540  10.544  69.188  1.00  0.00    -0.229 C  
HETATM   12  C   UNL     1     -10.655   9.302  68.647  1.00  0.00    -0.187 C  
HETATM   13  N   UNL     1      -9.721  11.512  68.663  1.00  0.00    -0.190 NA 
HETATM   14  C   UNL     1      -9.949   9.056  67.359  1.00  0.00    -0.209 C  
HETATM   15  N   UNL     1     -11.219   8.217  69.332  1.00  0.00    -0.425 NA 
HETATM   16  H   UNL     1     -11.559   7.398  68.829  1.00  0.00     0.000 HD 
HETATM   17  O   UNL     1      -9.969   7.955  66.807  1.00  0.00    -0.227 OA 
ENDROOT
BRANCH   1  18
HETATM   18  C   UNL     1      -9.941   7.902  71.477  1.00  0.00    -0.173 C  
HETATM   19  O   UNL     1      -9.285   8.996  72.129  1.00  0.00    -0.365 OA 
HETATM   20  H   UNL     1      -8.458   8.755  72.531  1.00  0.00     0.000 HD 
BRANCH  18  21
HETATM   21  C   UNL     1     -10.078   6.767  72.511  1.00  0.00    -0.172 C  
HETATM   22  C   UNL     1     -10.643   5.485  71.893  1.00  0.00    -0.293 C  
HETATM   23  O   UNL     1     -10.917   7.182  73.587  1.00  0.00    -0.549 OA 
HETATM   24  H   UNL     1     -11.002   6.483  74.224  1.00  0.00     0.000 HD 
ENDBRANCH  18  21
ENDBRANCH   1  18
TORSDOF 2
ENDMDL
MODEL       98
REMARK 921   NORMALIZED FREE ENERGY PREDICTED BY IDOCK:   -4.07 KCAL/MOL
REMARK 922        TOTAL FREE ENERGY PREDICTED BY IDOCK:   -5.03 KCAL/MOL
REMARK 923 INTER-LIGAND FREE ENERGY PREDICTED BY IDOCK:   -4.62 KCAL/MOL
REMARK 924 INTRA-LIGAND FREE ENERGY PREDICTED BY IDOCK:   -0.42 KCAL/MOL
REMARK 927      BINDING AFFINITY PREDICTED BY RF-SCORE:    0.00 PKD
ROOT
HETATM    1  C   UNL     1      -7.488  15.939  67.261  1.00  0.00    -0.210 C  
HETATM    2  C   UNL     1      -6.991  15.500  68.673  1.00  0.00    -0.116 C  
HETATM    3  H   UNL     1     -13.007  14.970  68.405  1.00  0.00     0.000 HD 
HETATM    4  C   UNL     1     -11.621  15.386  69.865  1.00  0.00    -0.323 C  
HETATM    5  N   UNL     1      -8.077  15.408  69.656  1.00  0.00    -0.250 NA 
HETATM    6  H1  UNL     1     -12.308  15.896  71.702  1.00  0.00     0.000 HD 
HETATM    7  H2  UNL     1     -13.586  15.655  70.486  1.00  0.00     0.000 HD 
HETATM    8  N   UNL     1     -12.601  15.668  70.753  1.00  0.00    -0.447 NA 
HETATM    9  H   UNL     1      -7.850  15.473  70.648  1.00  0.00     0.000 HD 
HETATM   10  N   UNL     1     -12.013  15.083  68.600  1.00  0.00    -0.287 N  
HETATM   11  C   UNL     1      -9.408  15.235  69.281  1.00  0.00    -0.239 C  
HETATM   12  C   UNL     1      -9.687  15.051  67.963  1.00  0.00    -0.213 C  
HETATM   13  N   UNL     1     -10.381  15.424  70.229  1.00  0.00    -0.258 NA 
HETATM   14  C   UNL     1     -11.123  14.925  67.586  1.00  0.00    -0.311 C  
HETATM   15  N   UNL     1      -8.727  15.177  66.951  1.00  0.00    -0.242 NA 
HETATM   16  H   UNL     1      -8.873  14.761  66.032  1.00  0.00     0.000 HD 
HETATM   17  O   UNL     1     -11.477  14.786  66.414  1.00  0.00    -0.350 OA 
ENDROOT
BRANCH   1  18
HETATM   18  C   UNL     1      -7.728  17.481  67.111  1.00  0.00    -0.205 C  
HETATM   19  O   UNL     1      -7.913  18.153  68.364  1.00  0.00    -0.284 OA 
HETATM   20  H   UNL     1      -8.059  19.087  68.273  1.00  0.00     0.000 HD 
BRANCH  18  21
HETATM   21  C   UNL     1      -6.585  18.204  66.369  1.00  0.00    -0.218 C  
HETATM   22  C   UNL     1      -5.993  19.350  67.194  1.00  0.00    -0.180 C  
HETATM   23  O   UNL     1      -7.054  18.712  65.122  1.00  0.00    -0.482 OA 
HETATM   24  H   UNL     1      -6.350  19.157  64.666  1.00  0.00     0.000 HD 
ENDBRANCH  18  21
ENDBRANCH   1  18
TORSDOF 2
ENDMDL
MODEL       99
REMARK 921   NORMALIZED FREE ENERGY PREDICTED BY IDOCK:   -4.06 KCAL/MOL
REMARK 922        TOTAL FREE ENERGY PREDICTED BY IDOCK:   -5.02 KCAL/MOL
REMARK 923 INTER-LIGAND FREE ENERGY PREDICTED BY IDOCK:   -4.60 KCAL/MOL
REMARK 924 INTRA-LIGAND FREE ENERGY PREDICTED BY IDOCK:   -0.42 KCAL/MOL
REMARK 927      BINDING AFFINITY PREDICTED BY RF-SCORE:    0.00 PKD
ROOT
HETATM    1  C   UNL     1     -11.622  12.232  66.021  1.00  0.00    -0.393 C  
HETATM    2  C   UNL     1     -11.442  11.596  64.608  1.00  0.00    -0.178 C  
HETATM    3  H   UNL     1      -8.683   8.142  68.733  1.00  0.00     0.000 HD 
HETATM    4  C   UNL     1      -8.394   8.595  66.748  1.00  0.00    -0.108 C  
HETATM    5  N   UNL     1     -10.402  10.561  64.577  1.00  0.00    -0.301 NA 
HETATM    6  H1  UNL     1      -6.727   7.877  65.848  1.00  0.00     0.000 HD 
HETATM    7  H2  UNL     1      -6.831   7.514  67.588  1.00  0.00     0.000 HD 
HETATM    8  N   UNL     1      -7.214   7.934  66.742  1.00  0.00    -0.086 NA 
HETATM    9  H   UNL     1      -9.964  10.330  63.687  1.00  0.00     0.000 HD 
HETATM   10  N   UNL     1      -9.044   8.671  67.939  1.00  0.00    -0.139 N  
HETATM   11  C   UNL     1      -9.994   9.882  65.724  1.00  0.00    -0.277 C  
HETATM   12  C   UNL     1     -10.654  10.127  66.888  1.00  0.00    -0.200 C  
HETATM   13  N   UNL     1      -8.848   9.130  65.662  1.00  0.00    -0.173 NA 
HETATM   14  C   UNL     1     -10.159   9.430  68.108  1.00  0.00    -0.181 C  
HETATM   15  N   UNL     1     -11.618  11.134  67.025  1.00  0.00    -0.430 NA 
HETATM   16  H   UNL     1     -12.294  11.115  67.787  1.00  0.00     0.000 HD 
HETATM   17  O   UNL     1     -10.672   9.610  69.213  1.00  0.00    -0.220 OA 
ENDROOT
BRANCH   1  18
HETATM   18  C   UNL     1     -10.554  13.321  66.381  1.00  0.00    -0.284 C  
HETATM   19  O   UNL     1     -10.007  13.983  65.233  1.00  0.00    -0.494 OA 
HETATM   20  H   UNL     1      -9.359  14.643  65.450  1.00  0.00     0.000 HD 
BRANCH  18  21
HETATM   21  C   UNL     1     -11.095  14.414  67.325  1.00  0.00    -0.311 C  
HETATM   22  C   UNL     1     -10.388  14.408  68.683  1.00  0.00    -0.245 C  
HETATM   23  O   UNL     1     -12.497  14.242  67.521  1.00  0.00    -0.578 OA 
HETATM   24  H   UNL     1     -12.830  14.915  68.102  1.00  0.00     0.000 HD 
ENDBRANCH  18  21
ENDBRANCH   1  18
TORSDOF 2
ENDMDL
MODEL      100
REMARK 921   NORMALIZED FREE ENERGY PREDICTED BY IDOCK:   -4.01 KCAL/MOL
REMARK 922        TOTAL FREE ENERGY PREDICTED BY IDOCK:   -4.97 KCAL/MOL
REMARK 923 INTER-LIGAND FREE ENERGY PREDICTED BY IDOCK:   -4.99 KCAL/MOL
REMARK 924 INTRA-LIGAND FREE ENERGY PREDICTED BY IDOCK:    0.02 KCAL/MOL
REMARK 927      BINDING AFFINITY PREDICTED BY RF-SCORE:    0.00 PKD
ROOT
HETATM    1  C   UNL     1     -11.428  12.509  66.734  1.00  0.00    -0.362 C  
HETATM    2  C   UNL     1     -10.839  12.375  68.172  1.00  0.00    -0.221 C  
HETATM    3  H   UNL     1      -8.391  17.179  65.437  1.00  0.00     0.000 HD 
HETATM    4  C   UNL     1      -7.788  15.812  66.849  1.00  0.00    -0.236 C  
HETATM    5  N   UNL     1      -9.638  13.194  68.375  1.00  0.00    -0.313 NA 
HETATM    6  H1  UNL     1      -5.864  15.892  67.480  1.00  0.00     0.000 HD 
HETATM    7  H2  UNL     1      -6.257  17.050  66.186  1.00  0.00     0.000 HD 
HETATM    8  N   UNL     1      -6.529  16.304  66.826  1.00  0.00    -0.282 NA 
HETATM    9  H   UNL     1      -8.988  12.938  69.117  1.00  0.00     0.000 HD 
HETATM   10  N   UNL     1      -8.673  16.361  65.977  1.00  0.00    -0.305 N  
HETATM   11  C   UNL     1      -9.355  14.308  67.587  1.00  0.00    -0.201 C  
HETATM   12  C   UNL     1     -10.277  14.698  66.667  1.00  0.00    -0.274 C  
HETATM   13  N   UNL     1      -8.100  14.856  67.661  1.00  0.00    -0.153 NA 
HETATM   14  C   UNL     1      -9.923  15.857  65.801  1.00  0.00    -0.360 C  
HETATM   15  N   UNL     1     -11.423  13.950  66.365  1.00  0.00    -0.331 NA 
HETATM   16  H   UNL     1     -12.227  14.379  65.908  1.00  0.00     0.000 HD 
HETATM   17  O   UNL     1     -10.679  16.265  64.919  1.00  0.00    -0.646 OA 
ENDROOT
BRANCH   1  18
HETATM   18  C   UNL     1     -10.686  11.652  65.650  1.00  0.00    -0.278 C  
HETATM   19  O   UNL     1      -9.877  12.435  64.763  1.00  0.00    -0.433 OA 
HETATM   20  H   UNL     1      -9.427  11.916  64.106  1.00  0.00     0.000 HD 
BRANCH  18  21
HETATM   21  C   UNL     1      -9.779  10.562  66.256  1.00  0.00    -0.205 C  
HETATM   22  C   UNL     1      -8.382  10.557  65.629  1.00  0.00    -0.167 C  
HETATM   23  O   UNL     1     -10.377   9.278  66.088  1.00  0.00    -0.229 OA 
HETATM   24  H   UNL     1      -9.818   8.607  66.461  1.00  0.00     0.000 HD 
ENDBRANCH  18  21
ENDBRANCH   1  18
TORSDOF 2
ENDMDL
MODEL      101
REMARK 921   NORMALIZED FREE ENERGY PREDICTED BY IDOCK:   -4.01 KCAL/MOL
REMARK 922        TOTAL FREE ENERGY PREDICTED BY IDOCK:   -4.96 KCAL/MOL
REMARK 923 INTER-LIGAND FREE ENERGY PREDICTED BY IDOCK:   -5.04 KCAL/MOL
REMARK 924 INTRA-LIGAND FREE ENERGY PREDICTED BY IDOCK:    0.07 KCAL/MOL
REMARK 927      BINDING AFFINITY PREDICTED BY RF-SCORE:    0.00 PKD
ROOT
HETATM    1  C   UNL     1      -8.826  15.412  69.228  1.00  0.00    -0.258 C  
HETATM    2  C   UNL     1     -10.161  16.044  69.727  1.00  0.00    -0.240 C  
HETATM    3  H   UNL     1     -11.350  11.995  65.398  1.00  0.00     0.000 HD 
HETATM    4  C   UNL     1     -12.196  13.749  66.058  1.00  0.00    -0.457 C  
HETATM    5  N   UNL     1     -11.290  15.776  68.829  1.00  0.00    -0.340 NA 
HETATM    6  H1  UNL     1     -13.754  14.502  65.004  1.00  0.00     0.000 HD 
HETATM    7  H2  UNL     1     -13.030  13.038  64.293  1.00  0.00     0.000 HD 
HETATM    8  N   UNL     1     -13.064  13.751  65.021  1.00  0.00    -0.737 NA 
HETATM    9  H   UNL     1     -12.098  16.397  68.854  1.00  0.00     0.000 HD 
HETATM   10  N   UNL     1     -11.277  12.748  66.082  1.00  0.00    -0.287 N  
HETATM   11  C   UNL     1     -11.296  14.702  67.941  1.00  0.00    -0.315 C  
HETATM   12  C   UNL     1     -10.258  13.824  67.985  1.00  0.00    -0.248 C  
HETATM   13  N   UNL     1     -12.254  14.673  66.960  1.00  0.00    -0.208 NA 
HETATM   14  C   UNL     1     -10.263  12.719  66.986  1.00  0.00    -0.241 C  
HETATM   15  N   UNL     1      -9.114  14.028  68.768  1.00  0.00    -0.362 NA 
HETATM   16  H   UNL     1      -8.500  13.252  69.013  1.00  0.00     0.000 HD 
HETATM   17  O   UNL     1      -9.352  11.892  66.927  1.00  0.00    -0.186 OA 
ENDROOT
BRANCH   1  18
HETATM   18  C   UNL     1      -8.102  16.234  68.106  1.00  0.00    -0.158 C  
HETATM   19  O   UNL     1      -8.453  15.819  66.780  1.00  0.00    -0.220 OA 
HETATM   20  H   UNL     1      -8.014  16.317  66.100  1.00  0.00     0.000 HD 
BRANCH  18  21
HETATM   21  C   UNL     1      -8.370  17.751  68.196  1.00  0.00    -0.264 C  
HETATM   22  C   UNL     1      -9.100  18.284  66.961  1.00  0.00    -0.271 C  
HETATM   23  O   UNL     1      -7.143  18.457  68.362  1.00  0.00    -0.246 OA 
HETATM   24  H   UNL     1      -7.308  19.390  68.417  1.00  0.00     0.000 HD 
ENDBRANCH  18  21
ENDBRANCH   1  18
TORSDOF 2
ENDMDL
MODEL      102
REMARK 921   NORMALIZED FREE ENERGY PREDICTED BY IDOCK:   -3.98 KCAL/MOL
REMARK 922        TOTAL FREE ENERGY PREDICTED BY IDOCK:   -4.93 KCAL/MOL
REMARK 923 INTER-LIGAND FREE ENERGY PREDICTED BY IDOCK:   -4.49 KCAL/MOL
REMARK 924 INTRA-LIGAND FREE ENERGY PREDICTED BY IDOCK:   -0.44 KCAL/MOL
REMARK 927      BINDING AFFINITY PREDICTED BY RF-SCORE:    0.00 PKD
ROOT
HETATM    1  C   UNL     1     -10.548   8.521  70.152  1.00  0.00    -0.232 C  
HETATM    2  C   UNL     1     -11.565   8.770  71.308  1.00  0.00    -0.292 C  
HETATM    3  H   UNL     1     -11.541  13.537  67.590  1.00  0.00     0.000 HD 
HETATM    4  C   UNL     1     -11.862  13.226  69.597  1.00  0.00    -0.327 C  
HETATM    5  N   UNL     1     -11.986  10.173  71.405  1.00  0.00    -0.374 NA 
HETATM    6  H1  UNL     1     -12.118  14.854  70.776  1.00  0.00     0.000 HD 
HETATM    7  H2  UNL     1     -11.747  15.235  69.077  1.00  0.00     0.000 HD 
HETATM    8  N   UNL     1     -11.910  14.559  69.823  1.00  0.00    -0.296 NA 
HETATM    9  H   UNL     1     -12.354  10.517  72.291  1.00  0.00     0.000 HD 
HETATM   10  N   UNL     1     -11.585  12.833  68.326  1.00  0.00    -0.312 N  
HETATM   11  C   UNL     1     -11.900  11.051  70.326  1.00  0.00    -0.367 C  
HETATM   12  C   UNL     1     -11.502  10.558  69.123  1.00  0.00    -0.247 C  
HETATM   13  N   UNL     1     -12.059  12.393  70.565  1.00  0.00    -0.345 NA 
HETATM   14  C   UNL     1     -11.365  11.531  68.004  1.00  0.00    -0.298 C  
HETATM   15  N   UNL     1     -11.029   9.251  68.949  1.00  0.00    -0.431 NA 
HETATM   16  H   UNL     1     -11.015   8.815  68.028  1.00  0.00     0.000 HD 
HETATM   17  O   UNL     1     -10.982  11.186  66.885  1.00  0.00    -0.278 OA 
ENDROOT
BRANCH   1  18
HETATM   18  C   UNL     1      -9.070   8.921  70.494  1.00  0.00    -0.200 C  
HETATM   19  O   UNL     1      -8.916   9.452  71.816  1.00  0.00    -0.218 OA 
HETATM   20  H   UNL     1      -8.021   9.694  72.024  1.00  0.00     0.000 HD 
BRANCH  18  21
HETATM   21  C   UNL     1      -8.077   7.749  70.352  1.00  0.00    -0.115 C  
HETATM   22  C   UNL     1      -6.620   8.213  70.440  1.00  0.00    -0.036 C  
HETATM   23  O   UNL     1      -8.285   7.077  69.113  1.00  0.00    -0.119 OA 
HETATM   24  H   UNL     1      -7.673   6.356  69.026  1.00  0.00     0.000 HD 
ENDBRANCH  18  21
ENDBRANCH   1  18
TORSDOF 2
ENDMDL
MODEL      103
REMARK 921   NORMALIZED FREE ENERGY PREDICTED BY IDOCK:   -3.97 KCAL/MOL
REMARK 922        TOTAL FREE ENERGY PREDICTED BY IDOCK:   -4.92 KCAL/MOL
REMARK 923 INTER-LIGAND FREE ENERGY PREDICTED BY IDOCK:   -4.43 KCAL/MOL
REMARK 924 INTRA-LIGAND FREE ENERGY PREDICTED BY IDOCK:   -0.49 KCAL/MOL
REMARK 927      BINDING AFFINITY PREDICTED BY RF-SCORE:    0.00 PKD
ROOT
HETATM    1  C   UNL     1     -10.501   7.489  67.873  1.00  0.00    -0.204 C  
HETATM    2  C   UNL     1     -11.003   6.027  68.084  1.00  0.00    -0.246 C  
HETATM    3  H   UNL     1     -10.993   8.934  73.385  1.00  0.00     0.000 HD 
HETATM    4  C   UNL     1     -10.724   6.994  72.760  1.00  0.00    -0.274 C  
HETATM    5  N   UNL     1     -11.013   5.626  69.496  1.00  0.00    -0.294 NA 
HETATM    6  H1  UNL     1     -10.183   5.621  74.148  1.00  0.00     0.000 HD 
HETATM    7  H2  UNL     1     -10.291   7.285  74.771  1.00  0.00     0.000 HD 
HETATM    8  N   UNL     1     -10.369   6.613  74.008  1.00  0.00    -0.359 NA 
HETATM    9  H   UNL     1     -10.983   4.633  69.726  1.00  0.00     0.000 HD 
HETATM   10  N   UNL     1     -10.972   8.317  72.573  1.00  0.00    -0.358 N  
HETATM   11  C   UNL     1     -11.062   6.556  70.533  1.00  0.00    -0.319 C  
HETATM   12  C   UNL     1     -11.201   7.870  70.215  1.00  0.00    -0.200 C  
HETATM   13  N   UNL     1     -10.802   6.122  71.809  1.00  0.00    -0.245 NA 
HETATM   14  C   UNL     1     -11.193   8.845  71.341  1.00  0.00    -0.312 C  
HETATM   15  N   UNL     1     -11.145   8.351  68.900  1.00  0.00    -0.405 NA 
HETATM   16  H   UNL     1     -11.533   9.261  68.655  1.00  0.00     0.000 HD 
HETATM   17  O   UNL     1     -11.283  10.059  71.151  1.00  0.00    -0.350 OA 
ENDROOT
BRANCH   1  18
HETATM   18  C   UNL     1      -8.941   7.647  67.909  1.00  0.00    -0.128 C  
HETATM   19  O   UNL     1      -8.257   6.452  68.304  1.00  0.00    -0.115 OA 
HETATM   20  H   UNL     1      -7.312   6.548  68.326  1.00  0.00     0.000 HD 
BRANCH  18  21
HETATM   21  C   UNL     1      -8.345   8.092  66.557  1.00  0.00    -0.121 C  
HETATM   22  C   UNL     1      -8.236   9.615  66.446  1.00  0.00    -0.119 C  
HETATM   23  O   UNL     1      -9.141   7.594  65.484  1.00  0.00    -0.384 OA 
HETATM   24  H   UNL     1      -8.774   7.868  64.652  1.00  0.00     0.000 HD 
ENDBRANCH  18  21
ENDBRANCH   1  18
TORSDOF 2
ENDMDL
MODEL      104
REMARK 921   NORMALIZED FREE ENERGY PREDICTED BY IDOCK:   -3.93 KCAL/MOL
REMARK 922        TOTAL FREE ENERGY PREDICTED BY IDOCK:   -4.87 KCAL/MOL
REMARK 923 INTER-LIGAND FREE ENERGY PREDICTED BY IDOCK:   -4.37 KCAL/MOL
REMARK 924 INTRA-LIGAND FREE ENERGY PREDICTED BY IDOCK:   -0.50 KCAL/MOL
REMARK 927      BINDING AFFINITY PREDICTED BY RF-SCORE:    0.00 PKD
ROOT
HETATM    1  C   UNL     1      -9.504   9.570  66.101  1.00  0.00    -0.221 C  
HETATM    2  C   UNL     1     -10.474   8.613  66.862  1.00  0.00    -0.258 C  
HETATM    3  H   UNL     1     -11.734  14.340  68.335  1.00  0.00     0.000 HD 
HETATM    4  C   UNL     1     -11.848  12.511  69.268  1.00  0.00    -0.304 C  
HETATM    5  N   UNL     1     -11.184   9.277  67.961  1.00  0.00    -0.459 NA 
HETATM    6  H1  UNL     1     -12.376  12.480  71.224  1.00  0.00     0.000 HD 
HETATM    7  H2  UNL     1     -12.209  14.115  70.539  1.00  0.00     0.000 HD 
HETATM    8  N   UNL     1     -12.171  13.100  70.442  1.00  0.00    -0.345 NA 
HETATM    9  H   UNL     1     -11.560   8.708  68.720  1.00  0.00     0.000 HD 
HETATM   10  N   UNL     1     -11.575  13.338  68.225  1.00  0.00    -0.311 N  
HETATM   11  C   UNL     1     -11.363  10.659  68.005  1.00  0.00    -0.278 C  
HETATM   12  C   UNL     1     -10.946  11.396  66.941  1.00  0.00    -0.299 C  
HETATM   13  N   UNL     1     -11.795  11.223  69.178  1.00  0.00    -0.332 NA 
HETATM   14  C   UNL     1     -11.098  12.875  67.041  1.00  0.00    -0.275 C  
HETATM   15  N   UNL     1     -10.211  10.859  65.876  1.00  0.00    -0.250 NA 
HETATM   16  H   UNL     1     -10.162  11.336  64.977  1.00  0.00     0.000 HD 
HETATM   17  O   UNL     1     -10.722  13.629  66.142  1.00  0.00    -0.282 OA 
ENDROOT
BRANCH   1  18
HETATM   18  C   UNL     1      -8.131   9.803  66.822  1.00  0.00    -0.120 C  
HETATM   19  O   UNL     1      -7.346   8.611  66.949  1.00  0.00    -0.078 OA 
HETATM   20  H   UNL     1      -6.514   8.752  67.386  1.00  0.00     0.000 HD 
BRANCH  18  21
HETATM   21  C   UNL     1      -7.251  10.859  66.122  1.00  0.00    -0.101 C  
HETATM   22  C   UNL     1      -5.757  10.558  66.272  1.00  0.00    -0.085 C  
HETATM   23  O   UNL     1      -7.528  12.155  66.648  1.00  0.00    -0.370 OA 
HETATM   24  H   UNL     1      -6.986  12.805  66.217  1.00  0.00     0.000 HD 
ENDBRANCH  18  21
ENDBRANCH   1  18
TORSDOF 2
ENDMDL
MODEL      105
REMARK 921   NORMALIZED FREE ENERGY PREDICTED BY IDOCK:   -3.92 KCAL/MOL
REMARK 922        TOTAL FREE ENERGY PREDICTED BY IDOCK:   -4.87 KCAL/MOL
REMARK 923 INTER-LIGAND FREE ENERGY PREDICTED BY IDOCK:   -4.44 KCAL/MOL
REMARK 924 INTRA-LIGAND FREE ENERGY PREDICTED BY IDOCK:   -0.43 KCAL/MOL
REMARK 927      BINDING AFFINITY PREDICTED BY RF-SCORE:    0.00 PKD
ROOT
HETATM    1  C   UNL     1      -8.341  14.952  66.945  1.00  0.00    -0.177 C  
HETATM    2  C   UNL     1      -7.334  14.245  67.904  1.00  0.00    -0.156 C  
HETATM    3  H   UNL     1     -12.188  10.724  67.137  1.00  0.00     0.000 HD 
HETATM    4  C   UNL     1     -10.830  11.067  68.642  1.00  0.00    -0.215 C  
HETATM    5  N   UNL     1      -7.932  13.118  68.629  1.00  0.00    -0.292 NA 
HETATM    6  H1  UNL     1     -11.150  10.162  70.427  1.00  0.00     0.000 HD 
HETATM    7  H2  UNL     1     -12.434   9.882  69.226  1.00  0.00     0.000 HD 
HETATM    8  N   UNL     1     -11.545  10.300  69.497  1.00  0.00    -0.204 NA 
HETATM    9  H   UNL     1      -7.504  12.811  69.502  1.00  0.00     0.000 HD 
HETATM   10  N   UNL     1     -11.356  11.251  67.403  1.00  0.00    -0.299 N  
HETATM   11  C   UNL     1      -9.065  12.452  68.165  1.00  0.00    -0.200 C  
HETATM   12  C   UNL     1      -9.568  12.804  66.951  1.00  0.00    -0.235 C  
HETATM   13  N   UNL     1      -9.713  11.596  69.019  1.00  0.00    -0.002 NA 
HETATM   14  C   UNL     1     -10.812  12.115  66.507  1.00  0.00    -0.270 C  
HETATM   15  N   UNL     1      -9.099  13.900  66.216  1.00  0.00    -0.486 NA 
HETATM   16  H   UNL     1      -9.272  13.975  65.214  1.00  0.00     0.000 HD 
HETATM   17  O   UNL     1     -11.359  12.387  65.438  1.00  0.00    -0.313 OA 
ENDROOT
BRANCH   1  18
HETATM   18  C   UNL     1      -9.316  15.952  67.656  1.00  0.00    -0.217 C  
HETATM   19  O   UNL     1      -9.086  16.066  69.066  1.00  0.00    -0.217 OA 
HETATM   20  H   UNL     1      -9.677  16.672  69.497  1.00  0.00     0.000 HD 
BRANCH  18  21
HETATM   21  C   UNL     1      -9.261  17.377  67.067  1.00  0.00    -0.246 C  
HETATM   22  C   UNL     1      -9.959  18.402  67.964  1.00  0.00    -0.374 C  
HETATM   23  O   UNL     1      -9.859  17.395  65.773  1.00  0.00    -0.536 OA 
HETATM   24  H   UNL     1      -9.825  18.273  65.410  1.00  0.00     0.000 HD 
ENDBRANCH  18  21
ENDBRANCH   1  18
TORSDOF 2
ENDMDL
MODEL      106
REMARK 921   NORMALIZED FREE ENERGY PREDICTED BY IDOCK:   -3.92 KCAL/MOL
REMARK 922        TOTAL FREE ENERGY PREDICTED BY IDOCK:   -4.86 KCAL/MOL
REMARK 923 INTER-LIGAND FREE ENERGY PREDICTED BY IDOCK:   -4.45 KCAL/MOL
REMARK 924 INTRA-LIGAND FREE ENERGY PREDICTED BY IDOCK:   -0.41 KCAL/MOL
REMARK 927      BINDING AFFINITY PREDICTED BY RF-SCORE:    0.00 PKD
ROOT
HETATM    1  C   UNL     1     -10.780  10.369  67.772  1.00  0.00    -0.279 C  
HETATM    2  C   UNL     1     -10.582   8.853  67.462  1.00  0.00    -0.237 C  
HETATM    3  H   UNL     1     -12.354   9.518  73.204  1.00  0.00     0.000 HD 
HETATM    4  C   UNL     1     -11.182   8.190  72.161  1.00  0.00    -0.329 C  
HETATM    5  N   UNL     1     -10.533   8.025  68.674  1.00  0.00    -0.295 NA 
HETATM    6  H1  UNL     1     -10.202   6.764  73.215  1.00  0.00     0.000 HD 
HETATM    7  H2  UNL     1     -11.106   7.924  74.220  1.00  0.00     0.000 HD 
HETATM    8  N   UNL     1     -10.804   7.582  73.308  1.00  0.00    -0.393 NA 
HETATM    9  H   UNL     1     -10.078   7.114  68.630  1.00  0.00     0.000 HD 
HETATM   10  N   UNL     1     -11.985   9.279  72.284  1.00  0.00    -0.237 N  
HETATM   11  C   UNL     1     -11.088   8.442  69.882  1.00  0.00    -0.108 C  
HETATM   12  C   UNL     1     -11.780   9.613  69.905  1.00  0.00     0.040 C  
HETATM   13  N   UNL     1     -10.773   7.742  71.019  1.00  0.00    -0.225 NA 
HETATM   14  C   UNL     1     -12.312  10.061  71.222  1.00  0.00    -0.398 C  
HETATM   15  N   UNL     1     -11.832  10.493  68.816  1.00  0.00    -0.674 NA 
HETATM   16  H   UNL     1     -12.567  11.195  68.742  1.00  0.00     0.000 HD 
HETATM   17  O   UNL     1     -12.925  11.121  71.349  1.00  0.00    -0.408 OA 
ENDROOT
BRANCH   1  18
HETATM   18  C   UNL     1      -9.472  11.115  68.205  1.00  0.00    -0.182 C  
HETATM   19  O   UNL     1      -8.402  10.230  68.561  1.00  0.00    -0.107 OA 
HETATM   20  H   UNL     1      -7.609  10.682  68.824  1.00  0.00     0.000 HD 
BRANCH  18  21
HETATM   21  C   UNL     1      -8.932  12.073  67.122  1.00  0.00    -0.185 C  
HETATM   22  C   UNL     1      -9.514  11.768  65.739  1.00  0.00    -0.232 C  
HETATM   23  O   UNL     1      -7.510  11.997  67.065  1.00  0.00    -0.200 OA 
HETATM   24  H   UNL     1      -7.178  12.586  66.398  1.00  0.00     0.000 HD 
ENDBRANCH  18  21
ENDBRANCH   1  18
TORSDOF 2
ENDMDL
MODEL      107
REMARK 921   NORMALIZED FREE ENERGY PREDICTED BY IDOCK:   -3.77 KCAL/MOL
REMARK 922        TOTAL FREE ENERGY PREDICTED BY IDOCK:   -4.70 KCAL/MOL
REMARK 923 INTER-LIGAND FREE ENERGY PREDICTED BY IDOCK:   -4.31 KCAL/MOL
REMARK 924 INTRA-LIGAND FREE ENERGY PREDICTED BY IDOCK:   -0.39 KCAL/MOL
REMARK 927      BINDING AFFINITY PREDICTED BY RF-SCORE:    0.00 PKD
ROOT
HETATM    1  C   UNL     1      -9.795  10.556  69.091  1.00  0.00    -0.218 C  
HETATM    2  C   UNL     1      -8.280  10.614  68.723  1.00  0.00    -0.142 C  
HETATM    3  H   UNL     1     -11.591  11.830  63.812  1.00  0.00     0.000 HD 
HETATM    4  C   UNL     1      -9.769  10.955  64.191  1.00  0.00    -0.296 C  
HETATM    5  N   UNL     1      -8.045  10.601  67.274  1.00  0.00    -0.115 NA 
HETATM    6  H1  UNL     1      -8.777  10.126  62.631  1.00  0.00     0.000 HD 
HETATM    7  H2  UNL     1     -10.386  10.766  62.216  1.00  0.00     0.000 HD 
HETATM    8  N   UNL     1      -9.646  10.589  62.895  1.00  0.00    -0.329 NA 
HETATM    9  H   UNL     1      -7.137  10.293  66.926  1.00  0.00     0.000 HD 
HETATM   10  N   UNL     1     -10.928  11.571  64.543  1.00  0.00    -0.319 N  
HETATM   11  C   UNL     1      -9.019  10.994  66.359  1.00  0.00    -0.181 C  
HETATM   12  C   UNL     1     -10.189  11.496  66.837  1.00  0.00    -0.217 C  
HETATM   13  N   UNL     1      -8.821  10.705  65.032  1.00  0.00    -0.197 NA 
HETATM   14  C   UNL     1     -11.233  11.854  65.836  1.00  0.00    -0.322 C  
HETATM   15  N   UNL     1     -10.524  11.495  68.198  1.00  0.00    -0.186 NA 
HETATM   16  H   UNL     1     -11.243  12.118  68.563  1.00  0.00     0.000 HD 
HETATM   17  O   UNL     1     -12.335  12.287  66.174  1.00  0.00    -0.588 OA 
ENDROOT
BRANCH   1  18
HETATM   18  C   UNL     1     -10.421   9.120  69.022  1.00  0.00    -0.221 C  
HETATM   19  O   UNL     1      -9.790   8.269  68.057  1.00  0.00    -0.157 OA 
HETATM   20  H   UNL     1     -10.169   7.399  68.015  1.00  0.00     0.000 HD 
BRANCH  18  21
HETATM   21  C   UNL     1     -10.392   8.379  70.375  1.00  0.00    -0.205 C  
HETATM   22  C   UNL     1     -11.475   7.301  70.468  1.00  0.00    -0.310 C  
HETATM   23  O   UNL     1     -10.554   9.307  71.445  1.00  0.00    -0.314 OA 
HETATM   24  H   UNL     1     -10.536   8.850  72.278  1.00  0.00     0.000 HD 
ENDBRANCH  18  21
ENDBRANCH   1  18
TORSDOF 2
ENDMDL
MODEL      108
REMARK 921   NORMALIZED FREE ENERGY PREDICTED BY IDOCK:   -3.75 KCAL/MOL
REMARK 922        TOTAL FREE ENERGY PREDICTED BY IDOCK:   -4.67 KCAL/MOL
REMARK 923 INTER-LIGAND FREE ENERGY PREDICTED BY IDOCK:   -4.63 KCAL/MOL
REMARK 924 INTRA-LIGAND FREE ENERGY PREDICTED BY IDOCK:   -0.04 KCAL/MOL
REMARK 927      BINDING AFFINITY PREDICTED BY RF-SCORE:    0.00 PKD
ROOT
HETATM    1  C   UNL     1     -10.302  13.827  65.114  1.00  0.00    -0.372 C  
HETATM    2  C   UNL     1     -11.815  14.205  65.125  1.00  0.00    -0.372 C  
HETATM    3  H   UNL     1      -9.171  16.352  70.120  1.00  0.00     0.000 HD 
HETATM    4  C   UNL     1     -11.042  15.669  69.611  1.00  0.00    -0.299 C  
HETATM    5  N   UNL     1     -12.280  14.657  66.441  1.00  0.00    -0.276 NA 
HETATM    6  H1  UNL     1     -12.417  15.491  71.090  1.00  0.00     0.000 HD 
HETATM    7  H2  UNL     1     -10.802  15.993  71.650  1.00  0.00     0.000 HD 
HETATM    8  N   UNL     1     -11.443  15.727  70.902  1.00  0.00    -0.370 NA 
HETATM    9  H   UNL     1     -13.274  14.599  66.659  1.00  0.00     0.000 HD 
HETATM   10  N   UNL     1      -9.744  15.983  69.361  1.00  0.00    -0.256 N  
HETATM   11  C   UNL     1     -11.409  15.165  67.404  1.00  0.00    -0.306 C  
HETATM   12  C   UNL     1     -10.102  15.331  67.067  1.00  0.00    -0.248 C  
HETATM   13  N   UNL     1     -11.873  15.315  68.686  1.00  0.00    -0.334 NA 
HETATM   14  C   UNL     1      -9.185  15.821  68.134  1.00  0.00    -0.189 C  
HETATM   15  N   UNL     1      -9.558  14.878  65.858  1.00  0.00    -0.404 NA 
HETATM   16  H   UNL     1      -8.682  15.256  65.501  1.00  0.00     0.000 HD 
HETATM   17  O   UNL     1      -7.979  15.975  67.934  1.00  0.00    -0.134 OA 
ENDROOT
BRANCH   1  18
HETATM   18  C   UNL     1      -9.987  12.404  65.692  1.00  0.00    -0.244 C  
HETATM   19  O   UNL     1     -10.674  12.124  66.919  1.00  0.00    -0.224 OA 
HETATM   20  H   UNL     1     -10.483  11.262  67.270  1.00  0.00     0.000 HD 
BRANCH  18  21
HETATM   21  C   UNL     1     -10.321  11.262  64.710  1.00  0.00    -0.307 C  
HETATM   22  C   UNL     1      -9.668  11.468  63.340  1.00  0.00    -0.379 C  
HETATM   23  O   UNL     1     -11.733  11.151  64.549  1.00  0.00     0.084 OA 
HETATM   24  H   UNL     1     -11.938  10.448  63.944  1.00  0.00     0.000 HD 
ENDBRANCH  18  21
ENDBRANCH   1  18
TORSDOF 2
ENDMDL
MODEL      109
REMARK 921   NORMALIZED FREE ENERGY PREDICTED BY IDOCK:   -3.74 KCAL/MOL
REMARK 922        TOTAL FREE ENERGY PREDICTED BY IDOCK:   -4.67 KCAL/MOL
REMARK 923 INTER-LIGAND FREE ENERGY PREDICTED BY IDOCK:   -4.18 KCAL/MOL
REMARK 924 INTRA-LIGAND FREE ENERGY PREDICTED BY IDOCK:   -0.48 KCAL/MOL
REMARK 927      BINDING AFFINITY PREDICTED BY RF-SCORE:    0.00 PKD
ROOT
HETATM    1  C   UNL     1     -11.280  10.144  68.032  1.00  0.00    -0.179 C  
HETATM    2  C   UNL     1     -11.203  11.398  67.108  1.00  0.00    -0.296 C  
HETATM    3  H   UNL     1      -7.022   7.380  65.397  1.00  0.00     0.000 HD 
HETATM    4  C   UNL     1      -7.202   9.428  65.382  1.00  0.00    -0.092 C  
HETATM    5  N   UNL     1      -9.968  11.447  66.316  1.00  0.00    -0.217 NA 
HETATM    6  H1  UNL     1      -5.595  10.512  64.792  1.00  0.00     0.000 HD 
HETATM    7  H2  UNL     1      -5.304   8.757  64.866  1.00  0.00     0.000 HD 
HETATM    8  N   UNL     1      -5.918   9.564  64.978  1.00  0.00    -0.065 NA 
HETATM    9  H   UNL     1      -9.650  12.347  65.956  1.00  0.00     0.000 HD 
HETATM   10  N   UNL     1      -7.632   8.163  65.630  1.00  0.00    -0.080 N  
HETATM   11  C   UNL     1      -9.216  10.308  66.039  1.00  0.00    -0.164 C  
HETATM   12  C   UNL     1      -9.701   9.102  66.438  1.00  0.00    -0.262 C  
HETATM   13  N   UNL     1      -7.953  10.469  65.529  1.00  0.00    -0.157 NA 
HETATM   14  C   UNL     1      -8.849   7.908  66.179  1.00  0.00    -0.166 C  
HETATM   15  N   UNL     1     -10.839   8.962  67.244  1.00  0.00    -0.403 NA 
HETATM   16  H   UNL     1     -11.347   8.079  67.289  1.00  0.00     0.000 HD 
HETATM   17  O   UNL     1      -9.188   6.778  66.530  1.00  0.00    -0.155 OA 
ENDROOT
BRANCH   1  18
HETATM   18  C   UNL     1     -10.456  10.269  69.361  1.00  0.00    -0.236 C  
HETATM   19  O   UNL     1      -9.645  11.449  69.418  1.00  0.00    -0.391 OA 
HETATM   20  H   UNL     1      -9.146  11.525  70.223  1.00  0.00     0.000 HD 
BRANCH  18  21
HETATM   21  C   UNL     1     -11.339  10.258  70.625  1.00  0.00    -0.347 C  
HETATM   22  C   UNL     1     -10.903   9.185  71.627  1.00  0.00    -0.442 C  
HETATM   23  O   UNL     1     -12.703  10.045  70.269  1.00  0.00    -0.530 OA 
HETATM   24  H   UNL     1     -13.247  10.038  71.048  1.00  0.00     0.000 HD 
ENDBRANCH  18  21
ENDBRANCH   1  18
TORSDOF 2
ENDMDL
MODEL      110
REMARK 921   NORMALIZED FREE ENERGY PREDICTED BY IDOCK:   -3.74 KCAL/MOL
REMARK 922        TOTAL FREE ENERGY PREDICTED BY IDOCK:   -4.66 KCAL/MOL
REMARK 923 INTER-LIGAND FREE ENERGY PREDICTED BY IDOCK:   -4.18 KCAL/MOL
REMARK 924 INTRA-LIGAND FREE ENERGY PREDICTED BY IDOCK:   -0.49 KCAL/MOL
REMARK 927      BINDING AFFINITY PREDICTED BY RF-SCORE:    0.00 PKD
ROOT
HETATM    1  C   UNL     1      -8.693  12.570  67.509  1.00  0.00    -0.182 C  
HETATM    2  C   UNL     1      -9.507  11.432  68.199  1.00  0.00    -0.181 C  
HETATM    3  H   UNL     1     -12.436  16.679  68.858  1.00  0.00     0.000 HD 
HETATM    4  C   UNL     1     -12.246  14.943  69.943  1.00  0.00    -0.309 C  
HETATM    5  N   UNL     1     -10.551  11.940  69.097  1.00  0.00    -0.406 NA 
HETATM    6  H1  UNL     1     -13.094  14.880  71.782  1.00  0.00     0.000 HD 
HETATM    7  H2  UNL     1     -13.229  16.459  70.970  1.00  0.00     0.000 HD 
HETATM    8  N   UNL     1     -12.917  15.488  70.984  1.00  0.00    -0.483 NA 
HETATM    9  H   UNL     1     -10.900  11.335  69.839  1.00  0.00     0.000 HD 
HETATM   10  N   UNL     1     -12.009  15.753  68.879  1.00  0.00    -0.343 N  
HETATM   11  C   UNL     1     -11.082  13.222  68.970  1.00  0.00    -0.244 C  
HETATM   12  C   UNL     1     -10.682  13.985  67.917  1.00  0.00    -0.240 C  
HETATM   13  N   UNL     1     -11.849  13.714  69.995  1.00  0.00    -0.314 NA 
HETATM   14  C   UNL     1     -11.222  15.371  67.839  1.00  0.00    -0.329 C  
HETATM   15  N   UNL     1      -9.653  13.606  67.044  1.00  0.00    -0.243 NA 
HETATM   16  H   UNL     1      -9.566  14.028  66.120  1.00  0.00     0.000 HD 
HETATM   17  O   UNL     1     -10.895  16.147  66.940  1.00  0.00    -0.282 OA 
ENDROOT
BRANCH   1  18
HETATM   18  C   UNL     1      -7.580  13.205  68.412  1.00  0.00    -0.133 C  
HETATM   19  O   UNL     1      -6.481  12.321  68.667  1.00  0.00    -0.063 OA 
HETATM   20  H   UNL     1      -5.806  12.706  69.215  1.00  0.00     0.000 HD 
BRANCH  18  21
HETATM   21  C   UNL     1      -6.995  14.508  67.828  1.00  0.00    -0.179 C  
HETATM   22  C   UNL     1      -5.480  14.604  68.033  1.00  0.00    -0.127 C  
HETATM   23  O   UNL     1      -7.625  15.639  68.424  1.00  0.00    -0.116 OA 
HETATM   24  H   UNL     1      -7.264  16.441  68.064  1.00  0.00     0.000 HD 
ENDBRANCH  18  21
ENDBRANCH   1  18
TORSDOF 2
ENDMDL
MODEL      111
REMARK 921   NORMALIZED FREE ENERGY PREDICTED BY IDOCK:   -3.73 KCAL/MOL
REMARK 922        TOTAL FREE ENERGY PREDICTED BY IDOCK:   -4.65 KCAL/MOL
REMARK 923 INTER-LIGAND FREE ENERGY PREDICTED BY IDOCK:   -4.17 KCAL/MOL
REMARK 924 INTRA-LIGAND FREE ENERGY PREDICTED BY IDOCK:   -0.48 KCAL/MOL
REMARK 927      BINDING AFFINITY PREDICTED BY RF-SCORE:    0.00 PKD
ROOT
HETATM    1  C   UNL     1      -7.934   9.479  67.884  1.00  0.00    -0.098 C  
HETATM    2  C   UNL     1      -7.438  10.253  69.144  1.00  0.00    -0.105 C  
HETATM    3  H   UNL     1     -12.175   6.806  70.639  1.00  0.00     0.000 HD 
HETATM    4  C   UNL     1     -11.393   8.601  71.266  1.00  0.00    -0.281 C  
HETATM    5  N   UNL     1      -8.408  10.231  70.246  1.00  0.00    -0.368 NA 
HETATM    6  H1  UNL     1     -12.442   9.660  72.638  1.00  0.00     0.000 HD 
HETATM    7  H2  UNL     1     -13.253   8.173  72.088  1.00  0.00     0.000 HD 
HETATM    8  N   UNL     1     -12.464   8.819  72.063  1.00  0.00    -0.359 NA 
HETATM    9  H   UNL     1      -8.361  10.958  70.958  1.00  0.00     0.000 HD 
HETATM   10  N   UNL     1     -11.421   7.479  70.500  1.00  0.00    -0.267 N  
HETATM   11  C   UNL     1      -9.391   9.249  70.351  1.00  0.00    -0.250 C  
HETATM   12  C   UNL     1      -9.383   8.229  69.452  1.00  0.00    -0.155 C  
HETATM   13  N   UNL     1     -10.413   9.444  71.246  1.00  0.00    -0.331 NA 
HETATM   14  C   UNL     1     -10.479   7.225  69.554  1.00  0.00    -0.230 C  
HETATM   15  N   UNL     1      -8.534   8.196  68.338  1.00  0.00    -0.126 NA 
HETATM   16  H   UNL     1      -8.334   7.321  67.855  1.00  0.00     0.000 HD 
HETATM   17  O   UNL     1     -10.574   6.283  68.767  1.00  0.00    -0.205 OA 
ENDROOT
BRANCH   1  18
HETATM   18  C   UNL     1      -8.941  10.280  66.988  1.00  0.00    -0.136 C  
HETATM   19  O   UNL     1      -8.465  11.581  66.622  1.00  0.00    -0.167 OA 
HETATM   20  H   UNL     1      -9.075  12.067  66.079  1.00  0.00     0.000 HD 
BRANCH  18  21
HETATM   21  C   UNL     1      -9.312   9.544  65.685  1.00  0.00    -0.241 C  
HETATM   22  C   UNL     1     -10.042  10.454  64.694  1.00  0.00    -0.378 C  
HETATM   23  O   UNL     1     -10.128   8.411  65.976  1.00  0.00    -0.470 OA 
HETATM   24  H   UNL     1     -10.356   7.958  65.173  1.00  0.00     0.000 HD 
ENDBRANCH  18  21
ENDBRANCH   1  18
TORSDOF 2
ENDMDL
MODEL      112
REMARK 921   NORMALIZED FREE ENERGY PREDICTED BY IDOCK:   -3.70 KCAL/MOL
REMARK 922        TOTAL FREE ENERGY PREDICTED BY IDOCK:   -4.62 KCAL/MOL
REMARK 923 INTER-LIGAND FREE ENERGY PREDICTED BY IDOCK:   -4.43 KCAL/MOL
REMARK 924 INTRA-LIGAND FREE ENERGY PREDICTED BY IDOCK:   -0.19 KCAL/MOL
REMARK 927      BINDING AFFINITY PREDICTED BY RF-SCORE:    0.00 PKD
ROOT
HETATM    1  C   UNL     1     -12.446   6.845  71.484  1.00  0.00    -0.375 C  
HETATM    2  C   UNL     1     -12.820   8.298  71.910  1.00  0.00    -0.344 C  
HETATM    3  H   UNL     1      -8.300   8.482  67.900  1.00  0.00     0.000 HD 
HETATM    4  C   UNL     1      -8.910   9.624  69.497  1.00  0.00    -0.190 C  
HETATM    5  N   UNL     1     -11.804   9.285  71.525  1.00  0.00    -0.347 NA 
HETATM    6  H1  UNL     1      -7.718  11.159  70.071  1.00  0.00     0.000 HD 
HETATM    7  H2  UNL     1      -7.052  10.173  68.746  1.00  0.00     0.000 HD 
HETATM    8  N   UNL     1      -7.789  10.377  69.420  1.00  0.00    -0.153 NA 
HETATM    9  H   UNL     1     -11.761  10.170  72.030  1.00  0.00     0.000 HD 
HETATM   10  N   UNL     1      -9.004   8.582  68.630  1.00  0.00    -0.139 N  
HETATM   11  C   UNL     1     -10.896   9.054  70.494  1.00  0.00    -0.251 C  
HETATM   12  C   UNL     1     -11.026   7.915  69.763  1.00  0.00    -0.148 C  
HETATM   13  N   UNL     1      -9.821   9.898  70.371  1.00  0.00    -0.202 NA 
HETATM   14  C   UNL     1     -10.007   7.668  68.705  1.00  0.00    -0.174 C  
HETATM   15  N   UNL     1     -11.927   6.893  70.091  1.00  0.00    -0.637 NA 
HETATM   16  H   UNL     1     -12.216   6.205  69.397  1.00  0.00     0.000 HD 
HETATM   17  O   UNL     1     -10.023   6.650  68.012  1.00  0.00    -0.135 OA 
ENDROOT
BRANCH   1  18
HETATM   18  C   UNL     1     -11.423   6.136  72.437  1.00  0.00    -0.303 C  
HETATM   19  O   UNL     1     -12.036   5.198  73.332  1.00  0.00    -0.433 OA 
HETATM   20  H   UNL     1     -11.416   4.768  73.910  1.00  0.00     0.000 HD 
BRANCH  18  21
HETATM   21  C   UNL     1     -10.308   5.385  71.681  1.00  0.00    -0.218 C  
HETATM   22  C   UNL     1     -10.089   3.971  72.226  1.00  0.00    -0.240 C  
HETATM   23  O   UNL     1      -9.086   6.116  71.758  1.00  0.00    -0.145 OA 
HETATM   24  H   UNL     1      -8.399   5.654  71.292  1.00  0.00     0.000 HD 
ENDBRANCH  18  21
ENDBRANCH   1  18
TORSDOF 2
ENDMDL
MODEL      113
REMARK 921   NORMALIZED FREE ENERGY PREDICTED BY IDOCK:   -3.69 KCAL/MOL
REMARK 922        TOTAL FREE ENERGY PREDICTED BY IDOCK:   -4.61 KCAL/MOL
REMARK 923 INTER-LIGAND FREE ENERGY PREDICTED BY IDOCK:   -4.26 KCAL/MOL
REMARK 924 INTRA-LIGAND FREE ENERGY PREDICTED BY IDOCK:   -0.35 KCAL/MOL
REMARK 927      BINDING AFFINITY PREDICTED BY RF-SCORE:    0.00 PKD
ROOT
HETATM    1  C   UNL     1     -10.709   7.651  71.884  1.00  0.00    -0.220 C  
HETATM    2  C   UNL     1     -10.831   6.227  72.508  1.00  0.00    -0.240 C  
HETATM    3  H   UNL     1      -8.136   5.835  67.110  1.00  0.00     0.000 HD 
HETATM    4  C   UNL     1      -9.358   4.634  68.246  1.00  0.00    -0.136 C  
HETATM    5  N   UNL     1     -10.596   5.156  71.532  1.00  0.00    -0.187 NA 
HETATM    6  H1  UNL     1     -10.014   2.904  67.420  1.00  0.00     0.000 HD 
HETATM    7  H2  UNL     1      -9.047   3.917  66.320  1.00  0.00     0.000 HD 
HETATM    8  N   UNL     1      -9.476   3.748  67.230  1.00  0.00    -0.198 NA 
HETATM    9  H   UNL     1     -10.974   4.227  71.720  1.00  0.00     0.000 HD 
HETATM   10  N   UNL     1      -8.640   5.759  67.993  1.00  0.00    -0.106 N  
HETATM   11  C   UNL     1      -9.873   5.363  70.359  1.00  0.00    -0.205 C  
HETATM   12  C   UNL     1      -9.290   6.576  70.167  1.00  0.00    -0.158 C  
HETATM   13  N   UNL     1      -9.923   4.399  69.384  1.00  0.00    -0.165 NA 
HETATM   14  C   UNL     1      -8.572   6.787  68.879  1.00  0.00    -0.130 C  
HETATM   15  N   UNL     1      -9.504   7.672  71.013  1.00  0.00    -0.159 NA 
HETATM   16  H   UNL     1      -8.855   8.458  71.031  1.00  0.00     0.000 HD 
HETATM   17  O   UNL     1      -8.038   7.862  68.601  1.00  0.00    -0.122 OA 
ENDROOT
BRANCH   1  18
HETATM   18  C   UNL     1     -11.979   8.120  71.093  1.00  0.00    -0.273 C  
HETATM   19  O   UNL     1     -12.703   7.042  70.488  1.00  0.00    -0.606 OA 
HETATM   20  H   UNL     1     -13.472   7.326  70.008  1.00  0.00     0.000 HD 
BRANCH  18  21
HETATM   21  C   UNL     1     -12.978   8.911  71.962  1.00  0.00    -0.399 C  
HETATM   22  C   UNL     1     -14.406   8.375  71.836  1.00  0.00    -0.561 C  
HETATM   23  O   UNL     1     -12.957  10.291  71.602  1.00  0.00    -0.394 OA 
HETATM   24  H   UNL     1     -13.572  10.777  72.137  1.00  0.00     0.000 HD 
ENDBRANCH  18  21
ENDBRANCH   1  18
TORSDOF 2
ENDMDL
MODEL      114
REMARK 921   NORMALIZED FREE ENERGY PREDICTED BY IDOCK:   -3.69 KCAL/MOL
REMARK 922        TOTAL FREE ENERGY PREDICTED BY IDOCK:   -4.61 KCAL/MOL
REMARK 923 INTER-LIGAND FREE ENERGY PREDICTED BY IDOCK:   -4.13 KCAL/MOL
REMARK 924 INTRA-LIGAND FREE ENERGY PREDICTED BY IDOCK:   -0.48 KCAL/MOL
REMARK 927      BINDING AFFINITY PREDICTED BY RF-SCORE:    0.00 PKD
ROOT
HETATM    1  C   UNL     1      -8.668   9.579  67.768  1.00  0.00    -0.115 C  
HETATM    2  C   UNL     1      -8.188   9.961  69.202  1.00  0.00    -0.128 C  
HETATM    3  H   UNL     1     -12.305   5.547  69.566  1.00  0.00     0.000 HD 
HETATM    4  C   UNL     1     -11.723   7.131  70.742  1.00  0.00    -0.323 C  
HETATM    5  N   UNL     1      -9.063   9.432  70.256  1.00  0.00    -0.228 NA 
HETATM    6  H1  UNL     1     -12.800   7.510  72.416  1.00  0.00     0.000 HD 
HETATM    7  H2  UNL     1     -13.445   6.184  71.417  1.00  0.00     0.000 HD 
HETATM    8  N   UNL     1     -12.752   6.912  71.592  1.00  0.00    -0.372 NA 
HETATM    9  H   UNL     1      -9.060   9.882  71.170  1.00  0.00     0.000 HD 
HETATM   10  N   UNL     1     -11.659   6.333  69.643  1.00  0.00    -0.371 N  
HETATM   11  C   UNL     1      -9.897   8.335  70.049  1.00  0.00    -0.182 C  
HETATM   12  C   UNL     1      -9.820   7.681  68.859  1.00  0.00    -0.164 C  
HETATM   13  N   UNL     1     -10.867   8.069  70.982  1.00  0.00    -0.231 NA 
HETATM   14  C   UNL     1     -10.764   6.549  68.645  1.00  0.00    -0.271 C  
HETATM   15  N   UNL     1      -9.058   8.144  67.778  1.00  0.00    -0.135 NA 
HETATM   16  H   UNL     1      -8.780   7.518  67.023  1.00  0.00     0.000 HD 
HETATM   17  O   UNL     1     -10.790   5.915  67.589  1.00  0.00    -0.276 OA 
ENDROOT
BRANCH   1  18
HETATM   18  C   UNL     1      -9.835  10.472  67.219  1.00  0.00    -0.177 C  
HETATM   19  O   UNL     1     -10.278  11.466  68.152  1.00  0.00    -0.176 OA 
HETATM   20  H   UNL     1     -10.985  12.007  67.819  1.00  0.00     0.000 HD 
BRANCH  18  21
HETATM   21  C   UNL     1      -9.476  11.201  65.908  1.00  0.00    -0.215 C  
HETATM   22  C   UNL     1      -9.885  10.398  64.670  1.00  0.00    -0.405 C  
HETATM   23  O   UNL     1      -8.076  11.464  65.860  1.00  0.00    -0.359 OA 
HETATM   24  H   UNL     1      -7.855  11.912  65.053  1.00  0.00     0.000 HD 
ENDBRANCH  18  21
ENDBRANCH   1  18
TORSDOF 2
ENDMDL
MODEL      115
REMARK 921   NORMALIZED FREE ENERGY PREDICTED BY IDOCK:   -3.65 KCAL/MOL
REMARK 922        TOTAL FREE ENERGY PREDICTED BY IDOCK:   -4.56 KCAL/MOL
REMARK 923 INTER-LIGAND FREE ENERGY PREDICTED BY IDOCK:   -4.07 KCAL/MOL
REMARK 924 INTRA-LIGAND FREE ENERGY PREDICTED BY IDOCK:   -0.49 KCAL/MOL
REMARK 927      BINDING AFFINITY PREDICTED BY RF-SCORE:    0.00 PKD
ROOT
HETATM    1  C   UNL     1      -9.612   9.032  66.943  1.00  0.00    -0.185 C  
HETATM    2  C   UNL     1     -10.871   8.984  67.864  1.00  0.00    -0.053 C  
HETATM    3  H   UNL     1     -10.866  14.155  64.732  1.00  0.00     0.000 HD 
HETATM    4  C   UNL     1     -11.534  13.542  66.578  1.00  0.00    -0.339 C  
HETATM    5  N   UNL     1     -11.526  10.290  68.003  1.00  0.00    -0.654 NA 
HETATM    6  H1  UNL     1     -12.288  14.950  67.825  1.00  0.00     0.000 HD 
HETATM    7  H2  UNL     1     -11.645  15.598  66.296  1.00  0.00     0.000 HD 
HETATM    8  N   UNL     1     -11.845  14.814  66.917  1.00  0.00    -0.319 NA 
HETATM    9  H   UNL     1     -12.118  10.460  68.815  1.00  0.00     0.000 HD 
HETATM   10  N   UNL     1     -10.944  13.361  65.367  1.00  0.00    -0.282 N  
HETATM   11  C   UNL     1     -11.366  11.306  67.062  1.00  0.00    -0.187 C  
HETATM   12  C   UNL     1     -10.655  11.035  65.935  1.00  0.00    -0.206 C  
HETATM   13  N   UNL     1     -11.787  12.570  67.391  1.00  0.00    -0.460 NA 
HETATM   14  C   UNL     1     -10.453  12.156  64.975  1.00  0.00    -0.290 C  
HETATM   15  N   UNL     1      -9.950   9.840  65.742  1.00  0.00    -0.292 NA 
HETATM   16  H   UNL     1      -9.678   9.534  64.808  1.00  0.00     0.000 HD 
HETATM   17  O   UNL     1      -9.799  12.017  63.941  1.00  0.00    -0.292 OA 
ENDROOT
BRANCH   1  18
HETATM   18  C   UNL     1      -8.321   9.583  67.643  1.00  0.00    -0.125 C  
HETATM   19  O   UNL     1      -8.593  10.307  68.849  1.00  0.00    -0.131 OA 
HETATM   20  H   UNL     1      -7.811  10.642  69.272  1.00  0.00     0.000 HD 
BRANCH  18  21
HETATM   21  C   UNL     1      -7.302   8.479  67.991  1.00  0.00    -0.092 C  
HETATM   22  C   UNL     1      -7.613   7.159  67.281  1.00  0.00    -0.104 C  
HETATM   23  O   UNL     1      -7.274   8.264  69.400  1.00  0.00    -0.057 OA 
HETATM   24  H   UNL     1      -6.646   7.584  69.614  1.00  0.00     0.000 HD 
ENDBRANCH  18  21
ENDBRANCH   1  18
TORSDOF 2
ENDMDL
MODEL      116
REMARK 921   NORMALIZED FREE ENERGY PREDICTED BY IDOCK:   -3.60 KCAL/MOL
REMARK 922        TOTAL FREE ENERGY PREDICTED BY IDOCK:   -4.51 KCAL/MOL
REMARK 923 INTER-LIGAND FREE ENERGY PREDICTED BY IDOCK:   -5.03 KCAL/MOL
REMARK 924 INTRA-LIGAND FREE ENERGY PREDICTED BY IDOCK:    0.52 KCAL/MOL
REMARK 927      BINDING AFFINITY PREDICTED BY RF-SCORE:    0.00 PKD
ROOT
HETATM    1  C   UNL     1      -8.926  16.107  66.566  1.00  0.00    -0.287 C  
HETATM    2  C   UNL     1      -7.684  15.206  66.844  1.00  0.00    -0.016 C  
HETATM    3  H   UNL     1     -12.464  11.716  65.610  1.00  0.00     0.000 HD 
HETATM    4  C   UNL     1     -10.771  11.555  66.766  1.00  0.00    -0.270 C  
HETATM    5  N   UNL     1      -8.039  13.801  67.074  1.00  0.00    -0.381 NA 
HETATM    6  H1  UNL     1     -10.588   9.920  67.950  1.00  0.00     0.000 HD 
HETATM    7  H2  UNL     1     -12.132  10.013  67.067  1.00  0.00     0.000 HD 
HETATM    8  N   UNL     1     -11.215  10.394  67.301  1.00  0.00    -0.301 NA 
HETATM    9  H   UNL     1      -7.390  13.207  67.589  1.00  0.00     0.000 HD 
HETATM   10  N   UNL     1     -11.607  12.187  65.902  1.00  0.00    -0.384 N  
HETATM   11  C   UNL     1      -9.233  13.250  66.614  1.00  0.00    -0.215 C  
HETATM   12  C   UNL     1     -10.045  14.023  65.844  1.00  0.00    -0.321 C  
HETATM   13  N   UNL     1      -9.610  12.021  67.092  1.00  0.00    -0.190 NA 
HETATM   14  C   UNL     1     -11.341  13.426  65.414  1.00  0.00    -0.291 C  
HETATM   15  N   UNL     1      -9.816  15.387  65.618  1.00  0.00    -0.354 NA 
HETATM   16  H   UNL     1     -10.247  15.869  64.829  1.00  0.00     0.000 HD 
HETATM   17  O   UNL     1     -12.155  14.058  64.740  1.00  0.00    -0.393 OA 
ENDROOT
BRANCH   1  18
HETATM   18  C   UNL     1      -9.712  16.537  67.853  1.00  0.00    -0.236 C  
HETATM   19  O   UNL     1     -10.702  17.543  67.606  1.00  0.00    -0.362 OA 
HETATM   20  H   UNL     1     -11.178  17.804  68.385  1.00  0.00     0.000 HD 
BRANCH  18  21
HETATM   21  C   UNL     1     -10.420  15.360  68.554  1.00  0.00    -0.234 C  
HETATM   22  C   UNL     1     -11.861  15.700  68.944  1.00  0.00    -0.368 C  
HETATM   23  O   UNL     1      -9.694  14.973  69.718  1.00  0.00    -0.430 OA 
HETATM   24  H   UNL     1     -10.130  14.248  70.149  1.00  0.00     0.000 HD 
ENDBRANCH  18  21
ENDBRANCH   1  18
TORSDOF 2
ENDMDL
MODEL      117
REMARK 921   NORMALIZED FREE ENERGY PREDICTED BY IDOCK:   -3.59 KCAL/MOL
REMARK 922        TOTAL FREE ENERGY PREDICTED BY IDOCK:   -4.49 KCAL/MOL
REMARK 923 INTER-LIGAND FREE ENERGY PREDICTED BY IDOCK:   -4.00 KCAL/MOL
REMARK 924 INTRA-LIGAND FREE ENERGY PREDICTED BY IDOCK:   -0.49 KCAL/MOL
REMARK 927      BINDING AFFINITY PREDICTED BY RF-SCORE:    0.00 PKD
ROOT
HETATM    1  C   UNL     1     -10.955   9.885  71.310  1.00  0.00    -0.155 C  
HETATM    2  C   UNL     1     -10.781   8.600  72.178  1.00  0.00    -0.347 C  
HETATM    3  H   UNL     1      -9.048   7.444  66.502  1.00  0.00     0.000 HD 
HETATM    4  C   UNL     1      -9.887   6.370  68.042  1.00  0.00    -0.123 C  
HETATM    5  N   UNL     1     -10.585   7.390  71.371  1.00  0.00    -0.215 NA 
HETATM    6  H1  UNL     1     -10.450   4.460  67.666  1.00  0.00     0.000 HD 
HETATM    7  H2  UNL     1      -9.830   5.333  66.243  1.00  0.00     0.000 HD 
HETATM    8  N   UNL     1     -10.066   5.300  67.234  1.00  0.00    -0.180 NA 
HETATM    9  H   UNL     1     -10.802   6.482  71.783  1.00  0.00     0.000 HD 
HETATM   10  N   UNL     1      -9.376   7.490  67.467  1.00  0.00    -0.137 N  
HETATM   11  C   UNL     1     -10.112   7.437  70.061  1.00  0.00    -0.191 C  
HETATM   12  C   UNL     1      -9.732   8.641  69.556  1.00  0.00    -0.179 C  
HETATM   13  N   UNL     1     -10.209   6.305  69.292  1.00  0.00    -0.180 NA 
HETATM   14  C   UNL     1      -9.286   8.670  68.134  1.00  0.00    -0.137 C  
HETATM   15  N   UNL     1      -9.934   9.853  70.229  1.00  0.00    -0.350 NA 
HETATM   16  H   UNL     1      -9.398  10.686  69.986  1.00  0.00     0.000 HD 
HETATM   17  O   UNL     1      -8.951   9.717  67.579  1.00  0.00    -0.128 OA 
ENDROOT
BRANCH   1  18
HETATM   18  C   UNL     1     -12.393  10.072  70.715  1.00  0.00    -0.303 C  
HETATM   19  O   UNL     1     -13.232   8.922  70.882  1.00  0.00    -0.519 OA 
HETATM   20  H   UNL     1     -14.104   9.035  70.521  1.00  0.00     0.000 HD 
BRANCH  18  21
HETATM   21  C   UNL     1     -13.145  11.278  71.315  1.00  0.00    -0.219 C  
HETATM   22  C   UNL     1     -12.377  12.590  71.128  1.00  0.00    -0.241 C  
HETATM   23  O   UNL     1     -13.386  11.065  72.704  1.00  0.00    -0.397 OA 
HETATM   24  H   UNL     1     -13.849  11.808  73.073  1.00  0.00     0.000 HD 
ENDBRANCH  18  21
ENDBRANCH   1  18
TORSDOF 2
ENDMDL
MODEL      118
REMARK 921   NORMALIZED FREE ENERGY PREDICTED BY IDOCK:   -3.58 KCAL/MOL
REMARK 922        TOTAL FREE ENERGY PREDICTED BY IDOCK:   -4.48 KCAL/MOL
REMARK 923 INTER-LIGAND FREE ENERGY PREDICTED BY IDOCK:   -4.06 KCAL/MOL
REMARK 924 INTRA-LIGAND FREE ENERGY PREDICTED BY IDOCK:   -0.42 KCAL/MOL
REMARK 927      BINDING AFFINITY PREDICTED BY RF-SCORE:    0.00 PKD
ROOT
HETATM    1  C   UNL     1      -6.064  16.264  68.616  1.00  0.00    -0.117 C  
HETATM    2  C   UNL     1      -6.102  14.893  69.359  1.00  0.00    -0.109 C  
HETATM    3  H   UNL     1     -11.339  15.757  66.464  1.00  0.00     0.000 HD 
HETATM    4  C   UNL     1     -10.736  14.796  68.178  1.00  0.00    -0.247 C  
HETATM    5  N   UNL     1      -7.457  14.338  69.462  1.00  0.00    -0.359 NA 
HETATM    6  H1  UNL     1     -12.169  14.002  69.370  1.00  0.00     0.000 HD 
HETATM    7  H2  UNL     1     -12.800  14.898  67.967  1.00  0.00     0.000 HD 
HETATM    8  N   UNL     1     -12.020  14.551  68.524  1.00  0.00    -0.315 NA 
HETATM    9  H   UNL     1      -7.656  13.657  70.194  1.00  0.00     0.000 HD 
HETATM   10  N   UNL     1     -10.537  15.528  67.051  1.00  0.00    -0.306 N  
HETATM   11  C   UNL     1      -8.481  14.709  68.592  1.00  0.00    -0.164 C  
HETATM   12  C   UNL     1      -8.180  15.540  67.559  1.00  0.00    -0.163 C  
HETATM   13  N   UNL     1      -9.767  14.355  68.912  1.00  0.00    -0.186 NA 
HETATM   14  C   UNL     1      -9.305  15.964  66.679  1.00  0.00    -0.249 C  
HETATM   15  N   UNL     1      -6.932  16.161  67.413  1.00  0.00    -0.164 NA 
HETATM   16  H   UNL     1      -6.631  16.531  66.513  1.00  0.00     0.000 HD 
HETATM   17  O   UNL     1      -9.137  16.739  65.737  1.00  0.00    -0.515 OA 
ENDROOT
BRANCH   1  18
HETATM   18  C   UNL     1      -6.479  17.490  69.502  1.00  0.00    -0.202 C  
HETATM   19  O   UNL     1      -5.674  17.640  70.678  1.00  0.00    -0.184 OA 
HETATM   20  H   UNL     1      -5.926  18.383  71.215  1.00  0.00     0.000 HD 
BRANCH  18  21
HETATM   21  C   UNL     1      -6.433  18.831  68.741  1.00  0.00    -0.252 C  
HETATM   22  C   UNL     1      -7.822  19.283  68.281  1.00  0.00    -0.354 C  
HETATM   23  O   UNL     1      -5.572  18.724  67.610  1.00  0.00    -0.174 OA 
HETATM   24  H   UNL     1      -5.544  19.550  67.141  1.00  0.00     0.000 HD 
ENDBRANCH  18  21
ENDBRANCH   1  18
TORSDOF 2
ENDMDL
MODEL      119
REMARK 921   NORMALIZED FREE ENERGY PREDICTED BY IDOCK:   -3.54 KCAL/MOL
REMARK 922        TOTAL FREE ENERGY PREDICTED BY IDOCK:   -4.44 KCAL/MOL
REMARK 923 INTER-LIGAND FREE ENERGY PREDICTED BY IDOCK:   -4.56 KCAL/MOL
REMARK 924 INTRA-LIGAND FREE ENERGY PREDICTED BY IDOCK:    0.12 KCAL/MOL
REMARK 927      BINDING AFFINITY PREDICTED BY RF-SCORE:    0.00 PKD
ROOT
HETATM    1  C   UNL     1     -10.144   7.296  72.516  1.00  0.00    -0.187 C  
HETATM    2  C   UNL     1      -8.739   7.019  71.898  1.00  0.00    -0.124 C  
HETATM    3  H   UNL     1     -11.500  11.374  68.742  1.00  0.00     0.000 HD 
HETATM    4  C   UNL     1     -10.145   9.882  68.334  1.00  0.00    -0.167 C  
HETATM    5  N   UNL     1      -8.580   7.601  70.560  1.00  0.00    -0.136 NA 
HETATM    6  H1  UNL     1      -9.607   9.596  66.402  1.00  0.00     0.000 HD 
HETATM    7  H2  UNL     1     -10.859  10.842  66.635  1.00  0.00     0.000 HD 
HETATM    8  N   UNL     1     -10.220  10.139  67.009  1.00  0.00    -0.222 NA 
HETATM    9  H   UNL     1      -7.875   7.212  69.934  1.00  0.00     0.000 HD 
HETATM   10  N   UNL     1     -10.962  10.606  69.143  1.00  0.00    -0.229 N  
HETATM   11  C   UNL     1      -9.359   8.667  70.115  1.00  0.00    -0.164 C  
HETATM   12  C   UNL     1     -10.226   9.242  70.991  1.00  0.00    -0.314 C  
HETATM   13  N   UNL     1      -9.336   8.977  68.778  1.00  0.00    -0.140 NA 
HETATM   14  C   UNL     1     -11.086  10.341  70.470  1.00  0.00    -0.306 C  
HETATM   15  N   UNL     1     -10.485   8.722  72.266  1.00  0.00    -0.308 NA 
HETATM   16  H   UNL     1     -10.894   9.302  72.997  1.00  0.00     0.000 HD 
HETATM   17  O   UNL     1     -11.923  10.903  71.178  1.00  0.00    -0.314 OA 
ENDROOT
BRANCH   1  18
HETATM   18  C   UNL     1     -11.278   6.350  71.991  1.00  0.00    -0.281 C  
HETATM   19  O   UNL     1     -11.928   5.609  73.031  1.00  0.00    -0.538 OA 
HETATM   20  H   UNL     1     -12.616   5.035  72.713  1.00  0.00     0.000 HD 
BRANCH  18  21
HETATM   21  C   UNL     1     -12.376   7.096  71.205  1.00  0.00    -0.364 C  
HETATM   22  C   UNL     1     -13.769   6.867  71.797  1.00  0.00    -0.244 C  
HETATM   23  O   UNL     1     -12.368   6.683  69.840  1.00  0.00    -0.520 OA 
HETATM   24  H   UNL     1     -13.044   7.142  69.357  1.00  0.00     0.000 HD 
ENDBRANCH  18  21
ENDBRANCH   1  18
TORSDOF 2
ENDMDL
MODEL      120
REMARK 921   NORMALIZED FREE ENERGY PREDICTED BY IDOCK:   -3.50 KCAL/MOL
REMARK 922        TOTAL FREE ENERGY PREDICTED BY IDOCK:   -4.40 KCAL/MOL
REMARK 923 INTER-LIGAND FREE ENERGY PREDICTED BY IDOCK:   -3.93 KCAL/MOL
REMARK 924 INTRA-LIGAND FREE ENERGY PREDICTED BY IDOCK:   -0.47 KCAL/MOL
REMARK 927      BINDING AFFINITY PREDICTED BY RF-SCORE:    0.00 PKD
ROOT
HETATM    1  C   UNL     1     -10.525   5.798  71.819  1.00  0.00    -0.228 C  
HETATM    2  C   UNL     1     -11.992   5.762  72.347  1.00  0.00    -0.105 C  
HETATM    3  H   UNL     1     -11.073  10.909  69.311  1.00  0.00     0.000 HD 
HETATM    4  C   UNL     1     -12.239  10.313  70.896  1.00  0.00    -0.365 C  
HETATM    5  N   UNL     1     -12.652   7.072  72.286  1.00  0.00    -0.528 NA 
HETATM    6  H1  UNL     1     -13.306  11.733  71.871  1.00  0.00     0.000 HD 
HETATM    7  H2  UNL     1     -12.254  12.367  70.582  1.00  0.00     0.000 HD 
HETATM    8  N   UNL     1     -12.625  11.589  71.127  1.00  0.00    -0.390 NA 
HETATM    9  H   UNL     1     -13.449   7.251  72.897  1.00  0.00     0.000 HD 
HETATM   10  N   UNL     1     -11.332  10.120  69.903  1.00  0.00    -0.265 N  
HETATM   11  C   UNL     1     -12.227   8.080  71.423  1.00  0.00    -0.309 C  
HETATM   12  C   UNL     1     -11.229   7.798  70.544  1.00  0.00    -0.257 C  
HETATM   13  N   UNL     1     -12.716   9.348  71.611  1.00  0.00    -0.348 NA 
HETATM   14  C   UNL     1     -10.757   8.911  69.673  1.00  0.00    -0.217 C  
HETATM   15  N   UNL     1     -10.505   6.598  70.566  1.00  0.00    -0.199 NA 
HETATM   16  H   UNL     1      -9.982   6.285  69.749  1.00  0.00     0.000 HD 
HETATM   17  O   UNL     1      -9.838   8.761  68.867  1.00  0.00    -0.169 OA 
ENDROOT
BRANCH   1  18
HETATM   18  C   UNL     1      -9.481   6.350  72.851  1.00  0.00    -0.145 C  
HETATM   19  O   UNL     1      -9.495   5.652  74.103  1.00  0.00    -0.133 OA 
HETATM   20  H   UNL     1      -8.862   5.987  74.728  1.00  0.00     0.000 HD 
BRANCH  18  21
HETATM   21  C   UNL     1      -8.031   6.317  72.324  1.00  0.00    -0.104 C  
HETATM   22  C   UNL     1      -7.007   6.577  73.432  1.00  0.00    -0.077 C  
HETATM   23  O   UNL     1      -7.864   7.284  71.289  1.00  0.00    -0.094 OA 
HETATM   24  H   UNL     1      -6.971   7.263  70.965  1.00  0.00     0.000 HD 
ENDBRANCH  18  21
ENDBRANCH   1  18
TORSDOF 2
ENDMDL
MODEL      121
REMARK 921   NORMALIZED FREE ENERGY PREDICTED BY IDOCK:   -3.48 KCAL/MOL
REMARK 922        TOTAL FREE ENERGY PREDICTED BY IDOCK:   -4.38 KCAL/MOL
REMARK 923 INTER-LIGAND FREE ENERGY PREDICTED BY IDOCK:   -4.83 KCAL/MOL
REMARK 924 INTRA-LIGAND FREE ENERGY PREDICTED BY IDOCK:    0.45 KCAL/MOL
REMARK 927      BINDING AFFINITY PREDICTED BY RF-SCORE:    0.00 PKD
ROOT
HETATM    1  C   UNL     1     -10.161   7.793  71.336  1.00  0.00    -0.182 C  
HETATM    2  C   UNL     1      -8.866   8.040  70.504  1.00  0.00    -0.137 C  
HETATM    3  H   UNL     1     -12.955  12.290  69.171  1.00  0.00     0.000 HD 
HETATM    4  C   UNL     1     -11.431  11.336  68.173  1.00  0.00    -0.306 C  
HETATM    5  N   UNL     1      -9.070   8.984  69.398  1.00  0.00    -0.143 NA 
HETATM    6  H1  UNL     1     -11.208  11.723  66.196  1.00  0.00     0.000 HD 
HETATM    7  H2  UNL     1     -12.616  12.519  66.942  1.00  0.00     0.000 HD 
HETATM    8  N   UNL     1     -11.795  11.917  67.007  1.00  0.00    -0.613 NA 
HETATM    9  H   UNL     1      -8.428   8.961  68.606  1.00  0.00     0.000 HD 
HETATM   10  N   UNL     1     -12.213  11.595  69.254  1.00  0.00    -0.230 N  
HETATM   11  C   UNL     1     -10.111   9.910  69.393  1.00  0.00    -0.212 C  
HETATM   12  C   UNL     1     -10.900  10.000  70.498  1.00  0.00    -0.314 C  
HETATM   13  N   UNL     1     -10.393  10.567  68.222  1.00  0.00    -0.160 NA 
HETATM   14  C   UNL     1     -12.039  10.958  70.441  1.00  0.00    -0.363 C  
HETATM   15  N   UNL     1     -10.815   9.107  71.574  1.00  0.00    -0.343 NA 
HETATM   16  H   UNL     1     -11.190   9.351  72.490  1.00  0.00     0.000 HD 
HETATM   17  O   UNL     1     -12.826  11.088  71.379  1.00  0.00    -0.400 OA 
ENDROOT
BRANCH   1  18
HETATM   18  C   UNL     1     -11.164   6.779  70.683  1.00  0.00    -0.312 C  
HETATM   19  O   UNL     1     -11.733   7.253  69.456  1.00  0.00    -0.454 OA 
HETATM   20  H   UNL     1     -12.341   6.639  69.060  1.00  0.00     0.000 HD 
BRANCH  18  21
HETATM   21  C   UNL     1     -10.533   5.402  70.394  1.00  0.00    -0.275 C  
HETATM   22  C   UNL     1      -9.909   4.778  71.646  1.00  0.00    -0.248 C  
HETATM   23  O   UNL     1      -9.539   5.521  69.380  1.00  0.00    -0.133 OA 
HETATM   24  H   UNL     1      -9.150   4.673  69.202  1.00  0.00     0.000 HD 
ENDBRANCH  18  21
ENDBRANCH   1  18
TORSDOF 2
ENDMDL
MODEL      122
REMARK 921   NORMALIZED FREE ENERGY PREDICTED BY IDOCK:   -3.48 KCAL/MOL
REMARK 922        TOTAL FREE ENERGY PREDICTED BY IDOCK:   -4.38 KCAL/MOL
REMARK 923 INTER-LIGAND FREE ENERGY PREDICTED BY IDOCK:   -3.93 KCAL/MOL
REMARK 924 INTRA-LIGAND FREE ENERGY PREDICTED BY IDOCK:   -0.44 KCAL/MOL
REMARK 927      BINDING AFFINITY PREDICTED BY RF-SCORE:    0.00 PKD
ROOT
HETATM    1  C   UNL     1      -9.026   8.932  68.435  1.00  0.00    -0.134 C  
HETATM    2  C   UNL     1      -8.885  10.157  69.391  1.00  0.00    -0.185 C  
HETATM    3  H   UNL     1      -9.183   5.079  72.659  1.00  0.00     0.000 HD 
HETATM    4  C   UNL     1      -9.743   7.041  72.916  1.00  0.00    -0.161 C  
HETATM    5  N   UNL     1      -9.199   9.830  70.787  1.00  0.00    -0.343 NA 
HETATM    6  H1  UNL     1     -10.787   7.514  74.587  1.00  0.00     0.000 HD 
HETATM    7  H2  UNL     1     -10.440   5.777  74.411  1.00  0.00     0.000 HD 
HETATM    8  N   UNL     1     -10.376   6.736  74.072  1.00  0.00    -0.373 NA 
HETATM    9  H   UNL     1      -9.474  10.581  71.419  1.00  0.00     0.000 HD 
HETATM   10  N   UNL     1      -9.195   6.004  72.230  1.00  0.00    -0.144 N  
HETATM   11  C   UNL     1      -9.132   8.527  71.279  1.00  0.00    -0.196 C  
HETATM   12  C   UNL     1      -8.668   7.550  70.455  1.00  0.00    -0.146 C  
HETATM   13  N   UNL     1      -9.690   8.265  72.505  1.00  0.00    -0.282 NA 
HETATM   14  C   UNL     1      -8.663   6.159  70.989  1.00  0.00    -0.132 C  
HETATM   15  N   UNL     1      -8.399   7.757  69.096  1.00  0.00    -0.132 NA 
HETATM   16  H   UNL     1      -7.793   7.122  68.577  1.00  0.00     0.000 HD 
HETATM   17  O   UNL     1      -8.289   5.203  70.309  1.00  0.00    -0.094 OA 
ENDROOT
BRANCH   1  18
HETATM   18  C   UNL     1     -10.501   8.613  68.009  1.00  0.00    -0.197 C  
HETATM   19  O   UNL     1     -11.266   9.781  67.690  1.00  0.00    -0.473 OA 
HETATM   20  H   UNL     1     -12.160   9.588  67.431  1.00  0.00     0.000 HD 
BRANCH  18  21
HETATM   21  C   UNL     1     -10.589   7.662  66.797  1.00  0.00    -0.186 C  
HETATM   22  C   UNL     1     -10.950   6.232  67.208  1.00  0.00    -0.455 C  
HETATM   23  O   UNL     1      -9.351   7.652  66.090  1.00  0.00    -0.301 OA 
HETATM   24  H   UNL     1      -9.405   7.067  65.344  1.00  0.00     0.000 HD 
ENDBRANCH  18  21
ENDBRANCH   1  18
TORSDOF 2
ENDMDL
MODEL      123
REMARK 921   NORMALIZED FREE ENERGY PREDICTED BY IDOCK:   -3.47 KCAL/MOL
REMARK 922        TOTAL FREE ENERGY PREDICTED BY IDOCK:   -4.36 KCAL/MOL
REMARK 923 INTER-LIGAND FREE ENERGY PREDICTED BY IDOCK:   -3.95 KCAL/MOL
REMARK 924 INTRA-LIGAND FREE ENERGY PREDICTED BY IDOCK:   -0.41 KCAL/MOL
REMARK 927      BINDING AFFINITY PREDICTED BY RF-SCORE:    0.00 PKD
ROOT
HETATM    1  C   UNL     1      -9.560  11.318  68.289  1.00  0.00    -0.193 C  
HETATM    2  C   UNL     1     -10.740  10.780  67.422  1.00  0.00    -0.268 C  
HETATM    3  H   UNL     1      -9.273   6.662  71.598  1.00  0.00     0.000 HD 
HETATM    4  C   UNL     1     -10.032   6.628  69.687  1.00  0.00    -0.175 C  
HETATM    5  N   UNL     1     -10.962   9.339  67.592  1.00  0.00    -0.483 NA 
HETATM    6  H1  UNL     1     -10.277   4.823  68.800  1.00  0.00     0.000 HD 
HETATM    7  H2  UNL     1      -9.522   4.748  70.411  1.00  0.00     0.000 HD 
HETATM    8  N   UNL     1      -9.929   5.280  69.642  1.00  0.00    -0.210 NA 
HETATM    9  H   UNL     1     -11.446   8.825  66.856  1.00  0.00     0.000 HD 
HETATM   10  N   UNL     1      -9.567   7.237  70.809  1.00  0.00    -0.171 N  
HETATM   11  C   UNL     1     -10.534   8.649  68.724  1.00  0.00    -0.185 C  
HETATM   12  C   UNL     1      -9.979   9.360  69.742  1.00  0.00    -0.200 C  
HETATM   13  N   UNL     1     -10.539   7.277  68.692  1.00  0.00    -0.191 NA 
HETATM   14  C   UNL     1      -9.479   8.589  70.914  1.00  0.00    -0.180 C  
HETATM   15  N   UNL     1      -9.678  10.725  69.647  1.00  0.00    -0.432 NA 
HETATM   16  H   UNL     1      -9.544  11.294  70.483  1.00  0.00     0.000 HD 
HETATM   17  O   UNL     1      -8.935   9.141  71.871  1.00  0.00    -0.340 OA 
ENDROOT
BRANCH   1  18
HETATM   18  C   UNL     1      -8.139  11.047  67.683  1.00  0.00    -0.116 C  
HETATM   19  O   UNL     1      -8.003  11.495  66.328  1.00  0.00    -0.333 OA 
HETATM   20  H   UNL     1      -7.142  11.331  65.961  1.00  0.00     0.000 HD 
BRANCH  18  21
HETATM   21  C   UNL     1      -6.999  11.696  68.496  1.00  0.00    -0.085 C  
HETATM   22  C   UNL     1      -6.342  10.706  69.462  1.00  0.00    -0.070 C  
HETATM   23  O   UNL     1      -7.495  12.814  69.229  1.00  0.00    -0.321 OA 
HETATM   24  H   UNL     1      -6.793  13.213  69.729  1.00  0.00     0.000 HD 
ENDBRANCH  18  21
ENDBRANCH   1  18
TORSDOF 2
ENDMDL
MODEL      124
REMARK 921   NORMALIZED FREE ENERGY PREDICTED BY IDOCK:   -3.44 KCAL/MOL
REMARK 922        TOTAL FREE ENERGY PREDICTED BY IDOCK:   -4.32 KCAL/MOL
REMARK 923 INTER-LIGAND FREE ENERGY PREDICTED BY IDOCK:   -3.91 KCAL/MOL
REMARK 924 INTRA-LIGAND FREE ENERGY PREDICTED BY IDOCK:   -0.42 KCAL/MOL
REMARK 927      BINDING AFFINITY PREDICTED BY RF-SCORE:    0.00 PKD
ROOT
HETATM    1  C   UNL     1     -10.143   8.639  68.826  1.00  0.00    -0.196 C  
HETATM    2  C   UNL     1     -10.785   7.735  67.728  1.00  0.00    -0.127 C  
HETATM    3  H   UNL     1      -5.770  10.304  65.536  1.00  0.00     0.000 HD 
HETATM    4  C   UNL     1      -7.570   9.675  64.766  1.00  0.00    -0.122 C  
HETATM    5  N   UNL     1     -10.242   7.991  66.389  1.00  0.00    -0.483 NA 
HETATM    6  H1  UNL     1      -7.953  10.069  62.816  1.00  0.00     0.000 HD 
HETATM    7  H2  UNL     1      -6.415  10.744  63.409  1.00  0.00     0.000 HD 
HETATM    8  N   UNL     1      -7.274  10.216  63.562  1.00  0.00    -0.136 NA 
HETATM    9  H   UNL     1     -10.797   7.732  65.574  1.00  0.00     0.000 HD 
HETATM   10  N   UNL     1      -6.665   9.870  65.761  1.00  0.00    -0.093 N  
HETATM   11  C   UNL     1      -8.992   8.577  66.193  1.00  0.00    -0.179 C  
HETATM   12  C   UNL     1      -8.219   8.827  67.283  1.00  0.00    -0.104 C  
HETATM   13  N   UNL     1      -8.673   9.023  64.935  1.00  0.00    -0.181 NA 
HETATM   14  C   UNL     1      -6.913   9.505  67.046  1.00  0.00    -0.085 C  
HETATM   15  N   UNL     1      -8.674   8.668  68.598  1.00  0.00    -0.137 NA 
HETATM   16  H   UNL     1      -8.018   8.575  69.374  1.00  0.00     0.000 HD 
HETATM   17  O   UNL     1      -6.157   9.801  67.972  1.00  0.00    -0.053 OA 
ENDROOT
BRANCH   1  18
HETATM   18  C   UNL     1     -10.727  10.093  68.888  1.00  0.00    -0.223 C  
HETATM   19  O   UNL     1     -11.905  10.267  68.090  1.00  0.00    -0.737 OA 
HETATM   20  H   UNL     1     -12.259  11.148  68.127  1.00  0.00     0.000 HD 
BRANCH  18  21
HETATM   21  C   UNL     1     -11.074  10.546  70.321  1.00  0.00    -0.285 C  
HETATM   22  C   UNL     1     -11.357   9.363  71.250  1.00  0.00    -0.436 C  
HETATM   23  O   UNL     1     -12.206  11.413  70.301  1.00  0.00    -0.332 OA 
HETATM   24  H   UNL     1     -12.420  11.692  71.183  1.00  0.00     0.000 HD 
ENDBRANCH  18  21
ENDBRANCH   1  18
TORSDOF 2
ENDMDL
MODEL      125
REMARK 921   NORMALIZED FREE ENERGY PREDICTED BY IDOCK:   -3.39 KCAL/MOL
REMARK 922        TOTAL FREE ENERGY PREDICTED BY IDOCK:   -4.28 KCAL/MOL
REMARK 923 INTER-LIGAND FREE ENERGY PREDICTED BY IDOCK:   -3.79 KCAL/MOL
REMARK 924 INTRA-LIGAND FREE ENERGY PREDICTED BY IDOCK:   -0.49 KCAL/MOL
REMARK 927      BINDING AFFINITY PREDICTED BY RF-SCORE:    0.00 PKD
ROOT
HETATM    1  C   UNL     1      -8.577   9.940  68.791  1.00  0.00    -0.130 C  
HETATM    2  C   UNL     1      -7.576  11.018  69.311  1.00  0.00    -0.089 C  
HETATM    3  H   UNL     1     -11.917  13.702  66.071  1.00  0.00     0.000 HD 
HETATM    4  C   UNL     1      -9.928  14.052  66.459  1.00  0.00    -0.284 C  
HETATM    5  N   UNL     1      -7.723  12.309  68.629  1.00  0.00    -0.222 NA 
HETATM    6  H1  UNL     1      -9.026  15.573  65.470  1.00  0.00     0.000 HD 
HETATM    7  H2  UNL     1     -10.717  15.290  64.988  1.00  0.00     0.000 HD 
HETATM    8  N   UNL     1      -9.901  15.058  65.556  1.00  0.00    -0.342 NA 
HETATM    9  H   UNL     1      -6.937  12.957  68.626  1.00  0.00     0.000 HD 
HETATM   10  N   UNL     1     -11.095  13.366  66.573  1.00  0.00    -0.294 N  
HETATM   11  C   UNL     1      -8.902  12.680  67.985  1.00  0.00    -0.195 C  
HETATM   12  C   UNL     1      -9.977  11.851  68.080  1.00  0.00    -0.190 C  
HETATM   13  N   UNL     1      -8.875  13.771  67.154  1.00  0.00    -0.225 NA 
HETATM   14  C   UNL     1     -11.205  12.246  67.334  1.00  0.00    -0.301 C  
HETATM   15  N   UNL     1      -9.914  10.578  68.660  1.00  0.00    -0.173 NA 
HETATM   16  H   UNL     1     -10.757  10.104  68.982  1.00  0.00     0.000 HD 
HETATM   17  O   UNL     1     -12.218  11.546  67.334  1.00  0.00    -0.401 OA 
ENDROOT
BRANCH   1  18
HETATM   18  C   UNL     1      -8.149   9.257  67.446  1.00  0.00    -0.110 C  
HETATM   19  O   UNL     1      -7.000   8.410  67.578  1.00  0.00    -0.072 OA 
HETATM   20  H   UNL     1      -6.741   7.996  66.763  1.00  0.00     0.000 HD 
BRANCH  18  21
HETATM   21  C   UNL     1      -9.272   8.410  66.812  1.00  0.00    -0.171 C  
HETATM   22  C   UNL     1      -8.739   7.118  66.187  1.00  0.00    -0.164 C  
HETATM   23  O   UNL     1      -9.957   9.169  65.819  1.00  0.00    -0.423 OA 
HETATM   24  H   UNL     1     -10.648   8.647  65.429  1.00  0.00     0.000 HD 
ENDBRANCH  18  21
ENDBRANCH   1  18
TORSDOF 2
ENDMDL
MODEL      126
REMARK 921   NORMALIZED FREE ENERGY PREDICTED BY IDOCK:   -3.39 KCAL/MOL
REMARK 922        TOTAL FREE ENERGY PREDICTED BY IDOCK:   -4.28 KCAL/MOL
REMARK 923 INTER-LIGAND FREE ENERGY PREDICTED BY IDOCK:   -3.89 KCAL/MOL
REMARK 924 INTRA-LIGAND FREE ENERGY PREDICTED BY IDOCK:   -0.38 KCAL/MOL
REMARK 927      BINDING AFFINITY PREDICTED BY RF-SCORE:    0.00 PKD
ROOT
HETATM    1  C   UNL     1     -10.460   7.093  68.223  1.00  0.00    -0.198 C  
HETATM    2  C   UNL     1      -9.743   5.748  67.895  1.00  0.00    -0.120 C  
HETATM    3  H   UNL     1     -11.560   5.703  73.661  1.00  0.00     0.000 HD 
HETATM    4  C   UNL     1     -10.008   4.883  72.591  1.00  0.00    -0.165 C  
HETATM    5  N   UNL     1      -9.388   4.983  69.096  1.00  0.00    -0.114 NA 
HETATM    6  H1  UNL     1      -8.572   3.889  73.620  1.00  0.00     0.000 HD 
HETATM    7  H2  UNL     1      -9.815   4.646  74.646  1.00  0.00     0.000 HD 
HETATM    8  N   UNL     1      -9.424   4.440  73.727  1.00  0.00    -0.115 NA 
HETATM    9  H   UNL     1      -8.640   4.293  69.038  1.00  0.00     0.000 HD 
HETATM   10  N   UNL     1     -11.142   5.616  72.734  1.00  0.00    -0.272 N  
HETATM   11  C   UNL     1     -10.039   5.168  70.314  1.00  0.00    -0.268 C  
HETATM   12  C   UNL     1     -11.099   6.018  70.357  1.00  0.00    -0.329 C  
HETATM   13  N   UNL     1      -9.481   4.617  71.440  1.00  0.00    -0.148 NA 
HETATM   14  C   UNL     1     -11.739   6.239  71.684  1.00  0.00    -0.284 C  
HETATM   15  N   UNL     1     -11.474   6.830  69.278  1.00  0.00    -0.596 NA 
HETATM   16  H   UNL     1     -12.411   7.227  69.220  1.00  0.00     0.000 HD 
HETATM   17  O   UNL     1     -12.685   7.013  71.829  1.00  0.00    -0.349 OA 
ENDROOT
BRANCH   1  18
HETATM   18  C   UNL     1      -9.495   8.252  68.652  1.00  0.00    -0.147 C  
HETATM   19  O   UNL     1      -8.123   8.001  68.321  1.00  0.00    -0.122 OA 
HETATM   20  H   UNL     1      -7.538   8.703  68.582  1.00  0.00     0.000 HD 
BRANCH  18  21
HETATM   21  C   UNL     1      -9.872   9.616  68.037  1.00  0.00    -0.150 C  
HETATM   22  C   UNL     1     -10.859  10.392  68.913  1.00  0.00    -0.273 C  
HETATM   23  O   UNL     1     -10.437   9.429  66.740  1.00  0.00    -0.243 OA 
HETATM   24  H   UNL     1     -10.669  10.269  66.362  1.00  0.00     0.000 HD 
ENDBRANCH  18  21
ENDBRANCH   1  18
TORSDOF 2
ENDMDL
MODEL      127
REMARK 921   NORMALIZED FREE ENERGY PREDICTED BY IDOCK:   -3.36 KCAL/MOL
REMARK 922        TOTAL FREE ENERGY PREDICTED BY IDOCK:   -4.24 KCAL/MOL
REMARK 923 INTER-LIGAND FREE ENERGY PREDICTED BY IDOCK:   -3.78 KCAL/MOL
REMARK 924 INTRA-LIGAND FREE ENERGY PREDICTED BY IDOCK:   -0.46 KCAL/MOL
REMARK 927      BINDING AFFINITY PREDICTED BY RF-SCORE:    0.00 PKD
ROOT
HETATM    1  C   UNL     1     -10.542   6.508  72.188  1.00  0.00    -0.214 C  
HETATM    2  C   UNL     1     -11.796   7.164  71.531  1.00  0.00    -0.313 C  
HETATM    3  H   UNL     1      -9.077   3.556  67.514  1.00  0.00     0.000 HD 
HETATM    4  C   UNL     1     -10.179   5.290  67.439  1.00  0.00    -0.191 C  
HETATM    5  N   UNL     1     -11.809   7.031  70.070  1.00  0.00    -0.600 NA 
HETATM    6  H1  UNL     1     -10.376   6.207  65.643  1.00  0.00     0.000 HD 
HETATM    7  H2  UNL     1      -9.321   4.773  65.618  1.00  0.00     0.000 HD 
HETATM    8  N   UNL     1      -9.928   5.424  66.117  1.00  0.00    -0.155 NA 
HETATM    9  H   UNL     1     -12.361   7.688  69.520  1.00  0.00     0.000 HD 
HETATM   10  N   UNL     1      -9.582   4.245  68.070  1.00  0.00    -0.162 N  
HETATM   11  C   UNL     1     -11.092   6.036  69.407  1.00  0.00    -0.375 C  
HETATM   12  C   UNL     1     -10.440   5.105  70.154  1.00  0.00    -0.235 C  
HETATM   13  N   UNL     1     -10.942   6.138  68.047  1.00  0.00    -0.327 NA 
HETATM   14  C   UNL     1      -9.636   4.088  69.419  1.00  0.00    -0.187 C  
HETATM   15  N   UNL     1     -10.326   5.183  71.548  1.00  0.00    -0.216 NA 
HETATM   16  H   UNL     1     -10.102   4.359  72.104  1.00  0.00     0.000 HD 
HETATM   17  O   UNL     1      -8.987   3.223  70.008  1.00  0.00    -0.082 OA 
ENDROOT
BRANCH   1  18
HETATM   18  C   UNL     1      -9.243   7.383  72.116  1.00  0.00    -0.132 C  
HETATM   19  O   UNL     1      -9.451   8.745  72.511  1.00  0.00    -0.290 OA 
HETATM   20  H   UNL     1      -8.664   9.275  72.467  1.00  0.00     0.000 HD 
BRANCH  18  21
HETATM   21  C   UNL     1      -8.089   6.827  72.977  1.00  0.00    -0.108 C  
HETATM   22  C   UNL     1      -7.009   6.150  72.129  1.00  0.00    -0.078 C  
HETATM   23  O   UNL     1      -8.594   5.896  73.931  1.00  0.00    -0.117 OA 
HETATM   24  H   UNL     1      -7.884   5.555  74.461  1.00  0.00     0.000 HD 
ENDBRANCH  18  21
ENDBRANCH   1  18
TORSDOF 2
ENDMDL
MODEL      128
REMARK 921   NORMALIZED FREE ENERGY PREDICTED BY IDOCK:   -3.33 KCAL/MOL
REMARK 922        TOTAL FREE ENERGY PREDICTED BY IDOCK:   -4.20 KCAL/MOL
REMARK 923 INTER-LIGAND FREE ENERGY PREDICTED BY IDOCK:   -3.77 KCAL/MOL
REMARK 924 INTRA-LIGAND FREE ENERGY PREDICTED BY IDOCK:   -0.43 KCAL/MOL
REMARK 927      BINDING AFFINITY PREDICTED BY RF-SCORE:    0.00 PKD
ROOT
HETATM    1  C   UNL     1     -11.380   6.702  71.396  1.00  0.00    -0.289 C  
HETATM    2  C   UNL     1     -11.204   8.166  71.905  1.00  0.00    -0.290 C  
HETATM    3  H   UNL     1      -9.322   7.790  66.172  1.00  0.00     0.000 HD 
HETATM    4  C   UNL     1      -8.827   8.911  67.822  1.00  0.00    -0.135 C  
HETATM    5  N   UNL     1     -10.341   8.972  71.033  1.00  0.00    -0.252 NA 
HETATM    6  H1  UNL     1      -7.234  10.156  67.676  1.00  0.00     0.000 HD 
HETATM    7  H2  UNL     1      -7.517   9.158  66.228  1.00  0.00     0.000 HD 
HETATM    8  N   UNL     1      -7.769   9.448  67.173  1.00  0.00    -0.092 NA 
HETATM    9  H   UNL     1      -9.883   9.797  71.420  1.00  0.00     0.000 HD 
HETATM   10  N   UNL     1      -9.538   7.967  67.153  1.00  0.00    -0.162 N  
HETATM   11  C   UNL     1     -10.127   8.650  69.694  1.00  0.00    -0.201 C  
HETATM   12  C   UNL     1     -10.820   7.608  69.163  1.00  0.00    -0.068 C  
HETATM   13  N   UNL     1      -9.113   9.287  69.025  1.00  0.00    -0.144 NA 
HETATM   14  C   UNL     1     -10.528   7.251  67.747  1.00  0.00    -0.228 C  
HETATM   15  N   UNL     1     -11.620   6.750  69.929  1.00  0.00    -0.585 NA 
HETATM   16  H   UNL     1     -12.343   6.176  69.495  1.00  0.00     0.000 HD 
HETATM   17  O   UNL     1     -11.083   6.304  67.187  1.00  0.00    -0.358 OA 
ENDROOT
BRANCH   1  18
HETATM   18  C   UNL     1     -10.181   5.751  71.736  1.00  0.00    -0.197 C  
HETATM   19  O   UNL     1      -9.126   6.401  72.456  1.00  0.00    -0.138 OA 
HETATM   20  H   UNL     1      -8.399   5.825  72.662  1.00  0.00     0.000 HD 
BRANCH  18  21
HETATM   21  C   UNL     1     -10.601   4.514  72.555  1.00  0.00    -0.158 C  
HETATM   22  C   UNL     1     -10.492   4.754  74.063  1.00  0.00    -0.328 C  
HETATM   23  O   UNL     1      -9.797   3.392  72.196  1.00  0.00    -0.149 OA 
HETATM   24  H   UNL     1     -10.056   2.630  72.701  1.00  0.00     0.000 HD 
ENDBRANCH  18  21
ENDBRANCH   1  18
TORSDOF 2
ENDMDL
MODEL      129
REMARK 921   NORMALIZED FREE ENERGY PREDICTED BY IDOCK:   -3.31 KCAL/MOL
REMARK 922        TOTAL FREE ENERGY PREDICTED BY IDOCK:   -4.18 KCAL/MOL
REMARK 923 INTER-LIGAND FREE ENERGY PREDICTED BY IDOCK:   -4.25 KCAL/MOL
REMARK 924 INTRA-LIGAND FREE ENERGY PREDICTED BY IDOCK:    0.07 KCAL/MOL
REMARK 927      BINDING AFFINITY PREDICTED BY RF-SCORE:    0.00 PKD
ROOT
HETATM    1  C   UNL     1      -9.609  10.821  66.054  1.00  0.00    -0.201 C  
HETATM    2  C   UNL     1     -10.727  10.073  66.844  1.00  0.00    -0.140 C  
HETATM    3  H   UNL     1     -11.375  16.036  67.604  1.00  0.00     0.000 HD 
HETATM    4  C   UNL     1     -11.757  14.351  68.718  1.00  0.00    -0.337 C  
HETATM    5  N   UNL     1     -11.413  10.935  67.815  1.00  0.00    -0.513 NA 
HETATM    6  H1  UNL     1     -12.394  14.604  70.625  1.00  0.00     0.000 HD 
HETATM    7  H2  UNL     1     -11.995  16.120  69.781  1.00  0.00     0.000 HD 
HETATM    8  N   UNL     1     -12.073  15.104  69.796  1.00  0.00    -0.322 NA 
HETATM    9  H   UNL     1     -11.896  10.503  68.602  1.00  0.00     0.000 HD 
HETATM   10  N   UNL     1     -11.330  15.017  67.614  1.00  0.00    -0.327 N  
HETATM   11  C   UNL     1     -11.427  12.323  67.697  1.00  0.00    -0.336 C  
HETATM   12  C   UNL     1     -10.867  12.882  66.592  1.00  0.00    -0.267 C  
HETATM   13  N   UNL     1     -11.854  13.063  68.771  1.00  0.00    -0.318 NA 
HETATM   14  C   UNL     1     -10.846  14.370  66.521  1.00  0.00    -0.310 C  
HETATM   15  N   UNL     1     -10.143  12.147  65.644  1.00  0.00    -0.244 NA 
HETATM   16  H   UNL     1      -9.988  12.510  64.704  1.00  0.00     0.000 HD 
HETATM   17  O   UNL     1     -10.333  14.969  65.575  1.00  0.00    -0.317 OA 
ENDROOT
BRANCH   1  18
HETATM   18  C   UNL     1      -8.260  10.980  66.838  1.00  0.00    -0.140 C  
HETATM   19  O   UNL     1      -8.024  12.316  67.299  1.00  0.00    -0.163 OA 
HETATM   20  H   UNL     1      -7.207  12.412  67.774  1.00  0.00     0.000 HD 
BRANCH  18  21
HETATM   21  C   UNL     1      -8.156  10.047  68.062  1.00  0.00    -0.112 C  
HETATM   22  C   UNL     1      -7.288  10.644  69.172  1.00  0.00    -0.111 C  
HETATM   23  O   UNL     1      -7.622   8.784  67.672  1.00  0.00    -0.095 OA 
HETATM   24  H   UNL     1      -7.558   8.210  68.426  1.00  0.00     0.000 HD 
ENDBRANCH  18  21
ENDBRANCH   1  18
TORSDOF 2
ENDMDL
MODEL      130
REMARK 921   NORMALIZED FREE ENERGY PREDICTED BY IDOCK:   -3.30 KCAL/MOL
REMARK 922        TOTAL FREE ENERGY PREDICTED BY IDOCK:   -4.18 KCAL/MOL
REMARK 923 INTER-LIGAND FREE ENERGY PREDICTED BY IDOCK:   -3.74 KCAL/MOL
REMARK 924 INTRA-LIGAND FREE ENERGY PREDICTED BY IDOCK:   -0.43 KCAL/MOL
REMARK 927      BINDING AFFINITY PREDICTED BY RF-SCORE:    0.00 PKD
ROOT
HETATM    1  C   UNL     1      -9.375   7.925  71.581  1.00  0.00    -0.148 C  
HETATM    2  C   UNL     1      -9.446   8.153  73.122  1.00  0.00    -0.246 C  
HETATM    3  H   UNL     1      -9.993   2.250  71.936  1.00  0.00     0.000 HD 
HETATM    4  C   UNL     1     -10.684   3.541  73.380  1.00  0.00    -0.208 C  
HETATM    5  N   UNL     1      -9.956   6.984  73.849  1.00  0.00    -0.313 NA 
HETATM    6  H1  UNL     1     -11.998   2.818  74.742  1.00  0.00     0.000 HD 
HETATM    7  H2  UNL     1     -11.541   1.650  73.479  1.00  0.00     0.000 HD 
HETATM    8  N   UNL     1     -11.473   2.575  73.903  1.00  0.00    -0.106 NA 
HETATM    9  H   UNL     1     -10.364   7.118  74.773  1.00  0.00     0.000 HD 
HETATM   10  N   UNL     1      -9.985   3.217  72.261  1.00  0.00    -0.162 N  
HETATM   11  C   UNL     1      -9.902   5.697  73.318  1.00  0.00    -0.168 C  
HETATM   12  C   UNL     1      -9.267   5.515  72.129  1.00  0.00    -0.143 C  
HETATM   13  N   UNL     1     -10.630   4.708  73.931  1.00  0.00    -0.250 NA 
HETATM   14  C   UNL     1      -9.274   4.139  71.560  1.00  0.00    -0.134 C  
HETATM   15  N   UNL     1      -8.800   6.575  71.340  1.00  0.00    -0.137 NA 
HETATM   16  H   UNL     1      -8.089   6.424  70.625  1.00  0.00     0.000 HD 
HETATM   17  O   UNL     1      -8.752   3.881  70.474  1.00  0.00    -0.071 OA 
ENDROOT
BRANCH   1  18
HETATM   18  C   UNL     1     -10.747   8.088  70.840  1.00  0.00    -0.221 C  
HETATM   19  O   UNL     1     -11.881   7.959  71.707  1.00  0.00    -0.270 OA 
HETATM   20  H   UNL     1     -12.712   8.058  71.258  1.00  0.00     0.000 HD 
BRANCH  18  21
HETATM   21  C   UNL     1     -10.883   9.437  70.105  1.00  0.00    -0.249 C  
HETATM   22  C   UNL     1     -11.800  10.412  70.850  1.00  0.00    -0.475 C  
HETATM   23  O   UNL     1     -11.385   9.229  68.787  1.00  0.00    -0.441 OA 
HETATM   24  H   UNL     1     -11.469  10.061  68.335  1.00  0.00     0.000 HD 
ENDBRANCH  18  21
ENDBRANCH   1  18
TORSDOF 2
ENDMDL
MODEL      131
REMARK 921   NORMALIZED FREE ENERGY PREDICTED BY IDOCK:   -3.28 KCAL/MOL
REMARK 922        TOTAL FREE ENERGY PREDICTED BY IDOCK:   -4.15 KCAL/MOL
REMARK 923 INTER-LIGAND FREE ENERGY PREDICTED BY IDOCK:   -4.10 KCAL/MOL
REMARK 924 INTRA-LIGAND FREE ENERGY PREDICTED BY IDOCK:   -0.04 KCAL/MOL
REMARK 927      BINDING AFFINITY PREDICTED BY RF-SCORE:    0.00 PKD
ROOT
HETATM    1  C   UNL     1     -10.260  11.965  67.549  1.00  0.00    -0.196 C  
HETATM    2  C   UNL     1     -11.110  10.656  67.560  1.00  0.00    -0.300 C  
HETATM    3  H   UNL     1      -5.891   9.643  64.681  1.00  0.00     0.000 HD 
HETATM    4  C   UNL     1      -7.814   8.927  64.557  1.00  0.00    -0.126 C  
HETATM    5  N   UNL     1     -10.617   9.650  66.612  1.00  0.00    -0.152 NA 
HETATM    6  H1  UNL     1      -8.250   7.646  63.048  1.00  0.00     0.000 HD 
HETATM    7  H2  UNL     1      -6.588   8.285  63.006  1.00  0.00     0.000 HD 
HETATM    8  N   UNL     1      -7.511   8.229  63.438  1.00  0.00    -0.112 NA 
HETATM    9  H   UNL     1     -11.258   8.928  66.284  1.00  0.00     0.000 HD 
HETATM   10  N   UNL     1      -6.829   9.704  65.077  1.00  0.00    -0.098 N  
HETATM   11  C   UNL     1      -9.304   9.646  66.146  1.00  0.00    -0.194 C  
HETATM   12  C   UNL     1      -8.433  10.551  66.666  1.00  0.00    -0.129 C  
HETATM   13  N   UNL     1      -8.996   8.848  65.074  1.00  0.00    -0.157 NA 
HETATM   14  C   UNL     1      -7.052  10.561  66.107  1.00  0.00    -0.135 C  
HETATM   15  N   UNL     1      -8.824  11.582  67.531  1.00  0.00    -0.152 NA 
HETATM   16  H   UNL     1      -8.145  12.054  68.127  1.00  0.00     0.000 HD 
HETATM   17  O   UNL     1      -6.201  11.364  66.492  1.00  0.00    -0.142 OA 
ENDROOT
BRANCH   1  18
HETATM   18  C   UNL     1     -10.594  12.942  66.369  1.00  0.00    -0.271 C  
HETATM   19  O   UNL     1      -9.466  13.230  65.533  1.00  0.00    -0.485 OA 
HETATM   20  H   UNL     1      -9.669  13.822  64.818  1.00  0.00     0.000 HD 
BRANCH  18  21
HETATM   21  C   UNL     1     -11.722  12.423  65.453  1.00  0.00    -0.402 C  
HETATM   22  C   UNL     1     -11.230  12.140  64.032  1.00  0.00    -0.458 C  
HETATM   23  O   UNL     1     -12.788  13.369  65.405  1.00  0.00    -0.594 OA 
HETATM   24  H   UNL     1     -13.482  13.050  64.841  1.00  0.00     0.000 HD 
ENDBRANCH  18  21
ENDBRANCH   1  18
TORSDOF 2
ENDMDL
MODEL      132
REMARK 921   NORMALIZED FREE ENERGY PREDICTED BY IDOCK:   -3.27 KCAL/MOL
REMARK 922        TOTAL FREE ENERGY PREDICTED BY IDOCK:   -4.14 KCAL/MOL
REMARK 923 INTER-LIGAND FREE ENERGY PREDICTED BY IDOCK:   -3.76 KCAL/MOL
REMARK 924 INTRA-LIGAND FREE ENERGY PREDICTED BY IDOCK:   -0.38 KCAL/MOL
REMARK 927      BINDING AFFINITY PREDICTED BY RF-SCORE:    0.00 PKD
ROOT
HETATM    1  C   UNL     1      -8.787  10.881  65.590  1.00  0.00    -0.190 C  
HETATM    2  C   UNL     1      -9.290   9.735  64.660  1.00  0.00    -0.256 C  
HETATM    3  H   UNL     1     -10.899   8.546  70.365  1.00  0.00     0.000 HD 
HETATM    4  C   UNL     1     -10.409   7.439  68.703  1.00  0.00    -0.198 C  
HETATM    5  N   UNL     1      -9.700   8.537  65.402  1.00  0.00    -0.244 NA 
HETATM    6  H1  UNL     1     -10.259   5.429  68.917  1.00  0.00     0.000 HD 
HETATM    7  H2  UNL     1     -10.588   6.303  70.434  1.00  0.00     0.000 HD 
HETATM    8  N   UNL     1     -10.423   6.297  69.428  1.00  0.00    -0.217 NA 
HETATM    9  H   UNL     1      -9.712   7.639  64.919  1.00  0.00     0.000 HD 
HETATM   10  N   UNL     1     -10.627   8.595  69.383  1.00  0.00    -0.218 N  
HETATM   11  C   UNL     1     -10.073   8.584  66.744  1.00  0.00    -0.299 C  
HETATM   12  C   UNL     1     -10.148   9.799  67.350  1.00  0.00    -0.208 C  
HETATM   13  N   UNL     1     -10.183   7.402  67.431  1.00  0.00    -0.220 NA 
HETATM   14  C   UNL     1     -10.493   9.814  68.799  1.00  0.00    -0.218 C  
HETATM   15  N   UNL     1      -9.724  10.987  66.740  1.00  0.00    -0.190 NA 
HETATM   16  H   UNL     1     -10.048  11.895  67.074  1.00  0.00     0.000 HD 
HETATM   17  O   UNL     1     -10.556  10.863  69.442  1.00  0.00    -0.220 OA 
ENDROOT
BRANCH   1  18
HETATM   18  C   UNL     1      -7.310  10.708  66.088  1.00  0.00    -0.138 C  
HETATM   19  O   UNL     1      -6.347  10.720  65.027  1.00  0.00    -0.353 OA 
HETATM   20  H   UNL     1      -5.452  10.615  65.328  1.00  0.00     0.000 HD 
BRANCH  18  21
HETATM   21  C   UNL     1      -6.883  11.785  67.106  1.00  0.00    -0.148 C  
HETATM   22  C   UNL     1      -6.967  11.281  68.550  1.00  0.00    -0.078 C  
HETATM   23  O   UNL     1      -7.697  12.946  66.963  1.00  0.00    -0.364 OA 
HETATM   24  H   UNL     1      -7.433  13.609  67.590  1.00  0.00     0.000 HD 
ENDBRANCH  18  21
ENDBRANCH   1  18
TORSDOF 2
ENDMDL
MODEL      133
REMARK 921   NORMALIZED FREE ENERGY PREDICTED BY IDOCK:   -3.27 KCAL/MOL
REMARK 922        TOTAL FREE ENERGY PREDICTED BY IDOCK:   -4.14 KCAL/MOL
REMARK 923 INTER-LIGAND FREE ENERGY PREDICTED BY IDOCK:   -3.64 KCAL/MOL
REMARK 924 INTRA-LIGAND FREE ENERGY PREDICTED BY IDOCK:   -0.50 KCAL/MOL
REMARK 927      BINDING AFFINITY PREDICTED BY RF-SCORE:    0.00 PKD
ROOT
HETATM    1  C   UNL     1     -10.673   7.010  70.068  1.00  0.00    -0.242 C  
HETATM    2  C   UNL     1     -11.487   7.918  71.041  1.00  0.00    -0.280 C  
HETATM    3  H   UNL     1      -9.665  11.186  66.292  1.00  0.00     0.000 HD 
HETATM    4  C   UNL     1     -10.041  11.547  68.281  1.00  0.00    -0.199 C  
HETATM    5  N   UNL     1     -11.320   9.349  70.759  1.00  0.00    -0.279 NA 
HETATM    6  H1  UNL     1      -9.613  13.390  69.005  1.00  0.00     0.000 HD 
HETATM    7  H2  UNL     1      -9.156  13.151  67.300  1.00  0.00     0.000 HD 
HETATM    8  N   UNL     1      -9.557  12.805  68.172  1.00  0.00    -0.220 NA 
HETATM    9  H   UNL     1     -11.505  10.022  71.502  1.00  0.00     0.000 HD 
HETATM   10  N   UNL     1      -9.967  10.767  67.171  1.00  0.00    -0.188 N  
HETATM   11  C   UNL     1     -10.917   9.819  69.511  1.00  0.00    -0.227 C  
HETATM   12  C   UNL     1     -10.769   8.921  68.501  1.00  0.00    -0.078 C  
HETATM   13  N   UNL     1     -10.531  11.131  69.403  1.00  0.00    -0.152 NA 
HETATM   14  C   UNL     1     -10.283   9.445  67.193  1.00  0.00    -0.254 C  
HETATM   15  N   UNL     1     -10.853   7.535  68.689  1.00  0.00    -0.416 NA 
HETATM   16  H   UNL     1     -11.030   6.908  67.905  1.00  0.00     0.000 HD 
HETATM   17  O   UNL     1     -10.089   8.706  66.228  1.00  0.00    -0.277 OA 
ENDROOT
BRANCH   1  18
HETATM   18  C   UNL     1      -9.151   6.883  70.424  1.00  0.00    -0.156 C  
HETATM   19  O   UNL     1      -8.722   7.813  71.427  1.00  0.00    -0.123 OA 
HETATM   20  H   UNL     1      -7.800   7.736  71.643  1.00  0.00     0.000 HD 
BRANCH  18  21
HETATM   21  C   UNL     1      -8.757   5.473  70.908  1.00  0.00    -0.135 C  
HETATM   22  C   UNL     1      -9.806   4.420  70.540  1.00  0.00    -0.285 C  
HETATM   23  O   UNL     1      -8.565   5.475  72.321  1.00  0.00    -0.125 OA 
HETATM   24  H   UNL     1      -8.323   4.606  72.619  1.00  0.00     0.000 HD 
ENDBRANCH  18  21
ENDBRANCH   1  18
TORSDOF 2
ENDMDL
MODEL      134
REMARK 921   NORMALIZED FREE ENERGY PREDICTED BY IDOCK:   -3.26 KCAL/MOL
REMARK 922        TOTAL FREE ENERGY PREDICTED BY IDOCK:   -4.13 KCAL/MOL
REMARK 923 INTER-LIGAND FREE ENERGY PREDICTED BY IDOCK:   -4.22 KCAL/MOL
REMARK 924 INTRA-LIGAND FREE ENERGY PREDICTED BY IDOCK:    0.09 KCAL/MOL
REMARK 927      BINDING AFFINITY PREDICTED BY RF-SCORE:    0.00 PKD
ROOT
HETATM    1  C   UNL     1      -9.522  12.096  66.485  1.00  0.00    -0.231 C  
HETATM    2  C   UNL     1     -10.364  10.829  66.144  1.00  0.00    -0.239 C  
HETATM    3  H   UNL     1     -12.216  13.107  71.429  1.00  0.00     0.000 HD 
HETATM    4  C   UNL     1     -12.107  11.239  70.578  1.00  0.00    -0.387 C  
HETATM    5  N   UNL     1     -11.120  10.319  67.294  1.00  0.00    -0.222 NA 
HETATM    6  H1  UNL     1     -12.588   9.645  71.735  1.00  0.00     0.000 HD 
HETATM    7  H2  UNL     1     -12.616  11.205  72.593  1.00  0.00     0.000 HD 
HETATM    8  N   UNL     1     -12.469  10.658  71.745  1.00  0.00    -0.301 NA 
HETATM    9  H   UNL     1     -11.415   9.343  67.296  1.00  0.00     0.000 HD 
HETATM   10  N   UNL     1     -11.950  12.588  70.592  1.00  0.00    -0.229 N  
HETATM   11  C   UNL     1     -11.448  11.123  68.384  1.00  0.00    -0.306 C  
HETATM   12  C   UNL     1     -11.137  12.446  68.326  1.00  0.00    -0.243 C  
HETATM   13  N   UNL     1     -11.915  10.518  69.523  1.00  0.00    -0.230 NA 
HETATM   14  C   UNL     1     -11.449  13.269  69.528  1.00  0.00    -0.234 C  
HETATM   15  N   UNL     1     -10.371  13.009  67.297  1.00  0.00    -0.238 NA 
HETATM   16  H   UNL     1     -10.394  14.011  67.112  1.00  0.00     0.000 HD 
HETATM   17  O   UNL     1     -11.177  14.469  69.583  1.00  0.00    -0.253 OA 
ENDROOT
BRANCH   1  18
HETATM   18  C   UNL     1      -8.168  11.794  67.216  1.00  0.00    -0.163 C  
HETATM   19  O   UNL     1      -7.021  11.929  66.367  1.00  0.00    -0.371 OA 
HETATM   20  H   UNL     1      -6.201  11.746  66.810  1.00  0.00     0.000 HD 
BRANCH  18  21
HETATM   21  C   UNL     1      -7.932  12.689  68.450  1.00  0.00    -0.134 C  
HETATM   22  C   UNL     1      -7.296  14.031  68.079  1.00  0.00    -0.142 C  
HETATM   23  O   UNL     1      -7.100  12.016  69.392  1.00  0.00    -0.294 OA 
HETATM   24  H   UNL     1      -6.954  12.567  70.151  1.00  0.00     0.000 HD 
ENDBRANCH  18  21
ENDBRANCH   1  18
TORSDOF 2
ENDMDL
MODEL      135
REMARK 921   NORMALIZED FREE ENERGY PREDICTED BY IDOCK:   -3.21 KCAL/MOL
REMARK 922        TOTAL FREE ENERGY PREDICTED BY IDOCK:   -4.07 KCAL/MOL
REMARK 923 INTER-LIGAND FREE ENERGY PREDICTED BY IDOCK:   -4.25 KCAL/MOL
REMARK 924 INTRA-LIGAND FREE ENERGY PREDICTED BY IDOCK:    0.17 KCAL/MOL
REMARK 927      BINDING AFFINITY PREDICTED BY RF-SCORE:    0.00 PKD
ROOT
HETATM    1  C   UNL     1      -7.638  11.679  67.784  1.00  0.00    -0.121 C  
HETATM    2  C   UNL     1      -7.426  10.915  66.440  1.00  0.00    -0.145 C  
HETATM    3  H   UNL     1     -12.131  14.673  65.896  1.00  0.00     0.000 HD 
HETATM    4  C   UNL     1     -11.588  12.855  65.104  1.00  0.00    -0.332 C  
HETATM    5  N   UNL     1      -8.575  11.026  65.534  1.00  0.00    -0.312 NA 
HETATM    6  H1  UNL     1     -12.931  11.900  63.925  1.00  0.00     0.000 HD 
HETATM    7  H2  UNL     1     -13.535  13.414  64.642  1.00  0.00     0.000 HD 
HETATM    8  N   UNL     1     -12.796  12.724  64.510  1.00  0.00    -0.737 NA 
HETATM    9  H   UNL     1      -8.703  10.319  64.811  1.00  0.00     0.000 HD 
HETATM   10  N   UNL     1     -11.408  13.953  65.883  1.00  0.00    -0.309 N  
HETATM   11  C   UNL     1      -9.498  12.066  65.628  1.00  0.00    -0.138 C  
HETATM   12  C   UNL     1      -9.265  13.057  66.529  1.00  0.00    -0.181 C  
HETATM   13  N   UNL     1     -10.675  11.957  64.930  1.00  0.00    -0.289 NA 
HETATM   14  C   UNL     1     -10.297  14.124  66.647  1.00  0.00    -0.277 C  
HETATM   15  N   UNL     1      -8.228  13.007  67.471  1.00  0.00    -0.170 NA 
HETATM   16  H   UNL     1      -7.890  13.854  67.926  1.00  0.00     0.000 HD 
HETATM   17  O   UNL     1     -10.189  15.047  67.456  1.00  0.00    -0.232 OA 
ENDROOT
BRANCH   1  18
HETATM   18  C   UNL     1      -8.515  10.910  68.832  1.00  0.00    -0.141 C  
HETATM   19  O   UNL     1      -9.715  11.607  69.190  1.00  0.00    -0.415 OA 
HETATM   20  H   UNL     1     -10.246  11.142  69.826  1.00  0.00     0.000 HD 
BRANCH  18  21
HETATM   21  C   UNL     1      -8.926   9.500  68.362  1.00  0.00    -0.127 C  
HETATM   22  C   UNL     1     -10.209   9.015  69.042  1.00  0.00    -0.216 C  
HETATM   23  O   UNL     1      -7.875   8.572  68.619  1.00  0.00    -0.104 OA 
HETATM   24  H   UNL     1      -8.129   7.703  68.329  1.00  0.00     0.000 HD 
ENDBRANCH  18  21
ENDBRANCH   1  18
TORSDOF 2
ENDMDL
MODEL      136
REMARK 921   NORMALIZED FREE ENERGY PREDICTED BY IDOCK:   -3.19 KCAL/MOL
REMARK 922        TOTAL FREE ENERGY PREDICTED BY IDOCK:   -4.05 KCAL/MOL
REMARK 923 INTER-LIGAND FREE ENERGY PREDICTED BY IDOCK:   -3.63 KCAL/MOL
REMARK 924 INTRA-LIGAND FREE ENERGY PREDICTED BY IDOCK:   -0.42 KCAL/MOL
REMARK 927      BINDING AFFINITY PREDICTED BY RF-SCORE:    0.00 PKD
ROOT
HETATM    1  C   UNL     1      -8.509   5.326  70.686  1.00  0.00    -0.117 C  
HETATM    2  C   UNL     1      -8.393   6.346  69.511  1.00  0.00    -0.126 C  
HETATM    3  H   UNL     1     -12.310   8.441  73.613  1.00  0.00     0.000 HD 
HETATM    4  C   UNL     1     -12.080   8.586  71.575  1.00  0.00    -0.304 C  
HETATM    5  N   UNL     1      -9.470   7.343  69.514  1.00  0.00    -0.156 NA 
HETATM    6  H1  UNL     1     -13.533   9.532  70.526  1.00  0.00     0.000 HD 
HETATM    7  H2  UNL     1     -13.875   9.372  72.266  1.00  0.00     0.000 HD 
HETATM    8  N   UNL     1     -13.270   9.218  71.459  1.00  0.00    -0.360 NA 
HETATM    9  H   UNL     1      -9.699   7.823  68.644  1.00  0.00     0.000 HD 
HETATM   10  N   UNL     1     -11.731   8.167  72.819  1.00  0.00    -0.364 N  
HETATM   11  C   UNL     1     -10.190   7.657  70.665  1.00  0.00    -0.199 C  
HETATM   12  C   UNL     1      -9.811   7.085  71.839  1.00  0.00    -0.163 C  
HETATM   13  N   UNL     1     -11.341   8.392  70.532  1.00  0.00    -0.249 NA 
HETATM   14  C   UNL     1     -10.635   7.395  73.041  1.00  0.00    -0.343 C  
HETATM   15  N   UNL     1      -8.835   6.083  71.923  1.00  0.00    -0.138 NA 
HETATM   16  H   UNL     1      -8.365   5.880  72.805  1.00  0.00     0.000 HD 
HETATM   17  O   UNL     1     -10.389   6.901  74.142  1.00  0.00    -0.373 OA 
ENDROOT
BRANCH   1  18
HETATM   18  C   UNL     1      -9.548   4.177  70.443  1.00  0.00    -0.196 C  
HETATM   19  O   UNL     1      -9.720   3.848  69.059  1.00  0.00    -0.164 OA 
HETATM   20  H   UNL     1     -10.350   3.152  68.912  1.00  0.00     0.000 HD 
BRANCH  18  21
HETATM   21  C   UNL     1      -9.193   2.871  71.184  1.00  0.00    -0.127 C  
HETATM   22  C   UNL     1     -10.183   2.556  72.308  1.00  0.00    -0.200 C  
HETATM   23  O   UNL     1      -7.876   2.957  71.724  1.00  0.00    -0.051 OA 
HETATM   24  H   UNL     1      -7.657   2.153  72.180  1.00  0.00     0.000 HD 
ENDBRANCH  18  21
ENDBRANCH   1  18
TORSDOF 2
ENDMDL
MODEL      137
REMARK 921   NORMALIZED FREE ENERGY PREDICTED BY IDOCK:   -3.13 KCAL/MOL
REMARK 922        TOTAL FREE ENERGY PREDICTED BY IDOCK:   -3.98 KCAL/MOL
REMARK 923 INTER-LIGAND FREE ENERGY PREDICTED BY IDOCK:   -3.57 KCAL/MOL
REMARK 924 INTRA-LIGAND FREE ENERGY PREDICTED BY IDOCK:   -0.42 KCAL/MOL
REMARK 927      BINDING AFFINITY PREDICTED BY RF-SCORE:    0.00 PKD
ROOT
HETATM    1  C   UNL     1      -9.599   7.486  70.344  1.00  0.00    -0.168 C  
HETATM    2  C   UNL     1      -9.200   6.002  70.616  1.00  0.00    -0.150 C  
HETATM    3  H   UNL     1      -8.026   7.373  64.846  1.00  0.00     0.000 HD 
HETATM    4  C   UNL     1      -8.572   5.686  65.886  1.00  0.00    -0.144 C  
HETATM    5  N   UNL     1      -8.980   5.236  69.384  1.00  0.00    -0.099 NA 
HETATM    6  H1  UNL     1      -8.984   4.012  64.820  1.00  0.00     0.000 HD 
HETATM    7  H2  UNL     1      -8.620   5.441  63.823  1.00  0.00     0.000 HD 
HETATM    8  N   UNL     1      -8.737   4.997  64.733  1.00  0.00    -0.153 NA 
HETATM    9  H   UNL     1      -9.058   4.220  69.415  1.00  0.00     0.000 HD 
HETATM   10  N   UNL     1      -8.243   6.999  65.770  1.00  0.00    -0.126 N  
HETATM   11  C   UNL     1      -8.669   5.849  68.172  1.00  0.00    -0.111 C  
HETATM   12  C   UNL     1      -8.470   7.194  68.163  1.00  0.00    -0.123 C  
HETATM   13  N   UNL     1      -8.740   5.099  67.025  1.00  0.00    -0.105 NA 
HETATM   14  C   UNL     1      -8.194   7.830  66.844  1.00  0.00    -0.116 C  
HETATM   15  N   UNL     1      -8.711   8.013  69.274  1.00  0.00    -0.137 NA 
HETATM   16  H   UNL     1      -8.292   8.939  69.346  1.00  0.00     0.000 HD 
HETATM   17  O   UNL     1      -8.030   9.045  66.729  1.00  0.00    -0.105 OA 
ENDROOT
BRANCH   1  18
HETATM   18  C   UNL     1     -11.108   7.691  69.970  1.00  0.00    -0.191 C  
HETATM   19  O   UNL     1     -11.731   6.509  69.451  1.00  0.00    -0.649 OA 
HETATM   20  H   UNL     1     -12.645   6.634  69.224  1.00  0.00     0.000 HD 
BRANCH  18  21
HETATM   21  C   UNL     1     -11.966   8.178  71.156  1.00  0.00    -0.273 C  
HETATM   22  C   UNL     1     -12.949   7.108  71.637  1.00  0.00    -0.415 C  
HETATM   23  O   UNL     1     -12.687   9.352  70.789  1.00  0.00    -0.500 OA 
HETATM   24  H   UNL     1     -13.215   9.652  71.520  1.00  0.00     0.000 HD 
ENDBRANCH  18  21
ENDBRANCH   1  18
TORSDOF 2
ENDMDL
MODEL      138
REMARK 921   NORMALIZED FREE ENERGY PREDICTED BY IDOCK:   -3.12 KCAL/MOL
REMARK 922        TOTAL FREE ENERGY PREDICTED BY IDOCK:   -3.97 KCAL/MOL
REMARK 923 INTER-LIGAND FREE ENERGY PREDICTED BY IDOCK:   -3.47 KCAL/MOL
REMARK 924 INTRA-LIGAND FREE ENERGY PREDICTED BY IDOCK:   -0.50 KCAL/MOL
REMARK 927      BINDING AFFINITY PREDICTED BY RF-SCORE:    0.00 PKD
ROOT
HETATM    1  C   UNL     1      -9.376   8.412  69.623  1.00  0.00    -0.161 C  
HETATM    2  C   UNL     1     -10.774   7.853  69.216  1.00  0.00    -0.135 C  
HETATM    3  H   UNL     1      -9.732   6.615  75.041  1.00  0.00     0.000 HD 
HETATM    4  C   UNL     1     -10.766   5.729  73.501  1.00  0.00    -0.269 C  
HETATM    5  N   UNL     1     -11.316   6.903  70.196  1.00  0.00    -0.375 NA 
HETATM    6  H1  UNL     1     -11.588   3.908  73.840  1.00  0.00     0.000 HD 
HETATM    7  H2  UNL     1     -10.630   4.541  75.200  1.00  0.00     0.000 HD 
HETATM    8  N   UNL     1     -11.008   4.634  74.258  1.00  0.00    -0.295 NA 
HETATM    9  H   UNL     1     -12.022   6.233  69.894  1.00  0.00     0.000 HD 
HETATM   10  N   UNL     1      -9.994   6.697  74.059  1.00  0.00    -0.286 N  
HETATM   11  C   UNL     1     -10.899   6.887  71.525  1.00  0.00    -0.230 C  
HETATM   12  C   UNL     1     -10.032   7.849  71.941  1.00  0.00    -0.179 C  
HETATM   13  N   UNL     1     -11.248   5.814  72.305  1.00  0.00    -0.275 NA 
HETATM   14  C   UNL     1      -9.560   7.773  73.352  1.00  0.00    -0.290 C  
HETATM   15  N   UNL     1      -9.421   8.760  71.068  1.00  0.00    -0.205 NA 
HETATM   16  H   UNL     1      -9.021   9.631  71.413  1.00  0.00     0.000 HD 
HETATM   17  O   UNL     1      -8.751   8.581  73.811  1.00  0.00    -0.263 OA 
ENDROOT
BRANCH   1  18
HETATM   18  C   UNL     1      -8.180   7.444  69.318  1.00  0.00    -0.131 C  
HETATM   19  O   UNL     1      -8.597   6.130  68.928  1.00  0.00    -0.120 OA 
HETATM   20  H   UNL     1      -7.873   5.543  68.744  1.00  0.00     0.000 HD 
BRANCH  18  21
HETATM   21  C   UNL     1      -7.239   7.972  68.215  1.00  0.00    -0.093 C  
HETATM   22  C   UNL     1      -6.702   9.370  68.533  1.00  0.00    -0.058 C  
HETATM   23  O   UNL     1      -7.920   8.001  66.962  1.00  0.00    -0.105 OA 
HETATM   24  H   UNL     1      -7.340   8.326  66.284  1.00  0.00     0.000 HD 
ENDBRANCH  18  21
ENDBRANCH   1  18
TORSDOF 2
ENDMDL
MODEL      139
REMARK 921   NORMALIZED FREE ENERGY PREDICTED BY IDOCK:   -3.11 KCAL/MOL
REMARK 922        TOTAL FREE ENERGY PREDICTED BY IDOCK:   -3.96 KCAL/MOL
REMARK 923 INTER-LIGAND FREE ENERGY PREDICTED BY IDOCK:   -4.07 KCAL/MOL
REMARK 924 INTRA-LIGAND FREE ENERGY PREDICTED BY IDOCK:    0.11 KCAL/MOL
REMARK 927      BINDING AFFINITY PREDICTED BY RF-SCORE:    0.00 PKD
ROOT
HETATM    1  C   UNL     1     -10.047   6.641  74.193  1.00  0.00    -0.364 C  
HETATM    2  C   UNL     1      -8.672   7.072  73.593  1.00  0.00    -0.144 C  
HETATM    3  H   UNL     1     -12.714   6.479  69.136  1.00  0.00     0.000 HD 
HETATM    4  C   UNL     1     -10.682   6.236  69.335  1.00  0.00    -0.303 C  
HETATM    5  N   UNL     1      -8.605   6.893  72.138  1.00  0.00    -0.117 NA 
HETATM    6  H1  UNL     1      -9.662   5.487  67.753  1.00  0.00     0.000 HD 
HETATM    7  H2  UNL     1     -11.425   5.563  67.514  1.00  0.00     0.000 HD 
HETATM    8  N   UNL     1     -10.596   5.717  68.089  1.00  0.00    -0.225 NA 
HETATM    9  H   UNL     1      -7.691   6.807  71.694  1.00  0.00     0.000 HD 
HETATM   10  N   UNL     1     -11.928   6.543  69.783  1.00  0.00    -0.123 N  
HETATM   11  C   UNL     1      -9.747   6.838  71.341  1.00  0.00    -0.171 C  
HETATM   12  C   UNL     1     -10.954   7.053  71.929  1.00  0.00    -0.233 C  
HETATM   13  N   UNL     1      -9.616   6.408  70.045  1.00  0.00    -0.158 NA 
HETATM   14  C   UNL     1     -12.161   6.931  71.064  1.00  0.00    -0.380 C  
HETATM   15  N   UNL     1     -11.121   7.176  73.315  1.00  0.00    -0.552 NA 
HETATM   16  H   UNL     1     -11.952   7.617  73.707  1.00  0.00     0.000 HD 
HETATM   17  O   UNL     1     -13.299   7.079  71.511  1.00  0.00    -0.366 OA 
ENDROOT
BRANCH   1  18
HETATM   18  C   UNL     1     -10.207   5.095  74.395  1.00  0.00    -0.273 C  
HETATM   19  O   UNL     1     -11.498   4.602  74.014  1.00  0.00    -0.289 OA 
HETATM   20  H   UNL     1     -11.596   3.665  74.136  1.00  0.00     0.000 HD 
BRANCH  18  21
HETATM   21  C   UNL     1      -9.157   4.270  73.623  1.00  0.00    -0.094 C  
HETATM   22  C   UNL     1      -9.789   3.121  72.833  1.00  0.00    -0.193 C  
HETATM   23  O   UNL     1      -8.186   3.744  74.526  1.00  0.00    -0.084 OA 
HETATM   24  H   UNL     1      -7.540   3.237  74.051  1.00  0.00     0.000 HD 
ENDBRANCH  18  21
ENDBRANCH   1  18
TORSDOF 2
ENDMDL
MODEL      140
REMARK 921   NORMALIZED FREE ENERGY PREDICTED BY IDOCK:   -3.03 KCAL/MOL
REMARK 922        TOTAL FREE ENERGY PREDICTED BY IDOCK:   -3.87 KCAL/MOL
REMARK 923 INTER-LIGAND FREE ENERGY PREDICTED BY IDOCK:   -3.45 KCAL/MOL
REMARK 924 INTRA-LIGAND FREE ENERGY PREDICTED BY IDOCK:   -0.42 KCAL/MOL
REMARK 927      BINDING AFFINITY PREDICTED BY RF-SCORE:    0.00 PKD
ROOT
HETATM    1  C   UNL     1      -8.985   8.821  69.195  1.00  0.00    -0.137 C  
HETATM    2  C   UNL     1      -8.606   9.512  70.541  1.00  0.00    -0.184 C  
HETATM    3  H   UNL     1     -10.318   3.815  71.620  1.00  0.00     0.000 HD 
HETATM    4  C   UNL     1     -10.399   5.603  72.633  1.00  0.00    -0.200 C  
HETATM    5  N   UNL     1      -9.071   8.765  71.716  1.00  0.00    -0.283 NA 
HETATM    6  H1  UNL     1     -11.392   5.644  74.399  1.00  0.00     0.000 HD 
HETATM    7  H2  UNL     1     -11.467   4.078  73.555  1.00  0.00     0.000 HD 
HETATM    8  N   UNL     1     -11.153   5.047  73.608  1.00  0.00    -0.313 NA 
HETATM    9  H   UNL     1      -9.192   9.261  72.599  1.00  0.00     0.000 HD 
HETATM   10  N   UNL     1     -10.080   4.806  71.579  1.00  0.00    -0.192 N  
HETATM   11  C   UNL     1      -9.351   7.401  71.668  1.00  0.00    -0.149 C  
HETATM   12  C   UNL     1      -9.092   6.730  70.514  1.00  0.00    -0.156 C  
HETATM   13  N   UNL     1     -10.026   6.837  72.721  1.00  0.00    -0.169 NA 
HETATM   14  C   UNL     1      -9.455   5.286  70.473  1.00  0.00    -0.167 C  
HETATM   15  N   UNL     1      -8.702   7.367  69.328  1.00  0.00    -0.137 NA 
HETATM   16  H   UNL     1      -8.239   6.850  68.581  1.00  0.00     0.000 HD 
HETATM   17  O   UNL     1      -9.287   4.602  69.463  1.00  0.00    -0.114 OA 
ENDROOT
BRANCH   1  18
HETATM   18  C   UNL     1     -10.466   9.062  68.740  1.00  0.00    -0.206 C  
HETATM   19  O   UNL     1     -11.195   9.935  69.612  1.00  0.00    -0.258 OA 
HETATM   20  H   UNL     1     -12.092  10.081  69.337  1.00  0.00     0.000 HD 
BRANCH  18  21
HETATM   21  C   UNL     1     -10.575   9.644  67.315  1.00  0.00    -0.247 C  
HETATM   22  C   UNL     1      -9.693   8.892  66.314  1.00  0.00    -0.345 C  
HETATM   23  O   UNL     1     -10.214  11.023  67.320  1.00  0.00    -0.187 OA 
HETATM   24  H   UNL     1     -10.282  11.381  66.442  1.00  0.00     0.000 HD 
ENDBRANCH  18  21
ENDBRANCH   1  18
TORSDOF 2
ENDMDL
MODEL      141
REMARK 921   NORMALIZED FREE ENERGY PREDICTED BY IDOCK:   -3.02 KCAL/MOL
REMARK 922        TOTAL FREE ENERGY PREDICTED BY IDOCK:   -3.86 KCAL/MOL
REMARK 923 INTER-LIGAND FREE ENERGY PREDICTED BY IDOCK:   -3.43 KCAL/MOL
REMARK 924 INTRA-LIGAND FREE ENERGY PREDICTED BY IDOCK:   -0.43 KCAL/MOL
REMARK 927      BINDING AFFINITY PREDICTED BY RF-SCORE:    0.00 PKD
ROOT
HETATM    1  C   UNL     1      -9.606   8.178  69.086  1.00  0.00    -0.157 C  
HETATM    2  C   UNL     1     -10.803   8.919  69.759  1.00  0.00    -0.200 C  
HETATM    3  H   UNL     1      -9.189   4.193  73.167  1.00  0.00     0.000 HD 
HETATM    4  C   UNL     1     -10.935   5.204  72.768  1.00  0.00    -0.267 C  
HETATM    5  N   UNL     1     -11.442   8.126  70.816  1.00  0.00    -0.299 NA 
HETATM    6  H1  UNL     1     -12.654   4.462  73.542  1.00  0.00     0.000 HD 
HETATM    7  H2  UNL     1     -11.218   3.459  73.861  1.00  0.00     0.000 HD 
HETATM    8  N   UNL     1     -11.654   4.286  73.454  1.00  0.00    -0.195 NA 
HETATM    9  H   UNL     1     -12.404   8.338  71.078  1.00  0.00     0.000 HD 
HETATM   10  N   UNL     1      -9.602   4.969  72.650  1.00  0.00    -0.140 N  
HETATM   11  C   UNL     1     -10.779   7.092  71.475  1.00  0.00    -0.223 C  
HETATM   12  C   UNL     1      -9.466   6.883  71.189  1.00  0.00    -0.166 C  
HETATM   13  N   UNL     1     -11.517   6.235  72.252  1.00  0.00    -0.294 NA 
HETATM   14  C   UNL     1      -8.799   5.735  71.866  1.00  0.00    -0.139 C  
HETATM   15  N   UNL     1      -8.790   7.550  70.159  1.00  0.00    -0.146 NA 
HETATM   16  H   UNL     1      -7.772   7.603  70.146  1.00  0.00     0.000 HD 
HETATM   17  O   UNL     1      -7.622   5.447  71.648  1.00  0.00    -0.098 OA 
ENDROOT
BRANCH   1  18
HETATM   18  C   UNL     1     -10.026   7.118  68.010  1.00  0.00    -0.158 C  
HETATM   19  O   UNL     1     -11.226   7.465  67.307  1.00  0.00    -0.554 OA 
HETATM   20  H   UNL     1     -11.481   6.822  66.656  1.00  0.00     0.000 HD 
BRANCH  18  21
HETATM   21  C   UNL     1      -8.933   6.862  66.952  1.00  0.00    -0.122 C  
HETATM   22  C   UNL     1      -9.200   5.592  66.140  1.00  0.00    -0.169 C  
HETATM   23  O   UNL     1      -7.657   6.762  67.580  1.00  0.00    -0.101 OA 
HETATM   24  H   UNL     1      -6.984   6.605  66.928  1.00  0.00     0.000 HD 
ENDBRANCH  18  21
ENDBRANCH   1  18
TORSDOF 2
ENDMDL
MODEL      142
REMARK 921   NORMALIZED FREE ENERGY PREDICTED BY IDOCK:   -3.02 KCAL/MOL
REMARK 922        TOTAL FREE ENERGY PREDICTED BY IDOCK:   -3.86 KCAL/MOL
REMARK 923 INTER-LIGAND FREE ENERGY PREDICTED BY IDOCK:   -3.40 KCAL/MOL
REMARK 924 INTRA-LIGAND FREE ENERGY PREDICTED BY IDOCK:   -0.46 KCAL/MOL
REMARK 927      BINDING AFFINITY PREDICTED BY RF-SCORE:    0.00 PKD
ROOT
HETATM    1  C   UNL     1     -10.571   5.611  70.569  1.00  0.00    -0.284 C  
HETATM    2  C   UNL     1     -11.656   6.409  69.783  1.00  0.00    -0.327 C  
HETATM    3  H   UNL     1      -7.525   4.286  65.913  1.00  0.00     0.000 HD 
HETATM    4  C   UNL     1      -8.754   5.931  66.012  1.00  0.00    -0.148 C  
HETATM    5  N   UNL     1     -11.244   6.734  68.412  1.00  0.00    -0.543 NA 
HETATM    6  H1  UNL     1      -8.544   7.354  64.585  1.00  0.00     0.000 HD 
HETATM    7  H2  UNL     1      -7.367   6.023  64.467  1.00  0.00     0.000 HD 
HETATM    8  N   UNL     1      -8.160   6.473  64.924  1.00  0.00    -0.128 NA 
HETATM    9  H   UNL     1     -11.692   7.516  67.935  1.00  0.00     0.000 HD 
HETATM   10  N   UNL     1      -8.242   4.757  66.465  1.00  0.00    -0.107 N  
HETATM   11  C   UNL     1     -10.261   6.010  67.740  1.00  0.00    -0.179 C  
HETATM   12  C   UNL     1      -9.742   4.909  68.347  1.00  0.00    -0.151 C  
HETATM   13  N   UNL     1      -9.749   6.531  66.579  1.00  0.00    -0.155 NA 
HETATM   14  C   UNL     1      -8.653   4.189  67.628  1.00  0.00    -0.100 C  
HETATM   15  N   UNL     1     -10.033   4.555  69.671  1.00  0.00    -0.218 NA 
HETATM   16  H   UNL     1      -9.880   3.605  70.007  1.00  0.00     0.000 HD 
HETATM   17  O   UNL     1      -8.100   3.200  68.111  1.00  0.00    -0.072 OA 
ENDROOT
BRANCH   1  18
HETATM   18  C   UNL     1      -9.412   6.496  71.148  1.00  0.00    -0.167 C  
HETATM   19  O   UNL     1      -9.490   7.869  70.746  1.00  0.00    -0.157 OA 
HETATM   20  H   UNL     1      -8.788   8.405  71.096  1.00  0.00     0.000 HD 
BRANCH  18  21
HETATM   21  C   UNL     1      -9.344   6.473  72.689  1.00  0.00    -0.140 C  
HETATM   22  C   UNL     1     -10.570   7.126  73.333  1.00  0.00    -0.424 C  
HETATM   23  O   UNL     1      -8.164   7.137  73.137  1.00  0.00    -0.105 OA 
HETATM   24  H   UNL     1      -8.122   7.123  74.086  1.00  0.00     0.000 HD 
ENDBRANCH  18  21
ENDBRANCH   1  18
TORSDOF 2
ENDMDL
MODEL      143
REMARK 921   NORMALIZED FREE ENERGY PREDICTED BY IDOCK:   -2.92 KCAL/MOL
REMARK 922        TOTAL FREE ENERGY PREDICTED BY IDOCK:   -3.75 KCAL/MOL
REMARK 923 INTER-LIGAND FREE ENERGY PREDICTED BY IDOCK:   -3.33 KCAL/MOL
REMARK 924 INTRA-LIGAND FREE ENERGY PREDICTED BY IDOCK:   -0.43 KCAL/MOL
REMARK 927      BINDING AFFINITY PREDICTED BY RF-SCORE:    0.00 PKD
ROOT
HETATM    1  C   UNL     1      -8.449   7.628  69.513  1.00  0.00    -0.132 C  
HETATM    2  C   UNL     1      -7.379   6.546  69.857  1.00  0.00    -0.086 C  
HETATM    3  H   UNL     1     -12.426   5.449  72.999  1.00  0.00     0.000 HD 
HETATM    4  C   UNL     1     -10.411   5.159  73.285  1.00  0.00    -0.218 C  
HETATM    5  N   UNL     1      -7.715   5.774  71.059  1.00  0.00    -0.099 NA 
HETATM    6  H1  UNL     1      -9.804   4.454  75.086  1.00  0.00     0.000 HD 
HETATM    7  H2  UNL     1     -11.554   4.766  74.976  1.00  0.00     0.000 HD 
HETATM    8  N   UNL     1     -10.623   4.760  74.560  1.00  0.00    -0.358 NA 
HETATM    9  H   UNL     1      -6.966   5.302  71.566  1.00  0.00     0.000 HD 
HETATM   10  N   UNL     1     -11.502   5.567  72.585  1.00  0.00    -0.298 N  
HETATM   11  C   UNL     1      -9.021   5.662  71.531  1.00  0.00    -0.140 C  
HETATM   12  C   UNL     1     -10.023   6.211  70.793  1.00  0.00    -0.189 C  
HETATM   13  N   UNL     1      -9.217   5.154  72.790  1.00  0.00    -0.136 NA 
HETATM   14  C   UNL     1     -11.401   6.126  71.351  1.00  0.00    -0.275 C  
HETATM   15  N   UNL     1      -9.794   7.011  69.666  1.00  0.00    -0.164 NA 
HETATM   16  H   UNL     1     -10.526   7.166  68.973  1.00  0.00     0.000 HD 
HETATM   17  O   UNL     1     -12.369   6.620  70.771  1.00  0.00    -0.352 OA 
ENDROOT
BRANCH   1  18
HETATM   18  C   UNL     1      -8.337   8.940  70.365  1.00  0.00    -0.149 C  
HETATM   19  O   UNL     1      -7.149   9.000  71.164  1.00  0.00    -0.095 OA 
HETATM   20  H   UNL     1      -7.081   9.794  71.680  1.00  0.00     0.000 HD 
BRANCH  18  21
HETATM   21  C   UNL     1      -8.378  10.223  69.509  1.00  0.00    -0.151 C  
HETATM   22  C   UNL     1      -8.084   9.944  68.033  1.00  0.00    -0.108 C  
HETATM   23  O   UNL     1      -7.439  11.174  70.007  1.00  0.00    -0.378 OA 
HETATM   24  H   UNL     1      -7.464  11.964  69.480  1.00  0.00     0.000 HD 
ENDBRANCH  18  21
ENDBRANCH   1  18
TORSDOF 2
ENDMDL
MODEL      144
REMARK 921   NORMALIZED FREE ENERGY PREDICTED BY IDOCK:   -2.91 KCAL/MOL
REMARK 922        TOTAL FREE ENERGY PREDICTED BY IDOCK:   -3.74 KCAL/MOL
REMARK 923 INTER-LIGAND FREE ENERGY PREDICTED BY IDOCK:   -3.28 KCAL/MOL
REMARK 924 INTRA-LIGAND FREE ENERGY PREDICTED BY IDOCK:   -0.46 KCAL/MOL
REMARK 927      BINDING AFFINITY PREDICTED BY RF-SCORE:    0.00 PKD
ROOT
HETATM    1  C   UNL     1      -9.107  10.922  68.102  1.00  0.00    -0.155 C  
HETATM    2  C   UNL     1     -10.663  10.851  68.183  1.00  0.00    -0.214 C  
HETATM    3  H   UNL     1      -8.429   5.275  67.493  1.00  0.00     0.000 HD 
HETATM    4  C   UNL     1     -10.153   6.257  66.953  1.00  0.00    -0.183 C  
HETATM    5  N   UNL     1     -11.199   9.558  67.741  1.00  0.00    -0.454 NA 
HETATM    6  H1  UNL     1     -11.473   5.269  65.776  1.00  0.00     0.000 HD 
HETATM    7  H2  UNL     1      -9.971   4.371  66.101  1.00  0.00     0.000 HD 
HETATM    8  N   UNL     1     -10.556   5.199  66.215  1.00  0.00    -0.302 NA 
HETATM    9  H   UNL     1     -12.167   9.507  67.426  1.00  0.00     0.000 HD 
HETATM   10  N   UNL     1      -8.930   6.162  67.538  1.00  0.00    -0.113 N  
HETATM   11  C   UNL     1     -10.429   8.396  67.737  1.00  0.00    -0.220 C  
HETATM   12  C   UNL     1      -9.172   8.453  68.251  1.00  0.00    -0.134 C  
HETATM   13  N   UNL     1     -10.910   7.299  67.068  1.00  0.00    -0.354 NA 
HETATM   14  C   UNL     1      -8.353   7.211  68.181  1.00  0.00    -0.124 C  
HETATM   15  N   UNL     1      -8.558   9.650  68.644  1.00  0.00    -0.118 NA 
HETATM   16  H   UNL     1      -7.762   9.649  69.280  1.00  0.00     0.000 HD 
HETATM   17  O   UNL     1      -7.193   7.173  68.593  1.00  0.00    -0.088 OA 
ENDROOT
BRANCH   1  18
HETATM   18  C   UNL     1      -8.548  11.204  66.665  1.00  0.00    -0.165 C  
HETATM   19  O   UNL     1      -9.160  12.333  66.028  1.00  0.00    -0.397 OA 
HETATM   20  H   UNL     1      -8.821  12.504  65.156  1.00  0.00     0.000 HD 
BRANCH  18  21
HETATM   21  C   UNL     1      -7.023  11.436  66.642  1.00  0.00    -0.102 C  
HETATM   22  C   UNL     1      -6.281  10.328  65.890  1.00  0.00    -0.105 C  
HETATM   23  O   UNL     1      -6.520  11.524  67.973  1.00  0.00    -0.052 OA 
HETATM   24  H   UNL     1      -5.582  11.666  67.958  1.00  0.00     0.000 HD 
ENDBRANCH  18  21
ENDBRANCH   1  18
TORSDOF 2
ENDMDL
MODEL      145
REMARK 921   NORMALIZED FREE ENERGY PREDICTED BY IDOCK:   -2.91 KCAL/MOL
REMARK 922        TOTAL FREE ENERGY PREDICTED BY IDOCK:   -3.74 KCAL/MOL
REMARK 923 INTER-LIGAND FREE ENERGY PREDICTED BY IDOCK:   -3.26 KCAL/MOL
REMARK 924 INTRA-LIGAND FREE ENERGY PREDICTED BY IDOCK:   -0.48 KCAL/MOL
REMARK 927      BINDING AFFINITY PREDICTED BY RF-SCORE:    0.00 PKD
ROOT
HETATM    1  C   UNL     1     -10.105   7.833  68.761  1.00  0.00    -0.196 C  
HETATM    2  C   UNL     1     -10.749   7.914  67.343  1.00  0.00    -0.208 C  
HETATM    3  H   UNL     1      -9.110   2.207  68.482  1.00  0.00     0.000 HD 
HETATM    4  C   UNL     1      -9.271   3.397  66.812  1.00  0.00    -0.175 C  
HETATM    5  N   UNL     1     -10.492   6.719  66.531  1.00  0.00    -0.491 NA 
HETATM    6  H1  UNL     1      -8.628   2.639  65.047  1.00  0.00     0.000 HD 
HETATM    7  H2  UNL     1      -8.351   1.570  66.444  1.00  0.00     0.000 HD 
HETATM    8  N   UNL     1      -8.697   2.442  66.044  1.00  0.00    -0.119 NA 
HETATM    9  H   UNL     1     -10.552   6.791  65.515  1.00  0.00     0.000 HD 
HETATM   10  N   UNL     1      -9.364   3.135  68.142  1.00  0.00    -0.195 N  
HETATM   11  C   UNL     1     -10.169   5.488  67.100  1.00  0.00    -0.218 C  
HETATM   12  C   UNL     1     -10.189   5.379  68.455  1.00  0.00    -0.163 C  
HETATM   13  N   UNL     1      -9.688   4.499  66.280  1.00  0.00    -0.187 NA 
HETATM   14  C   UNL     1      -9.783   4.069  69.036  1.00  0.00    -0.091 C  
HETATM   15  N   UNL     1     -10.367   6.475  69.309  1.00  0.00    -0.189 NA 
HETATM   16  H   UNL     1     -10.667   6.346  70.275  1.00  0.00     0.000 HD 
HETATM   17  O   UNL     1      -9.740   3.882  70.252  1.00  0.00    -0.193 OA 
ENDROOT
BRANCH   1  18
HETATM   18  C   UNL     1      -8.573   8.163  68.795  1.00  0.00    -0.127 C  
HETATM   19  O   UNL     1      -7.977   8.233  67.494  1.00  0.00    -0.108 OA 
HETATM   20  H   UNL     1      -7.048   8.432  67.514  1.00  0.00     0.000 HD 
BRANCH  18  21
HETATM   21  C   UNL     1      -8.253   9.488  69.517  1.00  0.00    -0.134 C  
HETATM   22  C   UNL     1      -7.138   9.327  70.555  1.00  0.00    -0.100 C  
HETATM   23  O   UNL     1      -9.424   9.993  70.156  1.00  0.00    -0.365 OA 
HETATM   24  H   UNL     1      -9.227  10.808  70.600  1.00  0.00     0.000 HD 
ENDBRANCH  18  21
ENDBRANCH   1  18
TORSDOF 2
ENDMDL
MODEL      146
REMARK 921   NORMALIZED FREE ENERGY PREDICTED BY IDOCK:   -2.85 KCAL/MOL
REMARK 922        TOTAL FREE ENERGY PREDICTED BY IDOCK:   -3.68 KCAL/MOL
REMARK 923 INTER-LIGAND FREE ENERGY PREDICTED BY IDOCK:   -3.24 KCAL/MOL
REMARK 924 INTRA-LIGAND FREE ENERGY PREDICTED BY IDOCK:   -0.44 KCAL/MOL
REMARK 927      BINDING AFFINITY PREDICTED BY RF-SCORE:    0.00 PKD
ROOT
HETATM    1  C   UNL     1      -7.245  18.930  66.327  1.00  0.00    -0.249 C  
HETATM    2  C   UNL     1      -7.127  17.609  65.506  1.00  0.00     0.340 C  
HETATM    3  H   UNL     1     -12.240  17.522  68.732  1.00  0.00     0.000 HD 
HETATM    4  C   UNL     1     -10.897  16.124  68.047  1.00  0.00    -0.333 C  
HETATM    5  N   UNL     1      -8.057  16.569  65.963  1.00  0.00    -0.289 NA 
HETATM    6  H1  UNL     1     -11.153  14.201  68.634  1.00  0.00     0.000 HD 
HETATM    7  H2  UNL     1     -12.306  15.347  69.362  1.00  0.00     0.000 HD 
HETATM    8  N   UNL     1     -11.516  15.147  68.748  1.00  0.00    -0.301 NA 
HETATM    9  H   UNL     1      -7.846  15.594  65.755  1.00  0.00     0.000 HD 
HETATM   10  N   UNL     1     -11.381  17.384  68.200  1.00  0.00     0.140 N  
HETATM   11  C   UNL     1      -9.219  16.869  66.672  1.00  0.00    -0.256 C  
HETATM   12  C   UNL     1      -9.541  18.177  66.857  1.00  0.00    -0.299 C  
HETATM   13  N   UNL     1      -9.889  15.843  67.288  1.00  0.00    -0.232 NA 
HETATM   14  C   UNL     1     -10.757  18.468  67.667  1.00  0.00    -0.364 C  
HETATM   15  N   UNL     1      -8.690  19.234  66.507  1.00  0.00    -0.332 NA 
HETATM   16  H   UNL     1      -9.050  20.179  66.379  1.00  0.00     0.000 HD 
HETATM   17  O   UNL     1     -11.114  19.620  67.915  1.00  0.00    -0.173 OA 
ENDROOT
BRANCH   1  18
HETATM   18  C   UNL     1      -6.504  18.902  67.708  1.00  0.00    -0.211 C  
HETATM   19  O   UNL     1      -5.262  18.186  67.673  1.00  0.00    -0.140 OA 
HETATM   20  H   UNL     1      -4.813  18.169  68.510  1.00  0.00     0.000 HD 
BRANCH  18  21
HETATM   21  C   UNL     1      -6.206  20.309  68.266  1.00  0.00    -0.290 C  
HETATM   22  C   UNL     1      -5.590  20.257  69.667  1.00  0.00    -0.336 C  
HETATM   23  O   UNL     1      -7.402  21.084  68.304  1.00  0.00     0.089 OA 
HETATM   24  H   UNL     1      -7.219  21.950  68.648  1.00  0.00     0.000 HD 
ENDBRANCH  18  21
ENDBRANCH   1  18
TORSDOF 2
ENDMDL
MODEL      147
REMARK 921   NORMALIZED FREE ENERGY PREDICTED BY IDOCK:   -2.81 KCAL/MOL
REMARK 922        TOTAL FREE ENERGY PREDICTED BY IDOCK:   -3.62 KCAL/MOL
REMARK 923 INTER-LIGAND FREE ENERGY PREDICTED BY IDOCK:   -3.36 KCAL/MOL
REMARK 924 INTRA-LIGAND FREE ENERGY PREDICTED BY IDOCK:   -0.27 KCAL/MOL
REMARK 927      BINDING AFFINITY PREDICTED BY RF-SCORE:    0.00 PKD
ROOT
HETATM    1  C   UNL     1      -9.326  10.480  66.711  1.00  0.00    -0.157 C  
HETATM    2  C   UNL     1     -10.722  11.005  67.168  1.00  0.00    -0.265 C  
HETATM    3  H   UNL     1      -8.775   6.812  71.064  1.00  0.00     0.000 HD 
HETATM    4  C   UNL     1     -10.600   7.455  70.370  1.00  0.00    -0.228 C  
HETATM    5  N   UNL     1     -11.350  10.147  68.180  1.00  0.00    -0.536 NA 
HETATM    6  H1  UNL     1     -12.248   6.429  70.955  1.00  0.00     0.000 HD 
HETATM    7  H2  UNL     1     -10.712   5.732  71.527  1.00  0.00     0.000 HD 
HETATM    8  N   UNL     1     -11.230   6.444  71.012  1.00  0.00    -0.298 NA 
HETATM    9  H   UNL     1     -12.362  10.182  68.296  1.00  0.00     0.000 HD 
HETATM   10  N   UNL     1      -9.244   7.474  70.446  1.00  0.00    -0.157 N  
HETATM   11  C   UNL     1     -10.610   9.286  68.988  1.00  0.00    -0.205 C  
HETATM   12  C   UNL     1      -9.254   9.319  68.894  1.00  0.00    -0.143 C  
HETATM   13  N   UNL     1     -11.282   8.335  69.713  1.00  0.00    -0.053 NA 
HETATM   14  C   UNL     1      -8.492   8.348  69.727  1.00  0.00    -0.127 C  
HETATM   15  N   UNL     1      -8.571  10.063  67.922  1.00  0.00    -0.121 NA 
HETATM   16  H   UNL     1      -7.589  10.308  68.041  1.00  0.00     0.000 HD 
HETATM   17  O   UNL     1      -7.263   8.281  69.688  1.00  0.00    -0.058 OA 
ENDROOT
BRANCH   1  18
HETATM   18  C   UNL     1      -9.386   9.318  65.660  1.00  0.00    -0.244 C  
HETATM   19  O   UNL     1      -9.599   9.774  64.318  1.00  0.00    -0.407 OA 
HETATM   20  H   UNL     1      -9.635   9.069  63.682  1.00  0.00     0.000 HD 
BRANCH  18  21
HETATM   21  C   UNL     1      -8.115   8.443  65.651  1.00  0.00    -0.125 C  
HETATM   22  C   UNL     1      -7.406   8.468  64.294  1.00  0.00    -0.102 C  
HETATM   23  O   UNL     1      -8.444   7.097  65.988  1.00  0.00    -0.133 OA 
HETATM   24  H   UNL     1      -7.662   6.559  65.982  1.00  0.00     0.000 HD 
ENDBRANCH  18  21
ENDBRANCH   1  18
TORSDOF 2
ENDMDL
MODEL      148
REMARK 921   NORMALIZED FREE ENERGY PREDICTED BY IDOCK:   -2.80 KCAL/MOL
REMARK 922        TOTAL FREE ENERGY PREDICTED BY IDOCK:   -3.62 KCAL/MOL
REMARK 923 INTER-LIGAND FREE ENERGY PREDICTED BY IDOCK:   -3.38 KCAL/MOL
REMARK 924 INTRA-LIGAND FREE ENERGY PREDICTED BY IDOCK:   -0.24 KCAL/MOL
REMARK 927      BINDING AFFINITY PREDICTED BY RF-SCORE:    0.00 PKD
ROOT
HETATM    1  C   UNL     1      -9.664  10.171  66.342  1.00  0.00    -0.205 C  
HETATM    2  C   UNL     1      -9.398   9.431  64.995  1.00  0.00    -0.191 C  
HETATM    3  H   UNL     1      -9.593   5.402  69.498  1.00  0.00     0.000 HD 
HETATM    4  C   UNL     1      -8.617   5.562  67.696  1.00  0.00    -0.108 C  
HETATM    5  N   UNL     1      -8.932   8.052  65.184  1.00  0.00    -0.385 NA 
HETATM    6  H1  UNL     1      -7.239   4.148  67.239  1.00  0.00     0.000 HD 
HETATM    7  H2  UNL     1      -7.952   3.975  68.861  1.00  0.00     0.000 HD 
HETATM    8  N   UNL     1      -7.877   4.464  67.969  1.00  0.00    -0.080 NA 
HETATM    9  H   UNL     1      -8.411   7.600  64.433  1.00  0.00     0.000 HD 
HETATM   10  N   UNL     1      -9.466   5.983  68.670  1.00  0.00    -0.123 N  
HETATM   11  C   UNL     1      -9.176   7.339  66.356  1.00  0.00    -0.159 C  
HETATM   12  C   UNL     1      -9.956   7.914  67.311  1.00  0.00    -0.215 C  
HETATM   13  N   UNL     1      -8.490   6.169  66.562  1.00  0.00    -0.116 NA 
HETATM   14  C   UNL     1     -10.152   7.152  68.575  1.00  0.00    -0.168 C  
HETATM   15  N   UNL     1     -10.397   9.242  67.242  1.00  0.00    -0.250 NA 
HETATM   16  H   UNL     1     -11.195   9.560  67.791  1.00  0.00     0.000 HD 
HETATM   17  O   UNL     1     -10.816   7.603  69.510  1.00  0.00    -0.234 OA 
ENDROOT
BRANCH   1  18
HETATM   18  C   UNL     1      -8.374  10.724  67.040  1.00  0.00    -0.129 C  
HETATM   19  O   UNL     1      -7.431  11.295  66.124  1.00  0.00    -0.326 OA 
HETATM   20  H   UNL     1      -6.649  11.629  66.547  1.00  0.00     0.000 HD 
BRANCH  18  21
HETATM   21  C   UNL     1      -8.674  11.792  68.112  1.00  0.00    -0.168 C  
HETATM   22  C   UNL     1      -7.868  13.075  67.893  1.00  0.00    -0.149 C  
HETATM   23  O   UNL     1      -8.395  11.275  69.411  1.00  0.00    -0.376 OA 
HETATM   24  H   UNL     1      -8.580  11.932  70.071  1.00  0.00     0.000 HD 
ENDBRANCH  18  21
ENDBRANCH   1  18
TORSDOF 2
ENDMDL
MODEL      149
REMARK 921   NORMALIZED FREE ENERGY PREDICTED BY IDOCK:   -2.78 KCAL/MOL
REMARK 922        TOTAL FREE ENERGY PREDICTED BY IDOCK:   -3.59 KCAL/MOL
REMARK 923 INTER-LIGAND FREE ENERGY PREDICTED BY IDOCK:   -3.16 KCAL/MOL
REMARK 924 INTRA-LIGAND FREE ENERGY PREDICTED BY IDOCK:   -0.43 KCAL/MOL
REMARK 927      BINDING AFFINITY PREDICTED BY RF-SCORE:    0.00 PKD
ROOT
HETATM    1  C   UNL     1     -10.424   5.129  72.756  1.00  0.00    -0.214 C  
HETATM    2  C   UNL     1     -10.509   6.243  73.845  1.00  0.00    -0.280 C  
HETATM    3  H   UNL     1      -9.026   8.729  68.537  1.00  0.00     0.000 HD 
HETATM    4  C   UNL     1      -8.645   9.128  70.518  1.00  0.00    -0.219 C  
HETATM    5  N   UNL     1      -9.896   7.506  73.417  1.00  0.00    -0.286 NA 
HETATM    6  H1  UNL     1      -7.353  10.629  70.947  1.00  0.00     0.000 HD 
HETATM    7  H2  UNL     1      -7.536  10.299  69.207  1.00  0.00     0.000 HD 
HETATM    8  N   UNL     1      -7.769  10.102  70.180  1.00  0.00    -0.161 NA 
HETATM    9  H   UNL     1      -9.586   8.168  74.128  1.00  0.00     0.000 HD 
HETATM   10  N   UNL     1      -9.199   8.426  69.495  1.00  0.00    -0.153 N  
HETATM   11  C   UNL     1      -9.722   7.831  72.074  1.00  0.00    -0.173 C  
HETATM   12  C   UNL     1     -10.228   6.987  71.135  1.00  0.00    -0.195 C  
HETATM   13  N   UNL     1      -8.911   8.892  71.760  1.00  0.00    -0.358 NA 
HETATM   14  C   UNL     1      -9.977   7.332  69.708  1.00  0.00    -0.183 C  
HETATM   15  N   UNL     1     -10.778   5.737  71.446  1.00  0.00    -0.252 NA 
HETATM   16  H   UNL     1     -11.401   5.259  70.794  1.00  0.00     0.000 HD 
HETATM   17  O   UNL     1     -10.369   6.614  68.787  1.00  0.00    -0.170 OA 
ENDROOT
BRANCH   1  18
HETATM   18  C   UNL     1      -9.035   4.406  72.680  1.00  0.00    -0.114 C  
HETATM   19  O   UNL     1      -8.448   4.164  73.965  1.00  0.00    -0.094 OA 
HETATM   20  H   UNL     1      -7.606   3.726  73.919  1.00  0.00     0.000 HD 
BRANCH  18  21
HETATM   21  C   UNL     1      -9.096   3.052  71.942  1.00  0.00    -0.097 C  
HETATM   22  C   UNL     1      -7.704   2.463  71.699  1.00  0.00    -0.041 C  
HETATM   23  O   UNL     1      -9.769   3.203  70.695  1.00  0.00    -0.167 OA 
HETATM   24  H   UNL     1      -9.806   2.370  70.241  1.00  0.00     0.000 HD 
ENDBRANCH  18  21
ENDBRANCH   1  18
TORSDOF 2
ENDMDL
MODEL      150
REMARK 921   NORMALIZED FREE ENERGY PREDICTED BY IDOCK:   -2.74 KCAL/MOL
REMARK 922        TOTAL FREE ENERGY PREDICTED BY IDOCK:   -3.54 KCAL/MOL
REMARK 923 INTER-LIGAND FREE ENERGY PREDICTED BY IDOCK:   -3.06 KCAL/MOL
REMARK 924 INTRA-LIGAND FREE ENERGY PREDICTED BY IDOCK:   -0.49 KCAL/MOL
REMARK 927      BINDING AFFINITY PREDICTED BY RF-SCORE:    0.00 PKD
ROOT
HETATM    1  C   UNL     1      -9.101   9.500  67.813  1.00  0.00    -0.125 C  
HETATM    2  C   UNL     1     -10.595   9.429  68.257  1.00  0.00    -0.210 C  
HETATM    3  H   UNL     1      -7.636   4.605  70.384  1.00  0.00     0.000 HD 
HETATM    4  C   UNL     1      -9.556   5.014  69.774  1.00  0.00    -0.170 C  
HETATM    5  N   UNL     1     -10.980   8.104  68.756  1.00  0.00    -0.419 NA 
HETATM    6  H1  UNL     1     -10.868   3.472  69.687  1.00  0.00     0.000 HD 
HETATM    7  H2  UNL     1      -9.210   2.996  70.128  1.00  0.00     0.000 HD 
HETATM    8  N   UNL     1      -9.895   3.709  69.875  1.00  0.00    -0.081 NA 
HETATM    9  H   UNL     1     -11.965   7.840  68.745  1.00  0.00     0.000 HD 
HETATM   10  N   UNL     1      -8.259   5.329  70.026  1.00  0.00    -0.083 N  
HETATM   11  C   UNL     1     -10.045   7.192  69.243  1.00  0.00    -0.176 C  
HETATM   12  C   UNL     1      -8.749   7.590  69.345  1.00  0.00    -0.137 C  
HETATM   13  N   UNL     1     -10.443   5.894  69.439  1.00  0.00    -0.244 NA 
HETATM   14  C   UNL     1      -7.763   6.577  69.816  1.00  0.00    -0.113 C  
HETATM   15  N   UNL     1      -8.281   8.812  68.845  1.00  0.00    -0.117 NA 
HETATM   16  H   UNL     1      -7.406   9.216  69.177  1.00  0.00     0.000 HD 
HETATM   17  O   UNL     1      -6.563   6.833  69.912  1.00  0.00    -0.045 OA 
ENDROOT
BRANCH   1  18
HETATM   18  C   UNL     1      -8.823   8.905  66.389  1.00  0.00    -0.152 C  
HETATM   19  O   UNL     1      -9.937   8.188  65.843  1.00  0.00    -0.435 OA 
HETATM   20  H   UNL     1      -9.768   7.827  64.981  1.00  0.00     0.000 HD 
BRANCH  18  21
HETATM   21  C   UNL     1      -8.414   9.973  65.354  1.00  0.00    -0.151 C  
HETATM   22  C   UNL     1      -7.017   9.719  64.781  1.00  0.00    -0.122 C  
HETATM   23  O   UNL     1      -8.453  11.270  65.947  1.00  0.00    -0.279 OA 
HETATM   24  H   UNL     1      -8.202  11.927  65.310  1.00  0.00     0.000 HD 
ENDBRANCH  18  21
ENDBRANCH   1  18
TORSDOF 2
ENDMDL
MODEL      151
REMARK 921   NORMALIZED FREE ENERGY PREDICTED BY IDOCK:   -2.64 KCAL/MOL
REMARK 922        TOTAL FREE ENERGY PREDICTED BY IDOCK:   -3.43 KCAL/MOL
REMARK 923 INTER-LIGAND FREE ENERGY PREDICTED BY IDOCK:   -3.42 KCAL/MOL
REMARK 924 INTRA-LIGAND FREE ENERGY PREDICTED BY IDOCK:   -0.01 KCAL/MOL
REMARK 927      BINDING AFFINITY PREDICTED BY RF-SCORE:    0.00 PKD
ROOT
HETATM    1  C   UNL     1     -10.143   7.883  69.407  1.00  0.00    -0.196 C  
HETATM    2  C   UNL     1     -10.120   9.139  70.332  1.00  0.00    -0.218 C  
HETATM    3  H   UNL     1      -6.300   4.980  72.491  1.00  0.00     0.000 HD 
HETATM    4  C   UNL     1      -7.483   6.460  73.289  1.00  0.00    -0.090 C  
HETATM    5  N   UNL     1      -9.478   8.882  71.627  1.00  0.00    -0.289 NA 
HETATM    6  H1  UNL     1      -7.600   6.591  75.308  1.00  0.00     0.000 HD 
HETATM    7  H2  UNL     1      -6.632   5.217  74.720  1.00  0.00     0.000 HD 
HETATM    8  N   UNL     1      -7.206   6.041  74.545  1.00  0.00    -0.090 NA 
HETATM    9  H   UNL     1      -9.702   9.486  72.416  1.00  0.00     0.000 HD 
HETATM   10  N   UNL     1      -6.959   5.728  72.272  1.00  0.00    -0.080 N  
HETATM   11  C   UNL     1      -8.573   7.838  71.814  1.00  0.00    -0.116 C  
HETATM   12  C   UNL     1      -8.207   7.101  70.732  1.00  0.00    -0.120 C  
HETATM   13  N   UNL     1      -8.225   7.501  73.097  1.00  0.00    -0.114 NA 
HETATM   14  C   UNL     1      -7.283   5.957  70.973  1.00  0.00    -0.074 C  
HETATM   15  N   UNL     1      -8.806   7.237  69.473  1.00  0.00    -0.137 NA 
HETATM   16  H   UNL     1      -8.339   6.904  68.630  1.00  0.00     0.000 HD 
HETATM   17  O   UNL     1      -6.918   5.213  70.062  1.00  0.00    -0.053 OA 
ENDROOT
BRANCH   1  18
HETATM   18  C   UNL     1     -11.278   6.855  69.743  1.00  0.00    -0.267 C  
HETATM   19  O   UNL     1     -10.812   5.503  69.834  1.00  0.00    -0.326 OA 
HETATM   20  H   UNL     1     -11.500   4.879  70.037  1.00  0.00     0.000 HD 
BRANCH  18  21
HETATM   21  C   UNL     1     -12.017   7.175  71.058  1.00  0.00    -0.347 C  
HETATM   22  C   UNL     1     -11.882   6.048  72.086  1.00  0.00    -0.304 C  
HETATM   23  O   UNL     1     -13.398   7.416  70.799  1.00  0.00    -0.600 OA 
HETATM   24  H   UNL     1     -13.853   7.612  71.609  1.00  0.00     0.000 HD 
ENDBRANCH  18  21
ENDBRANCH   1  18
TORSDOF 2
ENDMDL
MODEL      152
REMARK 921   NORMALIZED FREE ENERGY PREDICTED BY IDOCK:   -2.44 KCAL/MOL
REMARK 922        TOTAL FREE ENERGY PREDICTED BY IDOCK:   -3.22 KCAL/MOL
REMARK 923 INTER-LIGAND FREE ENERGY PREDICTED BY IDOCK:   -2.78 KCAL/MOL
REMARK 924 INTRA-LIGAND FREE ENERGY PREDICTED BY IDOCK:   -0.44 KCAL/MOL
REMARK 927      BINDING AFFINITY PREDICTED BY RF-SCORE:    0.00 PKD
ROOT
HETATM    1  C   UNL     1     -10.404  18.043  68.597  1.00  0.00    -0.319 C  
HETATM    2  C   UNL     1      -9.526  18.440  69.823  1.00  0.00     0.861 C  
HETATM    3  H   UNL     1      -7.168  20.839  64.800  1.00  0.00     0.000 HD 
HETATM    4  C   UNL     1      -6.440  20.152  66.595  1.00  0.00    -0.204 C  
HETATM    5  N   UNL     1      -8.215  18.974  69.436  1.00  0.00     0.060 NA 
HETATM    6  H1  UNL     1      -4.429  20.078  66.833  1.00  0.00     0.000 HD 
HETATM    7  H2  UNL     1      -4.954  20.590  65.211  1.00  0.00     0.000 HD 
HETATM    8  N   UNL     1      -5.166  20.290  66.162  1.00  0.00    -0.161 NA 
HETATM    9  H   UNL     1      -7.450  18.940  70.110  1.00  0.00     0.000 HD 
HETATM   10  N   UNL     1      -7.422  20.434  65.700  1.00  0.00    -0.158 N  
HETATM   11  C   UNL     1      -7.978  19.525  68.178  1.00  0.00    -0.318 C  
HETATM   12  C   UNL     1      -9.027  19.655  67.323  1.00  0.00    -0.318 C  
HETATM   13  N   UNL     1      -6.679  19.755  67.802  1.00  0.00    -0.233 NA 
HETATM   14  C   UNL     1      -8.733  20.195  65.966  1.00  0.00    -0.127 C  
HETATM   15  N   UNL     1     -10.298  19.126  67.583  1.00  0.00    -0.403 NA 
HETATM   16  H   UNL     1     -11.123  19.472  67.094  1.00  0.00     0.000 HD 
HETATM   17  O   UNL     1      -9.612  20.321  65.112  1.00  0.00     0.133 OA 
ENDROOT
BRANCH   1  18
HETATM   18  C   UNL     1     -10.045  16.652  67.968  1.00  0.00    -0.262 C  
HETATM   19  O   UNL     1     -10.578  15.542  68.701  1.00  0.00    -0.231 OA 
HETATM   20  H   UNL     1     -10.360  14.699  68.321  1.00  0.00     0.000 HD 
BRANCH  18  21
HETATM   21  C   UNL     1     -10.519  16.506  66.507  1.00  0.00    -0.270 C  
HETATM   22  C   UNL     1     -11.085  15.113  66.219  1.00  0.00    -0.309 C  
HETATM   23  O   UNL     1      -9.440  16.772  65.614  1.00  0.00    -0.523 OA 
HETATM   24  H   UNL     1      -9.732  16.682  64.714  1.00  0.00     0.000 HD 
ENDBRANCH  18  21
ENDBRANCH   1  18
TORSDOF 2
ENDMDL
MODEL      153
REMARK 921   NORMALIZED FREE ENERGY PREDICTED BY IDOCK:   -2.44 KCAL/MOL
REMARK 922        TOTAL FREE ENERGY PREDICTED BY IDOCK:   -3.21 KCAL/MOL
REMARK 923 INTER-LIGAND FREE ENERGY PREDICTED BY IDOCK:   -2.74 KCAL/MOL
REMARK 924 INTRA-LIGAND FREE ENERGY PREDICTED BY IDOCK:   -0.47 KCAL/MOL
REMARK 927      BINDING AFFINITY PREDICTED BY RF-SCORE:    0.00 PKD
ROOT
HETATM    1  C   UNL     1      -7.550   6.739  67.978  1.00  0.00    -0.107 C  
HETATM    2  C   UNL     1      -6.717   8.058  67.941  1.00  0.00    -0.068 C  
HETATM    3  H   UNL     1     -11.949   9.067  70.797  1.00  0.00     0.000 HD 
HETATM    4  C   UNL     1     -10.661  10.169  69.633  1.00  0.00    -0.257 C  
HETATM    5  N   UNL     1      -7.512   9.245  68.276  1.00  0.00    -0.079 NA 
HETATM    6  H1  UNL     1     -11.221  12.048  69.121  1.00  0.00     0.000 HD 
HETATM    7  H2  UNL     1     -12.448  11.145  70.043  1.00  0.00     0.000 HD 
HETATM    8  N   UNL     1     -11.530  11.204  69.604  1.00  0.00    -0.282 NA 
HETATM    9  H   UNL     1      -7.191  10.159  67.958  1.00  0.00     0.000 HD 
HETATM   10  N   UNL     1     -11.072   9.045  70.276  1.00  0.00    -0.245 N  
HETATM   11  C   UNL     1      -8.693   9.166  69.012  1.00  0.00    -0.135 C  
HETATM   12  C   UNL     1      -9.060   7.956  69.514  1.00  0.00    -0.149 C  
HETATM   13  N   UNL     1      -9.508  10.268  69.055  1.00  0.00    -0.189 NA 
HETATM   14  C   UNL     1     -10.354   7.892  70.249  1.00  0.00    -0.212 C  
HETATM   15  N   UNL     1      -8.395   6.763  69.202  1.00  0.00    -0.124 NA 
HETATM   16  H   UNL     1      -8.489   5.938  69.793  1.00  0.00     0.000 HD 
HETATM   17  O   UNL     1     -10.786   6.836  70.713  1.00  0.00    -0.232 OA 
ENDROOT
BRANCH   1  18
HETATM   18  C   UNL     1      -8.423   6.491  66.700  1.00  0.00    -0.116 C  
HETATM   19  O   UNL     1      -7.721   6.734  65.475  1.00  0.00    -0.089 OA 
HETATM   20  H   UNL     1      -8.250   6.584  64.700  1.00  0.00     0.000 HD 
BRANCH  18  21
HETATM   21  C   UNL     1      -8.994   5.060  66.624  1.00  0.00    -0.114 C  
HETATM   22  C   UNL     1     -10.496   5.020  66.918  1.00  0.00    -0.243 C  
HETATM   23  O   UNL     1      -8.310   4.210  67.542  1.00  0.00    -0.098 OA 
HETATM   24  H   UNL     1      -8.662   3.329  67.495  1.00  0.00     0.000 HD 
ENDBRANCH  18  21
ENDBRANCH   1  18
TORSDOF 2
ENDMDL
MODEL      154
REMARK 921   NORMALIZED FREE ENERGY PREDICTED BY IDOCK:   -2.42 KCAL/MOL
REMARK 922        TOTAL FREE ENERGY PREDICTED BY IDOCK:   -3.19 KCAL/MOL
REMARK 923 INTER-LIGAND FREE ENERGY PREDICTED BY IDOCK:   -2.73 KCAL/MOL
REMARK 924 INTRA-LIGAND FREE ENERGY PREDICTED BY IDOCK:   -0.46 KCAL/MOL
REMARK 927      BINDING AFFINITY PREDICTED BY RF-SCORE:    0.00 PKD
ROOT
HETATM    1  C   UNL     1      -9.717   9.232  68.890  1.00  0.00    -0.161 C  
HETATM    2  C   UNL     1     -10.848  10.177  68.382  1.00  0.00    -0.242 C  
HETATM    3  H   UNL     1      -5.467  12.539  66.963  1.00  0.00     0.000 HD 
HETATM    4  C   UNL     1      -7.331  13.273  67.426  1.00  0.00    -0.114 C  
HETATM    5  N   UNL     1     -10.356  11.511  68.017  1.00  0.00    -0.184 NA 
HETATM    6  H1  UNL     1      -7.534  15.280  67.620  1.00  0.00     0.000 HD 
HETATM    7  H2  UNL     1      -5.864  14.741  67.319  1.00  0.00     0.000 HD 
HETATM    8  N   UNL     1      -6.854  14.539  67.455  1.00  0.00    -0.260 NA 
HETATM    9  H   UNL     1     -11.011  12.292  68.008  1.00  0.00     0.000 HD 
HETATM   10  N   UNL     1      -6.425  12.285  67.205  1.00  0.00    -0.156 N  
HETATM   11  C   UNL     1      -9.024  11.746  67.683  1.00  0.00    -0.169 C  
HETATM   12  C   UNL     1      -8.182  10.682  67.602  1.00  0.00    -0.107 C  
HETATM   13  N   UNL     1      -8.589  13.046  67.615  1.00  0.00    -0.177 NA 
HETATM   14  C   UNL     1      -6.752  10.970  67.298  1.00  0.00    -0.086 C  
HETATM   15  N   UNL     1      -8.547   9.384  67.984  1.00  0.00    -0.120 NA 
HETATM   16  H   UNL     1      -8.028   8.572  67.653  1.00  0.00     0.000 HD 
HETATM   17  O   UNL     1      -5.908  10.075  67.234  1.00  0.00    -0.049 OA 
ENDROOT
BRANCH   1  18
HETATM   18  C   UNL     1      -9.301   9.466  70.384  1.00  0.00    -0.268 C  
HETATM   19  O   UNL     1     -10.402   9.815  71.232  1.00  0.00    -0.254 OA 
HETATM   20  H   UNL     1     -10.151   9.957  72.137  1.00  0.00     0.000 HD 
BRANCH  18  21
HETATM   21  C   UNL     1      -8.604   8.245  71.018  1.00  0.00    -0.144 C  
HETATM   22  C   UNL     1      -7.202   8.583  71.533  1.00  0.00    -0.104 C  
HETATM   23  O   UNL     1      -8.516   7.183  70.070  1.00  0.00    -0.136 OA 
HETATM   24  H   UNL     1      -8.086   6.432  70.461  1.00  0.00     0.000 HD 
ENDBRANCH  18  21
ENDBRANCH   1  18
TORSDOF 2
ENDMDL
MODEL      155
REMARK 921   NORMALIZED FREE ENERGY PREDICTED BY IDOCK:   -2.42 KCAL/MOL
REMARK 922        TOTAL FREE ENERGY PREDICTED BY IDOCK:   -3.19 KCAL/MOL
REMARK 923 INTER-LIGAND FREE ENERGY PREDICTED BY IDOCK:   -2.73 KCAL/MOL
REMARK 924 INTRA-LIGAND FREE ENERGY PREDICTED BY IDOCK:   -0.46 KCAL/MOL
REMARK 927      BINDING AFFINITY PREDICTED BY RF-SCORE:    0.00 PKD
ROOT
HETATM    1  C   UNL     1      -9.773   7.319  68.405  1.00  0.00    -0.148 C  
HETATM    2  C   UNL     1      -9.007   8.000  69.581  1.00  0.00    -0.145 C  
HETATM    3  H   UNL     1      -7.705  10.854  64.412  1.00  0.00     0.000 HD 
HETATM    4  C   UNL     1      -6.727  10.472  66.180  1.00  0.00    -0.127 C  
HETATM    5  N   UNL     1      -7.938   8.895  69.122  1.00  0.00    -0.103 NA 
HETATM    6  H1  UNL     1      -4.781  11.019  66.321  1.00  0.00     0.000 HD 
HETATM    7  H2  UNL     1      -5.505  11.301  64.718  1.00  0.00     0.000 HD 
HETATM    8  N   UNL     1      -5.575  10.978  65.683  1.00  0.00    -0.121 NA 
HETATM    9  H   UNL     1      -7.173   9.115  69.759  1.00  0.00     0.000 HD 
HETATM   10  N   UNL     1      -7.785  10.417  65.330  1.00  0.00    -0.146 N  
HETATM   11  C   UNL     1      -7.933   9.455  67.846  1.00  0.00    -0.092 C  
HETATM   12  C   UNL     1      -9.007   9.236  67.041  1.00  0.00    -0.126 C  
HETATM   13  N   UNL     1      -6.783  10.058  67.403  1.00  0.00    -0.072 NA 
HETATM   14  C   UNL     1      -8.949   9.799  65.663  1.00  0.00    -0.163 C  
HETATM   15  N   UNL     1     -10.044   8.353  67.371  1.00  0.00    -0.214 NA 
HETATM   16  H   UNL     1     -10.955   8.418  66.917  1.00  0.00     0.000 HD 
HETATM   17  O   UNL     1      -9.859   9.627  64.852  1.00  0.00    -0.232 OA 
ENDROOT
BRANCH   1  18
HETATM   18  C   UNL     1      -9.034   6.085  67.781  1.00  0.00    -0.111 C  
HETATM   19  O   UNL     1      -8.398   5.250  68.756  1.00  0.00    -0.092 OA 
HETATM   20  H   UNL     1      -7.950   4.502  68.378  1.00  0.00     0.000 HD 
BRANCH  18  21
HETATM   21  C   UNL     1      -9.962   5.184  66.940  1.00  0.00    -0.201 C  
HETATM   22  C   UNL     1      -9.458   5.014  65.504  1.00  0.00    -0.129 C  
HETATM   23  O   UNL     1     -11.281   5.723  66.918  1.00  0.00    -0.510 OA 
HETATM   24  H   UNL     1     -11.852   5.168  66.401  1.00  0.00     0.000 HD 
ENDBRANCH  18  21
ENDBRANCH   1  18
TORSDOF 2
ENDMDL
MODEL      156
REMARK 921   NORMALIZED FREE ENERGY PREDICTED BY IDOCK:   -2.41 KCAL/MOL
REMARK 922        TOTAL FREE ENERGY PREDICTED BY IDOCK:   -3.17 KCAL/MOL
REMARK 923 INTER-LIGAND FREE ENERGY PREDICTED BY IDOCK:   -3.21 KCAL/MOL
REMARK 924 INTRA-LIGAND FREE ENERGY PREDICTED BY IDOCK:    0.03 KCAL/MOL
REMARK 927      BINDING AFFINITY PREDICTED BY RF-SCORE:    0.00 PKD
ROOT
HETATM    1  C   UNL     1      -9.511  10.389  67.578  1.00  0.00    -0.149 C  
HETATM    2  C   UNL     1      -8.438  10.886  68.595  1.00  0.00    -0.152 C  
HETATM    3  H   UNL     1      -8.456   4.841  68.485  1.00  0.00     0.000 HD 
HETATM    4  C   UNL     1      -8.063   6.296  69.884  1.00  0.00    -0.120 C  
HETATM    5  N   UNL     1      -7.966   9.823  69.491  1.00  0.00    -0.121 NA 
HETATM    6  H1  UNL     1      -7.702   5.702  71.788  1.00  0.00     0.000 HD 
HETATM    7  H2  UNL     1      -8.131   4.377  70.679  1.00  0.00     0.000 HD 
HETATM    8  N   UNL     1      -7.959   5.366  70.861  1.00  0.00    -0.101 NA 
HETATM    9  H   UNL     1      -7.549  10.081  70.385  1.00  0.00     0.000 HD 
HETATM   10  N   UNL     1      -8.406   5.847  68.649  1.00  0.00    -0.108 N  
HETATM   11  C   UNL     1      -8.067   8.473  69.161  1.00  0.00    -0.117 C  
HETATM   12  C   UNL     1      -8.532   8.144  67.926  1.00  0.00    -0.132 C  
HETATM   13  N   UNL     1      -7.853   7.544  70.147  1.00  0.00    -0.096 NA 
HETATM   14  C   UNL     1      -8.683   6.693  67.623  1.00  0.00    -0.118 C  
HETATM   15  N   UNL     1      -9.056   9.084  67.029  1.00  0.00    -0.128 NA 
HETATM   16  H   UNL     1      -9.123   8.879  66.032  1.00  0.00     0.000 HD 
HETATM   17  O   UNL     1      -9.125   6.297  66.543  1.00  0.00    -0.143 OA 
ENDROOT
BRANCH   1  18
HETATM   18  C   UNL     1     -10.958  10.272  68.171  1.00  0.00    -0.274 C  
HETATM   19  O   UNL     1     -11.157   9.090  68.957  1.00  0.00    -0.435 OA 
HETATM   20  H   UNL     1     -12.034   9.020  69.316  1.00  0.00     0.000 HD 
BRANCH  18  21
HETATM   21  C   UNL     1     -11.353  11.478  69.048  1.00  0.00    -0.276 C  
HETATM   22  C   UNL     1     -12.027  11.047  70.353  1.00  0.00    -0.459 C  
HETATM   23  O   UNL     1     -12.228  12.343  68.327  1.00  0.00    -0.275 OA 
HETATM   24  H   UNL     1     -12.471  13.085  68.867  1.00  0.00     0.000 HD 
ENDBRANCH  18  21
ENDBRANCH   1  18
TORSDOF 2
ENDMDL
MODEL      157
REMARK 921   NORMALIZED FREE ENERGY PREDICTED BY IDOCK:   -2.40 KCAL/MOL
REMARK 922        TOTAL FREE ENERGY PREDICTED BY IDOCK:   -3.16 KCAL/MOL
REMARK 923 INTER-LIGAND FREE ENERGY PREDICTED BY IDOCK:   -2.73 KCAL/MOL
REMARK 924 INTRA-LIGAND FREE ENERGY PREDICTED BY IDOCK:   -0.43 KCAL/MOL
REMARK 927      BINDING AFFINITY PREDICTED BY RF-SCORE:    0.00 PKD
ROOT
HETATM    1  C   UNL     1      -9.645   5.430  68.911  1.00  0.00    -0.141 C  
HETATM    2  C   UNL     1     -10.865   5.944  68.086  1.00  0.00    -0.236 C  
HETATM    3  H   UNL     1      -8.144   1.463  65.074  1.00  0.00     0.000 HD 
HETATM    4  C   UNL     1      -9.199   3.156  64.575  1.00  0.00    -0.139 C  
HETATM    5  N   UNL     1     -10.846   5.482  66.693  1.00  0.00    -0.531 NA 
HETATM    6  H1  UNL     1      -9.329   3.644  62.613  1.00  0.00     0.000 HD 
HETATM    7  H2  UNL     1      -8.311   2.221  62.946  1.00  0.00     0.000 HD 
HETATM    8  N   UNL     1      -8.913   2.980  63.265  1.00  0.00    -0.092 NA 
HETATM    9  H   UNL     1     -11.367   6.008  65.992  1.00  0.00     0.000 HD 
HETATM   10  N   UNL     1      -8.645   2.271  65.444  1.00  0.00    -0.108 N  
HETATM   11  C   UNL     1     -10.140   4.348  66.295  1.00  0.00    -0.225 C  
HETATM   12  C   UNL     1      -9.531   3.599  67.252  1.00  0.00    -0.196 C  
HETATM   13  N   UNL     1      -9.954   4.135  64.952  1.00  0.00    -0.197 NA 
HETATM   14  C   UNL     1      -8.736   2.426  66.791  1.00  0.00    -0.124 C  
HETATM   15  N   UNL     1      -9.448   3.991  68.595  1.00  0.00    -0.160 NA 
HETATM   16  H   UNL     1      -9.259   3.310  69.330  1.00  0.00     0.000 HD 
HETATM   17  O   UNL     1      -8.124   1.705  67.580  1.00  0.00    -0.063 OA 
ENDROOT
BRANCH   1  18
HETATM   18  C   UNL     1      -8.322   6.239  68.681  1.00  0.00    -0.112 C  
HETATM   19  O   UNL     1      -8.500   7.397  67.855  1.00  0.00    -0.122 OA 
HETATM   20  H   UNL     1      -7.698   7.887  67.715  1.00  0.00     0.000 HD 
BRANCH  18  21
HETATM   21  C   UNL     1      -7.662   6.710  69.994  1.00  0.00    -0.102 C  
HETATM   22  C   UNL     1      -8.696   7.071  71.063  1.00  0.00    -0.139 C  
HETATM   23  O   UNL     1      -6.826   7.838  69.745  1.00  0.00    -0.045 OA 
HETATM   24  H   UNL     1      -6.420   8.127  70.553  1.00  0.00     0.000 HD 
ENDBRANCH  18  21
ENDBRANCH   1  18
TORSDOF 2
ENDMDL
MODEL      158
REMARK 921   NORMALIZED FREE ENERGY PREDICTED BY IDOCK:   -2.39 KCAL/MOL
REMARK 922        TOTAL FREE ENERGY PREDICTED BY IDOCK:   -3.16 KCAL/MOL
REMARK 923 INTER-LIGAND FREE ENERGY PREDICTED BY IDOCK:   -3.38 KCAL/MOL
REMARK 924 INTRA-LIGAND FREE ENERGY PREDICTED BY IDOCK:    0.22 KCAL/MOL
REMARK 927      BINDING AFFINITY PREDICTED BY RF-SCORE:    0.00 PKD
ROOT
HETATM    1  C   UNL     1      -9.813  10.904  68.278  1.00  0.00    -0.170 C  
HETATM    2  C   UNL     1     -11.112  10.195  67.786  1.00  0.00    -0.227 C  
HETATM    3  H   UNL     1      -8.293   6.667  71.806  1.00  0.00     0.000 HD 
HETATM    4  C   UNL     1      -9.486   6.373  70.158  1.00  0.00    -0.160 C  
HETATM    5  N   UNL     1     -11.149   8.769  68.132  1.00  0.00    -0.414 NA 
HETATM    6  H1  UNL     1      -9.768   4.469  69.523  1.00  0.00     0.000 HD 
HETATM    7  H2  UNL     1      -8.641   4.623  70.893  1.00  0.00     0.000 HD 
HETATM    8  N   UNL     1      -9.270   5.039  70.206  1.00  0.00    -0.133 NA 
HETATM    9  H   UNL     1     -11.746   8.146  67.590  1.00  0.00     0.000 HD 
HETATM   10  N   UNL     1      -8.822   7.132  71.069  1.00  0.00    -0.145 N  
HETATM   11  C   UNL     1     -10.395   8.237  69.177  1.00  0.00    -0.217 C  
HETATM   12  C   UNL     1      -9.680   9.092  69.956  1.00  0.00    -0.195 C  
HETATM   13  N   UNL     1     -10.279   6.873  69.268  1.00  0.00    -0.180 NA 
HETATM   14  C   UNL     1      -8.840   8.490  71.029  1.00  0.00    -0.175 C  
HETATM   15  N   UNL     1      -9.541  10.456  69.670  1.00  0.00    -0.401 NA 
HETATM   16  H   UNL     1      -9.262  11.120  70.392  1.00  0.00     0.000 HD 
HETATM   17  O   UNL     1      -8.134   9.179  71.766  1.00  0.00    -0.343 OA 
ENDROOT
BRANCH   1  18
HETATM   18  C   UNL     1      -8.562  10.669  67.361  1.00  0.00    -0.122 C  
HETATM   19  O   UNL     1      -8.199   9.289  67.237  1.00  0.00    -0.118 OA 
HETATM   20  H   UNL     1      -7.441   9.146  66.682  1.00  0.00     0.000 HD 
BRANCH  18  21
HETATM   21  C   UNL     1      -8.744  11.225  65.933  1.00  0.00    -0.145 C  
HETATM   22  C   UNL     1      -9.342  12.634  65.933  1.00  0.00    -0.014 C  
HETATM   23  O   UNL     1      -9.580  10.356  65.172  1.00  0.00    -0.225 OA 
HETATM   24  H   UNL     1      -9.692  10.698  64.293  1.00  0.00     0.000 HD 
ENDBRANCH  18  21
ENDBRANCH   1  18
TORSDOF 2
ENDMDL
MODEL      159
REMARK 921   NORMALIZED FREE ENERGY PREDICTED BY IDOCK:   -2.36 KCAL/MOL
REMARK 922        TOTAL FREE ENERGY PREDICTED BY IDOCK:   -3.13 KCAL/MOL
REMARK 923 INTER-LIGAND FREE ENERGY PREDICTED BY IDOCK:   -3.15 KCAL/MOL
REMARK 924 INTRA-LIGAND FREE ENERGY PREDICTED BY IDOCK:    0.03 KCAL/MOL
REMARK 927      BINDING AFFINITY PREDICTED BY RF-SCORE:    0.00 PKD
ROOT
HETATM    1  C   UNL     1      -7.737  15.912  68.798  1.00  0.00    -0.181 C  
HETATM    2  C   UNL     1      -8.917  15.715  69.799  1.00  0.00    -0.006 C  
HETATM    3  H   UNL     1      -8.362  10.780  66.351  1.00  0.00     0.000 HD 
HETATM    4  C   UNL     1      -9.903  11.762  67.294  1.00  0.00    -0.185 C  
HETATM    5  N   UNL     1      -9.785  14.587  69.442  1.00  0.00    -0.424 NA 
HETATM    6  H1  UNL     1     -11.788  11.096  66.967  1.00  0.00     0.000 HD 
HETATM    7  H2  UNL     1     -10.539  10.243  66.027  1.00  0.00     0.000 HD 
HETATM    8  N   UNL     1     -10.814  10.956  66.703  1.00  0.00    -0.233 NA 
HETATM    9  H   UNL     1     -10.742  14.571  69.795  1.00  0.00     0.000 HD 
HETATM   10  N   UNL     1      -8.604  11.575  66.942  1.00  0.00    -0.157 N  
HETATM   11  C   UNL     1      -9.347  13.536  68.639  1.00  0.00    -0.035 C  
HETATM   12  C   UNL     1      -8.042  13.517  68.257  1.00  0.00    -0.155 C  
HETATM   13  N   UNL     1     -10.281  12.666  68.137  1.00  0.00    -0.233 NA 
HETATM   14  C   UNL     1      -7.616  12.413  67.351  1.00  0.00    -0.160 C  
HETATM   15  N   UNL     1      -7.156  14.575  68.502  1.00  0.00    -0.106 NA 
HETATM   16  H   UNL     1      -6.147  14.433  68.477  1.00  0.00     0.000 HD 
HETATM   17  O   UNL     1      -6.463  12.328  66.927  1.00  0.00    -0.105 OA 
ENDROOT
BRANCH   1  18
HETATM   18  C   UNL     1      -8.129  16.657  67.475  1.00  0.00    -0.168 C  
HETATM   19  O   UNL     1      -8.273  15.780  66.350  1.00  0.00    -0.272 OA 
HETATM   20  H   UNL     1      -8.511  16.232  65.548  1.00  0.00     0.000 HD 
BRANCH  18  21
HETATM   21  C   UNL     1      -9.438  17.463  67.598  1.00  0.00    -0.251 C  
HETATM   22  C   UNL     1     -10.560  16.881  66.734  1.00  0.00    -0.201 C  
HETATM   23  O   UNL     1      -9.214  18.822  67.229  1.00  0.00    -0.282 OA 
HETATM   24  H   UNL     1     -10.020  19.318  67.305  1.00  0.00     0.000 HD 
ENDBRANCH  18  21
ENDBRANCH   1  18
TORSDOF 2
ENDMDL
MODEL      160
REMARK 921   NORMALIZED FREE ENERGY PREDICTED BY IDOCK:   -2.30 KCAL/MOL
REMARK 922        TOTAL FREE ENERGY PREDICTED BY IDOCK:   -3.06 KCAL/MOL
REMARK 923 INTER-LIGAND FREE ENERGY PREDICTED BY IDOCK:   -3.06 KCAL/MOL
REMARK 924 INTRA-LIGAND FREE ENERGY PREDICTED BY IDOCK:   -0.01 KCAL/MOL
REMARK 927      BINDING AFFINITY PREDICTED BY RF-SCORE:    0.00 PKD
ROOT
HETATM    1  C   UNL     1      -7.746  17.419  66.326  1.00  0.00    -0.305 C  
HETATM    2  C   UNL     1      -6.817  18.457  67.029  1.00  0.00    -0.190 C  
HETATM    3  H   UNL     1      -5.839  12.971  69.375  1.00  0.00     0.000 HD 
HETATM    4  C   UNL     1      -5.753  14.910  70.055  1.00  0.00    -0.127 C  
HETATM    5  N   UNL     1      -6.219  17.941  68.265  1.00  0.00    -0.175 NA 
HETATM    6  H1  UNL     1      -5.388  15.204  72.026  1.00  0.00     0.000 HD 
HETATM    7  H2  UNL     1      -5.542  13.492  71.560  1.00  0.00     0.000 HD 
HETATM    8  N   UNL     1      -5.544  14.484  71.321  1.00  0.00    -0.160 NA 
HETATM    9  H   UNL     1      -5.892  18.603  68.968  1.00  0.00     0.000 HD 
HETATM   10  N   UNL     1      -5.961  13.950  69.116  1.00  0.00    -0.088 N  
HETATM   11  C   UNL     1      -6.082  16.576  68.513  1.00  0.00    -0.129 C  
HETATM   12  C   UNL     1      -6.430  15.704  67.529  1.00  0.00    -0.170 C  
HETATM   13  N   UNL     1      -5.764  16.174  69.785  1.00  0.00    -0.146 NA 
HETATM   14  C   UNL     1      -6.327  14.252  67.842  1.00  0.00    -0.163 C  
HETATM   15  N   UNL     1      -7.059  16.100  66.341  1.00  0.00    -0.073 NA 
HETATM   16  H   UNL     1      -7.046  15.503  65.515  1.00  0.00     0.000 HD 
HETATM   17  O   UNL     1      -6.647  13.386  67.027  1.00  0.00    -0.082 OA 
ENDROOT
BRANCH   1  18
HETATM   18  C   UNL     1      -9.180  17.309  66.951  1.00  0.00    -0.254 C  
HETATM   19  O   UNL     1      -9.393  16.091  67.676  1.00  0.00    -0.212 OA 
HETATM   20  H   UNL     1     -10.262  16.024  68.055  1.00  0.00     0.000 HD 
BRANCH  18  21
HETATM   21  C   UNL     1      -9.518  18.474  67.904  1.00  0.00    -0.296 C  
HETATM   22  C   UNL     1      -9.900  17.985  69.304  1.00  0.00    -0.051 C  
HETATM   23  O   UNL     1     -10.585  19.252  67.368  1.00  0.00    -0.436 OA 
HETATM   24  H   UNL     1     -10.793  19.970  67.955  1.00  0.00     0.000 HD 
ENDBRANCH  18  21
ENDBRANCH   1  18
TORSDOF 2
ENDMDL
MODEL      161
REMARK 921   NORMALIZED FREE ENERGY PREDICTED BY IDOCK:   -2.30 KCAL/MOL
REMARK 922        TOTAL FREE ENERGY PREDICTED BY IDOCK:   -3.06 KCAL/MOL
REMARK 923 INTER-LIGAND FREE ENERGY PREDICTED BY IDOCK:   -2.63 KCAL/MOL
REMARK 924 INTRA-LIGAND FREE ENERGY PREDICTED BY IDOCK:   -0.43 KCAL/MOL
REMARK 927      BINDING AFFINITY PREDICTED BY RF-SCORE:    0.00 PKD
ROOT
HETATM    1  C   UNL     1      -8.053  10.978  66.831  1.00  0.00    -0.142 C  
HETATM    2  C   UNL     1      -9.610  10.996  66.750  1.00  0.00    -0.190 C  
HETATM    3  H   UNL     1      -7.899   8.547  72.006  1.00  0.00     0.000 HD 
HETATM    4  C   UNL     1      -9.483   8.324  70.714  1.00  0.00    -0.161 C  
HETATM    5  N   UNL     1     -10.243  10.138  67.758  1.00  0.00    -0.180 NA 
HETATM    6  H1  UNL     1     -10.823   6.855  71.107  1.00  0.00     0.000 HD 
HETATM    7  H2  UNL     1      -9.438   6.899  72.226  1.00  0.00     0.000 HD 
HETATM    8  N   UNL     1      -9.944   7.267  71.421  1.00  0.00    -0.187 NA 
HETATM    9  H   UNL     1     -11.192   9.802  67.593  1.00  0.00     0.000 HD 
HETATM   10  N   UNL     1      -8.312   8.872  71.132  1.00  0.00    -0.178 N  
HETATM   11  C   UNL     1      -9.593   9.766  68.933  1.00  0.00    -0.167 C  
HETATM   12  C   UNL     1      -8.368  10.299  69.189  1.00  0.00    -0.154 C  
HETATM   13  N   UNL     1     -10.139   8.760  69.689  1.00  0.00    -0.198 NA 
HETATM   14  C   UNL     1      -7.673   9.839  70.423  1.00  0.00    -0.137 C  
HETATM   15  N   UNL     1      -7.664  11.080  68.263  1.00  0.00    -0.107 NA 
HETATM   16  H   UNL     1      -6.910  11.698  68.562  1.00  0.00     0.000 HD 
HETATM   17  O   UNL     1      -6.549  10.242  70.724  1.00  0.00    -0.302 OA 
ENDROOT
BRANCH   1  18
HETATM   18  C   UNL     1      -7.385   9.729  66.158  1.00  0.00    -0.101 C  
HETATM   19  O   UNL     1      -8.328   8.839  65.549  1.00  0.00    -0.129 OA 
HETATM   20  H   UNL     1      -7.924   8.082  65.142  1.00  0.00     0.000 HD 
BRANCH  18  21
HETATM   21  C   UNL     1      -6.346  10.103  65.082  1.00  0.00    -0.121 C  
HETATM   22  C   UNL     1      -5.861   8.881  64.297  1.00  0.00    -0.069 C  
HETATM   23  O   UNL     1      -5.228  10.752  65.683  1.00  0.00    -0.102 OA 
HETATM   24  H   UNL     1      -4.588  10.982  65.020  1.00  0.00     0.000 HD 
ENDBRANCH  18  21
ENDBRANCH   1  18
TORSDOF 2
ENDMDL
MODEL      162
REMARK 921   NORMALIZED FREE ENERGY PREDICTED BY IDOCK:   -2.25 KCAL/MOL
REMARK 922        TOTAL FREE ENERGY PREDICTED BY IDOCK:   -3.00 KCAL/MOL
REMARK 923 INTER-LIGAND FREE ENERGY PREDICTED BY IDOCK:   -2.74 KCAL/MOL
REMARK 924 INTRA-LIGAND FREE ENERGY PREDICTED BY IDOCK:   -0.26 KCAL/MOL
REMARK 927      BINDING AFFINITY PREDICTED BY RF-SCORE:    0.00 PKD
ROOT
HETATM    1  C   UNL     1     -10.957   6.666  68.633  1.00  0.00    -0.251 C  
HETATM    2  C   UNL     1     -10.375   8.102  68.455  1.00  0.00    -0.199 C  
HETATM    3  H   UNL     1      -7.736   4.361  64.507  1.00  0.00     0.000 HD 
HETATM    4  C   UNL     1      -7.188   6.055  65.535  1.00  0.00    -0.074 C  
HETATM    5  N   UNL     1      -9.142   8.123  67.659  1.00  0.00    -0.134 NA 
HETATM    6  H1  UNL     1      -5.263   6.670  65.386  1.00  0.00     0.000 HD 
HETATM    7  H2  UNL     1      -5.609   5.140  64.542  1.00  0.00     0.000 HD 
HETATM    8  N   UNL     1      -5.910   5.932  65.110  1.00  0.00    -0.024 NA 
HETATM    9  H   UNL     1      -8.503   8.911  67.762  1.00  0.00     0.000 HD 
HETATM   10  N   UNL     1      -8.050   5.072  65.167  1.00  0.00    -0.107 N  
HETATM   11  C   UNL     1      -8.815   7.104  66.767  1.00  0.00    -0.130 C  
HETATM   12  C   UNL     1      -9.720   6.109  66.564  1.00  0.00    -0.145 C  
HETATM   13  N   UNL     1      -7.538   7.062  66.266  1.00  0.00    -0.090 NA 
HETATM   14  C   UNL     1      -9.319   5.004  65.649  1.00  0.00    -0.154 C  
HETATM   15  N   UNL     1     -10.894   5.976  67.317  1.00  0.00    -0.387 NA 
HETATM   16  H   UNL     1     -11.680   5.425  66.973  1.00  0.00     0.000 HD 
HETATM   17  O   UNL     1     -10.058   4.044  65.427  1.00  0.00    -0.195 OA 
ENDROOT
BRANCH   1  18
HETATM   18  C   UNL     1     -10.248   5.815  69.743  1.00  0.00    -0.236 C  
HETATM   19  O   UNL     1      -8.823   5.961  69.749  1.00  0.00    -0.126 OA 
HETATM   20  H   UNL     1      -8.393   5.446  70.422  1.00  0.00     0.000 HD 
BRANCH  18  21
HETATM   21  C   UNL     1     -10.748   6.139  71.167  1.00  0.00    -0.256 C  
HETATM   22  C   UNL     1      -9.745   6.987  71.953  1.00  0.00    -0.166 C  
HETATM   23  O   UNL     1     -11.009   4.933  71.881  1.00  0.00    -0.067 OA 
HETATM   24  H   UNL     1     -11.317   5.133  72.757  1.00  0.00     0.000 HD 
ENDBRANCH  18  21
ENDBRANCH   1  18
TORSDOF 2
ENDMDL
MODEL      163
REMARK 921   NORMALIZED FREE ENERGY PREDICTED BY IDOCK:   -2.00 KCAL/MOL
REMARK 922        TOTAL FREE ENERGY PREDICTED BY IDOCK:   -2.73 KCAL/MOL
REMARK 923 INTER-LIGAND FREE ENERGY PREDICTED BY IDOCK:   -3.28 KCAL/MOL
REMARK 924 INTRA-LIGAND FREE ENERGY PREDICTED BY IDOCK:    0.55 KCAL/MOL
REMARK 927      BINDING AFFINITY PREDICTED BY RF-SCORE:    0.00 PKD
ROOT
HETATM    1  C   UNL     1      -8.345  10.762  66.789  1.00  0.00    -0.136 C  
HETATM    2  C   UNL     1      -9.768  10.902  67.414  1.00  0.00    -0.168 C  
HETATM    3  H   UNL     1      -8.462   5.045  66.674  1.00  0.00     0.000 HD 
HETATM    4  C   UNL     1     -10.165   6.197  66.651  1.00  0.00    -0.178 C  
HETATM    5  N   UNL     1     -10.545   9.658  67.346  1.00  0.00    -0.272 NA 
HETATM    6  H1  UNL     1     -11.907   5.299  66.135  1.00  0.00     0.000 HD 
HETATM    7  H2  UNL     1     -10.479   4.241  66.025  1.00  0.00     0.000 HD 
HETATM    8  N   UNL     1     -10.904   5.144  66.233  1.00  0.00    -0.233 NA 
HETATM    9  H   UNL     1     -11.562   9.710  67.395  1.00  0.00     0.000 HD 
HETATM   10  N   UNL     1      -8.829   5.991  66.782  1.00  0.00    -0.118 N  
HETATM   11  C   UNL     1      -9.940   8.410  67.215  1.00  0.00    -0.227 C  
HETATM   12  C   UNL     1      -8.582   8.344  67.250  1.00  0.00    -0.123 C  
HETATM   13  N   UNL     1     -10.729   7.334  66.894  1.00  0.00    -0.335 NA 
HETATM   14  C   UNL     1      -7.963   7.003  67.052  1.00  0.00    -0.116 C  
HETATM   15  N   UNL     1      -7.760   9.478  67.257  1.00  0.00    -0.092 NA 
HETATM   16  H   UNL     1      -6.792   9.424  67.572  1.00  0.00     0.000 HD 
HETATM   17  O   UNL     1      -6.742   6.847  67.037  1.00  0.00    -0.052 OA 
ENDROOT
BRANCH   1  18
HETATM   18  C   UNL     1      -8.316  10.853  65.224  1.00  0.00    -0.025 C  
HETATM   19  O   UNL     1      -7.011  10.651  64.667  1.00  0.00    -0.352 OA 
HETATM   20  H   UNL     1      -6.993  10.706  63.718  1.00  0.00     0.000 HD 
BRANCH  18  21
HETATM   21  C   UNL     1      -9.266   9.848  64.540  1.00  0.00    -0.261 C  
HETATM   22  C   UNL     1      -8.654   9.242  63.275  1.00  0.00    -0.207 C  
HETATM   23  O   UNL     1     -10.499  10.485  64.211  1.00  0.00    -0.384 OA 
HETATM   24  H   UNL     1     -11.083   9.867  63.790  1.00  0.00     0.000 HD 
ENDBRANCH  18  21
ENDBRANCH   1  18
TORSDOF 2
ENDMDL
MODEL      164
REMARK 921   NORMALIZED FREE ENERGY PREDICTED BY IDOCK:   -1.97 KCAL/MOL
REMARK 922        TOTAL FREE ENERGY PREDICTED BY IDOCK:   -2.69 KCAL/MOL
REMARK 923 INTER-LIGAND FREE ENERGY PREDICTED BY IDOCK:   -3.27 KCAL/MOL
REMARK 924 INTRA-LIGAND FREE ENERGY PREDICTED BY IDOCK:    0.58 KCAL/MOL
REMARK 927      BINDING AFFINITY PREDICTED BY RF-SCORE:    0.00 PKD
ROOT
HETATM    1  C   UNL     1      -9.963  12.988  68.320  1.00  0.00    -0.235 C  
HETATM    2  C   UNL     1     -10.757  12.508  67.067  1.00  0.00    -0.242 C  
HETATM    3  H   UNL     1      -6.573   8.385  68.496  1.00  0.00     0.000 HD 
HETATM    4  C   UNL     1      -7.478   9.039  66.770  1.00  0.00    -0.086 C  
HETATM    5  N   UNL     1     -10.098  11.401  66.364  1.00  0.00    -0.211 NA 
HETATM    6  H1  UNL     1      -6.805   8.295  65.009  1.00  0.00     0.000 HD 
HETATM    7  H2  UNL     1      -5.889   7.743  66.433  1.00  0.00     0.000 HD 
HETATM    8  N   UNL     1      -6.643   8.288  66.016  1.00  0.00    -0.053 NA 
HETATM    9  H   UNL     1     -10.320  11.239  65.382  1.00  0.00     0.000 HD 
HETATM   10  N   UNL     1      -7.262   9.030  68.111  1.00  0.00    -0.078 N  
HETATM   11  C   UNL     1      -9.179  10.563  66.992  1.00  0.00    -0.150 C  
HETATM   12  C   UNL     1      -8.965  10.725  68.325  1.00  0.00    -0.143 C  
HETATM   13  N   UNL     1      -8.416   9.731  66.212  1.00  0.00    -0.123 NA 
HETATM   14  C   UNL     1      -7.936   9.853  68.957  1.00  0.00    -0.101 C  
HETATM   15  N   UNL     1      -9.505  11.786  69.065  1.00  0.00    -0.405 NA 
HETATM   16  H   UNL     1      -9.580  11.734  70.080  1.00  0.00     0.000 HD 
HETATM   17  O   UNL     1      -7.650   9.946  70.152  1.00  0.00    -0.154 OA 
ENDROOT
BRANCH   1  18
HETATM   18  C   UNL     1      -8.757  13.938  67.996  1.00  0.00    -0.183 C  
HETATM   19  O   UNL     1      -7.603  13.244  67.505  1.00  0.00    -0.151 OA 
HETATM   20  H   UNL     1      -6.873  13.819  67.308  1.00  0.00     0.000 HD 
BRANCH  18  21
HETATM   21  C   UNL     1      -9.107  15.032  66.966  1.00  0.00    -0.230 C  
HETATM   22  C   UNL     1     -10.476  15.663  67.235  1.00  0.00    -0.292 C  
HETATM   23  O   UNL     1      -9.087  14.489  65.648  1.00  0.00    -0.434 OA 
HETATM   24  H   UNL     1      -9.302  15.163  65.014  1.00  0.00     0.000 HD 
ENDBRANCH  18  21
ENDBRANCH   1  18
TORSDOF 2
ENDMDL
MODEL      165
REMARK 921   NORMALIZED FREE ENERGY PREDICTED BY IDOCK:   -1.97 KCAL/MOL
REMARK 922        TOTAL FREE ENERGY PREDICTED BY IDOCK:   -2.69 KCAL/MOL
REMARK 923 INTER-LIGAND FREE ENERGY PREDICTED BY IDOCK:   -2.47 KCAL/MOL
REMARK 924 INTRA-LIGAND FREE ENERGY PREDICTED BY IDOCK:   -0.22 KCAL/MOL
REMARK 927      BINDING AFFINITY PREDICTED BY RF-SCORE:    0.00 PKD
ROOT
HETATM    1  C   UNL     1      -8.383   7.592  70.212  1.00  0.00    -0.132 C  
HETATM    2  C   UNL     1      -6.865   7.232  70.246  1.00  0.00    -0.052 C  
HETATM    3  H   UNL     1      -8.845   7.061  64.536  1.00  0.00     0.000 HD 
HETATM    4  C   UNL     1      -7.409   6.083  65.636  1.00  0.00    -0.076 C  
HETATM    5  N   UNL     1      -6.395   6.626  68.995  1.00  0.00    -0.034 NA 
HETATM    6  H1  UNL     1      -6.414   4.559  64.746  1.00  0.00     0.000 HD 
HETATM    7  H2  UNL     1      -7.703   5.271  63.746  1.00  0.00     0.000 HD 
HETATM    8  N   UNL     1      -7.164   5.236  64.611  1.00  0.00    -0.057 NA 
HETATM    9  H   UNL     1      -5.553   6.051  69.012  1.00  0.00     0.000 HD 
HETATM   10  N   UNL     1      -8.409   6.985  65.455  1.00  0.00    -0.138 N  
HETATM   11  C   UNL     1      -7.060   6.809  67.784  1.00  0.00    -0.085 C  
HETATM   12  C   UNL     1      -8.122   7.657  67.753  1.00  0.00    -0.118 C  
HETATM   13  N   UNL     1      -6.718   6.006  66.725  1.00  0.00    -0.056 NA 
HETATM   14  C   UNL     1      -8.848   7.789  66.459  1.00  0.00    -0.153 C  
HETATM   15  N   UNL     1      -8.675   8.235  68.904  1.00  0.00    -0.136 NA 
HETATM   16  H   UNL     1      -9.259   9.069  68.845  1.00  0.00     0.000 HD 
HETATM   17  O   UNL     1      -9.840   8.509  66.340  1.00  0.00    -0.253 OA 
ENDROOT
BRANCH   1  18
HETATM   18  C   UNL     1      -9.341   6.376  70.464  1.00  0.00    -0.162 C  
HETATM   19  O   UNL     1      -8.777   5.375  71.321  1.00  0.00    -0.127 OA 
HETATM   20  H   UNL     1      -9.357   4.639  71.473  1.00  0.00     0.000 HD 
BRANCH  18  21
HETATM   21  C   UNL     1     -10.697   6.789  71.072  1.00  0.00    -0.231 C  
HETATM   22  C   UNL     1     -10.850   6.315  72.520  1.00  0.00    -0.273 C  
HETATM   23  O   UNL     1     -11.766   6.264  70.288  1.00  0.00    -0.384 OA 
HETATM   24  H   UNL     1     -12.601   6.517  70.663  1.00  0.00     0.000 HD 
ENDBRANCH  18  21
ENDBRANCH   1  18
TORSDOF 2
ENDMDL
MODEL      166
REMARK 921   NORMALIZED FREE ENERGY PREDICTED BY IDOCK:   -1.67 KCAL/MOL
REMARK 922        TOTAL FREE ENERGY PREDICTED BY IDOCK:   -2.35 KCAL/MOL
REMARK 923 INTER-LIGAND FREE ENERGY PREDICTED BY IDOCK:   -2.08 KCAL/MOL
REMARK 924 INTRA-LIGAND FREE ENERGY PREDICTED BY IDOCK:   -0.28 KCAL/MOL
REMARK 927      BINDING AFFINITY PREDICTED BY RF-SCORE:    0.00 PKD
ROOT
HETATM    1  C   UNL     1      -8.013   6.948  69.569  1.00  0.00    -0.125 C  
HETATM    2  C   UNL     1      -8.289   5.423  69.747  1.00  0.00    -0.100 C  
HETATM    3  H   UNL     1      -7.615   6.670  63.870  1.00  0.00     0.000 HD 
HETATM    4  C   UNL     1      -8.681   5.308  64.982  1.00  0.00    -0.136 C  
HETATM    5  N   UNL     1      -8.651   4.758  68.489  1.00  0.00    -0.093 NA 
HETATM    6  H1  UNL     1      -9.978   4.098  64.003  1.00  0.00     0.000 HD 
HETATM    7  H2  UNL     1      -9.182   5.306  62.965  1.00  0.00     0.000 HD 
HETATM    8  N   UNL     1      -9.331   4.876  63.878  1.00  0.00     0.077 NA 
HETATM    9  H   UNL     1      -9.173   3.883  68.527  1.00  0.00     0.000 HD 
HETATM   10  N   UNL     1      -7.819   6.345  64.815  1.00  0.00    -0.106 N  
HETATM   11  C   UNL     1      -8.305   5.281  67.245  1.00  0.00    -0.107 C  
HETATM   12  C   UNL     1      -7.524   6.394  67.208  1.00  0.00    -0.088 C  
HETATM   13  N   UNL     1      -8.901   4.752  66.128  1.00  0.00    -0.118 NA 
HETATM   14  C   UNL     1      -7.219   6.963  65.865  1.00  0.00    -0.074 C  
HETATM   15  N   UNL     1      -7.178   7.126  68.351  1.00  0.00    -0.088 NA 
HETATM   16  H   UNL     1      -6.380   7.760  68.348  1.00  0.00     0.000 HD 
HETATM   17  O   UNL     1      -6.545   7.986  65.731  1.00  0.00    -0.045 OA 
ENDROOT
BRANCH   1  18
HETATM   18  C   UNL     1      -9.305   7.833  69.495  1.00  0.00    -0.149 C  
HETATM   19  O   UNL     1     -10.453   7.216  70.091  1.00  0.00    -0.206 OA 
HETATM   20  H   UNL     1     -11.236   7.752  70.046  1.00  0.00     0.000 HD 
BRANCH  18  21
HETATM   21  C   UNL     1      -9.132   9.215  70.159  1.00  0.00    -0.206 C  
HETATM   22  C   UNL     1     -10.164   9.460  71.263  1.00  0.00    -0.340 C  
HETATM   23  O   UNL     1      -9.235  10.246  69.179  1.00  0.00    -0.174 OA 
HETATM   24  H   UNL     1      -9.129  11.096  69.588  1.00  0.00     0.000 HD 
ENDBRANCH  18  21
ENDBRANCH   1  18
TORSDOF 2
ENDMDL
MODEL      167
REMARK 921   NORMALIZED FREE ENERGY PREDICTED BY IDOCK:    2.26 KCAL/MOL
REMARK 922        TOTAL FREE ENERGY PREDICTED BY IDOCK:    2.03 KCAL/MOL
REMARK 923 INTER-LIGAND FREE ENERGY PREDICTED BY IDOCK:    1.90 KCAL/MOL
REMARK 924 INTRA-LIGAND FREE ENERGY PREDICTED BY IDOCK:    0.13 KCAL/MOL
REMARK 927      BINDING AFFINITY PREDICTED BY RF-SCORE:    0.00 PKD
ROOT
HETATM    1  C   UNL     1     -12.378  14.328  72.294  1.00  0.00    -0.124 C  
HETATM    2  C   UNL     1     -13.306  13.118  71.968  1.00  0.00    -0.493 C  
HETATM    3  H   UNL     1      -9.723  14.237  67.229  1.00  0.00     0.000 HD 
HETATM    4  C   UNL     1     -11.619  13.493  67.508  1.00  0.00    -0.350 C  
HETATM    5  N   UNL     1     -13.330  12.787  70.538  1.00  0.00     0.646 NA 
HETATM    6  H1  UNL     1     -12.739  13.120  65.862  1.00  0.00     0.000 HD 
HETATM    7  H2  UNL     1     -11.155  13.854  65.515  1.00  0.00     0.000 HD 
HETATM    8  N   UNL     1     -11.845  13.495  66.175  1.00  0.00    -0.369 NA 
HETATM    9  H   UNL     1     -14.127  12.271  70.165  1.00  0.00     0.000 HD 
HETATM   10  N   UNL     1     -10.427  13.994  67.925  1.00  0.00    -0.238 N  
HETATM   11  C   UNL     1     -12.302  13.152  69.672  1.00  0.00    -0.071 C  
HETATM   12  C   UNL     1     -11.199  13.751  70.197  1.00  0.00     0.154 C  
HETATM   13  N   UNL     1     -12.518  13.044  68.321  1.00  0.00     0.259 NA 
HETATM   14  C   UNL     1     -10.141  14.182  69.240  1.00  0.00     0.082 C  
HETATM   15  N   UNL     1     -11.110  14.155  71.536  1.00  0.00     0.705 NA 
HETATM   16  H   UNL     1     -10.206  14.324  71.975  1.00  0.00     0.000 HD 
HETATM   17  O   UNL     1      -9.120  14.759  69.617  1.00  0.00     0.031 OA 
ENDROOT
BRANCH   1  18
HETATM   18  C   UNL     1     -13.018  15.729  72.000  1.00  0.00    -0.441 C  
HETATM   19  O   UNL     1     -14.107  16.052  72.874  1.00  0.00    -0.559 OA 
HETATM   20  H   UNL     1     -14.494  16.901  72.696  1.00  0.00     0.000 HD 
BRANCH  18  21
HETATM   21  C   UNL     1     -12.003  16.889  72.084  1.00  0.00     0.562 C  
HETATM   22  C   UNL     1     -11.250  17.095  70.768  1.00  0.00     0.998 C  
HETATM   23  O   UNL     1     -11.067  16.646  73.132  1.00  0.00     1.109 OA 
HETATM   24  H   UNL     1     -10.443  17.360  73.184  1.00  0.00     0.000 HD 
ENDBRANCH  18  21
ENDBRANCH   1  18
TORSDOF 2
ENDMDL
MODEL      168
REMARK 921   NORMALIZED FREE ENERGY PREDICTED BY IDOCK:    3.73 KCAL/MOL
REMARK 922        TOTAL FREE ENERGY PREDICTED BY IDOCK:    3.68 KCAL/MOL
REMARK 923 INTER-LIGAND FREE ENERGY PREDICTED BY IDOCK:   -2.41 KCAL/MOL
REMARK 924 INTRA-LIGAND FREE ENERGY PREDICTED BY IDOCK:    6.09 KCAL/MOL
REMARK 927      BINDING AFFINITY PREDICTED BY RF-SCORE:    0.00 PKD
ROOT
HETATM    1  C   UNL     1      -9.777   6.169  69.896  1.00  0.00    -0.163 C  
HETATM    2  C   UNL     1      -9.936   4.711  70.428  1.00  0.00    -0.230 C  
HETATM    3  H   UNL     1      -5.768   4.813  66.049  1.00  0.00     0.000 HD 
HETATM    4  C   UNL     1      -7.144   3.457  66.753  1.00  0.00    -0.055 C  
HETATM    5  N   UNL     1      -9.325   3.712  69.542  1.00  0.00    -0.164 NA 
HETATM    6  H1  UNL     1      -7.361   1.718  65.735  1.00  0.00     0.000 HD 
HETATM    7  H2  UNL     1      -6.221   2.863  64.988  1.00  0.00     0.000 HD 
HETATM    8  N   UNL     1      -6.876   2.614  65.729  1.00  0.00    -0.043 NA 
HETATM    9  H   UNL     1      -9.650   2.746  69.591  1.00  0.00     0.000 HD 
HETATM   10  N   UNL     1      -6.497   4.651  66.744  1.00  0.00    -0.044 N  
HETATM   11  C   UNL     1      -8.318   4.037  68.636  1.00  0.00    -0.082 C  
HETATM   12  C   UNL     1      -7.824   5.304  68.649  1.00  0.00    -0.086 C  
HETATM   13  N   UNL     1      -7.989   3.120  67.670  1.00  0.00    -0.075 NA 
HETATM   14  C   UNL     1      -6.788   5.638  67.631  1.00  0.00    -0.060 C  
HETATM   15  N   UNL     1      -8.380   6.336  69.417  1.00  0.00    -0.120 NA 
HETATM   16  H   UNL     1      -7.843   7.173  69.640  1.00  0.00     0.000 HD 
HETATM   17  O   UNL     1      -6.303   6.767  67.544  1.00  0.00    -0.040 OA 
ENDROOT
BRANCH   1  18
HETATM   18  C   UNL     1     -10.803   6.563  68.777  1.00  0.00    -0.299 C  
HETATM   19  O   UNL     1     -11.261   7.917  68.876  1.00  0.00    -0.404 OA 
HETATM   20  H   UNL     1     -11.882   8.156  68.198  1.00  0.00     0.000 HD 
BRANCH  18  21
HETATM   21  C   UNL     1     -10.248   6.370  67.351  1.00  0.00    -0.178 C  
HETATM   22  C   UNL     1     -10.174   4.893  66.953  1.00  0.00    -0.254 C  
HETATM   23  O   UNL     1      -8.951   6.953  67.246  1.00  0.00    -0.117 OA 
HETATM   24  H   UNL     1      -8.609   6.834  66.368  1.00  0.00     0.000 HD 
ENDBRANCH  18  21
ENDBRANCH   1  18
TORSDOF 2
ENDMDL
MODEL      169
REMARK 921   NORMALIZED FREE ENERGY PREDICTED BY IDOCK:    5.57 KCAL/MOL
REMARK 922        TOTAL FREE ENERGY PREDICTED BY IDOCK:    5.73 KCAL/MOL
REMARK 923 INTER-LIGAND FREE ENERGY PREDICTED BY IDOCK:    2.22 KCAL/MOL
REMARK 924 INTRA-LIGAND FREE ENERGY PREDICTED BY IDOCK:    3.50 KCAL/MOL
REMARK 927      BINDING AFFINITY PREDICTED BY RF-SCORE:    0.00 PKD
ROOT
HETATM    1  C   UNL     1      -6.334  16.884  69.118  1.00  0.00    -0.204 C  
HETATM    2  C   UNL     1      -7.102  15.724  69.825  1.00  0.00    -0.077 C  
HETATM    3  H   UNL     1     -10.363  17.736  65.149  1.00  0.00     0.000 HD 
HETATM    4  C   UNL     1     -10.765  16.907  66.988  1.00  0.00    -0.153 C  
HETATM    5  N   UNL     1      -8.511  15.645  69.423  1.00  0.00    -0.258 NA 
HETATM    6  H1  UNL     1     -12.702  16.795  67.570  1.00  0.00     0.000 HD 
HETATM    7  H2  UNL     1     -12.455  17.619  66.011  1.00  0.00     0.000 HD 
HETATM    8  N   UNL     1     -12.089  17.133  66.830  1.00  0.00     2.610 NA 
HETATM    9  H   UNL     1      -9.175  15.181  70.043  1.00  0.00     0.000 HD 
HETATM   10  N   UNL     1      -9.947  17.359  66.001  1.00  0.00    -0.254 N  
HETATM   11  C   UNL     1      -8.973  16.181  68.223  1.00  0.00    -0.189 C  
HETATM   12  C   UNL     1      -8.064  16.708  67.359  1.00  0.00    -0.167 C  
HETATM   13  N   UNL     1     -10.328  16.302  68.043  1.00  0.00    -0.270 NA 
HETATM   14  C   UNL     1      -8.593  17.324  66.111  1.00  0.00    -0.172 C  
HETATM   15  N   UNL     1      -6.711  16.876  67.680  1.00  0.00    -0.135 NA 
HETATM   16  H   UNL     1      -6.008  16.991  66.951  1.00  0.00     0.000 HD 
HETATM   17  O   UNL     1      -7.852  17.854  65.282  1.00  0.00     0.110 OA 
ENDROOT
BRANCH   1  18
HETATM   18  C   UNL     1      -6.575  18.298  69.752  1.00  0.00     0.010 C  
HETATM   19  O   UNL     1      -5.527  19.234  69.468  1.00  0.00    -0.198 OA 
HETATM   20  H   UNL     1      -5.673  20.091  69.852  1.00  0.00     0.000 HD 
BRANCH  18  21
HETATM   21  C   UNL     1      -7.902  18.945  69.305  1.00  0.00    -0.003 C  
HETATM   22  C   UNL     1      -8.190  20.249  70.053  1.00  0.00     1.221 C  
HETATM   23  O   UNL     1      -8.982  18.036  69.504  1.00  0.00     0.353 OA 
HETATM   24  H   UNL     1      -9.799  18.435  69.229  1.00  0.00     0.000 HD 
ENDBRANCH  18  21
ENDBRANCH   1  18
TORSDOF 2
ENDMDL
MODEL      170
REMARK 921   NORMALIZED FREE ENERGY PREDICTED BY IDOCK:   17.63 KCAL/MOL
REMARK 922        TOTAL FREE ENERGY PREDICTED BY IDOCK:   19.21 KCAL/MOL
REMARK 923 INTER-LIGAND FREE ENERGY PREDICTED BY IDOCK:   17.63 KCAL/MOL
REMARK 924 INTRA-LIGAND FREE ENERGY PREDICTED BY IDOCK:    1.57 KCAL/MOL
REMARK 927      BINDING AFFINITY PREDICTED BY RF-SCORE:    0.00 PKD
ROOT
HETATM    1  C   UNL     1      -7.027  19.504  64.471  1.00  0.00     0.820 C  
HETATM    2  C   UNL     1      -8.250  19.219  63.546  1.00  0.00    10.660 C  
HETATM    3  H   UNL     1     -10.124  19.642  69.278  1.00  0.00     0.000 HD 
HETATM    4  C   UNL     1     -10.714  18.611  67.599  1.00  0.00    -0.376 C  
HETATM    5  N   UNL     1      -9.441  18.793  64.290  1.00  0.00     6.258 NA 
HETATM    6  H1  UNL     1     -12.208  17.257  67.798  1.00  0.00     0.000 HD 
HETATM    7  H2  UNL     1     -11.706  18.020  69.327  1.00  0.00     0.000 HD 
HETATM    8  N   UNL     1     -11.618  17.907  68.317  1.00  0.00     1.074 NA 
HETATM    9  H   UNL     1     -10.163  18.263  63.802  1.00  0.00     0.000 HD 
HETATM   10  N   UNL     1      -9.927  19.477  68.291  1.00  0.00    -0.407 N  
HETATM   11  C   UNL     1      -9.620  19.088  65.640  1.00  0.00     0.492 C  
HETATM   12  C   UNL     1      -8.700  19.880  66.254  1.00  0.00    -0.336 C  
HETATM   13  N   UNL     1     -10.616  18.437  66.322  1.00  0.00    -0.371 NA 
HETATM   14  C   UNL     1      -8.887  20.131  67.711  1.00  0.00    -0.265 C  
HETATM   15  N   UNL     1      -7.507  20.286  65.642  1.00  0.00    -0.514 NA 
HETATM   16  H   UNL     1      -6.986  21.090  65.988  1.00  0.00     0.000 HD 
HETATM   17  O   UNL     1      -8.091  20.809  68.361  1.00  0.00     0.325 OA 
ENDROOT
BRANCH   1  18
HETATM   18  C   UNL     1      -6.255  18.221  64.935  1.00  0.00     0.168 C  
HETATM   19  O   UNL     1      -5.302  17.751  63.973  1.00  0.00     0.618 OA 
HETATM   20  H   UNL     1      -4.834  16.973  64.253  1.00  0.00     0.000 HD 
BRANCH  18  21
HETATM   21  C   UNL     1      -5.503  18.413  66.268  1.00  0.00    -0.150 C  
HETATM   22  C   UNL     1      -5.451  17.125  67.094  1.00  0.00    -0.184 C  
HETATM   23  O   UNL     1      -6.123  19.442  67.036  1.00  0.00    -0.181 OA 
HETATM   24  H   UNL     1      -5.660  19.560  67.857  1.00  0.00     0.000 HD 
ENDBRANCH  18  21
ENDBRANCH   1  18
TORSDOF 2
ENDMDL
