MODEL        1
REMARK 921   NORMALIZED FREE ENERGY PREDICTED BY IDOCK:   -7.93 KCAL/MOL
REMARK 922        TOTAL FREE ENERGY PREDICTED BY IDOCK:  -17.59 KCAL/MOL
REMARK 923 INTER-LIGAND FREE ENERGY PREDICTED BY IDOCK:  -13.49 KCAL/MOL
REMARK 924 INTRA-LIGAND FREE ENERGY PREDICTED BY IDOCK:   -4.10 KCAL/MOL
REMARK 927      BINDING AFFINITY PREDICTED BY RF-SCORE:    0.00 PKD
ROOT
HETATM    1  C   UNL     1     -10.164   8.783  72.237  1.00  0.00    -0.310 C  
HETATM    2  C   UNL     1     -10.921   7.765  73.099  1.00  0.00    -0.372 C  
HETATM    3  C   UNL     1     -11.199   6.466  72.346  1.00  0.00    -0.313 C  
HETATM    4  C   UNL     1     -11.971   6.734  71.059  1.00  0.00    -0.431 C  
HETATM    5  C   UNL     1     -11.242   7.728  70.160  1.00  0.00    -0.168 C  
HETATM    6  C   UNL     1     -10.861   9.019  70.897  1.00  0.00    -0.323 C  
HETATM    7  C   UNL     1      -9.993   9.956  70.055  1.00  0.00    -0.254 C  
HETATM    8  N   UNL     1      -8.685   9.406  69.671  1.00  0.00    -0.152 NA 
HETATM    9  C   UNL     1      -7.991   8.640  70.740  1.00  0.00    -0.118 C  
HETATM   10  C   UNL     1      -8.680   8.419  72.102  1.00  0.00    -0.272 C  
ENDROOT
BRANCH   8  11
HETATM   11  C   UNL     1      -7.837  10.522  69.158  1.00  0.00    -0.138 C  
BRANCH  11  12
HETATM   12  C   UNL     1      -6.927  10.199  67.943  1.00  0.00    -0.083 C  
HETATM   13  H   UNL     1      -6.863   8.810  66.560  1.00  0.00     0.000 HD 
HETATM   14  O   UNL     1      -7.420   9.008  67.304  1.00  0.00    -0.084 OA 
BRANCH  12  15
HETATM   15  C   UNL     1      -6.884  11.332  66.880  1.00  0.00    -0.134 C  
BRANCH  15  16
HETATM   16  N   UNL     1      -8.240  11.875  66.670  1.00  0.00    -0.327 N  
HETATM   17  C   UNL     1      -9.061  11.416  65.656  1.00  0.00    -0.161 C  
HETATM   18  O   UNL     1      -8.677  10.628  64.791  1.00  0.00    -0.184 OA 
HETATM   19  H   UNL     1      -8.582  12.610  67.289  1.00  0.00     0.000 HD 
BRANCH  17  20
HETATM   20  C   UNL     1     -10.482  12.018  65.641  1.00  0.00    -0.256 C  
BRANCH  20  21
HETATM   21  N   UNL     1     -10.654  12.866  66.818  1.00  0.00    -0.256 N  
HETATM   22  H   UNL     1     -10.119  13.733  66.869  1.00  0.00     0.000 HD 
HETATM   23  C   UNL     1     -11.497  12.562  67.858  1.00  0.00    -0.315 C  
HETATM   24  O   UNL     1     -12.243  11.586  67.852  1.00  0.00    -0.586 OA 
BRANCH  23  25
HETATM   25  C   UNL     1     -11.493  13.529  68.995  1.00  0.00    -0.303 A  
HETATM   26  N   UNL     1     -12.347  13.258  70.020  1.00  0.00    -0.248 NA 
HETATM   27  C   UNL     1     -12.404  14.143  71.030  1.00  0.00    -0.366 A  
HETATM   28  C   UNL     1     -11.603  15.306  71.065  1.00  0.00    -0.399 A  
HETATM   29  C   UNL     1     -10.707  15.529  70.011  1.00  0.00    -0.331 A  
HETATM   30  C   UNL     1     -11.716  16.214  72.130  1.00  0.00    -0.569 A  
HETATM   31  C   UNL     1     -10.652  14.630  68.954  1.00  0.00    -0.253 A  
HETATM   32  C   UNL     1     -12.623  15.980  73.160  1.00  0.00    -0.625 A  
HETATM   33  C   UNL     1     -13.407  14.831  73.137  1.00  0.00    -0.458 A  
HETATM   34  C   UNL     1     -13.287  13.925  72.079  1.00  0.00    -0.523 A  
ENDBRANCH  23  25
ENDBRANCH  20  21
BRANCH  20  35
HETATM   35  C   UNL     1     -10.826  12.714  64.326  1.00  0.00    -0.411 C  
BRANCH  35  36
HETATM   36  C   UNL     1     -12.240  13.242  64.272  1.00  0.00    -0.392 C  
HETATM   37  N   UNL     1     -12.410  14.440  63.649  1.00  0.00    -1.106 N  
HETATM   38  O   UNL     1     -13.185  12.659  64.789  1.00  0.00    -0.846 OA 
HETATM   39  H2  UNL     1     -11.628  14.951  63.242  1.00  0.00     0.000 HD 
HETATM   40  H1  UNL     1     -13.365  14.796  63.613  1.00  0.00     0.000 HD 
ENDBRANCH  35  36
ENDBRANCH  20  35
ENDBRANCH  17  20
ENDBRANCH  15  16
BRANCH  15  41
HETATM   41  C   UNL     1      -5.871  12.458  67.214  1.00  0.00    -0.125 C  
BRANCH  41  42
HETATM   42  C   UNL     1      -6.330  13.543  68.165  1.00  0.00    -0.124 A  
HETATM   43  C   UNL     1      -6.138  13.423  69.548  1.00  0.00    -0.110 A  
HETATM   44  C   UNL     1      -6.990  15.663  69.900  1.00  0.00    -0.045 A  
HETATM   45  C   UNL     1      -6.470  14.474  70.409  1.00  0.00    -0.111 A  
HETATM   46  C   UNL     1      -6.863  14.744  67.669  1.00  0.00    -0.205 A  
HETATM   47  C   UNL     1      -7.190  15.795  68.528  1.00  0.00    -0.122 A  
ENDBRANCH  41  42
ENDBRANCH  15  41
ENDBRANCH  12  15
ENDBRANCH  11  12
ENDBRANCH   8  11
BRANCH   9  48
HETATM   48  C   UNL     1      -7.507   7.262  70.187  1.00  0.00    -0.088 C  
HETATM   49  C   UNL     1      -8.295   4.395  69.386  1.00  0.00    -0.083 C  
HETATM   50  O   UNL     1      -6.645   6.611  70.774  1.00  0.00    -0.050 OA 
HETATM   51  C   UNL     1      -6.429   5.320  67.969  1.00  0.00    -0.048 C  
HETATM   52  C   UNL     1      -7.892   5.510  68.404  1.00  0.00    -0.088 C  
HETATM   53  N   UNL     1      -8.088   6.844  69.003  1.00  0.00    -0.116 N  
HETATM   54  C   UNL     1      -8.782   5.381  67.152  1.00  0.00    -0.107 C  
HETATM   55  H   UNL     1      -8.692   7.502  68.511  1.00  0.00     0.000 HD 
ENDBRANCH   9  48
TORSDOF 12
ENDMDL
MODEL        2
REMARK 921   NORMALIZED FREE ENERGY PREDICTED BY IDOCK:   -7.93 KCAL/MOL
REMARK 922        TOTAL FREE ENERGY PREDICTED BY IDOCK:  -17.59 KCAL/MOL
REMARK 923 INTER-LIGAND FREE ENERGY PREDICTED BY IDOCK:  -13.70 KCAL/MOL
REMARK 924 INTRA-LIGAND FREE ENERGY PREDICTED BY IDOCK:   -3.89 KCAL/MOL
REMARK 927      BINDING AFFINITY PREDICTED BY RF-SCORE:    0.00 PKD
ROOT
HETATM    1  C   UNL     1     -11.464   8.906  70.351  1.00  0.00    -0.182 C  
HETATM    2  C   UNL     1     -12.410   8.781  71.553  1.00  0.00    -0.380 C  
HETATM    3  C   UNL     1     -11.914   7.759  72.572  1.00  0.00    -0.304 C  
HETATM    4  C   UNL     1     -11.713   6.393  71.925  1.00  0.00    -0.378 C  
HETATM    5  C   UNL     1     -10.761   6.467  70.735  1.00  0.00    -0.290 C  
HETATM    6  C   UNL     1     -11.168   7.545  69.721  1.00  0.00    -0.072 C  
HETATM    7  C   UNL     1     -10.140   7.738  68.606  1.00  0.00    -0.199 C  
HETATM    8  N   UNL     1      -8.820   8.203  69.059  1.00  0.00    -0.144 NA 
HETATM    9  C   UNL     1      -8.855   9.246  70.118  1.00  0.00    -0.213 C  
HETATM   10  C   UNL     1     -10.205   9.708  70.702  1.00  0.00    -0.346 C  
ENDROOT
BRANCH   8  11
HETATM   11  C   UNL     1      -8.047   8.659  67.865  1.00  0.00    -0.108 C  
BRANCH  11  12
HETATM   12  C   UNL     1      -7.116   9.883  68.071  1.00  0.00    -0.082 C  
HETATM   13  H   UNL     1      -5.217  10.158  68.476  1.00  0.00     0.000 HD 
HETATM   14  O   UNL     1      -5.787   9.408  68.351  1.00  0.00    -0.041 OA 
BRANCH  12  15
HETATM   15  C   UNL     1      -7.040  10.822  66.834  1.00  0.00    -0.114 C  
BRANCH  15  16
HETATM   16  N   UNL     1      -8.370  11.402  66.563  1.00  0.00    -0.171 N  
HETATM   17  C   UNL     1      -9.111  11.043  65.452  1.00  0.00    -0.195 C  
HETATM   18  O   UNL     1      -8.665  10.325  64.556  1.00  0.00    -0.171 OA 
HETATM   19  H   UNL     1      -8.754  12.088  67.214  1.00  0.00     0.000 HD 
BRANCH  17  20
HETATM   20  C   UNL     1     -10.520  11.668  65.375  1.00  0.00    -0.275 C  
BRANCH  20  21
HETATM   21  N   UNL     1     -10.718  12.545  66.526  1.00  0.00    -0.237 N  
HETATM   22  H   UNL     1     -10.306  13.478  66.496  1.00  0.00     0.000 HD 
HETATM   23  C   UNL     1     -11.428  12.184  67.644  1.00  0.00    -0.331 C  
HETATM   24  O   UNL     1     -12.030  11.117  67.740  1.00  0.00    -0.630 OA 
BRANCH  23  25
HETATM   25  C   UNL     1     -11.471  13.202  68.736  1.00  0.00    -0.307 A  
HETATM   26  N   UNL     1     -12.213  12.878  69.832  1.00  0.00    -0.237 NA 
HETATM   27  C   UNL     1     -12.314  13.800  70.804  1.00  0.00    -0.379 A  
HETATM   28  C   UNL     1     -11.669  15.054  70.732  1.00  0.00    -0.371 A  
HETATM   29  C   UNL     1     -10.882  15.333  69.606  1.00  0.00    -0.294 A  
HETATM   30  C   UNL     1     -11.824  15.994  71.763  1.00  0.00    -0.599 A  
HETATM   31  C   UNL     1     -10.783  14.395  68.587  1.00  0.00    -0.258 A  
HETATM   32  C   UNL     1     -12.623  15.702  72.865  1.00  0.00    -0.551 A  
HETATM   33  C   UNL     1     -13.253  14.464  72.949  1.00  0.00    -0.613 A  
HETATM   34  C   UNL     1     -13.089  13.527  71.924  1.00  0.00    -0.475 A  
ENDBRANCH  23  25
ENDBRANCH  20  21
BRANCH  20  35
HETATM   35  C   UNL     1     -10.808  12.338  64.033  1.00  0.00    -0.439 C  
BRANCH  35  36
HETATM   36  C   UNL     1     -12.223  12.847  63.902  1.00  0.00    -0.449 C  
HETATM   37  N   UNL     1     -12.394  13.957  63.134  1.00  0.00    -1.106 N  
HETATM   38  O   UNL     1     -13.171  12.326  64.479  1.00  0.00    -0.799 OA 
HETATM   39  H2  UNL     1     -11.611  14.419  62.673  1.00  0.00     0.000 HD 
HETATM   40  H1  UNL     1     -13.350  14.300  63.046  1.00  0.00     0.000 HD 
ENDBRANCH  35  36
ENDBRANCH  20  35
ENDBRANCH  17  20
ENDBRANCH  15  16
BRANCH  15  41
HETATM   41  C   UNL     1      -5.957  11.925  66.957  1.00  0.00    -0.153 C  
BRANCH  41  42
HETATM   42  C   UNL     1      -6.243  13.073  67.903  1.00  0.00    -0.134 A  
HETATM   43  C   UNL     1      -6.897  14.231  67.461  1.00  0.00    -0.158 A  
HETATM   44  C   UNL     1      -6.961  15.104  69.720  1.00  0.00    -0.174 A  
HETATM   45  C   UNL     1      -7.249  15.241  68.362  1.00  0.00    -0.114 A  
HETATM   46  C   UNL     1      -5.953  12.954  69.272  1.00  0.00    -0.093 A  
HETATM   47  C   UNL     1      -6.309  13.960  70.173  1.00  0.00    -0.083 A  
ENDBRANCH  41  42
ENDBRANCH  15  41
ENDBRANCH  12  15
ENDBRANCH  11  12
ENDBRANCH   8  11
BRANCH   9  48
HETATM   48  C   UNL     1      -7.903   8.852  71.292  1.00  0.00    -0.125 C  
HETATM   49  C   UNL     1      -7.637   8.307  74.311  1.00  0.00    -0.264 C  
HETATM   50  O   UNL     1      -6.918   9.535  71.566  1.00  0.00    -0.319 OA 
HETATM   51  C   UNL     1      -6.087   6.882  72.927  1.00  0.00    -0.056 C  
HETATM   52  C   UNL     1      -7.558   7.236  73.207  1.00  0.00    -0.082 C  
HETATM   53  N   UNL     1      -8.226   7.692  71.974  1.00  0.00    -0.101 N  
HETATM   54  C   UNL     1      -8.262   5.969  73.727  1.00  0.00    -0.108 C  
HETATM   55  H   UNL     1      -8.978   7.113  71.599  1.00  0.00     0.000 HD 
ENDBRANCH   9  48
TORSDOF 12
ENDMDL
MODEL        3
REMARK 921   NORMALIZED FREE ENERGY PREDICTED BY IDOCK:   -7.75 KCAL/MOL
REMARK 922        TOTAL FREE ENERGY PREDICTED BY IDOCK:  -17.29 KCAL/MOL
REMARK 923 INTER-LIGAND FREE ENERGY PREDICTED BY IDOCK:  -12.81 KCAL/MOL
REMARK 924 INTRA-LIGAND FREE ENERGY PREDICTED BY IDOCK:   -4.47 KCAL/MOL
REMARK 927      BINDING AFFINITY PREDICTED BY RF-SCORE:    0.00 PKD
ROOT
HETATM    1  C   UNL     1      -9.122   6.956  68.771  1.00  0.00    -0.133 C  
HETATM    2  C   UNL     1      -9.101   5.438  68.549  1.00  0.00    -0.121 C  
HETATM    3  C   UNL     1      -9.321   5.067  67.084  1.00  0.00    -0.132 C  
HETATM    4  C   UNL     1     -10.628   5.652  66.561  1.00  0.00    -0.320 C  
HETATM    5  C   UNL     1     -10.682   7.166  66.745  1.00  0.00    -0.259 C  
HETATM    6  C   UNL     1     -10.380   7.596  68.186  1.00  0.00    -0.250 C  
HETATM    7  C   UNL     1     -10.276   9.113  68.350  1.00  0.00    -0.200 C  
HETATM    8  N   UNL     1      -9.184   9.741  67.590  1.00  0.00    -0.131 NA 
HETATM    9  C   UNL     1      -7.905   8.983  67.593  1.00  0.00    -0.101 C  
HETATM   10  C   UNL     1      -7.820   7.615  68.299  1.00  0.00    -0.121 C  
ENDROOT
BRANCH   8  11
HETATM   11  C   UNL     1      -8.998  11.133  68.097  1.00  0.00    -0.159 C  
BRANCH  11  12
HETATM   12  C   UNL     1      -8.903  12.253  67.027  1.00  0.00    -0.205 C  
HETATM   13  H   UNL     1      -9.412  12.450  65.144  1.00  0.00     0.000 HD 
HETATM   14  O   UNL     1      -9.471  11.765  65.799  1.00  0.00    -0.234 OA 
BRANCH  12  15
HETATM   15  C   UNL     1      -9.655  13.555  67.421  1.00  0.00    -0.227 C  
BRANCH  15  16
HETATM   16  N   UNL     1     -10.329  13.370  68.721  1.00  0.00    -0.379 N  
HETATM   17  C   UNL     1     -11.676  13.633  68.888  1.00  0.00    -0.338 C  
HETATM   18  O   UNL     1     -12.368  14.156  68.013  1.00  0.00    -0.233 OA 
HETATM   19  H   UNL     1      -9.786  13.040  69.520  1.00  0.00     0.000 HD 
BRANCH  17  20
HETATM   20  C   UNL     1     -12.242  13.291  70.283  1.00  0.00    -0.321 C  
BRANCH  20  21
HETATM   21  N   UNL     1     -11.994  11.880  70.567  1.00  0.00    -0.484 N  
HETATM   22  H   UNL     1     -11.266  11.403  70.035  1.00  0.00     0.000 HD 
HETATM   23  C   UNL     1     -12.686  11.160  71.509  1.00  0.00    -0.394 C  
HETATM   24  O   UNL     1     -13.522  11.664  72.255  1.00  0.00    -0.397 OA 
BRANCH  23  25
HETATM   25  C   UNL     1     -12.322   9.716  71.612  1.00  0.00    -0.404 A  
HETATM   26  N   UNL     1     -11.025   9.443  71.924  1.00  0.00    -0.235 NA 
HETATM   27  C   UNL     1     -10.658   8.151  71.968  1.00  0.00    -0.269 A  
HETATM   28  C   UNL     1     -11.566   7.095  71.728  1.00  0.00    -0.314 A  
HETATM   29  C   UNL     1     -12.901   7.417  71.451  1.00  0.00    -0.408 A  
HETATM   30  C   UNL     1     -11.129   5.761  71.761  1.00  0.00    -0.301 A  
HETATM   31  C   UNL     1     -13.288   8.749  71.386  1.00  0.00    -0.289 A  
HETATM   32  C   UNL     1      -9.794   5.466  72.024  1.00  0.00    -0.212 A  
HETATM   33  C   UNL     1      -8.896   6.500  72.272  1.00  0.00    -0.134 A  
HETATM   34  C   UNL     1      -9.336   7.827  72.246  1.00  0.00    -0.212 A  
ENDBRANCH  23  25
ENDBRANCH  20  21
BRANCH  20  35
HETATM   35  C   UNL     1     -11.751  14.234  71.379  1.00  0.00    -0.029 C  
BRANCH  35  36
HETATM   36  C   UNL     1     -12.508  15.539  71.438  1.00  0.00    -0.417 C  
HETATM   37  N   UNL     1     -13.682  15.584  70.753  1.00  0.00    -0.859 N  
HETATM   38  O   UNL     1     -12.085  16.525  72.030  1.00  0.00    -0.384 OA 
HETATM   39  H2  UNL     1     -14.032  14.782  70.230  1.00  0.00     0.000 HD 
HETATM   40  H1  UNL     1     -14.193  16.466  70.793  1.00  0.00     0.000 HD 
ENDBRANCH  35  36
ENDBRANCH  20  35
ENDBRANCH  17  20
ENDBRANCH  15  16
BRANCH  15  41
HETATM   41  C   UNL     1      -8.751  14.816  67.428  1.00  0.00    -0.210 C  
BRANCH  41  42
HETATM   42  C   UNL     1      -9.442  16.162  67.494  1.00  0.00    -0.223 A  
HETATM   43  C   UNL     1      -9.630  16.820  68.717  1.00  0.00    -0.260 A  
HETATM   44  C   UNL     1     -10.528  18.761  67.578  1.00  0.00    -0.495 A  
HETATM   45  C   UNL     1     -10.174  18.108  68.758  1.00  0.00    -0.353 A  
HETATM   46  C   UNL     1      -9.811  16.830  66.315  1.00  0.00    -0.327 A  
HETATM   47  C   UNL     1     -10.349  18.118  66.356  1.00  0.00    -0.404 A  
ENDBRANCH  41  42
ENDBRANCH  15  41
ENDBRANCH  12  15
ENDBRANCH  11  12
ENDBRANCH   8  11
BRANCH   9  48
HETATM   48  C   UNL     1      -7.364   8.835  66.134  1.00  0.00    -0.086 C  
HETATM   49  C   UNL     1      -7.825   7.644  63.332  1.00  0.00    -0.125 C  
HETATM   50  O   UNL     1      -6.267   8.328  65.913  1.00  0.00    -0.047 OA 
HETATM   51  C   UNL     1      -6.652   9.873  63.259  1.00  0.00    -0.125 C  
HETATM   52  C   UNL     1      -7.934   9.138  63.689  1.00  0.00    -0.146 C  
HETATM   53  N   UNL     1      -8.182   9.325  65.131  1.00  0.00    -0.134 N  
HETATM   54  C   UNL     1      -9.112   9.730  62.891  1.00  0.00    -0.275 C  
HETATM   55  H   UNL     1      -9.011   9.851  65.406  1.00  0.00     0.000 HD 
ENDBRANCH   9  48
TORSDOF 12
ENDMDL
MODEL        4
REMARK 921   NORMALIZED FREE ENERGY PREDICTED BY IDOCK:   -7.64 KCAL/MOL
REMARK 922        TOTAL FREE ENERGY PREDICTED BY IDOCK:  -17.10 KCAL/MOL
REMARK 923 INTER-LIGAND FREE ENERGY PREDICTED BY IDOCK:  -14.48 KCAL/MOL
REMARK 924 INTRA-LIGAND FREE ENERGY PREDICTED BY IDOCK:   -2.63 KCAL/MOL
REMARK 927      BINDING AFFINITY PREDICTED BY RF-SCORE:    0.00 PKD
ROOT
HETATM    1  C   UNL     1     -10.282   4.802  70.356  1.00  0.00    -0.261 C  
HETATM    2  C   UNL     1      -9.325   3.760  69.762  1.00  0.00    -0.245 C  
HETATM    3  C   UNL     1      -7.884   4.262  69.713  1.00  0.00    -0.053 C  
HETATM    4  C   UNL     1      -7.785   5.566  68.929  1.00  0.00    -0.091 C  
HETATM    5  C   UNL     1      -8.707   6.639  69.500  1.00  0.00    -0.135 C  
HETATM    6  C   UNL     1     -10.154   6.153  69.653  1.00  0.00    -0.226 C  
HETATM    7  C   UNL     1     -11.054   7.161  70.369  1.00  0.00    -0.280 C  
HETATM    8  N   UNL     1     -10.666   7.457  71.756  1.00  0.00    -0.213 NA 
HETATM    9  C   UNL     1     -10.230   6.277  72.548  1.00  0.00    -0.184 C  
HETATM   10  C   UNL     1     -10.147   4.888  71.882  1.00  0.00    -0.262 C  
ENDROOT
BRANCH   8  11
HETATM   11  C   UNL     1     -11.795   8.174  72.418  1.00  0.00    -0.388 C  
BRANCH  11  12
HETATM   12  C   UNL     1     -12.800   8.896  71.481  1.00  0.00    -0.334 C  
HETATM   13  H   UNL     1     -14.723   9.281  71.504  1.00  0.00     0.000 HD 
HETATM   14  O   UNL     1     -14.108   8.840  72.077  1.00  0.00    -0.423 OA 
BRANCH  12  15
HETATM   15  C   UNL     1     -12.451  10.390  71.228  1.00  0.00    -0.415 C  
BRANCH  15  16
HETATM   16  N   UNL     1     -12.323  10.636  69.778  1.00  0.00    -0.517 N  
HETATM   17  C   UNL     1     -11.108  10.539  69.126  1.00  0.00    -0.250 C  
HETATM   18  O   UNL     1     -10.042  10.373  69.721  1.00  0.00    -0.227 OA 
HETATM   19  H   UNL     1     -13.155  10.885  69.241  1.00  0.00     0.000 HD 
BRANCH  17  20
HETATM   20  C   UNL     1     -11.169  10.729  67.595  1.00  0.00    -0.299 C  
BRANCH  20  21
HETATM   21  N   UNL     1     -10.911  12.130  67.276  1.00  0.00    -0.247 N  
HETATM   22  H   UNL     1     -10.109  12.584  67.713  1.00  0.00     0.000 HD 
HETATM   23  C   UNL     1     -11.688  12.871  66.419  1.00  0.00    -0.395 C  
HETATM   24  O   UNL     1     -12.623  12.394  65.782  1.00  0.00    -0.532 OA 
BRANCH  23  25
HETATM   25  C   UNL     1     -11.292  14.302  66.265  1.00  0.00    -0.346 A  
HETATM   26  N   UNL     1     -11.014  14.978  67.414  1.00  0.00    -0.307 NA 
HETATM   27  C   UNL     1     -10.710  16.282  67.308  1.00  0.00    -0.265 A  
HETATM   28  C   UNL     1     -10.649  16.948  66.063  1.00  0.00    -0.221 A  
HETATM   29  C   UNL     1     -10.901  16.208  64.900  1.00  0.00    -0.353 A  
HETATM   30  C   UNL     1     -10.350  18.319  66.004  1.00  0.00    -0.377 A  
HETATM   31  C   UNL     1     -11.233  14.863  64.999  1.00  0.00    -0.408 A  
HETATM   32  C   UNL     1     -10.117  19.037  67.174  1.00  0.00    -0.435 A  
HETATM   33  C   UNL     1     -10.165  18.386  68.403  1.00  0.00    -0.407 A  
HETATM   34  C   UNL     1     -10.455  17.019  68.457  1.00  0.00    -0.373 A  
ENDBRANCH  23  25
ENDBRANCH  20  21
BRANCH  20  35
HETATM   35  C   UNL     1     -10.280   9.750  66.832  1.00  0.00    -0.310 C  
BRANCH  35  36
HETATM   36  C   UNL     1      -9.672  10.334  65.579  1.00  0.00    -0.265 C  
HETATM   37  N   UNL     1     -10.374  10.148  64.429  1.00  0.00    -0.347 N  
HETATM   38  O   UNL     1      -8.592  10.912  65.573  1.00  0.00    -0.182 OA 
HETATM   39  H2  UNL     1     -11.259   9.642  64.413  1.00  0.00     0.000 HD 
HETATM   40  H1  UNL     1      -9.964  10.543  63.583  1.00  0.00     0.000 HD 
ENDBRANCH  35  36
ENDBRANCH  20  35
ENDBRANCH  17  20
ENDBRANCH  15  16
BRANCH  15  41
HETATM   41  C   UNL     1     -13.450  11.380  71.882  1.00  0.00    -0.280 C  
BRANCH  41  42
HETATM   42  C   UNL     1     -13.114  12.855  71.805  1.00  0.00    -0.458 A  
HETATM   43  C   UNL     1     -12.307  13.361  70.778  1.00  0.00    -0.433 A  
HETATM   44  C   UNL     1     -12.679  15.627  71.550  1.00  0.00    -0.522 A  
HETATM   45  C   UNL     1     -12.087  14.737  70.655  1.00  0.00    -0.374 A  
HETATM   46  C   UNL     1     -13.697  13.763  72.704  1.00  0.00    -0.566 A  
HETATM   47  C   UNL     1     -13.481  15.138  72.578  1.00  0.00    -0.566 A  
ENDBRANCH  41  42
ENDBRANCH  15  41
ENDBRANCH  12  15
ENDBRANCH  11  12
ENDBRANCH   8  11
BRANCH   9  48
HETATM   48  C   UNL     1      -8.873   6.578  73.260  1.00  0.00    -0.124 C  
HETATM   49  C   UNL     1      -5.800   6.538  73.058  1.00  0.00    -0.042 C  
HETATM   50  O   UNL     1      -8.577   6.029  74.320  1.00  0.00    -0.118 OA 
HETATM   51  C   UNL     1      -6.656   8.453  74.455  1.00  0.00    -0.166 C  
HETATM   52  C   UNL     1      -6.671   7.808  73.058  1.00  0.00    -0.075 C  
HETATM   53  N   UNL     1      -8.053   7.505  72.640  1.00  0.00    -0.106 N  
HETATM   54  C   UNL     1      -6.048   8.808  72.065  1.00  0.00    -0.073 C  
HETATM   55  H   UNL     1      -8.430   8.014  71.840  1.00  0.00     0.000 HD 
ENDBRANCH   9  48
TORSDOF 12
ENDMDL
MODEL        5
REMARK 921   NORMALIZED FREE ENERGY PREDICTED BY IDOCK:   -7.61 KCAL/MOL
REMARK 922        TOTAL FREE ENERGY PREDICTED BY IDOCK:  -17.05 KCAL/MOL
REMARK 923 INTER-LIGAND FREE ENERGY PREDICTED BY IDOCK:  -14.07 KCAL/MOL
REMARK 924 INTRA-LIGAND FREE ENERGY PREDICTED BY IDOCK:   -2.98 KCAL/MOL
REMARK 927      BINDING AFFINITY PREDICTED BY RF-SCORE:    0.00 PKD
ROOT
HETATM    1  C   UNL     1     -10.202   5.085  70.922  1.00  0.00    -0.287 C  
HETATM    2  C   UNL     1      -9.457   3.861  70.375  1.00  0.00    -0.252 C  
HETATM    3  C   UNL     1      -8.753   4.158  69.053  1.00  0.00    -0.123 C  
HETATM    4  C   UNL     1      -9.738   4.675  68.012  1.00  0.00    -0.197 C  
HETATM    5  C   UNL     1     -10.489   5.907  68.507  1.00  0.00    -0.297 C  
HETATM    6  C   UNL     1     -11.142   5.687  69.878  1.00  0.00    -0.184 C  
HETATM    7  C   UNL     1     -11.763   6.959  70.458  1.00  0.00    -0.350 C  
HETATM    8  N   UNL     1     -10.806   8.044  70.727  1.00  0.00    -0.228 NA 
HETATM    9  C   UNL     1      -9.515   7.605  71.319  1.00  0.00    -0.153 C  
HETATM   10  C   UNL     1      -9.238   6.104  71.542  1.00  0.00    -0.152 C  
ENDROOT
BRANCH   8  11
HETATM   11  C   UNL     1     -11.481   9.066  71.580  1.00  0.00    -0.361 C  
BRANCH  11  12
HETATM   12  C   UNL     1     -12.581   9.921  70.896  1.00  0.00    -0.302 C  
HETATM   13  H   UNL     1     -14.484  10.281  71.207  1.00  0.00     0.000 HD 
HETATM   14  O   UNL     1     -13.810   9.757  71.625  1.00  0.00    -0.246 OA 
BRANCH  12  15
HETATM   15  C   UNL     1     -12.249  11.439  70.849  1.00  0.00    -0.344 C  
BRANCH  15  16
HETATM   16  N   UNL     1     -12.212  11.901  69.448  1.00  0.00    -0.188 N  
HETATM   17  C   UNL     1     -11.150  11.609  68.611  1.00  0.00    -0.234 C  
HETATM   18  O   UNL     1     -10.118  11.065  69.007  1.00  0.00    -0.205 OA 
HETATM   19  H   UNL     1     -12.991  12.451  69.086  1.00  0.00     0.000 HD 
BRANCH  17  20
HETATM   20  C   UNL     1     -11.318  12.081  67.152  1.00  0.00    -0.333 C  
BRANCH  20  21
HETATM   21  N   UNL     1     -10.616  13.349  66.975  1.00  0.00    -0.263 N  
HETATM   22  H   UNL     1      -9.658  13.325  66.627  1.00  0.00     0.000 HD 
HETATM   23  C   UNL     1     -11.175  14.573  67.251  1.00  0.00    -0.332 C  
HETATM   24  O   UNL     1     -12.346  14.712  67.594  1.00  0.00    -0.171 OA 
BRANCH  23  25
HETATM   25  C   UNL     1     -10.277  15.750  67.057  1.00  0.00    -0.280 A  
HETATM   26  N   UNL     1     -10.726  16.938  67.548  1.00  0.00    -0.308 NA 
HETATM   27  C   UNL     1      -9.963  18.023  67.337  1.00  0.00    -0.326 A  
HETATM   28  C   UNL     1      -8.727  17.961  66.656  1.00  0.00    -0.280 A  
HETATM   29  C   UNL     1      -8.280  16.713  66.201  1.00  0.00    -0.295 A  
HETATM   30  C   UNL     1      -7.976  19.128  66.438  1.00  0.00    -0.306 A  
HETATM   31  C   UNL     1      -9.068  15.587  66.399  1.00  0.00    -0.351 A  
HETATM   32  C   UNL     1      -8.446  20.359  66.886  1.00  0.00    -0.315 A  
HETATM   33  C   UNL     1      -9.658  20.427  67.567  1.00  0.00    -0.560 A  
HETATM   34  C   UNL     1     -10.399  19.262  67.789  1.00  0.00    -0.531 A  
ENDBRANCH  23  25
ENDBRANCH  20  21
BRANCH  20  35
HETATM   35  C   UNL     1     -10.932  11.016  66.127  1.00  0.00    -0.157 C  
BRANCH  35  36
HETATM   36  C   UNL     1     -11.034  11.488  64.697  1.00  0.00    -0.288 C  
HETATM   37  N   UNL     1     -10.437  10.701  63.761  1.00  0.00    -0.467 N  
HETATM   38  O   UNL     1     -11.584  12.536  64.381  1.00  0.00    -0.323 OA 
HETATM   39  H2  UNL     1      -9.949   9.841  64.011  1.00  0.00     0.000 HD 
HETATM   40  H1  UNL     1     -10.506  11.020  62.795  1.00  0.00     0.000 HD 
ENDBRANCH  35  36
ENDBRANCH  20  35
ENDBRANCH  17  20
ENDBRANCH  15  16
BRANCH  15  41
HETATM   41  C   UNL     1     -13.205  12.310  71.706  1.00  0.00    -0.428 C  
BRANCH  41  42
HETATM   42  C   UNL     1     -12.820  13.760  71.915  1.00  0.00    -0.400 A  
HETATM   43  C   UNL     1     -13.255  14.469  73.043  1.00  0.00    -0.575 A  
HETATM   44  C   UNL     1     -11.917  16.385  72.402  1.00  0.00    -0.553 A  
HETATM   45  C   UNL     1     -12.811  15.774  73.282  1.00  0.00    -0.655 A  
HETATM   46  C   UNL     1     -11.927  14.392  71.035  1.00  0.00    -0.389 A  
HETATM   47  C   UNL     1     -11.479  15.693  71.276  1.00  0.00    -0.469 A  
ENDBRANCH  41  42
ENDBRANCH  15  41
ENDBRANCH  12  15
ENDBRANCH  11  12
ENDBRANCH   8  11
BRANCH   9  48
HETATM   48  C   UNL     1      -8.321   8.228  70.528  1.00  0.00    -0.124 C  
HETATM   49  C   UNL     1      -6.210   7.823  68.322  1.00  0.00    -0.045 C  
HETATM   50  O   UNL     1      -7.303   8.604  71.106  1.00  0.00    -0.070 OA 
HETATM   51  C   UNL     1      -7.008  10.208  68.476  1.00  0.00    -0.069 C  
HETATM   52  C   UNL     1      -7.434   8.752  68.217  1.00  0.00    -0.092 C  
HETATM   53  N   UNL     1      -8.494   8.345  69.159  1.00  0.00    -0.122 N  
HETATM   54  C   UNL     1      -7.974   8.662  66.777  1.00  0.00    -0.094 C  
HETATM   55  H   UNL     1      -9.415   8.137  68.776  1.00  0.00     0.000 HD 
ENDBRANCH   9  48
TORSDOF 12
ENDMDL
MODEL        6
REMARK 921   NORMALIZED FREE ENERGY PREDICTED BY IDOCK:   -7.35 KCAL/MOL
REMARK 922        TOTAL FREE ENERGY PREDICTED BY IDOCK:  -16.60 KCAL/MOL
REMARK 923 INTER-LIGAND FREE ENERGY PREDICTED BY IDOCK:  -13.02 KCAL/MOL
REMARK 924 INTRA-LIGAND FREE ENERGY PREDICTED BY IDOCK:   -3.58 KCAL/MOL
REMARK 927      BINDING AFFINITY PREDICTED BY RF-SCORE:    0.00 PKD
ROOT
HETATM    1  C   UNL     1      -9.420   5.011  66.520  1.00  0.00    -0.151 C  
HETATM    2  C   UNL     1      -9.499   3.500  66.779  1.00  0.00    -0.190 C  
HETATM    3  C   UNL     1      -9.255   3.153  68.245  1.00  0.00    -0.247 C  
HETATM    4  C   UNL     1      -7.910   3.693  68.719  1.00  0.00    -0.055 C  
HETATM    5  C   UNL     1      -7.797   5.198  68.499  1.00  0.00    -0.079 C  
HETATM    6  C   UNL     1      -8.120   5.609  67.057  1.00  0.00    -0.102 C  
HETATM    7  C   UNL     1      -8.164   7.125  66.860  1.00  0.00    -0.117 C  
HETATM    8  N   UNL     1      -9.207   7.816  67.634  1.00  0.00    -0.136 NA 
HETATM    9  C   UNL     1     -10.517   7.114  67.683  1.00  0.00    -0.239 C  
HETATM   10  C   UNL     1     -10.680   5.736  67.012  1.00  0.00    -0.369 C  
ENDROOT
BRANCH   8  11
HETATM   11  C   UNL     1      -9.348   9.203  67.099  1.00  0.00    -0.143 C  
BRANCH  11  12
HETATM   12  C   UNL     1      -9.342  10.351  68.143  1.00  0.00    -0.145 C  
HETATM   13  H   UNL     1      -8.633  10.607  69.954  1.00  0.00     0.000 HD 
HETATM   14  O   UNL     1      -8.637   9.905  69.314  1.00  0.00    -0.141 OA 
BRANCH  12  15
HETATM   15  C   UNL     1      -8.656  11.650  67.635  1.00  0.00    -0.142 C  
BRANCH  15  16
HETATM   16  N   UNL     1      -9.635  12.755  67.605  1.00  0.00    -0.186 N  
HETATM   17  C   UNL     1     -10.521  12.916  66.556  1.00  0.00    -0.265 C  
HETATM   18  O   UNL     1     -10.469  12.239  65.528  1.00  0.00    -0.250 OA 
HETATM   19  H   UNL     1      -9.659  13.419  68.379  1.00  0.00     0.000 HD 
BRANCH  17  20
HETATM   20  C   UNL     1     -11.542  14.060  66.731  1.00  0.00    -0.386 C  
BRANCH  20  21
HETATM   21  N   UNL     1     -10.825  15.329  66.835  1.00  0.00    -0.315 N  
HETATM   22  H   UNL     1     -10.227  15.609  66.058  1.00  0.00     0.000 HD 
HETATM   23  C   UNL     1     -10.912  16.165  67.921  1.00  0.00    -0.318 C  
HETATM   24  O   UNL     1     -11.668  15.957  68.867  1.00  0.00    -0.390 OA 
BRANCH  23  25
HETATM   25  C   UNL     1     -10.061  17.389  67.861  1.00  0.00    -0.326 A  
HETATM   26  N   UNL     1      -9.121  17.422  66.875  1.00  0.00    -0.238 NA 
HETATM   27  C   UNL     1      -8.304  18.488  66.834  1.00  0.00    -0.263 A  
HETATM   28  C   UNL     1      -8.408  19.559  67.750  1.00  0.00    -0.345 A  
HETATM   29  C   UNL     1      -9.413  19.507  68.724  1.00  0.00    -0.447 A  
HETATM   30  C   UNL     1      -7.515  20.641  67.682  1.00  0.00    -0.298 A  
HETATM   31  C   UNL     1     -10.253  18.402  68.787  1.00  0.00    -0.333 A  
HETATM   32  C   UNL     1      -6.513  20.665  66.714  1.00  0.00    -0.307 A  
HETATM   33  C   UNL     1      -6.413  19.619  65.803  1.00  0.00    -0.248 A  
HETATM   34  C   UNL     1      -7.309  18.547  65.868  1.00  0.00    -0.242 A  
ENDBRANCH  23  25
ENDBRANCH  20  21
BRANCH  20  35
HETATM   35  C   UNL     1     -12.636  14.058  65.666  1.00  0.00    -0.542 C  
BRANCH  35  36
HETATM   36  C   UNL     1     -12.206  14.671  64.355  1.00  0.00    -0.452 C  
HETATM   37  N   UNL     1     -12.038  13.809  63.315  1.00  0.00    -1.000 N  
HETATM   38  O   UNL     1     -11.979  15.868  64.225  1.00  0.00    -0.460 OA 
HETATM   39  H2  UNL     1     -12.193  12.807  63.416  1.00  0.00     0.000 HD 
HETATM   40  H1  UNL     1     -11.747  14.224  62.430  1.00  0.00     0.000 HD 
ENDBRANCH  35  36
ENDBRANCH  20  35
ENDBRANCH  17  20
ENDBRANCH  15  16
BRANCH  15  41
HETATM   41  C   UNL     1      -7.390  12.040  68.442  1.00  0.00    -0.096 C  
BRANCH  41  42
HETATM   42  C   UNL     1      -7.032  13.511  68.501  1.00  0.00    -0.102 A  
HETATM   43  C   UNL     1      -7.664  14.373  69.408  1.00  0.00     0.061 A  
HETATM   44  C   UNL     1      -6.203  16.192  68.753  1.00  0.00    -0.117 A  
HETATM   45  C   UNL     1      -7.255  15.706  69.529  1.00  0.00    -0.198 A  
HETATM   46  C   UNL     1      -5.980  14.018  67.722  1.00  0.00    -0.115 A  
HETATM   47  C   UNL     1      -5.569  15.346  67.846  1.00  0.00    -0.148 A  
ENDBRANCH  41  42
ENDBRANCH  15  41
ENDBRANCH  12  15
ENDBRANCH  11  12
ENDBRANCH   8  11
BRANCH   9  48
HETATM   48  C   UNL     1     -11.023   7.022  69.159  1.00  0.00    -0.158 C  
HETATM   49  C   UNL     1     -10.607   7.913  72.077  1.00  0.00    -0.296 C  
HETATM   50  O   UNL     1     -11.082   5.942  69.742  1.00  0.00    -0.377 OA 
HETATM   51  C   UNL     1     -13.037   7.574  71.502  1.00  0.00    -0.402 C  
HETATM   52  C   UNL     1     -11.763   8.369  71.167  1.00  0.00    -0.280 C  
HETATM   53  N   UNL     1     -11.412   8.215  69.743  1.00  0.00    -0.432 N  
HETATM   54  C   UNL     1     -12.038   9.856  71.464  1.00  0.00    -0.496 C  
HETATM   55  H   UNL     1     -11.461   9.043  69.149  1.00  0.00     0.000 HD 
ENDBRANCH   9  48
TORSDOF 12
ENDMDL
MODEL        7
REMARK 921   NORMALIZED FREE ENERGY PREDICTED BY IDOCK:   -7.34 KCAL/MOL
REMARK 922        TOTAL FREE ENERGY PREDICTED BY IDOCK:  -16.58 KCAL/MOL
REMARK 923 INTER-LIGAND FREE ENERGY PREDICTED BY IDOCK:  -13.00 KCAL/MOL
REMARK 924 INTRA-LIGAND FREE ENERGY PREDICTED BY IDOCK:   -3.58 KCAL/MOL
REMARK 927      BINDING AFFINITY PREDICTED BY RF-SCORE:    0.00 PKD
ROOT
HETATM    1  C   UNL     1      -9.102   4.924  69.077  1.00  0.00    -0.150 C  
HETATM    2  C   UNL     1      -9.682   3.784  69.924  1.00  0.00    -0.200 C  
HETATM    3  C   UNL     1      -9.770   4.151  71.403  1.00  0.00    -0.251 C  
HETATM    4  C   UNL     1      -8.407   4.563  71.947  1.00  0.00    -0.108 C  
HETATM    5  C   UNL     1      -7.802   5.711  71.145  1.00  0.00    -0.110 C  
HETATM    6  C   UNL     1      -7.772   5.425  69.638  1.00  0.00    -0.074 C  
HETATM    7  C   UNL     1      -7.315   6.627  68.809  1.00  0.00    -0.090 C  
HETATM    8  N   UNL     1      -8.191   7.805  68.897  1.00  0.00    -0.126 NA 
HETATM    9  C   UNL     1      -9.647   7.502  68.882  1.00  0.00    -0.149 C  
HETATM   10  C   UNL     1     -10.132   6.039  68.848  1.00  0.00    -0.220 C  
ENDROOT
BRANCH   8  11
HETATM   11  C   UNL     1      -7.817   8.751  67.805  1.00  0.00    -0.102 C  
BRANCH  11  12
HETATM   12  C   UNL     1      -7.304  10.148  68.245  1.00  0.00    -0.081 C  
HETATM   13  H   UNL     1      -5.698  10.847  69.127  1.00  0.00     0.000 HD 
HETATM   14  O   UNL     1      -6.012   9.992  68.857  1.00  0.00    -0.035 OA 
BRANCH  12  15
HETATM   15  C   UNL     1      -7.162  11.157  67.071  1.00  0.00    -0.128 C  
BRANCH  15  16
HETATM   16  N   UNL     1      -8.462  11.804  66.806  1.00  0.00    -0.180 N  
HETATM   17  C   UNL     1      -9.269  11.415  65.752  1.00  0.00    -0.208 C  
HETATM   18  O   UNL     1      -8.906  10.605  64.897  1.00  0.00    -0.190 OA 
HETATM   19  H   UNL     1      -8.775  12.559  67.416  1.00  0.00     0.000 HD 
BRANCH  17  20
HETATM   20  C   UNL     1     -10.637  12.125  65.678  1.00  0.00    -0.262 C  
BRANCH  20  21
HETATM   21  N   UNL     1     -10.507  13.472  66.227  1.00  0.00    -0.285 N  
HETATM   22  H   UNL     1      -9.896  14.131  65.744  1.00  0.00     0.000 HD 
HETATM   23  C   UNL     1     -11.161  13.901  67.355  1.00  0.00    -0.312 C  
HETATM   24  O   UNL     1     -11.980  13.211  67.957  1.00  0.00    -0.351 OA 
BRANCH  23  25
HETATM   25  C   UNL     1     -10.855  15.297  67.786  1.00  0.00    -0.295 A  
HETATM   26  N   UNL     1     -10.775  16.229  66.796  1.00  0.00    -0.257 NA 
HETATM   27  C   UNL     1     -10.445  17.482  67.151  1.00  0.00    -0.312 A  
HETATM   28  C   UNL     1     -10.208  17.853  68.494  1.00  0.00    -0.393 A  
HETATM   29  C   UNL     1     -10.341  16.874  69.487  1.00  0.00    -0.189 A  
HETATM   30  C   UNL     1      -9.842  19.171  68.813  1.00  0.00    -0.502 A  
HETATM   31  C   UNL     1     -10.665  15.572  69.131  1.00  0.00    -0.250 A  
HETATM   32  C   UNL     1      -9.703  20.124  67.807  1.00  0.00    -0.529 A  
HETATM   33  C   UNL     1      -9.945  19.768  66.484  1.00  0.00    -0.570 A  
HETATM   34  C   UNL     1     -10.317  18.457  66.171  1.00  0.00    -0.431 A  
ENDBRANCH  23  25
ENDBRANCH  20  21
BRANCH  20  35
HETATM   35  C   UNL     1     -11.261  12.085  64.285  1.00  0.00    -0.421 C  
BRANCH  35  36
HETATM   36  C   UNL     1     -12.398  13.062  64.103  1.00  0.00    -0.358 C  
HETATM   37  N   UNL     1     -12.379  13.798  62.959  1.00  0.00    -1.030 N  
HETATM   38  O   UNL     1     -13.274  13.223  64.944  1.00  0.00    -0.703 OA 
HETATM   39  H2  UNL     1     -11.640  13.697  62.265  1.00  0.00     0.000 HD 
HETATM   40  H1  UNL     1     -13.147  14.458  62.837  1.00  0.00     0.000 HD 
ENDBRANCH  35  36
ENDBRANCH  20  35
ENDBRANCH  17  20
ENDBRANCH  15  16
BRANCH  15  41
HETATM   41  C   UNL     1      -6.043  12.209  67.289  1.00  0.00    -0.153 C  
BRANCH  41  42
HETATM   42  C   UNL     1      -6.404  13.451  68.076  1.00  0.00    -0.132 A  
HETATM   43  C   UNL     1      -6.304  13.477  69.474  1.00  0.00    -0.108 A  
HETATM   44  C   UNL     1      -6.867  15.834  69.509  1.00  0.00    -0.187 A  
HETATM   45  C   UNL     1      -6.539  14.658  70.185  1.00  0.00    -0.143 A  
HETATM   46  C   UNL     1      -6.743  14.641  67.411  1.00  0.00    -0.039 A  
HETATM   47  C   UNL     1      -6.972  15.821  68.120  1.00  0.00    -0.125 A  
ENDBRANCH  41  42
ENDBRANCH  15  41
ENDBRANCH  12  15
ENDBRANCH  11  12
ENDBRANCH   8  11
BRANCH   9  48
HETATM   48  C   UNL     1     -10.363   8.245  70.055  1.00  0.00    -0.212 C  
HETATM   49  C   UNL     1     -12.849   9.818  70.964  1.00  0.00    -0.374 C  
HETATM   50  O   UNL     1      -9.839   9.210  70.608  1.00  0.00    -0.208 OA 
HETATM   51  C   UNL     1     -11.866   8.409  72.806  1.00  0.00    -0.234 C  
HETATM   52  C   UNL     1     -12.498   8.385  71.404  1.00  0.00    -0.288 C  
HETATM   53  N   UNL     1     -11.593   7.737  70.436  1.00  0.00    -0.456 N  
HETATM   54  C   UNL     1     -13.810   7.582  71.487  1.00  0.00    -0.487 C  
HETATM   55  H   UNL     1     -11.894   6.856  70.020  1.00  0.00     0.000 HD 
ENDBRANCH   9  48
TORSDOF 12
ENDMDL
MODEL        8
REMARK 921   NORMALIZED FREE ENERGY PREDICTED BY IDOCK:   -7.30 KCAL/MOL
REMARK 922        TOTAL FREE ENERGY PREDICTED BY IDOCK:  -16.52 KCAL/MOL
REMARK 923 INTER-LIGAND FREE ENERGY PREDICTED BY IDOCK:  -13.61 KCAL/MOL
REMARK 924 INTRA-LIGAND FREE ENERGY PREDICTED BY IDOCK:   -2.90 KCAL/MOL
REMARK 927      BINDING AFFINITY PREDICTED BY RF-SCORE:    0.00 PKD
ROOT
HETATM    1  C   UNL     1      -9.129   3.972  67.692  1.00  0.00    -0.172 C  
HETATM    2  C   UNL     1      -9.474   2.575  68.224  1.00  0.00    -0.222 C  
HETATM    3  C   UNL     1      -9.389   2.501  69.747  1.00  0.00    -0.176 C  
HETATM    4  C   UNL     1      -8.008   2.919  70.239  1.00  0.00    -0.051 C  
HETATM    5  C   UNL     1      -7.633   4.315  69.749  1.00  0.00    -0.053 C  
HETATM    6  C   UNL     1      -7.787   4.467  68.230  1.00  0.00    -0.079 C  
HETATM    7  C   UNL     1      -7.567   5.901  67.745  1.00  0.00    -0.089 C  
HETATM    8  N   UNL     1      -8.530   6.882  68.267  1.00  0.00    -0.125 NA 
HETATM    9  C   UNL     1      -9.938   6.407  68.320  1.00  0.00    -0.140 C  
HETATM   10  C   UNL     1     -10.282   4.961  67.910  1.00  0.00    -0.106 C  
ENDROOT
BRANCH   8  11
HETATM   11  C   UNL     1      -8.404   8.136  67.467  1.00  0.00    -0.123 C  
BRANCH  11  12
HETATM   12  C   UNL     1      -7.973   9.410  68.241  1.00  0.00    -0.094 C  
HETATM   13  H   UNL     1      -6.602   9.857  69.569  1.00  0.00     0.000 HD 
HETATM   14  O   UNL     1      -6.865   9.077  69.095  1.00  0.00    -0.053 OA 
BRANCH  12  15
HETATM   15  C   UNL     1      -7.533  10.580  67.317  1.00  0.00    -0.095 C  
BRANCH  15  16
HETATM   16  N   UNL     1      -8.706  11.397  66.949  1.00  0.00    -0.159 N  
HETATM   17  C   UNL     1      -9.311  11.290  65.711  1.00  0.00    -0.223 C  
HETATM   18  O   UNL     1      -8.842  10.613  64.795  1.00  0.00    -0.187 OA 
HETATM   19  H   UNL     1      -9.081  12.060  67.628  1.00  0.00     0.000 HD 
BRANCH  17  20
HETATM   20  C   UNL     1     -10.584  12.143  65.528  1.00  0.00    -0.277 C  
BRANCH  20  21
HETATM   21  N   UNL     1     -10.766  12.989  66.705  1.00  0.00    -0.272 N  
HETATM   22  H   UNL     1     -10.313  13.903  66.715  1.00  0.00     0.000 HD 
HETATM   23  C   UNL     1     -11.513  12.623  67.797  1.00  0.00    -0.322 C  
HETATM   24  O   UNL     1     -12.163  11.582  67.845  1.00  0.00    -0.586 OA 
BRANCH  23  25
HETATM   25  C   UNL     1     -11.533  13.604  68.922  1.00  0.00    -0.303 A  
HETATM   26  N   UNL     1     -12.270  13.256  70.013  1.00  0.00    -0.305 NA 
HETATM   27  C   UNL     1     -12.351  14.146  71.016  1.00  0.00    -0.366 A  
HETATM   28  C   UNL     1     -11.687  15.393  70.979  1.00  0.00    -0.408 A  
HETATM   29  C   UNL     1     -10.906  15.697  69.857  1.00  0.00    -0.324 A  
HETATM   30  C   UNL     1     -11.821  16.300  72.042  1.00  0.00    -0.568 A  
HETATM   31  C   UNL     1     -10.829  14.792  68.807  1.00  0.00    -0.259 A  
HETATM   32  C   UNL     1     -12.615  15.982  73.141  1.00  0.00    -0.625 A  
HETATM   33  C   UNL     1     -13.263  14.752  73.189  1.00  0.00    -0.543 A  
HETATM   34  C   UNL     1     -13.121  13.847  72.132  1.00  0.00    -0.497 A  
ENDBRANCH  23  25
ENDBRANCH  20  21
BRANCH  20  35
HETATM   35  C   UNL     1     -10.611  12.910  64.208  1.00  0.00    -0.430 C  
BRANCH  35  36
HETATM   36  C   UNL     1     -11.968  12.934  63.549  1.00  0.00    -0.556 C  
HETATM   37  N   UNL     1     -12.430  11.742  63.082  1.00  0.00    -0.939 N  
HETATM   38  O   UNL     1     -12.615  13.964  63.398  1.00  0.00    -0.853 OA 
HETATM   39  H2  UNL     1     -11.890  10.882  63.173  1.00  0.00     0.000 HD 
HETATM   40  H1  UNL     1     -13.347  11.758  62.636  1.00  0.00     0.000 HD 
ENDBRANCH  35  36
ENDBRANCH  20  35
ENDBRANCH  17  20
ENDBRANCH  15  16
BRANCH  15  41
HETATM   41  C   UNL     1      -6.402  11.455  67.918  1.00  0.00    -0.055 C  
BRANCH  41  42
HETATM   42  C   UNL     1      -6.775  12.847  68.383  1.00  0.00    -0.092 A  
HETATM   43  C   UNL     1      -6.627  13.227  69.724  1.00  0.00     0.052 A  
HETATM   44  C   UNL     1      -7.266  15.502  69.189  1.00  0.00    -0.174 A  
HETATM   45  C   UNL     1      -6.875  14.544  70.124  1.00  0.00    -0.026 A  
HETATM   46  C   UNL     1      -7.177  13.821  67.455  1.00  0.00    -0.173 A  
HETATM   47  C   UNL     1      -7.420  15.137  67.854  1.00  0.00    -0.149 A  
ENDBRANCH  41  42
ENDBRANCH  15  41
ENDBRANCH  12  15
ENDBRANCH  11  12
ENDBRANCH   8  11
BRANCH   9  48
HETATM   48  C   UNL     1     -10.550   6.694  69.729  1.00  0.00    -0.228 C  
HETATM   49  C   UNL     1     -10.534   8.510  72.216  1.00  0.00    -0.402 C  
HETATM   50  O   UNL     1     -10.491   5.857  70.628  1.00  0.00    -0.223 OA 
HETATM   51  C   UNL     1     -12.822   7.587  71.702  1.00  0.00    -0.392 C  
HETATM   52  C   UNL     1     -11.663   8.449  71.170  1.00  0.00    -0.280 C  
HETATM   53  N   UNL     1     -11.170   7.921  69.884  1.00  0.00    -0.444 N  
HETATM   54  C   UNL     1     -12.192   9.881  70.962  1.00  0.00    -0.446 C  
HETATM   55  H   UNL     1     -11.296   8.500  69.054  1.00  0.00     0.000 HD 
ENDBRANCH   9  48
TORSDOF 12
ENDMDL
MODEL        9
REMARK 921   NORMALIZED FREE ENERGY PREDICTED BY IDOCK:   -7.25 KCAL/MOL
REMARK 922        TOTAL FREE ENERGY PREDICTED BY IDOCK:  -16.44 KCAL/MOL
REMARK 923 INTER-LIGAND FREE ENERGY PREDICTED BY IDOCK:  -12.26 KCAL/MOL
REMARK 924 INTRA-LIGAND FREE ENERGY PREDICTED BY IDOCK:   -4.18 KCAL/MOL
REMARK 927      BINDING AFFINITY PREDICTED BY RF-SCORE:    0.00 PKD
ROOT
HETATM    1  C   UNL     1      -9.109   8.823  65.194  1.00  0.00    -0.104 C  
HETATM    2  C   UNL     1      -7.963   7.805  65.122  1.00  0.00    -0.129 C  
HETATM    3  C   UNL     1      -6.609   8.477  64.901  1.00  0.00    -0.068 C  
HETATM    4  C   UNL     1      -6.623   9.336  63.642  1.00  0.00    -0.092 C  
HETATM    5  C   UNL     1      -7.737  10.377  63.681  1.00  0.00    -0.050 C  
HETATM    6  C   UNL     1      -9.108   9.762  63.988  1.00  0.00    -0.280 C  
HETATM    7  C   UNL     1     -10.205  10.809  64.187  1.00  0.00    -0.344 C  
HETATM    8  N   UNL     1      -9.995  11.713  65.327  1.00  0.00    -0.248 NA 
HETATM    9  C   UNL     1      -9.473  11.058  66.556  1.00  0.00    -0.187 C  
HETATM   10  C   UNL     1      -9.132   9.554  66.543  1.00  0.00    -0.185 C  
ENDROOT
BRANCH   8  11
HETATM   11  C   UNL     1     -11.272  12.439  65.594  1.00  0.00    -0.322 C  
BRANCH  11  12
HETATM   12  C   UNL     1     -11.277  13.962  65.298  1.00  0.00    -0.313 C  
HETATM   13  H   UNL     1     -12.494  15.223  64.418  1.00  0.00     0.000 HD 
HETATM   14  O   UNL     1     -12.491  14.291  64.600  1.00  0.00    -0.571 OA 
BRANCH  12  15
HETATM   15  C   UNL     1     -11.204  14.844  66.576  1.00  0.00    -0.335 C  
BRANCH  15  16
HETATM   16  N   UNL     1     -11.461  14.017  67.771  1.00  0.00    -0.303 N  
HETATM   17  C   UNL     1     -11.984  14.556  68.932  1.00  0.00    -0.290 C  
HETATM   18  O   UNL     1     -12.147  15.766  69.093  1.00  0.00    -0.353 OA 
HETATM   19  H   UNL     1     -11.247  13.020  67.740  1.00  0.00     0.000 HD 
BRANCH  17  20
HETATM   20  C   UNL     1     -12.285  13.535  70.050  1.00  0.00    -0.312 C  
BRANCH  20  21
HETATM   21  N   UNL     1     -11.443  12.357  69.861  1.00  0.00    -0.513 N  
HETATM   22  H   UNL     1     -10.554  12.474  69.375  1.00  0.00     0.000 HD 
HETATM   23  C   UNL     1     -11.782  11.101  70.301  1.00  0.00    -0.341 C  
HETATM   24  O   UNL     1     -12.789  10.874  70.967  1.00  0.00    -0.368 OA 
BRANCH  23  25
HETATM   25  C   UNL     1     -10.813  10.017  69.963  1.00  0.00    -0.302 A  
HETATM   26  N   UNL     1      -9.494  10.311  70.138  1.00  0.00     0.058 NA 
HETATM   27  C   UNL     1      -8.599   9.373  69.788  1.00  0.00    -0.175 A  
HETATM   28  C   UNL     1      -8.981   8.112  69.278  1.00  0.00    -0.148 A  
HETATM   29  C   UNL     1     -10.348   7.832  69.151  1.00  0.00    -0.219 A  
HETATM   30  C   UNL     1      -8.007   7.172  68.903  1.00  0.00    -0.120 A  
HETATM   31  C   UNL     1     -11.282   8.801  69.493  1.00  0.00     0.112 A  
HETATM   32  C   UNL     1      -6.653   7.477  69.025  1.00  0.00    -0.044 A  
HETATM   33  C   UNL     1      -6.270   8.713  69.537  1.00  0.00    -0.036 A  
HETATM   34  C   UNL     1      -7.243   9.643  69.917  1.00  0.00    -0.106 A  
ENDBRANCH  23  25
ENDBRANCH  20  21
BRANCH  20  35
HETATM   35  C   UNL     1     -12.199  14.134  71.451  1.00  0.00    -0.383 C  
BRANCH  35  36
HETATM   36  C   UNL     1     -13.536  14.256  72.141  1.00  0.00    -0.455 C  
HETATM   37  N   UNL     1     -14.039  15.515  72.258  1.00  0.00    -0.550 N  
HETATM   38  O   UNL     1     -14.131  13.293  72.610  1.00  0.00    -0.744 OA 
HETATM   39  H2  UNL     1     -13.542  16.330  71.900  1.00  0.00     0.000 HD 
HETATM   40  H1  UNL     1     -14.943  15.597  72.724  1.00  0.00     0.000 HD 
ENDBRANCH  35  36
ENDBRANCH  20  35
ENDBRANCH  17  20
ENDBRANCH  15  16
BRANCH  15  41
HETATM   41  C   UNL     1      -9.874  15.632  66.711  1.00  0.00    -0.255 C  
BRANCH  41  42
HETATM   42  C   UNL     1      -9.975  17.118  66.989  1.00  0.00    -0.287 A  
HETATM   43  C   UNL     1     -10.414  18.011  66.002  1.00  0.00    -0.317 A  
HETATM   44  C   UNL     1     -10.365  19.844  67.586  1.00  0.00    -0.557 A  
HETATM   45  C   UNL     1     -10.603  19.365  66.298  1.00  0.00    -0.569 A  
HETATM   46  C   UNL     1      -9.732  17.617  68.279  1.00  0.00    -0.315 A  
HETATM   47  C   UNL     1      -9.925  18.968  68.575  1.00  0.00    -0.486 A  
ENDBRANCH  41  42
ENDBRANCH  15  41
ENDBRANCH  12  15
ENDBRANCH  11  12
ENDBRANCH   8  11
BRANCH   9  48
HETATM   48  C   UNL     1      -8.245  11.851  67.108  1.00  0.00    -0.171 C  
HETATM   49  C   UNL     1      -6.962  14.614  67.556  1.00  0.00    -0.193 C  
HETATM   50  O   UNL     1      -7.114  11.657  66.666  1.00  0.00    -0.115 OA 
HETATM   51  C   UNL     1      -6.381  12.967  69.373  1.00  0.00    -0.111 C  
HETATM   52  C   UNL     1      -7.528  13.709  68.666  1.00  0.00    -0.113 C  
HETATM   53  N   UNL     1      -8.511  12.752  68.124  1.00  0.00    -0.172 N  
HETATM   54  C   UNL     1      -8.221  14.614  69.704  1.00  0.00     0.220 C  
HETATM   55  H   UNL     1      -9.449  12.755  68.525  1.00  0.00     0.000 HD 
ENDBRANCH   9  48
TORSDOF 12
ENDMDL
MODEL       10
REMARK 921   NORMALIZED FREE ENERGY PREDICTED BY IDOCK:   -7.12 KCAL/MOL
REMARK 922        TOTAL FREE ENERGY PREDICTED BY IDOCK:  -16.21 KCAL/MOL
REMARK 923 INTER-LIGAND FREE ENERGY PREDICTED BY IDOCK:  -12.80 KCAL/MOL
REMARK 924 INTRA-LIGAND FREE ENERGY PREDICTED BY IDOCK:   -3.41 KCAL/MOL
REMARK 927      BINDING AFFINITY PREDICTED BY RF-SCORE:    0.00 PKD
ROOT
HETATM    1  C   UNL     1      -9.282   5.824  69.862  1.00  0.00    -0.166 C  
HETATM    2  C   UNL     1      -8.574   4.597  70.453  1.00  0.00    -0.108 C  
HETATM    3  C   UNL     1      -8.102   3.629  69.372  1.00  0.00    -0.063 C  
HETATM    4  C   UNL     1      -9.262   3.184  68.489  1.00  0.00    -0.230 C  
HETATM    5  C   UNL     1      -9.983   4.374  67.863  1.00  0.00    -0.087 C  
HETATM    6  C   UNL     1     -10.402   5.422  68.902  1.00  0.00    -0.260 C  
HETATM    7  C   UNL     1     -10.983   6.690  68.274  1.00  0.00    -0.244 C  
HETATM    8  N   UNL     1     -10.049   7.439  67.420  1.00  0.00    -0.189 NA 
HETATM    9  C   UNL     1      -8.661   7.534  67.946  1.00  0.00    -0.121 C  
HETATM   10  C   UNL     1      -8.282   6.818  69.258  1.00  0.00    -0.124 C  
ENDROOT
BRANCH   8  11
HETATM   11  C   UNL     1     -10.629   8.789  67.158  1.00  0.00    -0.233 C  
BRANCH  11  12
HETATM   12  C   UNL     1      -9.882   9.996  67.785  1.00  0.00    -0.157 C  
HETATM   13  H   UNL     1      -9.033  11.631  67.113  1.00  0.00     0.000 HD 
HETATM   14  O   UNL     1      -9.490  10.892  66.730  1.00  0.00    -0.173 OA 
BRANCH  12  15
HETATM   15  C   UNL     1     -10.741  10.799  68.803  1.00  0.00    -0.208 C  
BRANCH  15  16
HETATM   16  N   UNL     1     -11.459  11.884  68.106  1.00  0.00    -0.295 N  
HETATM   17  C   UNL     1     -11.007  13.190  68.128  1.00  0.00    -0.251 C  
HETATM   18  O   UNL     1     -10.061  13.558  68.827  1.00  0.00    -0.202 OA 
HETATM   19  H   UNL     1     -12.314  11.664  67.594  1.00  0.00     0.000 HD 
BRANCH  17  20
HETATM   20  C   UNL     1     -11.820  14.179  67.267  1.00  0.00    -0.419 C  
BRANCH  20  21
HETATM   21  N   UNL     1     -11.043  15.401  67.079  1.00  0.00    -0.307 N  
HETATM   22  H   UNL     1     -10.482  15.489  66.231  1.00  0.00     0.000 HD 
HETATM   23  C   UNL     1     -11.025  16.438  67.979  1.00  0.00    -0.327 C  
HETATM   24  O   UNL     1     -11.729  16.462  68.986  1.00  0.00    -0.240 OA 
BRANCH  23  25
HETATM   25  C   UNL     1     -10.125  17.577  67.632  1.00  0.00    -0.328 A  
HETATM   26  N   UNL     1      -8.983  17.687  68.365  1.00  0.00    -0.275 NA 
HETATM   27  C   UNL     1      -8.183  18.736  68.111  1.00  0.00    -0.304 A  
HETATM   28  C   UNL     1      -8.478  19.691  67.112  1.00  0.00    -0.345 A  
HETATM   29  C   UNL     1      -9.642  19.520  66.352  1.00  0.00    -0.469 A  
HETATM   30  C   UNL     1      -7.623  20.785  66.900  1.00  0.00    -0.242 A  
HETATM   31  C   UNL     1     -10.485  18.449  66.617  1.00  0.00    -0.415 A  
HETATM   32  C   UNL     1      -6.478  20.942  67.677  1.00  0.00    -0.398 A  
HETATM   33  C   UNL     1      -6.175  20.000  68.655  1.00  0.00    -0.319 A  
HETATM   34  C   UNL     1      -7.025  18.908  68.858  1.00  0.00    -0.342 A  
ENDBRANCH  23  25
ENDBRANCH  20  21
BRANCH  20  35
HETATM   35  C   UNL     1     -12.326  13.566  65.963  1.00  0.00    -0.486 C  
BRANCH  35  36
HETATM   36  C   UNL     1     -11.581  14.043  64.740  1.00  0.00    -0.381 C  
HETATM   37  N   UNL     1     -12.313  14.731  63.822  1.00  0.00    -1.082 N  
HETATM   38  O   UNL     1     -10.395  13.801  64.549  1.00  0.00    -0.437 OA 
HETATM   39  H2  UNL     1     -13.307  14.914  63.952  1.00  0.00     0.000 HD 
HETATM   40  H1  UNL     1     -11.809  15.053  62.996  1.00  0.00     0.000 HD 
ENDBRANCH  35  36
ENDBRANCH  20  35
ENDBRANCH  17  20
ENDBRANCH  15  16
BRANCH  15  41
HETATM   41  C   UNL     1     -11.714   9.915  69.626  1.00  0.00    -0.026 C  
BRANCH  41  42
HETATM   42  C   UNL     1     -11.150   9.216  70.846  1.00  0.00    -0.356 A  
HETATM   43  C   UNL     1     -11.914   8.286  71.564  1.00  0.00    -0.335 A  
HETATM   44  C   UNL     1     -10.017   7.763  72.979  1.00  0.00    -0.356 A  
HETATM   45  C   UNL     1     -11.353   7.568  72.626  1.00  0.00    -0.395 A  
HETATM   46  C   UNL     1      -9.810   9.407  71.219  1.00  0.00    -0.245 A  
HETATM   47  C   UNL     1      -9.248   8.687  72.275  1.00  0.00    -0.297 A  
ENDBRANCH  41  42
ENDBRANCH  15  41
ENDBRANCH  12  15
ENDBRANCH  11  12
ENDBRANCH   8  11
BRANCH   9  48
HETATM   48  C   UNL     1      -7.637   7.133  66.836  1.00  0.00    -0.101 C  
HETATM   49  C   UNL     1      -6.378   4.842  65.208  1.00  0.00    -0.035 C  
HETATM   50  O   UNL     1      -6.441   7.394  66.953  1.00  0.00    -0.052 OA 
HETATM   51  C   UNL     1      -6.570   6.980  63.888  1.00  0.00    -0.043 C  
HETATM   52  C   UNL     1      -7.353   5.895  64.649  1.00  0.00    -0.070 C  
HETATM   53  N   UNL     1      -8.162   6.497  65.725  1.00  0.00    -0.128 N  
HETATM   54  C   UNL     1      -8.286   5.190  63.646  1.00  0.00    -0.129 C  
HETATM   55  H   UNL     1      -9.177   6.440  65.645  1.00  0.00     0.000 HD 
ENDBRANCH   9  48
TORSDOF 12
ENDMDL
MODEL       11
REMARK 921   NORMALIZED FREE ENERGY PREDICTED BY IDOCK:   -7.08 KCAL/MOL
REMARK 922        TOTAL FREE ENERGY PREDICTED BY IDOCK:  -16.15 KCAL/MOL
REMARK 923 INTER-LIGAND FREE ENERGY PREDICTED BY IDOCK:  -12.49 KCAL/MOL
REMARK 924 INTRA-LIGAND FREE ENERGY PREDICTED BY IDOCK:   -3.66 KCAL/MOL
REMARK 927      BINDING AFFINITY PREDICTED BY RF-SCORE:    0.00 PKD
ROOT
HETATM    1  C   UNL     1     -11.801   7.419  70.807  1.00  0.00    -0.288 C  
HETATM    2  C   UNL     1     -12.367   6.567  71.950  1.00  0.00    -0.339 C  
HETATM    3  C   UNL     1     -11.317   5.633  72.547  1.00  0.00    -0.349 C  
HETATM    4  C   UNL     1     -10.713   4.732  71.476  1.00  0.00     0.018 C  
HETATM    5  C   UNL     1     -10.118   5.541  70.327  1.00  0.00    -0.305 C  
HETATM    6  C   UNL     1     -11.110   6.560  69.749  1.00  0.00    -0.430 C  
HETATM    7  C   UNL     1     -10.480   7.484  68.705  1.00  0.00    -0.194 C  
HETATM    8  N   UNL     1      -9.398   8.340  69.214  1.00  0.00    -0.154 NA 
HETATM    9  C   UNL     1      -9.645   8.926  70.558  1.00  0.00    -0.202 C  
HETATM   10  C   UNL     1     -10.927   8.565  71.334  1.00  0.00    -0.329 C  
ENDROOT
BRANCH   8  11
HETATM   11  C   UNL     1      -9.118   9.397  68.198  1.00  0.00    -0.127 C  
BRANCH  11  12
HETATM   12  C   UNL     1      -9.318  10.867  68.655  1.00  0.00    -0.187 C  
HETATM   13  H   UNL     1      -8.284  12.529  68.550  1.00  0.00     0.000 HD 
HETATM   14  O   UNL     1      -8.162  11.630  68.270  1.00  0.00    -0.142 OA 
BRANCH  12  15
HETATM   15  C   UNL     1     -10.571  11.546  68.034  1.00  0.00    -0.190 C  
BRANCH  15  16
HETATM   16  N   UNL     1     -10.704  11.153  66.617  1.00  0.00    -0.268 N  
HETATM   17  C   UNL     1     -10.254  11.961  65.590  1.00  0.00    -0.245 C  
HETATM   18  O   UNL     1      -9.836  13.106  65.775  1.00  0.00    -0.269 OA 
HETATM   19  H   UNL     1     -11.140  10.259  66.389  1.00  0.00     0.000 HD 
BRANCH  17  20
HETATM   20  C   UNL     1     -10.379  11.355  64.177  1.00  0.00    -0.344 C  
BRANCH  20  21
HETATM   21  N   UNL     1      -9.869   9.986  64.197  1.00  0.00    -0.450 N  
HETATM   22  H   UNL     1     -10.514   9.237  64.449  1.00  0.00     0.000 HD 
HETATM   23  C   UNL     1      -8.572   9.652  63.895  1.00  0.00    -0.206 C  
HETATM   24  O   UNL     1      -7.745  10.471  63.501  1.00  0.00    -0.101 OA 
BRANCH  23  25
HETATM   25  C   UNL     1      -8.232   8.205  64.025  1.00  0.00    -0.074 A  
HETATM   26  N   UNL     1      -8.485   7.633  65.236  1.00  0.00    -0.116 NA 
HETATM   27  C   UNL     1      -8.136   6.346  65.397  1.00  0.00    -0.128 A  
HETATM   28  C   UNL     1      -7.550   5.583  64.362  1.00  0.00    -0.074 A  
HETATM   29  C   UNL     1      -7.344   6.195  63.119  1.00  0.00    -0.062 A  
HETATM   30  C   UNL     1      -7.181   4.247  64.587  1.00  0.00    -0.070 A  
HETATM   31  C   UNL     1      -7.685   7.530  62.945  1.00  0.00    -0.123 A  
HETATM   32  C   UNL     1      -7.381   3.663  65.835  1.00  0.00    -0.076 A  
HETATM   33  C   UNL     1      -7.967   4.405  66.855  1.00  0.00    -0.101 A  
HETATM   34  C   UNL     1      -8.342   5.733  66.626  1.00  0.00    -0.109 A  
ENDBRANCH  23  25
ENDBRANCH  20  21
BRANCH  20  35
HETATM   35  C   UNL     1     -11.783  11.480  63.590  1.00  0.00    -0.278 C  
BRANCH  35  36
HETATM   36  C   UNL     1     -12.493  12.752  63.987  1.00  0.00    -0.360 C  
HETATM   37  N   UNL     1     -12.378  13.798  63.124  1.00  0.00    -1.106 N  
HETATM   38  O   UNL     1     -13.110  12.867  65.039  1.00  0.00    -0.794 OA 
HETATM   39  H2  UNL     1     -11.843  13.727  62.259  1.00  0.00     0.000 HD 
HETATM   40  H1  UNL     1     -12.858  14.657  63.392  1.00  0.00     0.000 HD 
ENDBRANCH  35  36
ENDBRANCH  20  35
ENDBRANCH  17  20
ENDBRANCH  15  16
BRANCH  15  41
HETATM   41  C   UNL     1     -11.880  11.273  68.820  1.00  0.00    -0.396 C  
BRANCH  41  42
HETATM   42  C   UNL     1     -12.203  12.202  69.971  1.00  0.00    -0.270 A  
HETATM   43  C   UNL     1     -11.912  13.571  69.900  1.00  0.00    -0.416 A  
HETATM   44  C   UNL     1     -13.009  13.955  72.026  1.00  0.00    -0.438 A  
HETATM   45  C   UNL     1     -12.308  14.440  70.922  1.00  0.00    -0.419 A  
HETATM   46  C   UNL     1     -12.903  11.728  71.093  1.00  0.00    -0.365 A  
HETATM   47  C   UNL     1     -13.303  12.596  72.111  1.00  0.00    -0.570 A  
ENDBRANCH  41  42
ENDBRANCH  15  41
ENDBRANCH  12  15
ENDBRANCH  11  12
ENDBRANCH   8  11
BRANCH   9  48
HETATM   48  C   UNL     1      -8.409   8.689  71.483  1.00  0.00    -0.166 C  
HETATM   49  C   UNL     1      -7.389   8.338  74.368  1.00  0.00    -0.248 C  
HETATM   50  O   UNL     1      -7.464   9.475  71.494  1.00  0.00    -0.303 OA 
HETATM   51  C   UNL     1      -6.065   6.991  72.699  1.00  0.00    -0.045 C  
HETATM   52  C   UNL     1      -7.458   7.220  73.310  1.00  0.00    -0.072 C  
HETATM   53  N   UNL     1      -8.441   7.543  72.258  1.00  0.00    -0.111 N  
HETATM   54  C   UNL     1      -7.886   5.922  74.022  1.00  0.00    -0.098 C  
HETATM   55  H   UNL     1      -9.195   6.876  72.092  1.00  0.00     0.000 HD 
ENDBRANCH   9  48
TORSDOF 12
ENDMDL
MODEL       12
REMARK 921   NORMALIZED FREE ENERGY PREDICTED BY IDOCK:   -7.06 KCAL/MOL
REMARK 922        TOTAL FREE ENERGY PREDICTED BY IDOCK:  -16.11 KCAL/MOL
REMARK 923 INTER-LIGAND FREE ENERGY PREDICTED BY IDOCK:  -12.93 KCAL/MOL
REMARK 924 INTRA-LIGAND FREE ENERGY PREDICTED BY IDOCK:   -3.18 KCAL/MOL
REMARK 927      BINDING AFFINITY PREDICTED BY RF-SCORE:    0.00 PKD
ROOT
HETATM    1  C   UNL     1     -10.368  16.742  66.427  1.00  0.00    -0.309 C  
HETATM    2  C   UNL     1     -10.558  18.236  66.131  1.00  0.00    -0.326 C  
HETATM    3  C   UNL     1      -9.861  19.121  67.161  1.00  0.00    -0.411 C  
HETATM    4  C   UNL     1     -10.344  18.805  68.571  1.00  0.00    -0.312 C  
HETATM    5  C   UNL     1     -10.155  17.331  68.916  1.00  0.00    -0.331 C  
HETATM    6  C   UNL     1     -10.763  16.396  67.863  1.00  0.00    -0.332 C  
HETATM    7  C   UNL     1     -10.444  14.922  68.113  1.00  0.00    -0.242 C  
HETATM    8  N   UNL     1      -9.014  14.582  68.058  1.00  0.00    -0.174 NA 
HETATM    9  C   UNL     1      -8.256  15.250  66.967  1.00  0.00    -0.233 C  
HETATM   10  C   UNL     1      -8.962  16.263  66.043  1.00  0.00    -0.325 C  
ENDROOT
BRANCH   8  11
HETATM   11  C   UNL     1      -8.886  13.097  67.985  1.00  0.00    -0.191 C  
BRANCH  11  12
HETATM   12  C   UNL     1      -8.054  12.531  66.804  1.00  0.00     0.050 C  
HETATM   13  H   UNL     1      -6.200  11.952  66.535  1.00  0.00     0.000 HD 
HETATM   14  O   UNL     1      -6.709  12.298  67.258  1.00  0.00    -0.141 OA 
BRANCH  12  15
HETATM   15  C   UNL     1      -8.608  11.194  66.236  1.00  0.00    -0.180 C  
BRANCH  15  16
HETATM   16  N   UNL     1      -9.267  10.428  67.312  1.00  0.00    -0.142 N  
HETATM   17  C   UNL     1      -9.293   9.046  67.313  1.00  0.00    -0.139 C  
HETATM   18  O   UNL     1      -8.890   8.370  66.365  1.00  0.00    -0.136 OA 
HETATM   19  H   UNL     1      -9.716  10.933  68.077  1.00  0.00     0.000 HD 
BRANCH  17  20
HETATM   20  C   UNL     1      -9.934   8.404  68.562  1.00  0.00    -0.187 C  
BRANCH  20  21
HETATM   21  N   UNL     1     -10.835   9.369  69.187  1.00  0.00    -0.356 N  
HETATM   22  H   UNL     1     -11.358  10.001  68.581  1.00  0.00     0.000 HD 
HETATM   23  C   UNL     1     -11.017   9.472  70.544  1.00  0.00    -0.288 C  
HETATM   24  O   UNL     1     -10.497   8.704  71.349  1.00  0.00    -0.217 OA 
BRANCH  23  25
HETATM   25  C   UNL     1     -11.940  10.558  70.990  1.00  0.00    -0.364 A  
HETATM   26  N   UNL     1     -11.714  11.793  70.464  1.00  0.00    -0.187 NA 
HETATM   27  C   UNL     1     -12.495  12.800  70.891  1.00  0.00    -0.283 A  
HETATM   28  C   UNL     1     -13.533  12.609  71.831  1.00  0.00    -0.424 A  
HETATM   29  C   UNL     1     -13.759  11.315  72.318  1.00  0.00     0.202 A  
HETATM   30  C   UNL     1     -14.307  13.697  72.266  1.00  0.00    -0.411 A  
HETATM   31  C   UNL     1     -12.947  10.270  71.896  1.00  0.00    -0.554 A  
HETATM   32  C   UNL     1     -14.055  14.977  71.779  1.00  0.00    -0.621 A  
HETATM   33  C   UNL     1     -13.041  15.171  70.845  1.00  0.00    -0.498 A  
HETATM   34  C   UNL     1     -12.278  14.084  70.409  1.00  0.00    -0.433 A  
ENDBRANCH  23  25
ENDBRANCH  20  21
BRANCH  20  35
HETATM   35  C   UNL     1     -10.583   7.051  68.277  1.00  0.00    -0.238 C  
BRANCH  35  36
HETATM   36  C   UNL     1     -10.052   5.932  69.139  1.00  0.00    -0.190 C  
HETATM   37  N   UNL     1      -9.488   6.300  70.321  1.00  0.00    -0.160 N  
HETATM   38  O   UNL     1     -10.082   4.757  68.794  1.00  0.00    -0.142 OA 
HETATM   39  H2  UNL     1      -9.428   7.276  70.609  1.00  0.00     0.000 HD 
HETATM   40  H1  UNL     1      -9.129   5.543  70.904  1.00  0.00     0.000 HD 
ENDBRANCH  35  36
ENDBRANCH  20  35
ENDBRANCH  17  20
ENDBRANCH  15  16
BRANCH  15  41
HETATM   41  C   UNL     1      -9.550  11.381  65.018  1.00  0.00    -0.250 C  
BRANCH  41  42
HETATM   42  C   UNL     1     -10.747  12.291  65.200  1.00  0.00    -0.330 A  
HETATM   43  C   UNL     1     -11.557  12.203  66.340  1.00  0.00    -0.429 A  
HETATM   44  C   UNL     1     -12.834  14.135  65.629  1.00  0.00    -0.402 A  
HETATM   45  C   UNL     1     -12.596  13.116  66.550  1.00  0.00     0.124 A  
HETATM   46  C   UNL     1     -11.004  13.318  64.277  1.00  0.00    -0.418 A  
HETATM   47  C   UNL     1     -12.039  14.232  64.489  1.00  0.00    -0.499 A  
ENDBRANCH  41  42
ENDBRANCH  15  41
ENDBRANCH  12  15
ENDBRANCH  11  12
ENDBRANCH   8  11
BRANCH   9  48
HETATM   48  C   UNL     1      -6.957  15.903  67.536  1.00  0.00    -0.180 C  
HETATM   49  C   UNL     1      -5.156  18.401  67.609  1.00  0.00    -0.148 C  
HETATM   50  O   UNL     1      -5.853  15.401  67.335  1.00  0.00    -0.321 OA 
HETATM   51  C   UNL     1      -5.169  17.149  69.796  1.00  0.00    -0.176 C  
HETATM   52  C   UNL     1      -6.034  17.907  68.775  1.00  0.00    -0.192 C  
HETATM   53  N   UNL     1      -7.133  17.052  68.288  1.00  0.00    -0.183 N  
HETATM   54  C   UNL     1      -6.626  19.144  69.477  1.00  0.00    -0.305 C  
HETATM   55  H   UNL     1      -8.088  17.326  68.521  1.00  0.00     0.000 HD 
ENDBRANCH   9  48
TORSDOF 12
ENDMDL
MODEL       13
REMARK 921   NORMALIZED FREE ENERGY PREDICTED BY IDOCK:   -6.99 KCAL/MOL
REMARK 922        TOTAL FREE ENERGY PREDICTED BY IDOCK:  -15.99 KCAL/MOL
REMARK 923 INTER-LIGAND FREE ENERGY PREDICTED BY IDOCK:  -12.76 KCAL/MOL
REMARK 924 INTRA-LIGAND FREE ENERGY PREDICTED BY IDOCK:   -3.23 KCAL/MOL
REMARK 927      BINDING AFFINITY PREDICTED BY RF-SCORE:    0.00 PKD
ROOT
HETATM    1  C   UNL     1      -9.951   7.775  73.249  1.00  0.00    -0.370 C  
HETATM    2  C   UNL     1     -10.301   6.646  74.227  1.00  0.00    -0.282 C  
HETATM    3  C   UNL     1     -10.799   5.395  73.508  1.00  0.00    -0.342 C  
HETATM    4  C   UNL     1     -12.001   5.711  72.626  1.00  0.00    -0.120 C  
HETATM    5  C   UNL     1     -11.689   6.817  71.622  1.00  0.00    -0.357 C  
HETATM    6  C   UNL     1     -11.102   8.069  72.287  1.00  0.00    -0.393 C  
HETATM    7  C   UNL     1     -10.639   9.122  71.280  1.00  0.00    -0.329 C  
HETATM    8  N   UNL     1      -9.550   8.689  70.391  1.00  0.00    -0.168 NA 
HETATM    9  C   UNL     1      -8.485   7.889  71.053  1.00  0.00    -0.123 C  
HETATM   10  C   UNL     1      -8.612   7.519  72.544  1.00  0.00    -0.149 C  
ENDROOT
BRANCH   8  11
HETATM   11  C   UNL     1      -8.989   9.894  69.713  1.00  0.00    -0.221 C  
BRANCH  11  12
HETATM   12  C   UNL     1      -8.006   9.633  68.541  1.00  0.00    -0.089 C  
HETATM   13  H   UNL     1      -8.056   8.634  66.854  1.00  0.00     0.000 HD 
HETATM   14  O   UNL     1      -8.658   8.794  67.571  1.00  0.00    -0.125 OA 
BRANCH  12  15
HETATM   15  C   UNL     1      -7.540  10.929  67.819  1.00  0.00    -0.095 C  
BRANCH  15  16
HETATM   16  N   UNL     1      -8.707  11.630  67.246  1.00  0.00    -0.154 N  
HETATM   17  C   UNL     1      -9.154  11.373  65.963  1.00  0.00    -0.208 C  
HETATM   18  O   UNL     1      -8.542  10.651  65.175  1.00  0.00    -0.181 OA 
HETATM   19  H   UNL     1      -9.197  12.323  67.812  1.00  0.00     0.000 HD 
BRANCH  17  20
HETATM   20  C   UNL     1     -10.443  12.118  65.558  1.00  0.00    -0.265 C  
BRANCH  20  21
HETATM   21  N   UNL     1     -10.404  13.473  66.102  1.00  0.00    -0.290 N  
HETATM   22  H   UNL     1      -9.776  14.148  65.666  1.00  0.00     0.000 HD 
HETATM   23  C   UNL     1     -11.166  13.888  67.166  1.00  0.00    -0.313 C  
HETATM   24  O   UNL     1     -12.010  13.176  67.703  1.00  0.00    -0.357 OA 
BRANCH  23  25
HETATM   25  C   UNL     1     -10.943  15.297  67.607  1.00  0.00    -0.311 A  
HETATM   26  N   UNL     1     -10.741  16.213  66.619  1.00  0.00    -0.275 NA 
HETATM   27  C   UNL     1     -10.482  17.477  66.991  1.00  0.00    -0.293 A  
HETATM   28  C   UNL     1     -10.438  17.876  68.346  1.00  0.00    -0.338 A  
HETATM   29  C   UNL     1     -10.691  16.913  69.331  1.00  0.00    -0.258 A  
HETATM   30  C   UNL     1     -10.139  19.205  68.686  1.00  0.00    -0.471 A  
HETATM   31  C   UNL     1     -10.943  15.599  68.959  1.00  0.00    -0.263 A  
HETATM   32  C   UNL     1      -9.876  20.143  67.691  1.00  0.00    -0.567 A  
HETATM   33  C   UNL     1      -9.928  19.760  66.354  1.00  0.00    -0.578 A  
HETATM   34  C   UNL     1     -10.234  18.437  66.018  1.00  0.00    -0.354 A  
ENDBRANCH  23  25
ENDBRANCH  20  21
BRANCH  20  35
HETATM   35  C   UNL     1     -10.722  12.065  64.057  1.00  0.00    -0.426 C  
BRANCH  35  36
HETATM   36  C   UNL     1     -12.115  12.515  63.685  1.00  0.00    -0.554 C  
HETATM   37  N   UNL     1     -12.837  11.657  62.914  1.00  0.00    -0.827 N  
HETATM   38  O   UNL     1     -12.570  13.603  64.014  1.00  0.00    -0.672 OA 
HETATM   39  H2  UNL     1     -12.460  10.761  62.607  1.00  0.00     0.000 HD 
HETATM   40  H1  UNL     1     -13.777  11.961  62.663  1.00  0.00     0.000 HD 
ENDBRANCH  35  36
ENDBRANCH  20  35
ENDBRANCH  17  20
ENDBRANCH  15  16
BRANCH  15  41
HETATM   41  C   UNL     1      -6.701  11.874  68.719  1.00  0.00    -0.088 C  
BRANCH  41  42
HETATM   42  C   UNL     1      -6.985  13.358  68.620  1.00  0.00    -0.101 A  
HETATM   43  C   UNL     1      -7.086  14.154  69.770  1.00  0.00     0.107 A  
HETATM   44  C   UNL     1      -7.295  16.152  68.414  1.00  0.00    -0.140 A  
HETATM   45  C   UNL     1      -7.245  15.540  69.667  1.00  0.00    -0.169 A  
HETATM   46  C   UNL     1      -7.046  13.988  67.367  1.00  0.00    -0.096 A  
HETATM   47  C   UNL     1      -7.199  15.372  67.264  1.00  0.00    -0.229 A  
ENDBRANCH  41  42
ENDBRANCH  15  41
ENDBRANCH  12  15
ENDBRANCH  11  12
ENDBRANCH   8  11
BRANCH   9  48
HETATM   48  C   UNL     1      -8.199   6.591  70.231  1.00  0.00    -0.126 C  
HETATM   49  C   UNL     1      -9.228   3.824  69.358  1.00  0.00    -0.226 C  
HETATM   50  O   UNL     1      -7.218   5.891  70.474  1.00  0.00    -0.077 OA 
HETATM   51  C   UNL     1      -7.818   4.937  67.591  1.00  0.00    -0.094 C  
HETATM   52  C   UNL     1      -9.098   5.052  68.437  1.00  0.00    -0.114 C  
HETATM   53  N   UNL     1      -9.095   6.304  69.217  1.00  0.00    -0.134 N  
HETATM   54  C   UNL     1     -10.304   5.053  67.479  1.00  0.00    -0.151 C  
HETATM   55  H   UNL     1      -9.802   7.004  68.993  1.00  0.00     0.000 HD 
ENDBRANCH   9  48
TORSDOF 12
ENDMDL
MODEL       14
REMARK 921   NORMALIZED FREE ENERGY PREDICTED BY IDOCK:   -6.89 KCAL/MOL
REMARK 922        TOTAL FREE ENERGY PREDICTED BY IDOCK:  -15.83 KCAL/MOL
REMARK 923 INTER-LIGAND FREE ENERGY PREDICTED BY IDOCK:  -13.01 KCAL/MOL
REMARK 924 INTRA-LIGAND FREE ENERGY PREDICTED BY IDOCK:   -2.82 KCAL/MOL
REMARK 927      BINDING AFFINITY PREDICTED BY RF-SCORE:    0.00 PKD
ROOT
HETATM    1  C   UNL     1      -8.727  16.428  67.716  1.00  0.00    -0.182 C  
HETATM    2  C   UNL     1      -7.980  17.688  68.175  1.00  0.00    -0.256 C  
HETATM    3  C   UNL     1      -8.907  18.691  68.857  1.00  0.00    -0.210 C  
HETATM    4  C   UNL     1     -10.064  19.077  67.942  1.00  0.00    -0.455 C  
HETATM    5  C   UNL     1     -10.848  17.853  67.477  1.00  0.00    -0.239 C  
HETATM    6  C   UNL     1      -9.947  16.774  66.863  1.00  0.00    -0.274 C  
HETATM    7  C   UNL     1     -10.696  15.481  66.538  1.00  0.00    -0.304 C  
HETATM    8  N   UNL     1     -11.274  14.794  67.703  1.00  0.00    -0.310 NA 
HETATM    9  C   UNL     1     -10.406  14.773  68.910  1.00  0.00    -0.243 C  
HETATM   10  C   UNL     1      -9.044  15.497  68.894  1.00  0.00    -0.219 C  
ENDROOT
BRANCH   8  11
HETATM   11  C   UNL     1     -11.669  13.416  67.288  1.00  0.00    -0.380 C  
BRANCH  11  12
HETATM   12  C   UNL     1     -11.131  12.250  68.159  1.00  0.00    -0.240 C  
HETATM   13  H   UNL     1     -11.856  11.086  69.561  1.00  0.00     0.000 HD 
HETATM   14  O   UNL     1     -12.185  11.800  69.028  1.00  0.00    -0.263 OA 
BRANCH  12  15
HETATM   15  C   UNL     1     -10.637  11.031  67.331  1.00  0.00    -0.237 C  
BRANCH  15  16
HETATM   16  N   UNL     1     -10.995   9.777  68.023  1.00  0.00    -0.458 N  
HETATM   17  C   UNL     1     -10.115   9.138  68.877  1.00  0.00    -0.197 C  
HETATM   18  O   UNL     1      -8.944   9.493  69.017  1.00  0.00    -0.135 OA 
HETATM   19  H   UNL     1     -11.917   9.369  67.866  1.00  0.00     0.000 HD 
BRANCH  17  20
HETATM   20  C   UNL     1     -10.684   7.896  69.594  1.00  0.00    -0.218 C  
BRANCH  20  21
HETATM   21  N   UNL     1     -10.076   6.695  69.026  1.00  0.00    -0.156 N  
HETATM   22  H   UNL     1      -9.343   6.229  69.560  1.00  0.00     0.000 HD 
HETATM   23  C   UNL     1     -10.437   6.160  67.814  1.00  0.00    -0.231 C  
HETATM   24  O   UNL     1     -11.363   6.600  67.137  1.00  0.00    -0.343 OA 
BRANCH  23  25
HETATM   25  C   UNL     1      -9.660   4.961  67.383  1.00  0.00    -0.152 A  
HETATM   26  N   UNL     1      -8.934   5.093  66.238  1.00  0.00    -0.126 NA 
HETATM   27  C   UNL     1      -8.271   4.011  65.797  1.00  0.00    -0.105 A  
HETATM   28  C   UNL     1      -8.287   2.777  66.486  1.00  0.00    -0.093 A  
HETATM   29  C   UNL     1      -9.013   2.694  67.682  1.00  0.00    -0.194 A  
HETATM   30  C   UNL     1      -7.598   1.667  65.973  1.00  0.00    -0.062 A  
HETATM   31  C   UNL     1      -9.716   3.801  68.138  1.00  0.00    -0.113 A  
HETATM   32  C   UNL     1      -6.895   1.769  64.775  1.00  0.00    -0.038 A  
HETATM   33  C   UNL     1      -6.865   2.984  64.097  1.00  0.00    -0.037 A  
HETATM   34  C   UNL     1      -7.546   4.090  64.615  1.00  0.00    -0.077 A  
ENDBRANCH  23  25
ENDBRANCH  20  21
BRANCH  20  35
HETATM   35  C   UNL     1     -10.579   7.978  71.115  1.00  0.00    -0.235 C  
BRANCH  35  36
HETATM   36  C   UNL     1     -11.732   7.325  71.838  1.00  0.00    -0.287 C  
HETATM   37  N   UNL     1     -12.470   8.133  72.646  1.00  0.00    -0.603 N  
HETATM   38  O   UNL     1     -11.981   6.128  71.746  1.00  0.00    -0.289 OA 
HETATM   39  H2  UNL     1     -12.257   9.124  72.757  1.00  0.00     0.000 HD 
HETATM   40  H1  UNL     1     -13.249   7.692  73.134  1.00  0.00     0.000 HD 
ENDBRANCH  35  36
ENDBRANCH  20  35
ENDBRANCH  17  20
ENDBRANCH  15  16
BRANCH  15  41
HETATM   41  C   UNL     1     -11.143  11.031  65.865  1.00  0.00    -0.038 C  
BRANCH  41  42
HETATM   42  C   UNL     1     -10.153  10.630  64.790  1.00  0.00    -0.412 A  
HETATM   43  C   UNL     1      -9.163   9.671  65.040  1.00  0.00    -0.310 A  
HETATM   44  C   UNL     1      -8.462   9.737  62.721  1.00  0.00    -0.176 A  
HETATM   45  C   UNL     1      -8.320   9.231  64.013  1.00  0.00    -0.179 A  
HETATM   46  C   UNL     1     -10.278  11.136  63.486  1.00  0.00    -0.446 A  
HETATM   47  C   UNL     1      -9.440  10.694  62.460  1.00  0.00    -0.289 A  
ENDBRANCH  41  42
ENDBRANCH  15  41
ENDBRANCH  12  15
ENDBRANCH  11  12
ENDBRANCH   8  11
BRANCH   9  48
HETATM   48  C   UNL     1     -11.214  15.241  70.162  1.00  0.00    -0.291 C  
HETATM   49  C   UNL     1     -13.978  15.462  71.500  1.00  0.00    -0.601 C  
HETATM   50  O   UNL     1     -11.206  16.417  70.519  1.00  0.00    -0.369 OA 
HETATM   51  C   UNL     1     -12.121  15.095  73.164  1.00  0.00    -0.498 C  
HETATM   52  C   UNL     1     -12.853  14.509  71.944  1.00  0.00    -0.338 C  
HETATM   53  N   UNL     1     -11.906  14.254  70.842  1.00  0.00    -0.460 N  
HETATM   54  C   UNL     1     -13.503  13.179  72.372  1.00  0.00    -0.643 C  
HETATM   55  H   UNL     1     -11.751  13.285  70.563  1.00  0.00     0.000 HD 
ENDBRANCH   9  48
TORSDOF 12
ENDMDL
MODEL       15
REMARK 921   NORMALIZED FREE ENERGY PREDICTED BY IDOCK:   -6.86 KCAL/MOL
REMARK 922        TOTAL FREE ENERGY PREDICTED BY IDOCK:  -15.77 KCAL/MOL
REMARK 923 INTER-LIGAND FREE ENERGY PREDICTED BY IDOCK:  -12.94 KCAL/MOL
REMARK 924 INTRA-LIGAND FREE ENERGY PREDICTED BY IDOCK:   -2.83 KCAL/MOL
REMARK 927      BINDING AFFINITY PREDICTED BY RF-SCORE:    0.00 PKD
ROOT
HETATM    1  C   UNL     1      -9.195   5.131  67.879  1.00  0.00    -0.128 C  
HETATM    2  C   UNL     1      -9.734   3.873  68.573  1.00  0.00    -0.114 C  
HETATM    3  C   UNL     1      -9.345   3.818  70.048  1.00  0.00    -0.250 C  
HETATM    4  C   UNL     1      -7.833   3.900  70.220  1.00  0.00    -0.047 C  
HETATM    5  C   UNL     1      -7.257   5.150  69.561  1.00  0.00    -0.057 C  
HETATM    6  C   UNL     1      -7.691   5.297  68.097  1.00  0.00    -0.084 C  
HETATM    7  C   UNL     1      -7.252   6.622  67.472  1.00  0.00    -0.090 C  
HETATM    8  N   UNL     1      -7.826   7.821  68.101  1.00  0.00    -0.119 NA 
HETATM    9  C   UNL     1      -9.262   7.705  68.472  1.00  0.00    -0.143 C  
HETATM   10  C   UNL     1     -10.012   6.376  68.250  1.00  0.00    -0.147 C  
ENDROOT
BRANCH   8  11
HETATM   11  C   UNL     1      -7.585   8.987  67.200  1.00  0.00    -0.091 C  
BRANCH  11  12
HETATM   12  C   UNL     1      -7.429  10.370  67.885  1.00  0.00    -0.087 C  
HETATM   13  H   UNL     1      -6.123  11.210  69.084  1.00  0.00     0.000 HD 
HETATM   14  O   UNL     1      -6.219  10.364  68.664  1.00  0.00    -0.047 OA 
BRANCH  12  15
HETATM   15  C   UNL     1      -7.348  11.555  66.882  1.00  0.00    -0.140 C  
BRANCH  15  16
HETATM   16  N   UNL     1      -8.708  12.016  66.541  1.00  0.00    -0.316 N  
HETATM   17  C   UNL     1      -9.390  11.527  65.442  1.00  0.00    -0.159 C  
HETATM   18  O   UNL     1      -8.869  10.782  64.610  1.00  0.00    -0.190 OA 
HETATM   19  H   UNL     1      -9.158  12.716  67.132  1.00  0.00     0.000 HD 
BRANCH  17  20
HETATM   20  C   UNL     1     -10.837  12.040  65.288  1.00  0.00    -0.294 C  
BRANCH  20  21
HETATM   21  N   UNL     1     -11.381  12.341  66.610  1.00  0.00    -0.323 N  
HETATM   22  H   UNL     1     -11.706  13.290  66.792  1.00  0.00     0.000 HD 
HETATM   23  C   UNL     1     -11.479  11.416  67.621  1.00  0.00    -0.273 C  
HETATM   24  O   UNL     1     -11.193  10.231  67.474  1.00  0.00    -0.295 OA 
BRANCH  23  25
HETATM   25  C   UNL     1     -12.013  11.932  68.916  1.00  0.00    -0.254 A  
HETATM   26  N   UNL     1     -12.065  13.286  69.049  1.00  0.00    -0.283 NA 
HETATM   27  C   UNL     1     -12.489  13.776  70.226  1.00  0.00    -0.289 A  
HETATM   28  C   UNL     1     -12.894  12.944  71.294  1.00  0.00    -0.361 A  
HETATM   29  C   UNL     1     -12.864  11.556  71.102  1.00  0.00    -0.414 A  
HETATM   30  C   UNL     1     -13.306  13.503  72.514  1.00  0.00    -0.617 A  
HETATM   31  C   UNL     1     -12.412  11.037  69.896  1.00  0.00    -0.286 A  
HETATM   32  C   UNL     1     -13.313  14.884  72.687  1.00  0.00    -0.553 A  
HETATM   33  C   UNL     1     -12.926  15.711  71.636  1.00  0.00    -0.551 A  
HETATM   34  C   UNL     1     -12.524  15.151  70.420  1.00  0.00    -0.416 A  
ENDBRANCH  23  25
ENDBRANCH  20  21
BRANCH  20  35
HETATM   35  C   UNL     1     -10.964  13.193  64.294  1.00  0.00    -0.428 C  
BRANCH  35  36
HETATM   36  C   UNL     1     -12.284  13.921  64.378  1.00  0.00    -0.413 C  
HETATM   37  N   UNL     1     -12.352  15.117  63.732  1.00  0.00    -1.037 N  
HETATM   38  O   UNL     1     -13.237  13.495  65.019  1.00  0.00    -0.721 OA 
HETATM   39  H2  UNL     1     -11.557  15.498  63.220  1.00  0.00     0.000 HD 
HETATM   40  H1  UNL     1     -13.243  15.609  63.789  1.00  0.00     0.000 HD 
ENDBRANCH  35  36
ENDBRANCH  20  35
ENDBRANCH  17  20
ENDBRANCH  15  16
BRANCH  15  41
HETATM   41  C   UNL     1      -6.462  12.728  67.378  1.00  0.00    -0.141 C  
BRANCH  41  42
HETATM   42  C   UNL     1      -7.167  14.007  67.781  1.00  0.00    -0.175 A  
HETATM   43  C   UNL     1      -8.319  13.977  68.579  1.00  0.00    -0.143 A  
HETATM   44  C   UNL     1      -8.340  16.397  68.704  1.00  0.00    -0.221 A  
HETATM   45  C   UNL     1      -8.904  15.164  69.033  1.00  0.00    -0.219 A  
HETATM   46  C   UNL     1      -6.616  15.256  67.452  1.00  0.00    -0.120 A  
HETATM   47  C   UNL     1      -7.197  16.441  67.910  1.00  0.00    -0.150 A  
ENDBRANCH  41  42
ENDBRANCH  15  41
ENDBRANCH  12  15
ENDBRANCH  11  12
ENDBRANCH   8  11
BRANCH   9  48
HETATM   48  C   UNL     1      -9.475   8.166  69.949  1.00  0.00    -0.160 C  
HETATM   49  C   UNL     1     -11.403   8.298  72.347  1.00  0.00    -0.457 C  
HETATM   50  O   UNL     1      -9.372   9.349  70.266  1.00  0.00    -0.215 OA 
HETATM   51  C   UNL     1      -8.996   8.050  73.050  1.00  0.00    -0.313 C  
HETATM   52  C   UNL     1     -10.151   7.405  72.264  1.00  0.00    -0.196 C  
HETATM   53  N   UNL     1      -9.758   7.166  70.863  1.00  0.00    -0.171 N  
HETATM   54  C   UNL     1     -10.488   6.058  72.933  1.00  0.00    -0.243 C  
HETATM   55  H   UNL     1      -9.692   6.199  70.546  1.00  0.00     0.000 HD 
ENDBRANCH   9  48
TORSDOF 12
ENDMDL
MODEL       16
REMARK 921   NORMALIZED FREE ENERGY PREDICTED BY IDOCK:   -6.80 KCAL/MOL
REMARK 922        TOTAL FREE ENERGY PREDICTED BY IDOCK:  -15.67 KCAL/MOL
REMARK 923 INTER-LIGAND FREE ENERGY PREDICTED BY IDOCK:  -11.44 KCAL/MOL
REMARK 924 INTRA-LIGAND FREE ENERGY PREDICTED BY IDOCK:   -4.23 KCAL/MOL
REMARK 927      BINDING AFFINITY PREDICTED BY RF-SCORE:    0.00 PKD
ROOT
HETATM    1  C   UNL     1      -8.499  10.244  64.645  1.00  0.00    -0.179 C  
HETATM    2  C   UNL     1      -8.751   9.739  63.218  1.00  0.00    -0.232 C  
HETATM    3  C   UNL     1      -8.219   8.324  63.005  1.00  0.00    -0.118 C  
HETATM    4  C   UNL     1      -6.732   8.243  63.330  1.00  0.00    -0.084 C  
HETATM    5  C   UNL     1      -6.438   8.717  64.750  1.00  0.00    -0.066 C  
HETATM    6  C   UNL     1      -7.030  10.102  65.043  1.00  0.00    -0.135 C  
HETATM    7  C   UNL     1      -6.880  10.521  66.507  1.00  0.00    -0.113 C  
HETATM    8  N   UNL     1      -7.583   9.659  67.469  1.00  0.00    -0.094 NA 
HETATM    9  C   UNL     1      -8.937   9.218  67.040  1.00  0.00    -0.126 C  
HETATM   10  C   UNL     1      -9.472   9.612  65.649  1.00  0.00    -0.318 C  
ENDROOT
BRANCH   8  11
HETATM   11  C   UNL     1      -7.628  10.363  68.785  1.00  0.00    -0.097 C  
BRANCH  11  12
HETATM   12  C   UNL     1      -6.777   9.748  69.928  1.00  0.00    -0.078 C  
HETATM   13  H   UNL     1      -5.815  10.432  71.494  1.00  0.00     0.000 HD 
HETATM   14  O   UNL     1      -6.335  10.808  70.794  1.00  0.00    -0.338 OA 
BRANCH  12  15
HETATM   15  C   UNL     1      -7.551   8.713  70.791  1.00  0.00    -0.083 C  
BRANCH  15  16
HETATM   16  N   UNL     1      -9.004   8.889  70.603  1.00  0.00    -0.179 N  
HETATM   17  C   UNL     1      -9.867   9.028  71.674  1.00  0.00    -0.296 C  
HETATM   18  O   UNL     1      -9.508   8.884  72.844  1.00  0.00    -0.128 OA 
HETATM   19  H   UNL     1      -9.383   8.910  69.656  1.00  0.00     0.000 HD 
BRANCH  17  20
HETATM   20  C   UNL     1     -11.338   9.304  71.298  1.00  0.00    -0.353 C  
BRANCH  20  21
HETATM   21  N   UNL     1     -11.380  10.302  70.232  1.00  0.00    -0.301 N  
HETATM   22  H   UNL     1     -10.884  10.100  69.364  1.00  0.00     0.000 HD 
HETATM   23  C   UNL     1     -12.049  11.497  70.334  1.00  0.00    -0.382 C  
HETATM   24  O   UNL     1     -12.741  11.796  71.304  1.00  0.00    -0.387 OA 
BRANCH  23  25
HETATM   25  C   UNL     1     -11.927  12.406  69.156  1.00  0.00    -0.240 A  
HETATM   26  N   UNL     1     -11.945  11.810  67.931  1.00  0.00    -0.597 NA 
HETATM   27  C   UNL     1     -11.780  12.600  66.857  1.00  0.00    -0.383 A  
HETATM   28  C   UNL     1     -11.617  13.999  66.961  1.00  0.00    -0.394 A  
HETATM   29  C   UNL     1     -11.645  14.579  68.236  1.00  0.00    -0.358 A  
HETATM   30  C   UNL     1     -11.424  14.780  65.810  1.00  0.00    -0.322 A  
HETATM   31  C   UNL     1     -11.797  13.771  69.355  1.00  0.00    -0.392 A  
HETATM   32  C   UNL     1     -11.385  14.181  64.553  1.00  0.00    -0.355 A  
HETATM   33  C   UNL     1     -11.556  12.804  64.442  1.00  0.00    -0.415 A  
HETATM   34  C   UNL     1     -11.756  12.031  65.590  1.00  0.00    -0.312 A  
ENDBRANCH  23  25
ENDBRANCH  20  21
BRANCH  20  35
HETATM   35  C   UNL     1     -12.128   8.035  70.984  1.00  0.00    -0.232 C  
BRANCH  35  36
HETATM   36  C   UNL     1     -13.490   7.994  71.634  1.00  0.00    -0.337 C  
HETATM   37  N   UNL     1     -13.649   8.764  72.744  1.00  0.00    -0.797 N  
HETATM   38  O   UNL     1     -14.399   7.283  71.223  1.00  0.00    -0.402 OA 
HETATM   39  H2  UNL     1     -12.892   9.337  73.116  1.00  0.00     0.000 HD 
HETATM   40  H1  UNL     1     -14.569   8.735  73.183  1.00  0.00     0.000 HD 
ENDBRANCH  35  36
ENDBRANCH  20  35
ENDBRANCH  17  20
ENDBRANCH  15  16
BRANCH  15  41
HETATM   41  C   UNL     1      -7.122   7.245  70.532  1.00  0.00    -0.062 C  
BRANCH  41  42
HETATM   42  C   UNL     1      -7.753   6.175  71.400  1.00  0.00    -0.100 A  
HETATM   43  C   UNL     1      -8.203   4.968  70.848  1.00  0.00    -0.108 A  
HETATM   44  C   UNL     1      -8.721   4.110  73.054  1.00  0.00    -0.100 A  
HETATM   45  C   UNL     1      -8.689   3.945  71.670  1.00  0.00    -0.129 A  
HETATM   46  C   UNL     1      -7.799   6.329  72.795  1.00  0.00    -0.105 A  
HETATM   47  C   UNL     1      -8.279   5.306  73.615  1.00  0.00    -0.113 A  
ENDBRANCH  41  42
ENDBRANCH  15  41
ENDBRANCH  12  15
ENDBRANCH  11  12
ENDBRANCH   8  11
BRANCH   9  48
HETATM   48  C   UNL     1      -9.081   7.673  67.219  1.00  0.00    -0.127 C  
HETATM   49  C   UNL     1     -10.380   5.077  66.191  1.00  0.00    -0.309 C  
HETATM   50  O   UNL     1      -9.504   7.193  68.269  1.00  0.00    -0.134 OA 
HETATM   51  C   UNL     1      -8.068   4.703  67.119  1.00  0.00    -0.102 C  
HETATM   52  C   UNL     1      -8.890   5.440  66.047  1.00  0.00    -0.144 C  
HETATM   53  N   UNL     1      -8.685   6.897  66.144  1.00  0.00    -0.142 N  
HETATM   54  C   UNL     1      -8.417   4.951  64.665  1.00  0.00    -0.143 C  
HETATM   55  H   UNL     1      -8.219   7.364  65.365  1.00  0.00     0.000 HD 
ENDBRANCH   9  48
TORSDOF 12
ENDMDL
MODEL       17
REMARK 921   NORMALIZED FREE ENERGY PREDICTED BY IDOCK:   -6.75 KCAL/MOL
REMARK 922        TOTAL FREE ENERGY PREDICTED BY IDOCK:  -15.58 KCAL/MOL
REMARK 923 INTER-LIGAND FREE ENERGY PREDICTED BY IDOCK:  -12.48 KCAL/MOL
REMARK 924 INTRA-LIGAND FREE ENERGY PREDICTED BY IDOCK:   -3.11 KCAL/MOL
REMARK 927      BINDING AFFINITY PREDICTED BY RF-SCORE:    0.00 PKD
ROOT
HETATM    1  C   UNL     1      -8.723   4.278  67.452  1.00  0.00    -0.113 C  
HETATM    2  C   UNL     1      -8.097   3.024  68.077  1.00  0.00    -0.083 C  
HETATM    3  C   UNL     1      -7.610   3.273  69.503  1.00  0.00    -0.047 C  
HETATM    4  C   UNL     1      -6.617   4.429  69.548  1.00  0.00    -0.033 C  
HETATM    5  C   UNL     1      -7.207   5.704  68.953  1.00  0.00    -0.077 C  
HETATM    6  C   UNL     1      -7.791   5.485  67.552  1.00  0.00    -0.101 C  
HETATM    7  C   UNL     1      -8.525   6.712  67.009  1.00  0.00    -0.113 C  
HETATM    8  N   UNL     1      -9.703   7.121  67.789  1.00  0.00    -0.135 NA 
HETATM    9  C   UNL     1     -10.551   6.000  68.272  1.00  0.00    -0.261 C  
HETATM   10  C   UNL     1     -10.132   4.541  68.001  1.00  0.00    -0.038 C  
ENDROOT
BRANCH   8  11
HETATM   11  C   UNL     1     -10.491   8.094  66.977  1.00  0.00    -0.326 C  
BRANCH  11  12
HETATM   12  C   UNL     1     -10.657   9.518  67.571  1.00  0.00    -0.275 C  
HETATM   13  H   UNL     1     -10.222  10.396  69.270  1.00  0.00     0.000 HD 
HETATM   14  O   UNL     1     -10.121   9.525  68.906  1.00  0.00    -0.175 OA 
BRANCH  12  15
HETATM   15  C   UNL     1      -9.926  10.622  66.755  1.00  0.00    -0.209 C  
BRANCH  15  16
HETATM   16  N   UNL     1     -10.813  11.790  66.588  1.00  0.00    -0.264 N  
HETATM   17  C   UNL     1     -10.853  12.814  67.516  1.00  0.00    -0.239 C  
HETATM   18  O   UNL     1     -10.260  12.761  68.595  1.00  0.00    -0.222 OA 
HETATM   19  H   UNL     1     -11.412  11.845  65.764  1.00  0.00     0.000 HD 
BRANCH  17  20
HETATM   20  C   UNL     1     -11.758  14.005  67.138  1.00  0.00    -0.393 C  
BRANCH  20  21
HETATM   21  N   UNL     1     -10.963  15.231  67.145  1.00  0.00    -0.330 N  
HETATM   22  H   UNL     1     -10.303  15.381  66.382  1.00  0.00     0.000 HD 
HETATM   23  C   UNL     1     -11.055  16.192  68.122  1.00  0.00    -0.332 C  
HETATM   24  O   UNL     1     -11.877  16.143  69.034  1.00  0.00    -0.327 OA 
BRANCH  23  25
HETATM   25  C   UNL     1     -10.120  17.346  67.980  1.00  0.00    -0.326 A  
HETATM   26  N   UNL     1      -8.909  17.219  68.591  1.00  0.00    -0.271 NA 
HETATM   27  C   UNL     1      -8.070  18.267  68.526  1.00  0.00    -0.314 A  
HETATM   28  C   UNL     1      -8.394  19.457  67.838  1.00  0.00    -0.343 A  
HETATM   29  C   UNL     1      -9.633  19.533  67.187  1.00  0.00    -0.430 A  
HETATM   30  C   UNL     1      -7.493  20.534  67.818  1.00  0.00    -0.277 A  
HETATM   31  C   UNL     1     -10.515  18.464  67.262  1.00  0.00    -0.434 A  
HETATM   32  C   UNL     1      -6.274  20.442  68.484  1.00  0.00    -0.352 A  
HETATM   33  C   UNL     1      -5.943  19.268  69.155  1.00  0.00    -0.276 A  
HETATM   34  C   UNL     1      -6.839  18.195  69.165  1.00  0.00    -0.240 A  
ENDBRANCH  23  25
ENDBRANCH  20  21
BRANCH  20  35
HETATM   35  C   UNL     1     -12.534  13.783  65.842  1.00  0.00    -0.512 C  
BRANCH  35  36
HETATM   36  C   UNL     1     -11.792  14.234  64.607  1.00  0.00    -0.448 C  
HETATM   37  N   UNL     1     -12.477  15.046  63.757  1.00  0.00    -1.049 N  
HETATM   38  O   UNL     1     -10.651  13.868  64.348  1.00  0.00    -0.400 OA 
HETATM   39  H2  UNL     1     -13.437  15.334  63.943  1.00  0.00     0.000 HD 
HETATM   40  H1  UNL     1     -11.975  15.350  62.923  1.00  0.00     0.000 HD 
ENDBRANCH  35  36
ENDBRANCH  20  35
ENDBRANCH  17  20
ENDBRANCH  15  16
BRANCH  15  41
HETATM   41  C   UNL     1      -8.556  11.033  67.355  1.00  0.00    -0.132 C  
BRANCH  41  42
HETATM   42  C   UNL     1      -7.340  10.252  66.904  1.00  0.00    -0.097 A  
HETATM   43  C   UNL     1      -6.403   9.774  67.829  1.00  0.00    -0.053 A  
HETATM   44  C   UNL     1      -5.202   8.615  66.073  1.00  0.00    -0.030 A  
HETATM   45  C   UNL     1      -5.339   8.965  67.416  1.00  0.00    -0.034 A  
HETATM   46  C   UNL     1      -7.184   9.897  65.554  1.00  0.00    -0.122 A  
HETATM   47  C   UNL     1      -6.125   9.085  65.142  1.00  0.00    -0.060 A  
ENDBRANCH  41  42
ENDBRANCH  15  41
ENDBRANCH  12  15
ENDBRANCH  11  12
ENDBRANCH   8  11
BRANCH   9  48
HETATM   48  C   UNL     1     -10.846   6.167  69.798  1.00  0.00    -0.353 C  
HETATM   49  C   UNL     1     -10.663   8.001  72.264  1.00  0.00    -0.360 C  
HETATM   50  O   UNL     1     -10.361   5.397  70.625  1.00  0.00    -0.236 OA 
HETATM   51  C   UNL     1     -12.706   6.527  72.300  1.00  0.00    -0.009 C  
HETATM   52  C   UNL     1     -11.965   7.633  71.529  1.00  0.00    -0.303 C  
HETATM   53  N   UNL     1     -11.692   7.206  70.143  1.00  0.00    -0.540 N  
HETATM   54  C   UNL     1     -12.865   8.883  71.506  1.00  0.00    -0.383 C  
HETATM   55  H   UNL     1     -12.157   7.712  69.390  1.00  0.00     0.000 HD 
ENDBRANCH   9  48
TORSDOF 12
ENDMDL
MODEL       18
REMARK 921   NORMALIZED FREE ENERGY PREDICTED BY IDOCK:   -6.69 KCAL/MOL
REMARK 922        TOTAL FREE ENERGY PREDICTED BY IDOCK:  -15.49 KCAL/MOL
REMARK 923 INTER-LIGAND FREE ENERGY PREDICTED BY IDOCK:  -11.94 KCAL/MOL
REMARK 924 INTRA-LIGAND FREE ENERGY PREDICTED BY IDOCK:   -3.55 KCAL/MOL
REMARK 927      BINDING AFFINITY PREDICTED BY RF-SCORE:    0.00 PKD
ROOT
HETATM    1  C   UNL     1     -10.530  16.256  66.242  1.00  0.00    -0.314 C  
HETATM    2  C   UNL     1     -10.708  17.678  65.695  1.00  0.00    -0.084 C  
HETATM    3  C   UNL     1     -10.015  18.722  66.567  1.00  0.00    -0.415 C  
HETATM    4  C   UNL     1     -10.513  18.651  68.006  1.00  0.00    -0.395 C  
HETATM    5  C   UNL     1     -10.335  17.256  68.598  1.00  0.00    -0.357 C  
HETATM    6  C   UNL     1     -10.940  16.159  67.711  1.00  0.00    -0.293 C  
HETATM    7  C   UNL     1     -10.632  14.747  68.211  1.00  0.00    -0.241 C  
HETATM    8  N   UNL     1      -9.204  14.397  68.228  1.00  0.00    -0.195 NA 
HETATM    9  C   UNL     1      -8.431  14.866  67.047  1.00  0.00    -0.231 C  
HETATM   10  C   UNL     1      -9.123  15.712  65.959  1.00  0.00    -0.346 C  
ENDROOT
BRANCH   8  11
HETATM   11  C   UNL     1      -9.083  12.920  68.409  1.00  0.00    -0.126 C  
BRANCH  11  12
HETATM   12  C   UNL     1      -8.442  12.129  67.238  1.00  0.00    -0.178 C  
HETATM   13  H   UNL     1      -6.678  11.365  66.852  1.00  0.00     0.000 HD 
HETATM   14  O   UNL     1      -7.071  11.848  67.569  1.00  0.00    -0.102 OA 
BRANCH  12  15
HETATM   15  C   UNL     1      -9.150  10.778  66.938  1.00  0.00    -0.149 C  
BRANCH  15  16
HETATM   16  N   UNL     1     -10.088  10.450  68.030  1.00  0.00    -0.158 N  
HETATM   17  C   UNL     1     -10.257   9.155  68.482  1.00  0.00    -0.198 C  
HETATM   18  O   UNL     1      -9.744   8.182  67.928  1.00  0.00    -0.152 OA 
HETATM   19  H   UNL     1     -10.626  11.201  68.463  1.00  0.00     0.000 HD 
BRANCH  17  20
HETATM   20  C   UNL     1     -11.198   9.003  69.695  1.00  0.00     0.022 C  
BRANCH  20  21
HETATM   21  N   UNL     1     -10.820   7.809  70.448  1.00  0.00    -0.242 N  
HETATM   22  H   UNL     1      -9.832   7.662  70.651  1.00  0.00     0.000 HD 
HETATM   23  C   UNL     1     -11.722   6.876  70.896  1.00  0.00    -0.361 C  
HETATM   24  O   UNL     1     -12.937   7.006  70.774  1.00  0.00    -0.203 OA 
BRANCH  23  25
HETATM   25  C   UNL     1     -11.133   5.698  71.600  1.00  0.00    -0.181 A  
HETATM   26  N   UNL     1     -10.169   5.013  70.924  1.00  0.00    -0.228 NA 
HETATM   27  C   UNL     1      -9.662   3.916  71.511  1.00  0.00    -0.177 A  
HETATM   28  C   UNL     1     -10.077   3.479  72.789  1.00  0.00    -0.229 A  
HETATM   29  C   UNL     1     -11.042   4.234  73.469  1.00  0.00    -0.377 A  
HETATM   30  C   UNL     1      -9.536   2.311  73.351  1.00  0.00    -0.121 A  
HETATM   31  C   UNL     1     -11.585   5.360  72.865  1.00  0.00    -0.296 A  
HETATM   32  C   UNL     1      -8.589   1.569  72.651  1.00  0.00    -0.057 A  
HETATM   33  C   UNL     1      -8.168   1.999  71.397  1.00  0.00    -0.055 A  
HETATM   34  C   UNL     1      -8.703   3.166  70.843  1.00  0.00    -0.127 A  
ENDBRANCH  23  25
ENDBRANCH  20  21
BRANCH  20  35
HETATM   35  C   UNL     1     -11.287  10.266  70.550  1.00  0.00    -0.422 C  
BRANCH  35  36
HETATM   36  C   UNL     1     -12.698  10.632  70.943  1.00  0.00    -0.404 C  
HETATM   37  N   UNL     1     -13.665   9.732  70.617  1.00  0.00    -0.463 N  
HETATM   38  O   UNL     1     -12.981  11.692  71.489  1.00  0.00    -0.424 OA 
HETATM   39  H2  UNL     1     -13.449   8.860  70.135  1.00  0.00     0.000 HD 
HETATM   40  H1  UNL     1     -14.618   9.980  70.883  1.00  0.00     0.000 HD 
ENDBRANCH  35  36
ENDBRANCH  20  35
ENDBRANCH  17  20
ENDBRANCH  15  16
BRANCH  15  41
HETATM   41  C   UNL     1      -9.856  10.741  65.557  1.00  0.00    -0.309 C  
BRANCH  41  42
HETATM   42  C   UNL     1     -10.730  11.923  65.194  1.00  0.00    -0.339 A  
HETATM   43  C   UNL     1     -10.493  12.667  64.030  1.00  0.00    -0.443 A  
HETATM   44  C   UNL     1     -12.492  13.981  64.417  1.00  0.00    -0.326 A  
HETATM   45  C   UNL     1     -11.365  13.692  63.647  1.00  0.00     0.134 A  
HETATM   46  C   UNL     1     -11.864  12.232  65.962  1.00  0.00    -0.409 A  
HETATM   47  C   UNL     1     -12.737  13.251  65.578  1.00  0.00    -0.429 A  
ENDBRANCH  41  42
ENDBRANCH  15  41
ENDBRANCH  12  15
ENDBRANCH  11  12
ENDBRANCH   8  11
BRANCH   9  48
HETATM   48  C   UNL     1      -7.133  15.601  67.511  1.00  0.00    -0.186 C  
HETATM   49  C   UNL     1      -5.361  18.105  67.238  1.00  0.00    -0.142 C  
HETATM   50  O   UNL     1      -6.026  15.088  67.362  1.00  0.00    -0.335 OA 
HETATM   51  C   UNL     1      -5.335  17.147  69.568  1.00  0.00    -0.168 C  
HETATM   52  C   UNL     1      -6.220  17.757  68.468  1.00  0.00    -0.184 C  
HETATM   53  N   UNL     1      -7.315  16.836  68.110  1.00  0.00    -0.168 N  
HETATM   54  C   UNL     1      -6.819  19.069  69.012  1.00  0.00    -0.352 C  
HETATM   55  H   UNL     1      -8.270  17.129  68.318  1.00  0.00     0.000 HD 
ENDBRANCH   9  48
TORSDOF 12
ENDMDL
MODEL       19
REMARK 921   NORMALIZED FREE ENERGY PREDICTED BY IDOCK:   -6.64 KCAL/MOL
REMARK 922        TOTAL FREE ENERGY PREDICTED BY IDOCK:  -15.39 KCAL/MOL
REMARK 923 INTER-LIGAND FREE ENERGY PREDICTED BY IDOCK:  -12.25 KCAL/MOL
REMARK 924 INTRA-LIGAND FREE ENERGY PREDICTED BY IDOCK:   -3.14 KCAL/MOL
REMARK 927      BINDING AFFINITY PREDICTED BY RF-SCORE:    0.00 PKD
ROOT
HETATM    1  C   UNL     1      -8.656   8.934  64.716  1.00  0.00    -0.184 C  
HETATM    2  C   UNL     1      -7.936   7.869  63.878  1.00  0.00    -0.121 C  
HETATM    3  C   UNL     1      -6.419   7.949  64.024  1.00  0.00    -0.061 C  
HETATM    4  C   UNL     1      -5.905   9.336  63.656  1.00  0.00    -0.087 C  
HETATM    5  C   UNL     1      -6.581  10.426  64.482  1.00  0.00    -0.023 C  
HETATM    6  C   UNL     1      -8.111  10.335  64.438  1.00  0.00    -0.149 C  
HETATM    7  C   UNL     1      -8.798  11.321  65.385  1.00  0.00    -0.048 C  
HETATM    8  N   UNL     1      -8.503  11.113  66.811  1.00  0.00    -0.147 NA 
HETATM    9  C   UNL     1      -8.473   9.690  67.241  1.00  0.00    -0.132 C  
HETATM   10  C   UNL     1      -8.674   8.565  66.205  1.00  0.00    -0.164 C  
ENDROOT
BRANCH   8  11
HETATM   11  C   UNL     1      -9.479  11.908  67.613  1.00  0.00    -0.182 C  
BRANCH  11  12
HETATM   12  C   UNL     1     -10.126  13.128  66.905  1.00  0.00    -0.245 C  
HETATM   13  H   UNL     1     -11.910  13.583  66.231  1.00  0.00     0.000 HD 
HETATM   14  O   UNL     1     -11.514  12.837  66.664  1.00  0.00    -0.311 OA 
BRANCH  12  15
HETATM   15  C   UNL     1     -10.047  14.441  67.733  1.00  0.00    -0.226 C  
BRANCH  15  16
HETATM   16  N   UNL     1     -10.605  14.218  69.081  1.00  0.00    -0.340 N  
HETATM   17  C   UNL     1     -11.598  15.026  69.603  1.00  0.00    -0.304 C  
HETATM   18  O   UNL     1     -11.989  16.051  69.042  1.00  0.00    -0.342 OA 
HETATM   19  H   UNL     1     -10.247  13.446  69.645  1.00  0.00     0.000 HD 
BRANCH  17  20
HETATM   20  C   UNL     1     -12.137  14.593  70.983  1.00  0.00    -0.329 C  
BRANCH  20  21
HETATM   21  N   UNL     1     -12.105  13.135  71.072  1.00  0.00    -0.430 N  
HETATM   22  H   UNL     1     -11.374  12.638  70.564  1.00  0.00     0.000 HD 
HETATM   23  C   UNL     1     -13.003  12.397  71.804  1.00  0.00    -0.316 C  
HETATM   24  O   UNL     1     -13.866  12.907  72.515  1.00  0.00    -0.579 OA 
BRANCH  23  25
HETATM   25  C   UNL     1     -12.835  10.916  71.725  1.00  0.00    -0.404 A  
HETATM   26  N   UNL     1     -11.809  10.466  70.952  1.00  0.00    -0.359 NA 
HETATM   27  C   UNL     1     -11.671   9.136  70.819  1.00  0.00    -0.256 A  
HETATM   28  C   UNL     1     -12.527   8.216  71.464  1.00  0.00    -0.333 A  
HETATM   29  C   UNL     1     -13.546   8.718  72.283  1.00  0.00    -0.478 A  
HETATM   30  C   UNL     1     -12.357   6.835  71.275  1.00  0.00    -0.395 A  
HETATM   31  C   UNL     1     -13.709  10.091  72.415  1.00  0.00    -0.113 A  
HETATM   32  C   UNL     1     -11.347   6.359  70.444  1.00  0.00    -0.453 A  
HETATM   33  C   UNL     1     -10.492   7.259  69.814  1.00  0.00    -0.236 A  
HETATM   34  C   UNL     1     -10.659   8.633  70.011  1.00  0.00    -0.233 A  
ENDBRANCH  23  25
ENDBRANCH  20  21
BRANCH  20  35
HETATM   35  C   UNL     1     -11.444  15.296  72.147  1.00  0.00    -0.499 C  
BRANCH  35  36
HETATM   36  C   UNL     1     -12.400  15.977  73.098  1.00  0.00    -0.531 C  
HETATM   37  N   UNL     1     -13.709  15.623  72.989  1.00  0.00    -0.608 N  
HETATM   38  O   UNL     1     -12.041  16.831  73.900  1.00  0.00    -0.397 OA 
HETATM   39  H2  UNL     1     -14.027  14.937  72.306  1.00  0.00     0.000 HD 
HETATM   40  H1  UNL     1     -14.354  16.084  73.631  1.00  0.00     0.000 HD 
ENDBRANCH  35  36
ENDBRANCH  20  35
ENDBRANCH  17  20
ENDBRANCH  15  16
BRANCH  15  41
HETATM   41  C   UNL     1      -8.620  15.045  67.805  1.00  0.00    -0.165 C  
BRANCH  41  42
HETATM   42  C   UNL     1      -8.417  16.419  67.202  1.00  0.00    -0.208 A  
HETATM   43  C   UNL     1      -9.359  17.439  67.393  1.00  0.00    -0.237 A  
HETATM   44  C   UNL     1      -7.923  19.029  66.261  1.00  0.00    -0.302 A  
HETATM   45  C   UNL     1      -9.116  18.733  66.921  1.00  0.00    -0.305 A  
HETATM   46  C   UNL     1      -7.226  16.730  66.528  1.00  0.00    -0.278 A  
HETATM   47  C   UNL     1      -6.980  18.023  66.062  1.00  0.00    -0.340 A  
ENDBRANCH  41  42
ENDBRANCH  15  41
ENDBRANCH  12  15
ENDBRANCH  11  12
ENDBRANCH   8  11
BRANCH   9  48
HETATM   48  C   UNL     1      -7.171   9.402  68.055  1.00  0.00    -0.078 C  
HETATM   49  C   UNL     1      -5.359  10.263  70.392  1.00  0.00    -0.053 C  
HETATM   50  O   UNL     1      -6.070   9.398  67.510  1.00  0.00    -0.052 OA 
HETATM   51  C   UNL     1      -5.381   7.767  70.049  1.00  0.00    -0.023 C  
HETATM   52  C   UNL     1      -6.241   9.001  70.373  1.00  0.00    -0.042 C  
HETATM   53  N   UNL     1      -7.344   9.135  69.403  1.00  0.00    -0.074 N  
HETATM   54  C   UNL     1      -6.829   8.814  71.785  1.00  0.00    -0.073 C  
HETATM   55  H   UNL     1      -8.297   9.025  69.748  1.00  0.00     0.000 HD 
ENDBRANCH   9  48
TORSDOF 12
ENDMDL
MODEL       20
REMARK 921   NORMALIZED FREE ENERGY PREDICTED BY IDOCK:   -6.64 KCAL/MOL
REMARK 922        TOTAL FREE ENERGY PREDICTED BY IDOCK:  -15.39 KCAL/MOL
REMARK 923 INTER-LIGAND FREE ENERGY PREDICTED BY IDOCK:  -11.34 KCAL/MOL
REMARK 924 INTRA-LIGAND FREE ENERGY PREDICTED BY IDOCK:   -4.05 KCAL/MOL
REMARK 927      BINDING AFFINITY PREDICTED BY RF-SCORE:    0.00 PKD
ROOT
HETATM    1  C   UNL     1     -10.649  17.297  66.866  1.00  0.00    -0.213 C  
HETATM    2  C   UNL     1      -9.719  18.328  66.211  1.00  0.00    -0.293 C  
HETATM    3  C   UNL     1      -8.326  18.327  66.836  1.00  0.00    -0.256 C  
HETATM    4  C   UNL     1      -8.400  18.572  68.338  1.00  0.00    -0.355 C  
HETATM    5  C   UNL     1      -9.299  17.555  69.034  1.00  0.00    -0.089 C  
HETATM    6  C   UNL     1     -10.686  17.454  68.386  1.00  0.00    -0.301 C  
HETATM    7  C   UNL     1     -11.542  16.330  68.971  1.00  0.00    -0.231 C  
HETATM    8  N   UNL     1     -10.997  14.977  68.778  1.00  0.00    -0.245 NA 
HETATM    9  C   UNL     1     -10.400  14.730  67.439  1.00  0.00    -0.242 C  
HETATM   10  C   UNL     1     -10.326  15.870  66.403  1.00  0.00    -0.313 C  
ENDROOT
BRANCH   8  11
HETATM   11  C   UNL     1     -12.071  13.989  69.090  1.00  0.00    -0.337 C  
BRANCH  11  12
HETATM   12  C   UNL     1     -11.963  13.257  70.455  1.00  0.00    -0.275 C  
HETATM   13  H   UNL     1     -12.920  13.317  72.165  1.00  0.00     0.000 HD 
HETATM   14  O   UNL     1     -12.985  13.764  71.330  1.00  0.00    -0.338 OA 
BRANCH  12  15
HETATM   15  C   UNL     1     -12.140  11.716  70.350  1.00  0.00    -0.373 C  
BRANCH  15  16
HETATM   16  N   UNL     1     -10.890  11.100  69.864  1.00  0.00    -0.470 N  
HETATM   17  C   UNL     1     -10.786  10.563  68.595  1.00  0.00    -0.237 C  
HETATM   18  O   UNL     1     -11.752  10.444  67.839  1.00  0.00    -0.377 OA 
HETATM   19  H   UNL     1     -10.078  11.070  70.482  1.00  0.00     0.000 HD 
BRANCH  17  20
HETATM   20  C   UNL     1      -9.382  10.051  68.213  1.00  0.00    -0.132 C  
BRANCH  20  21
HETATM   21  N   UNL     1      -9.096   8.831  68.964  1.00  0.00    -0.141 N  
HETATM   22  H   UNL     1      -9.375   7.938  68.556  1.00  0.00     0.000 HD 
HETATM   23  C   UNL     1      -8.474   8.819  70.188  1.00  0.00    -0.137 C  
HETATM   24  O   UNL     1      -8.028   9.832  70.722  1.00  0.00    -0.288 OA 
BRANCH  23  25
HETATM   25  C   UNL     1      -8.322   7.475  70.820  1.00  0.00    -0.118 A  
HETATM   26  N   UNL     1      -9.061   6.468  70.279  1.00  0.00    -0.155 NA 
HETATM   27  C   UNL     1      -8.984   5.261  70.864  1.00  0.00    -0.137 A  
HETATM   28  C   UNL     1      -8.160   5.011  71.984  1.00  0.00    -0.112 A  
HETATM   29  C   UNL     1      -7.385   6.064  72.487  1.00  0.00    -0.090 A  
HETATM   30  C   UNL     1      -8.133   3.739  72.577  1.00  0.00    -0.081 A  
HETATM   31  C   UNL     1      -7.468   7.320  71.900  1.00  0.00    -0.084 A  
HETATM   32  C   UNL     1      -8.923   2.711  72.070  1.00  0.00    -0.125 A  
HETATM   33  C   UNL     1      -9.729   2.946  70.960  1.00  0.00    -0.166 A  
HETATM   34  C   UNL     1      -9.748   4.213  70.368  1.00  0.00    -0.271 A  
ENDBRANCH  23  25
ENDBRANCH  20  21
BRANCH  20  35
HETATM   35  C   UNL     1      -9.184   9.905  66.705  1.00  0.00    -0.176 C  
BRANCH  35  36
HETATM   36  C   UNL     1      -7.735   9.801  66.293  1.00  0.00    -0.103 C  
HETATM   37  N   UNL     1      -7.241  10.841  65.568  1.00  0.00    -0.344 N  
HETATM   38  O   UNL     1      -7.040   8.826  66.552  1.00  0.00    -0.078 OA 
HETATM   39  H2  UNL     1      -7.816  11.645  65.318  1.00  0.00     0.000 HD 
HETATM   40  H1  UNL     1      -6.262  10.770  65.289  1.00  0.00     0.000 HD 
ENDBRANCH  35  36
ENDBRANCH  20  35
ENDBRANCH  17  20
ENDBRANCH  15  16
BRANCH  15  41
HETATM   41  C   UNL     1     -12.619  11.056  71.669  1.00  0.00    -0.402 C  
BRANCH  41  42
HETATM   42  C   UNL     1     -12.685   9.543  71.702  1.00  0.00    -0.478 A  
HETATM   43  C   UNL     1     -11.602   8.781  72.161  1.00  0.00    -0.434 A  
HETATM   44  C   UNL     1     -12.902   6.746  71.964  1.00  0.00    -0.191 A  
HETATM   45  C   UNL     1     -11.709   7.392  72.286  1.00  0.00    -0.326 A  
HETATM   46  C   UNL     1     -13.877   8.877  71.375  1.00  0.00    -0.312 A  
HETATM   47  C   UNL     1     -13.986   7.491  71.505  1.00  0.00    -0.522 A  
ENDBRANCH  41  42
ENDBRANCH  15  41
ENDBRANCH  12  15
ENDBRANCH  11  12
ENDBRANCH   8  11
BRANCH   9  48
HETATM   48  C   UNL     1      -8.981  14.092  67.591  1.00  0.00    -0.192 C  
HETATM   49  C   UNL     1      -5.963  14.595  67.936  1.00  0.00    -0.151 C  
HETATM   50  O   UNL     1      -8.522  13.353  66.724  1.00  0.00    -0.108 OA 
HETATM   51  C   UNL     1      -6.739  12.503  69.107  1.00  0.00    -0.089 C  
HETATM   52  C   UNL     1      -6.897  14.031  69.023  1.00  0.00    -0.111 C  
HETATM   53  N   UNL     1      -8.302  14.395  68.759  1.00  0.00    -0.227 N  
HETATM   54  C   UNL     1      -6.464  14.631  70.375  1.00  0.00    -0.110 C  
HETATM   55  H   UNL     1      -8.806  14.903  69.485  1.00  0.00     0.000 HD 
ENDBRANCH   9  48
TORSDOF 12
ENDMDL
MODEL       21
REMARK 921   NORMALIZED FREE ENERGY PREDICTED BY IDOCK:   -6.56 KCAL/MOL
REMARK 922        TOTAL FREE ENERGY PREDICTED BY IDOCK:  -15.26 KCAL/MOL
REMARK 923 INTER-LIGAND FREE ENERGY PREDICTED BY IDOCK:  -13.04 KCAL/MOL
REMARK 924 INTRA-LIGAND FREE ENERGY PREDICTED BY IDOCK:   -2.22 KCAL/MOL
REMARK 927      BINDING AFFINITY PREDICTED BY RF-SCORE:    0.00 PKD
ROOT
HETATM    1  C   UNL     1     -11.001   4.948  73.087  1.00  0.00    -0.376 C  
HETATM    2  C   UNL     1     -10.167   3.668  73.235  1.00  0.00    -0.223 C  
HETATM    3  C   UNL     1      -8.945   3.668  72.321  1.00  0.00    -0.133 C  
HETATM    4  C   UNL     1      -9.350   3.859  70.864  1.00  0.00    -0.222 C  
HETATM    5  C   UNL     1     -10.165   5.134  70.668  1.00  0.00    -0.326 C  
HETATM    6  C   UNL     1     -11.359   5.224  71.627  1.00  0.00     0.158 C  
HETATM    7  C   UNL     1     -12.090   6.565  71.551  1.00  0.00    -0.308 C  
HETATM    8  N   UNL     1     -11.280   7.732  71.933  1.00  0.00    -0.254 NA 
HETATM    9  C   UNL     1     -10.401   7.521  73.114  1.00  0.00    -0.347 C  
HETATM   10  C   UNL     1     -10.340   6.138  73.794  1.00  0.00    -0.288 C  
ENDROOT
BRANCH   8  11
HETATM   11  C   UNL     1     -12.195   8.895  72.132  1.00  0.00    -0.367 C  
BRANCH  11  12
HETATM   12  C   UNL     1     -12.531   9.733  70.870  1.00  0.00    -0.277 C  
HETATM   13  H   UNL     1     -14.150  10.147  69.843  1.00  0.00     0.000 HD 
HETATM   14  O   UNL     1     -13.943   9.634  70.615  1.00  0.00     0.036 OA 
BRANCH  12  15
HETATM   15  C   UNL     1     -12.173  11.239  71.011  1.00  0.00    -0.311 C  
BRANCH  15  16
HETATM   16  N   UNL     1     -11.963  11.831  69.675  1.00  0.00    -0.317 N  
HETATM   17  C   UNL     1     -10.861  11.516  68.902  1.00  0.00    -0.218 C  
HETATM   18  O   UNL     1      -9.925  10.833  69.321  1.00  0.00    -0.214 OA 
HETATM   19  H   UNL     1     -12.650  12.492  69.311  1.00  0.00     0.000 HD 
BRANCH  17  20
HETATM   20  C   UNL     1     -10.848  12.145  67.493  1.00  0.00    -0.243 C  
BRANCH  20  21
HETATM   21  N   UNL     1     -10.358  13.518  67.586  1.00  0.00    -0.236 N  
HETATM   22  H   UNL     1      -9.353  13.676  67.515  1.00  0.00     0.000 HD 
HETATM   23  C   UNL     1     -11.175  14.607  67.764  1.00  0.00    -0.308 C  
HETATM   24  O   UNL     1     -12.401  14.529  67.778  1.00  0.00    -0.204 OA 
BRANCH  23  25
HETATM   25  C   UNL     1     -10.479  15.922  67.889  1.00  0.00    -0.288 A  
HETATM   26  N   UNL     1      -9.185  15.880  68.314  1.00  0.00    -0.187 NA 
HETATM   27  C   UNL     1      -8.554  17.053  68.489  1.00  0.00    -0.257 A  
HETATM   28  C   UNL     1      -9.173  18.295  68.228  1.00  0.00    -0.322 A  
HETATM   29  C   UNL     1     -10.491  18.294  67.754  1.00  0.00    -0.430 A  
HETATM   30  C   UNL     1      -8.479  19.496  68.450  1.00  0.00    -0.387 A  
HETATM   31  C   UNL     1     -11.160  17.089  67.585  1.00  0.00    -0.051 A  
HETATM   32  C   UNL     1      -7.175  19.473  68.936  1.00  0.00    -0.397 A  
HETATM   33  C   UNL     1      -6.554  18.253  69.185  1.00  0.00    -0.265 A  
HETATM   34  C   UNL     1      -7.245  17.059  68.956  1.00  0.00    -0.229 A  
ENDBRANCH  23  25
ENDBRANCH  20  21
BRANCH  20  35
HETATM   35  C   UNL     1     -10.106  11.297  66.462  1.00  0.00    -0.256 C  
BRANCH  35  36
HETATM   36  C   UNL     1     -10.360  11.720  65.035  1.00  0.00    -0.281 C  
HETATM   37  N   UNL     1     -10.549  10.716  64.136  1.00  0.00    -0.392 N  
HETATM   38  O   UNL     1     -10.358  12.892  64.681  1.00  0.00    -0.333 OA 
HETATM   39  H2  UNL     1     -10.523   9.735  64.410  1.00  0.00     0.000 HD 
HETATM   40  H1  UNL     1     -10.720  11.002  63.172  1.00  0.00     0.000 HD 
ENDBRANCH  35  36
ENDBRANCH  20  35
ENDBRANCH  17  20
ENDBRANCH  15  16
BRANCH  15  41
HETATM   41  C   UNL     1     -13.210  12.050  71.831  1.00  0.00    -0.469 C  
BRANCH  41  42
HETATM   42  C   UNL     1     -13.032  13.554  71.879  1.00  0.00    -0.431 A  
HETATM   43  C   UNL     1     -13.849  14.353  72.690  1.00  0.00    -0.480 A  
HETATM   44  C   UNL     1     -12.549  16.319  72.127  1.00  0.00    -0.224 A  
HETATM   45  C   UNL     1     -13.611  15.727  72.809  1.00  0.00    -0.662 A  
HETATM   46  C   UNL     1     -11.972  14.166  71.192  1.00  0.00    -0.316 A  
HETATM   47  C   UNL     1     -11.731  15.536  71.314  1.00  0.00    -0.457 A  
ENDBRANCH  41  42
ENDBRANCH  15  41
ENDBRANCH  12  15
ENDBRANCH  11  12
ENDBRANCH   8  11
BRANCH   9  48
HETATM   48  C   UNL     1      -8.947   7.993  72.793  1.00  0.00    -0.228 C  
HETATM   49  C   UNL     1      -6.060   7.150  72.133  1.00  0.00    -0.041 C  
HETATM   50  O   UNL     1      -8.315   8.685  73.588  1.00  0.00    -0.380 OA 
HETATM   51  C   UNL     1      -6.724   9.303  71.005  1.00  0.00    -0.093 C  
HETATM   52  C   UNL     1      -7.040   7.803  71.142  1.00  0.00    -0.050 C  
HETATM   53  N   UNL     1      -8.439   7.603  71.566  1.00  0.00    -0.113 N  
HETATM   54  C   UNL     1      -6.829   7.144  69.765  1.00  0.00    -0.050 C  
HETATM   55  H   UNL     1      -9.074   7.147  70.911  1.00  0.00     0.000 HD 
ENDBRANCH   9  48
TORSDOF 12
ENDMDL
MODEL       22
REMARK 921   NORMALIZED FREE ENERGY PREDICTED BY IDOCK:   -6.53 KCAL/MOL
REMARK 922        TOTAL FREE ENERGY PREDICTED BY IDOCK:  -15.22 KCAL/MOL
REMARK 923 INTER-LIGAND FREE ENERGY PREDICTED BY IDOCK:  -12.47 KCAL/MOL
REMARK 924 INTRA-LIGAND FREE ENERGY PREDICTED BY IDOCK:   -2.75 KCAL/MOL
REMARK 927      BINDING AFFINITY PREDICTED BY RF-SCORE:    0.00 PKD
ROOT
HETATM    1  C   UNL     1     -11.409   8.120  70.975  1.00  0.00    -0.293 C  
HETATM    2  C   UNL     1     -11.762   8.134  72.468  1.00  0.00    -0.457 C  
HETATM    3  C   UNL     1     -10.969   7.096  73.258  1.00  0.00    -0.325 C  
HETATM    4  C   UNL     1     -11.177   5.698  72.687  1.00  0.00    -0.350 C  
HETATM    5  C   UNL     1     -10.816   5.633  71.206  1.00  0.00    -0.289 C  
HETATM    6  C   UNL     1     -11.522   6.716  70.380  1.00  0.00    -0.444 C  
HETATM    7  C   UNL     1     -11.051   6.765  68.926  1.00  0.00    -0.181 C  
HETATM    8  N   UNL     1      -9.630   7.099  68.749  1.00  0.00    -0.144 NA 
HETATM    9  C   UNL     1      -9.125   8.172  69.647  1.00  0.00    -0.151 C  
HETATM   10  C   UNL     1     -10.057   8.794  70.707  1.00  0.00    -0.261 C  
ENDROOT
BRANCH   8  11
HETATM   11  C   UNL     1      -9.401   7.434  67.313  1.00  0.00    -0.133 C  
BRANCH  11  12
HETATM   12  C   UNL     1      -7.934   7.715  66.893  1.00  0.00    -0.115 C  
HETATM   13  H   UNL     1      -6.449   6.662  66.164  1.00  0.00     0.000 HD 
HETATM   14  O   UNL     1      -7.347   6.490  66.420  1.00  0.00    -0.071 OA 
BRANCH  12  15
HETATM   15  C   UNL     1      -7.802   8.778  65.766  1.00  0.00    -0.099 C  
BRANCH  15  16
HETATM   16  N   UNL     1      -9.067   9.527  65.634  1.00  0.00    -0.185 N  
HETATM   17  C   UNL     1      -9.317  10.351  64.552  1.00  0.00    -0.264 C  
HETATM   18  O   UNL     1      -8.464  10.616  63.703  1.00  0.00    -0.156 OA 
HETATM   19  H   UNL     1      -9.777   9.435  66.361  1.00  0.00     0.000 HD 
BRANCH  17  20
HETATM   20  C   UNL     1     -10.726  10.979  64.519  1.00  0.00    -0.264 C  
BRANCH  20  21
HETATM   21  N   UNL     1     -11.141  11.293  65.884  1.00  0.00    -0.168 N  
HETATM   22  H   UNL     1     -11.752  10.633  66.365  1.00  0.00     0.000 HD 
HETATM   23  C   UNL     1     -10.755  12.427  66.556  1.00  0.00    -0.236 C  
HETATM   24  O   UNL     1      -9.957  13.239  66.094  1.00  0.00    -0.283 OA 
BRANCH  23  25
HETATM   25  C   UNL     1     -11.330  12.593  67.923  1.00  0.00    -0.288 A  
HETATM   26  N   UNL     1     -11.547  13.873  68.334  1.00  0.00    -0.311 NA 
HETATM   27  C   UNL     1     -12.011  14.052  69.582  1.00  0.00    -0.339 A  
HETATM   28  C   UNL     1     -12.293  12.973  70.449  1.00  0.00    -0.351 A  
HETATM   29  C   UNL     1     -12.095  11.670  69.975  1.00  0.00    -0.395 A  
HETATM   30  C   UNL     1     -12.754  13.212  71.754  1.00  0.00    -0.270 A  
HETATM   31  C   UNL     1     -11.600  11.472  68.693  1.00  0.00    -0.375 A  
HETATM   32  C   UNL     1     -12.930  14.516  72.209  1.00  0.00    -0.441 A  
HETATM   33  C   UNL     1     -12.664  15.584  71.357  1.00  0.00    -0.517 A  
HETATM   34  C   UNL     1     -12.213  15.342  70.056  1.00  0.00    -0.392 A  
ENDBRANCH  23  25
ENDBRANCH  20  21
BRANCH  20  35
HETATM   35  C   UNL     1     -10.836  12.159  63.556  1.00  0.00    -0.518 C  
BRANCH  35  36
HETATM   36  C   UNL     1     -12.249  12.657  63.368  1.00  0.00    -0.517 C  
HETATM   37  N   UNL     1     -12.401  14.003  63.244  1.00  0.00    -1.145 N  
HETATM   38  O   UNL     1     -13.220  11.909  63.364  1.00  0.00    -0.649 OA 
HETATM   39  H2  UNL     1     -11.605  14.640  63.276  1.00  0.00     0.000 HD 
HETATM   40  H1  UNL     1     -13.355  14.338  63.117  1.00  0.00     0.000 HD 
ENDBRANCH  35  36
ENDBRANCH  20  35
ENDBRANCH  17  20
ENDBRANCH  15  16
BRANCH  15  41
HETATM   41  C   UNL     1      -6.596   9.735  65.954  1.00  0.00    -0.083 C  
BRANCH  41  42
HETATM   42  C   UNL     1      -6.760  10.872  66.940  1.00  0.00    -0.106 A  
HETATM   43  C   UNL     1      -7.765  10.843  67.917  1.00  0.00    -0.104 A  
HETATM   44  C   UNL     1      -6.917  12.887  68.904  1.00  0.00    -0.084 A  
HETATM   45  C   UNL     1      -7.845  11.846  68.888  1.00  0.00     0.015 A  
HETATM   46  C   UNL     1      -5.838  11.931  66.964  1.00  0.00    -0.153 A  
HETATM   47  C   UNL     1      -5.915  12.930  67.937  1.00  0.00    -0.125 A  
ENDBRANCH  41  42
ENDBRANCH  15  41
ENDBRANCH  12  15
ENDBRANCH  11  12
ENDBRANCH   8  11
BRANCH   9  48
HETATM   48  C   UNL     1      -7.802   7.715  70.340  1.00  0.00    -0.092 C  
HETATM   49  C   UNL     1      -6.424   6.925  72.978  1.00  0.00    -0.062 C  
HETATM   50  O   UNL     1      -6.788   8.407  70.290  1.00  0.00    -0.036 OA 
HETATM   51  C   UNL     1      -5.502   5.680  70.991  1.00  0.00    -0.009 C  
HETATM   52  C   UNL     1      -6.762   5.956  71.830  1.00  0.00    -0.063 C  
HETATM   53  N   UNL     1      -7.845   6.490  70.983  1.00  0.00    -0.108 N  
HETATM   54  C   UNL     1      -7.218   4.623  72.456  1.00  0.00    -0.081 C  
HETATM   55  H   UNL     1      -8.681   5.918  70.863  1.00  0.00     0.000 HD 
ENDBRANCH   9  48
TORSDOF 12
ENDMDL
MODEL       23
REMARK 921   NORMALIZED FREE ENERGY PREDICTED BY IDOCK:   -6.36 KCAL/MOL
REMARK 922        TOTAL FREE ENERGY PREDICTED BY IDOCK:  -14.93 KCAL/MOL
REMARK 923 INTER-LIGAND FREE ENERGY PREDICTED BY IDOCK:  -11.78 KCAL/MOL
REMARK 924 INTRA-LIGAND FREE ENERGY PREDICTED BY IDOCK:   -3.14 KCAL/MOL
REMARK 927      BINDING AFFINITY PREDICTED BY RF-SCORE:    0.00 PKD
ROOT
HETATM    1  C   UNL     1     -10.604   7.575  67.662  1.00  0.00    -0.303 C  
HETATM    2  C   UNL     1     -10.971   6.121  67.990  1.00  0.00    -0.399 C  
HETATM    3  C   UNL     1      -9.796   5.169  67.781  1.00  0.00    -0.196 C  
HETATM    4  C   UNL     1      -9.262   5.262  66.357  1.00  0.00    -0.145 C  
HETATM    5  C   UNL     1      -8.865   6.690  65.995  1.00  0.00    -0.151 C  
HETATM    6  C   UNL     1      -9.986   7.701  66.270  1.00  0.00    -0.021 C  
HETATM    7  C   UNL     1      -9.549   9.152  66.061  1.00  0.00    -0.272 C  
HETATM    8  N   UNL     1      -8.476   9.608  66.958  1.00  0.00    -0.124 NA 
HETATM    9  C   UNL     1      -8.602   9.148  68.367  1.00  0.00    -0.129 C  
HETATM   10  C   UNL     1      -9.756   8.209  68.772  1.00  0.00    -0.155 C  
ENDROOT
BRANCH   8  11
HETATM   11  C   UNL     1      -8.392  11.096  66.873  1.00  0.00    -0.147 C  
BRANCH  11  12
HETATM   12  C   UNL     1      -9.722  11.849  66.605  1.00  0.00    -0.205 C  
HETATM   13  H   UNL     1     -11.615  11.563  67.030  1.00  0.00     0.000 HD 
HETATM   14  O   UNL     1     -10.801  11.102  67.194  1.00  0.00    -0.244 OA 
BRANCH  12  15
HETATM   15  C   UNL     1      -9.753  13.286  67.198  1.00  0.00    -0.236 C  
BRANCH  15  16
HETATM   16  N   UNL     1     -10.389  13.265  68.530  1.00  0.00    -0.256 N  
HETATM   17  C   UNL     1     -11.568  13.940  68.787  1.00  0.00    -0.335 C  
HETATM   18  O   UNL     1     -12.093  14.700  67.972  1.00  0.00    -0.286 OA 
HETATM   19  H   UNL     1      -9.946  12.738  69.283  1.00  0.00     0.000 HD 
BRANCH  17  20
HETATM   20  C   UNL     1     -12.148  13.730  70.202  1.00  0.00    -0.359 C  
BRANCH  20  21
HETATM   21  N   UNL     1     -12.076  12.311  70.543  1.00  0.00    -0.474 N  
HETATM   22  H   UNL     1     -11.401  11.731  70.045  1.00  0.00     0.000 HD 
HETATM   23  C   UNL     1     -12.866  11.717  71.495  1.00  0.00    -0.364 C  
HETATM   24  O   UNL     1     -13.649  12.345  72.203  1.00  0.00    -0.483 OA 
BRANCH  23  25
HETATM   25  C   UNL     1     -12.680  10.245  71.659  1.00  0.00    -0.456 A  
HETATM   26  N   UNL     1     -11.401   9.818  71.854  1.00  0.00    -0.018 NA 
HETATM   27  C   UNL     1     -11.199   8.493  71.949  1.00  0.00    -0.327 A  
HETATM   28  C   UNL     1     -12.255   7.557  71.877  1.00  0.00    -0.339 A  
HETATM   29  C   UNL     1     -13.561   8.038  71.717  1.00  0.00    -0.395 A  
HETATM   30  C   UNL     1     -11.990   6.180  71.957  1.00  0.00    -0.310 A  
HETATM   31  C   UNL     1     -13.780   9.405  71.601  1.00  0.00    -0.393 A  
HETATM   32  C   UNL     1     -10.683   5.723  72.101  1.00  0.00    -0.282 A  
HETATM   33  C   UNL     1      -9.639   6.640  72.183  1.00  0.00    -0.149 A  
HETATM   34  C   UNL     1      -9.907   8.010  72.111  1.00  0.00    -0.286 A  
ENDBRANCH  23  25
ENDBRANCH  20  21
BRANCH  20  35
HETATM   35  C   UNL     1     -11.522  14.647  71.250  1.00  0.00    -0.163 C  
BRANCH  35  36
HETATM   36  C   UNL     1     -12.508  15.591  71.895  1.00  0.00    -0.400 C  
HETATM   37  N   UNL     1     -13.824  15.340  71.655  1.00  0.00    -0.483 N  
HETATM   38  O   UNL     1     -12.161  16.555  72.567  1.00  0.00    -0.440 OA 
HETATM   39  H2  UNL     1     -14.126  14.560  71.073  1.00  0.00     0.000 HD 
HETATM   40  H1  UNL     1     -14.489  15.978  72.091  1.00  0.00     0.000 HD 
ENDBRANCH  35  36
ENDBRANCH  20  35
ENDBRANCH  17  20
ENDBRANCH  15  16
BRANCH  15  41
HETATM   41  C   UNL     1      -8.360  13.967  67.248  1.00  0.00    -0.209 C  
BRANCH  41  42
HETATM   42  C   UNL     1      -8.330  15.471  67.425  1.00  0.00    -0.202 A  
HETATM   43  C   UNL     1      -7.934  16.049  68.639  1.00  0.00    -0.174 A  
HETATM   44  C   UNL     1      -8.069  18.266  67.670  1.00  0.00    -0.249 A  
HETATM   45  C   UNL     1      -7.809  17.437  68.761  1.00  0.00    -0.250 A  
HETATM   46  C   UNL     1      -8.596  16.320  66.338  1.00  0.00    -0.361 A  
HETATM   47  C   UNL     1      -8.467  17.705  66.459  1.00  0.00    -0.294 A  
ENDBRANCH  41  42
ENDBRANCH  15  41
ENDBRANCH  12  15
ENDBRANCH  11  12
ENDBRANCH   8  11
BRANCH   9  48
HETATM   48  C   UNL     1      -7.252   8.532  68.854  1.00  0.00    -0.078 C  
HETATM   49  C   UNL     1      -5.572   7.606  71.263  1.00  0.00    -0.035 C  
HETATM   50  O   UNL     1      -6.180   9.085  68.617  1.00  0.00    -0.045 OA 
HETATM   51  C   UNL     1      -5.153   6.224  69.199  1.00  0.00    -0.005 C  
HETATM   52  C   UNL     1      -6.213   6.673  70.219  1.00  0.00    -0.032 C  
HETATM   53  N   UNL     1      -7.344   7.332  69.538  1.00  0.00    -0.083 N  
HETATM   54  C   UNL     1      -6.726   5.421  70.956  1.00  0.00    -0.044 C  
HETATM   55  H   UNL     1      -8.254   6.873  69.575  1.00  0.00     0.000 HD 
ENDBRANCH   9  48
TORSDOF 12
ENDMDL
MODEL       24
REMARK 921   NORMALIZED FREE ENERGY PREDICTED BY IDOCK:   -6.36 KCAL/MOL
REMARK 922        TOTAL FREE ENERGY PREDICTED BY IDOCK:  -14.91 KCAL/MOL
REMARK 923 INTER-LIGAND FREE ENERGY PREDICTED BY IDOCK:  -12.83 KCAL/MOL
REMARK 924 INTRA-LIGAND FREE ENERGY PREDICTED BY IDOCK:   -2.08 KCAL/MOL
REMARK 927      BINDING AFFINITY PREDICTED BY RF-SCORE:    0.00 PKD
ROOT
HETATM    1  C   UNL     1     -10.763   4.996  73.729  1.00  0.00    -0.358 C  
HETATM    2  C   UNL     1     -10.289   3.745  74.480  1.00  0.00    -0.261 C  
HETATM    3  C   UNL     1      -8.844   3.384  74.142  1.00  0.00    -0.089 C  
HETATM    4  C   UNL     1      -8.665   3.189  72.641  1.00  0.00    -0.093 C  
HETATM    5  C   UNL     1      -9.107   4.421  71.855  1.00  0.00    -0.163 C  
HETATM    6  C   UNL     1     -10.524   4.878  72.225  1.00  0.00    -0.267 C  
HETATM    7  C   UNL     1     -10.919   6.199  71.563  1.00  0.00    -0.273 C  
HETATM    8  N   UNL     1     -10.096   7.354  71.953  1.00  0.00    -0.178 NA 
HETATM    9  C   UNL     1      -9.746   7.412  73.397  1.00  0.00    -0.269 C  
HETATM   10  C   UNL     1     -10.187   6.278  74.345  1.00  0.00    -0.339 C  
ENDROOT
BRANCH   8  11
HETATM   11  C   UNL     1     -10.789   8.598  71.506  1.00  0.00    -0.282 C  
BRANCH  11  12
HETATM   12  C   UNL     1     -10.333   9.195  70.148  1.00  0.00    -0.213 C  
HETATM   13  H   UNL     1     -10.622   8.775  68.255  1.00  0.00     0.000 HD 
HETATM   14  O   UNL     1     -10.901   8.410  69.086  1.00  0.00    -0.155 OA 
BRANCH  12  15
HETATM   15  C   UNL     1     -10.769  10.673  69.940  1.00  0.00    -0.204 C  
BRANCH  15  16
HETATM   16  N   UNL     1     -10.582  11.056  68.527  1.00  0.00    -0.179 N  
HETATM   17  C   UNL     1      -9.327  11.126  67.950  1.00  0.00    -0.161 C  
HETATM   18  O   UNL     1      -8.287  11.003  68.598  1.00  0.00    -0.140 OA 
HETATM   19  H   UNL     1     -11.401  11.276  67.960  1.00  0.00     0.000 HD 
BRANCH  17  20
HETATM   20  C   UNL     1      -9.318  11.444  66.440  1.00  0.00    -0.204 C  
BRANCH  20  21
HETATM   21  N   UNL     1      -9.471  12.884  66.253  1.00  0.00    -0.377 N  
HETATM   22  H   UNL     1      -8.633  13.438  66.074  1.00  0.00     0.000 HD 
HETATM   23  C   UNL     1     -10.679  13.535  66.305  1.00  0.00    -0.288 C  
HETATM   24  O   UNL     1     -11.751  12.947  66.432  1.00  0.00    -0.355 OA 
BRANCH  23  25
HETATM   25  C   UNL     1     -10.620  15.017  66.143  1.00  0.00    -0.310 A  
HETATM   26  N   UNL     1     -10.353  15.736  67.268  1.00  0.00    -0.283 NA 
HETATM   27  C   UNL     1     -10.350  17.076  67.161  1.00  0.00    -0.305 A  
HETATM   28  C   UNL     1     -10.588  17.739  65.937  1.00  0.00    -0.205 A  
HETATM   29  C   UNL     1     -10.818  16.963  64.793  1.00  0.00     0.114 A  
HETATM   30  C   UNL     1     -10.598  19.142  65.880  1.00  0.00    -0.495 A  
HETATM   31  C   UNL     1     -10.840  15.579  64.895  1.00  0.00    -0.447 A  
HETATM   32  C   UNL     1     -10.381  19.894  67.032  1.00  0.00    -0.592 A  
HETATM   33  C   UNL     1     -10.136  19.247  68.239  1.00  0.00    -0.516 A  
HETATM   34  C   UNL     1     -10.118  17.849  68.291  1.00  0.00    -0.376 A  
ENDBRANCH  23  25
ENDBRANCH  20  21
BRANCH  20  35
HETATM   35  C   UNL     1      -8.115  10.852  65.708  1.00  0.00    -0.094 C  
BRANCH  35  36
HETATM   36  C   UNL     1      -8.126   9.344  65.647  1.00  0.00    -0.112 C  
HETATM   37  N   UNL     1      -9.304   8.766  65.289  1.00  0.00    -0.445 N  
HETATM   38  O   UNL     1      -7.150   8.662  65.937  1.00  0.00    -0.074 OA 
HETATM   39  H2  UNL     1     -10.133   9.320  65.074  1.00  0.00     0.000 HD 
HETATM   40  H1  UNL     1      -9.311   7.747  65.247  1.00  0.00     0.000 HD 
ENDBRANCH  35  36
ENDBRANCH  20  35
ENDBRANCH  17  20
ENDBRANCH  15  16
BRANCH  15  41
HETATM   41  C   UNL     1     -12.216  10.965  70.418  1.00  0.00    -0.453 C  
BRANCH  41  42
HETATM   42  C   UNL     1     -12.504  12.356  70.942  1.00  0.00    -0.367 A  
HETATM   43  C   UNL     1     -12.109  13.496  70.228  1.00  0.00    -0.425 A  
HETATM   44  C   UNL     1     -13.238  14.932  71.820  1.00  0.00    -0.438 A  
HETATM   45  C   UNL     1     -12.469  14.774  70.667  1.00  0.00    -0.407 A  
HETATM   46  C   UNL     1     -13.271  12.532  72.105  1.00  0.00    -0.508 A  
HETATM   47  C   UNL     1     -13.635  13.808  72.541  1.00  0.00    -0.680 A  
ENDBRANCH  41  42
ENDBRANCH  15  41
ENDBRANCH  12  15
ENDBRANCH  11  12
ENDBRANCH   8  11
BRANCH   9  48
HETATM   48  C   UNL     1      -8.212   7.650  73.570  1.00  0.00    -0.161 C  
HETATM   49  C   UNL     1      -5.408   7.332  72.337  1.00  0.00    -0.037 C  
HETATM   50  O   UNL     1      -7.596   7.159  74.514  1.00  0.00    -0.115 OA 
HETATM   51  C   UNL     1      -5.620   9.413  73.742  1.00  0.00     0.014 C  
HETATM   52  C   UNL     1      -6.155   8.668  72.507  1.00  0.00    -0.079 C  
HETATM   53  N   UNL     1      -7.611   8.454  72.618  1.00  0.00    -0.110 N  
HETATM   54  C   UNL     1      -5.863   9.534  71.266  1.00  0.00    -0.075 C  
HETATM   55  H   UNL     1      -8.213   8.931  71.948  1.00  0.00     0.000 HD 
ENDBRANCH   9  48
TORSDOF 12
ENDMDL
MODEL       25
REMARK 921   NORMALIZED FREE ENERGY PREDICTED BY IDOCK:   -6.33 KCAL/MOL
REMARK 922        TOTAL FREE ENERGY PREDICTED BY IDOCK:  -14.86 KCAL/MOL
REMARK 923 INTER-LIGAND FREE ENERGY PREDICTED BY IDOCK:  -11.83 KCAL/MOL
REMARK 924 INTRA-LIGAND FREE ENERGY PREDICTED BY IDOCK:   -3.03 KCAL/MOL
REMARK 927      BINDING AFFINITY PREDICTED BY RF-SCORE:    0.00 PKD
ROOT
HETATM    1  C   UNL     1      -7.929  16.834  67.461  1.00  0.00    -0.189 C  
HETATM    2  C   UNL     1      -7.899  18.361  67.304  1.00  0.00    -0.234 C  
HETATM    3  C   UNL     1      -9.298  18.970  67.330  1.00  0.00    -0.345 C  
HETATM    4  C   UNL     1     -10.184  18.354  66.254  1.00  0.00    -0.427 C  
HETATM    5  C   UNL     1     -10.259  16.836  66.385  1.00  0.00    -0.329 C  
HETATM    6  C   UNL     1      -8.873  16.181  66.452  1.00  0.00    -0.355 C  
HETATM    7  C   UNL     1      -8.931  14.680  66.741  1.00  0.00    -0.257 C  
HETATM    8  N   UNL     1      -9.519  14.326  68.042  1.00  0.00    -0.198 NA 
HETATM    9  C   UNL     1      -9.112  15.205  69.171  1.00  0.00    -0.215 C  
HETATM   10  C   UNL     1      -8.198  16.420  68.913  1.00  0.00    -0.235 C  
ENDROOT
BRANCH   8  11
HETATM   11  C   UNL     1      -9.209  12.894  68.324  1.00  0.00    -0.187 C  
BRANCH  11  12
HETATM   12  C   UNL     1      -8.283  12.174  67.308  1.00  0.00    -0.180 C  
HETATM   13  H   UNL     1      -6.624  11.132  67.405  1.00  0.00     0.000 HD 
HETATM   14  O   UNL     1      -7.191  11.572  68.026  1.00  0.00    -0.078 OA 
BRANCH  12  15
HETATM   15  C   UNL     1      -8.999  11.056  66.498  1.00  0.00    -0.173 C  
BRANCH  15  16
HETATM   16  N   UNL     1      -8.487   9.734  66.908  1.00  0.00    -0.120 N  
HETATM   17  C   UNL     1      -8.351   8.693  66.008  1.00  0.00    -0.131 C  
HETATM   18  O   UNL     1      -8.763   8.754  64.849  1.00  0.00    -0.183 OA 
HETATM   19  H   UNL     1      -8.226   9.583  67.883  1.00  0.00     0.000 HD 
BRANCH  17  20
HETATM   20  C   UNL     1      -7.708   7.412  66.581  1.00  0.00    -0.101 C  
BRANCH  20  21
HETATM   21  N   UNL     1      -8.439   7.004  67.778  1.00  0.00    -0.120 N  
HETATM   22  H   UNL     1      -9.458   7.036  67.753  1.00  0.00     0.000 HD 
HETATM   23  C   UNL     1      -7.830   6.578  68.933  1.00  0.00    -0.110 C  
HETATM   24  O   UNL     1      -6.615   6.426  69.033  1.00  0.00    -0.044 OA 
BRANCH  23  25
HETATM   25  C   UNL     1      -8.750   6.256  70.064  1.00  0.00    -0.141 A  
HETATM   26  N   UNL     1      -8.750   4.962  70.489  1.00  0.00    -0.106 NA 
HETATM   27  C   UNL     1      -9.610   4.633  71.468  1.00  0.00    -0.163 A  
HETATM   28  C   UNL     1     -10.474   5.576  72.068  1.00  0.00    -0.277 A  
HETATM   29  C   UNL     1     -10.414   6.905  71.631  1.00  0.00    -0.224 A  
HETATM   30  C   UNL     1     -11.372   5.178  73.072  1.00  0.00    -0.381 A  
HETATM   31  C   UNL     1      -9.542   7.254  70.608  1.00  0.00    -0.172 A  
HETATM   32  C   UNL     1     -11.424   3.848  73.481  1.00  0.00    -0.195 A  
HETATM   33  C   UNL     1     -10.569   2.916  72.902  1.00  0.00    -0.214 A  
HETATM   34  C   UNL     1      -9.670   3.317  71.909  1.00  0.00    -0.233 A  
ENDBRANCH  23  25
ENDBRANCH  20  21
BRANCH  20  35
HETATM   35  C   UNL     1      -7.554   6.301  65.545  1.00  0.00    -0.087 C  
BRANCH  35  36
HETATM   36  C   UNL     1      -8.543   5.173  65.715  1.00  0.00    -0.135 C  
HETATM   37  N   UNL     1      -8.014   3.930  65.875  1.00  0.00    -0.093 N  
HETATM   38  O   UNL     1      -9.755   5.343  65.675  1.00  0.00    -0.084 OA 
HETATM   39  H2  UNL     1      -7.007   3.769  65.880  1.00  0.00     0.000 HD 
HETATM   40  H1  UNL     1      -8.682   3.168  65.990  1.00  0.00     0.000 HD 
ENDBRANCH  35  36
ENDBRANCH  20  35
ENDBRANCH  17  20
ENDBRANCH  15  16
BRANCH  15  41
HETATM   41  C   UNL     1     -10.546  11.116  66.590  1.00  0.00    -0.314 C  
BRANCH  41  42
HETATM   42  C   UNL     1     -11.271  11.943  65.548  1.00  0.00    -0.353 A  
HETATM   43  C   UNL     1     -12.075  13.029  65.918  1.00  0.00    -0.503 A  
HETATM   44  C   UNL     1     -12.435  13.603  63.591  1.00  0.00    -0.230 A  
HETATM   45  C   UNL     1     -12.657  13.850  64.946  1.00  0.00    -0.380 A  
HETATM   46  C   UNL     1     -11.063  11.702  64.181  1.00  0.00    -0.435 A  
HETATM   47  C   UNL     1     -11.640  12.524  63.210  1.00  0.00    -0.445 A  
ENDBRANCH  41  42
ENDBRANCH  15  41
ENDBRANCH  12  15
ENDBRANCH  11  12
ENDBRANCH   8  11
BRANCH   9  48
HETATM   48  C   UNL     1     -10.372  15.678  69.965  1.00  0.00    -0.298 C  
HETATM   49  C   UNL     1     -13.379  15.275  70.490  1.00  0.00    -0.208 C  
HETATM   50  O   UNL     1     -10.781  16.834  69.874  1.00  0.00    -0.292 OA 
HETATM   51  C   UNL     1     -12.128  16.030  72.543  1.00  0.00    -0.635 C  
HETATM   52  C   UNL     1     -12.252  14.925  71.480  1.00  0.00    -0.343 C  
HETATM   53  N   UNL     1     -10.969  14.731  70.779  1.00  0.00    -0.516 N  
HETATM   54  C   UNL     1     -12.641  13.617  72.196  1.00  0.00    -0.164 C  
HETATM   55  H   UNL     1     -10.490  13.839  70.902  1.00  0.00     0.000 HD 
ENDBRANCH   9  48
TORSDOF 12
ENDMDL
MODEL       26
REMARK 921   NORMALIZED FREE ENERGY PREDICTED BY IDOCK:   -6.27 KCAL/MOL
REMARK 922        TOTAL FREE ENERGY PREDICTED BY IDOCK:  -14.77 KCAL/MOL
REMARK 923 INTER-LIGAND FREE ENERGY PREDICTED BY IDOCK:  -12.42 KCAL/MOL
REMARK 924 INTRA-LIGAND FREE ENERGY PREDICTED BY IDOCK:   -2.34 KCAL/MOL
REMARK 927      BINDING AFFINITY PREDICTED BY RF-SCORE:    0.00 PKD
ROOT
HETATM    1  C   UNL     1      -8.250   3.632  68.648  1.00  0.00    -0.084 C  
HETATM    2  C   UNL     1      -8.057   2.631  69.794  1.00  0.00    -0.057 C  
HETATM    3  C   UNL     1      -7.779   3.325  71.125  1.00  0.00    -0.050 C  
HETATM    4  C   UNL     1      -6.563   4.238  71.022  1.00  0.00    -0.030 C  
HETATM    5  C   UNL     1      -6.722   5.266  69.906  1.00  0.00    -0.047 C  
HETATM    6  C   UNL     1      -7.090   4.624  68.562  1.00  0.00    -0.057 C  
HETATM    7  C   UNL     1      -7.406   5.650  67.473  1.00  0.00    -0.077 C  
HETATM    8  N   UNL     1      -8.570   6.505  67.752  1.00  0.00    -0.117 NA 
HETATM    9  C   UNL     1      -9.731   5.802  68.358  1.00  0.00    -0.133 C  
HETATM   10  C   UNL     1      -9.629   4.303  68.708  1.00  0.00    -0.219 C  
ENDROOT
BRANCH   8  11
HETATM   11  C   UNL     1      -8.951   7.206  66.490  1.00  0.00    -0.151 C  
BRANCH  11  12
HETATM   12  C   UNL     1      -8.581   8.710  66.394  1.00  0.00    -0.119 C  
HETATM   13  H   UNL     1      -7.276   9.779  65.396  1.00  0.00     0.000 HD 
HETATM   14  O   UNL     1      -7.503   8.859  65.454  1.00  0.00    -0.084 OA 
BRANCH  12  15
HETATM   15  C   UNL     1      -9.757   9.610  65.922  1.00  0.00    -0.275 C  
BRANCH  15  16
HETATM   16  N   UNL     1     -10.425  10.216  67.092  1.00  0.00    -0.238 N  
HETATM   17  C   UNL     1      -9.718  10.900  68.062  1.00  0.00    -0.165 C  
HETATM   18  O   UNL     1      -8.487  10.940  68.088  1.00  0.00    -0.121 OA 
HETATM   19  H   UNL     1     -11.437  10.126  67.187  1.00  0.00     0.000 HD 
BRANCH  17  20
HETATM   20  C   UNL     1     -10.581  11.555  69.161  1.00  0.00    -0.136 C  
BRANCH  20  21
HETATM   21  N   UNL     1     -10.437  13.006  69.081  1.00  0.00    -0.437 N  
HETATM   22  H   UNL     1      -9.716  13.451  69.649  1.00  0.00     0.000 HD 
HETATM   23  C   UNL     1     -11.219  13.806  68.284  1.00  0.00    -0.273 C  
HETATM   24  O   UNL     1     -12.057  13.358  67.504  1.00  0.00    -0.347 OA 
BRANCH  23  25
HETATM   25  C   UNL     1     -10.953  15.271  68.382  1.00  0.00    -0.271 A  
HETATM   26  N   UNL     1     -10.862  15.947  67.203  1.00  0.00    -0.302 NA 
HETATM   27  C   UNL     1     -10.568  17.257  67.262  1.00  0.00    -0.283 A  
HETATM   28  C   UNL     1     -10.377  17.938  68.485  1.00  0.00    -0.365 A  
HETATM   29  C   UNL     1     -10.519  17.216  69.677  1.00  0.00    -0.022 A  
HETATM   30  C   UNL     1     -10.047  19.302  68.494  1.00  0.00    -0.513 A  
HETATM   31  C   UNL     1     -10.807  15.858  69.629  1.00  0.00    -0.314 A  
HETATM   32  C   UNL     1      -9.896  19.997  67.297  1.00  0.00    -0.563 A  
HETATM   33  C   UNL     1     -10.093  19.335  66.089  1.00  0.00    -0.517 A  
HETATM   34  C   UNL     1     -10.430  17.978  66.083  1.00  0.00    -0.336 A  
ENDBRANCH  23  25
ENDBRANCH  20  21
BRANCH  20  35
HETATM   35  C   UNL     1     -12.032  11.079  69.150  1.00  0.00    -0.394 C  
BRANCH  35  36
HETATM   36  C   UNL     1     -12.624  10.910  70.529  1.00  0.00    -0.324 C  
HETATM   37  N   UNL     1     -13.037   9.656  70.856  1.00  0.00    -0.565 N  
HETATM   38  O   UNL     1     -12.769  11.845  71.307  1.00  0.00    -0.382 OA 
HETATM   39  H2  UNL     1     -12.951   8.874  70.207  1.00  0.00     0.000 HD 
HETATM   40  H1  UNL     1     -13.437   9.542  71.787  1.00  0.00     0.000 HD 
ENDBRANCH  35  36
ENDBRANCH  20  35
ENDBRANCH  17  20
ENDBRANCH  15  16
BRANCH  15  41
HETATM   41  C   UNL     1      -9.337  10.690  64.891  1.00  0.00    -0.271 C  
BRANCH  41  42
HETATM   42  C   UNL     1     -10.372  11.731  64.517  1.00  0.00    -0.340 A  
HETATM   43  C   UNL     1     -10.182  13.084  64.827  1.00  0.00    -0.312 A  
HETATM   44  C   UNL     1     -12.199  13.682  63.623  1.00  0.00    -0.376 A  
HETATM   45  C   UNL     1     -11.092  14.052  64.387  1.00  0.00    -0.300 A  
HETATM   46  C   UNL     1     -11.496  11.373  63.754  1.00  0.00    -0.246 A  
HETATM   47  C   UNL     1     -12.401  12.340  63.310  1.00  0.00    -0.518 A  
ENDBRANCH  41  42
ENDBRANCH  15  41
ENDBRANCH  12  15
ENDBRANCH  11  12
ENDBRANCH   8  11
BRANCH   9  48
HETATM   48  C   UNL     1     -10.236   6.582  69.614  1.00  0.00    -0.187 C  
HETATM   49  C   UNL     1     -12.124   6.587  72.047  1.00  0.00    -0.358 C  
HETATM   50  O   UNL     1     -10.752   7.692  69.506  1.00  0.00    -0.238 OA 
HETATM   51  C   UNL     1      -9.959   7.795  72.496  1.00  0.00    -0.284 C  
HETATM   52  C   UNL     1     -10.592   6.445  72.114  1.00  0.00    -0.220 C  
HETATM   53  N   UNL     1     -10.045   5.957  70.834  1.00  0.00    -0.190 N  
HETATM   54  C   UNL     1     -10.261   5.432  73.227  1.00  0.00    -0.215 C  
HETATM   55  H   UNL     1      -9.489   5.102  70.850  1.00  0.00     0.000 HD 
ENDBRANCH   9  48
TORSDOF 12
ENDMDL
MODEL       27
REMARK 921   NORMALIZED FREE ENERGY PREDICTED BY IDOCK:   -6.25 KCAL/MOL
REMARK 922        TOTAL FREE ENERGY PREDICTED BY IDOCK:  -14.73 KCAL/MOL
REMARK 923 INTER-LIGAND FREE ENERGY PREDICTED BY IDOCK:  -12.02 KCAL/MOL
REMARK 924 INTRA-LIGAND FREE ENERGY PREDICTED BY IDOCK:   -2.72 KCAL/MOL
REMARK 927      BINDING AFFINITY PREDICTED BY RF-SCORE:    0.00 PKD
ROOT
HETATM    1  C   UNL     1      -9.683  18.311  68.805  1.00  0.00    -0.348 C  
HETATM    2  C   UNL     1     -10.389  19.600  68.364  1.00  0.00    -0.502 C  
HETATM    3  C   UNL     1     -10.288  19.826  66.858  1.00  0.00    -0.601 C  
HETATM    4  C   UNL     1      -8.833  19.849  66.404  1.00  0.00    -0.420 C  
HETATM    5  C   UNL     1      -8.097  18.574  66.804  1.00  0.00    -0.267 C  
HETATM    6  C   UNL     1      -8.243  18.254  68.297  1.00  0.00    -0.312 C  
HETATM    7  C   UNL     1      -7.645  16.899  68.682  1.00  0.00    -0.232 C  
HETATM    8  N   UNL     1      -8.283  15.740  68.040  1.00  0.00    -0.139 NA 
HETATM    9  C   UNL     1      -9.765  15.811  67.954  1.00  0.00    -0.216 C  
HETATM   10  C   UNL     1     -10.509  17.066  68.455  1.00  0.00    -0.373 C  
ENDROOT
BRANCH   8  11
HETATM   11  C   UNL     1      -7.833  14.505  68.747  1.00  0.00    -0.145 C  
BRANCH  11  12
HETATM   12  C   UNL     1      -7.175  13.406  67.871  1.00  0.00    -0.133 C  
HETATM   13  H   UNL     1      -5.466  13.185  66.935  1.00  0.00     0.000 HD 
HETATM   14  O   UNL     1      -5.869  13.857  67.471  1.00  0.00    -0.334 OA 
BRANCH  12  15
HETATM   15  C   UNL     1      -7.010  12.044  68.602  1.00  0.00    -0.096 C  
BRANCH  15  16
HETATM   16  N   UNL     1      -8.209  11.210  68.385  1.00  0.00    -0.136 N  
HETATM   17  C   UNL     1      -8.677  10.340  69.352  1.00  0.00    -0.156 C  
HETATM   18  O   UNL     1      -8.063  10.106  70.394  1.00  0.00    -0.146 OA 
HETATM   19  H   UNL     1      -8.706  11.277  67.497  1.00  0.00     0.000 HD 
BRANCH  17  20
HETATM   20  C   UNL     1      -9.997   9.621  69.001  1.00  0.00    -0.185 C  
BRANCH  20  21
HETATM   21  N   UNL     1     -10.232   8.554  69.971  1.00  0.00    -0.193 N  
HETATM   22  H   UNL     1     -10.350   8.811  70.951  1.00  0.00     0.000 HD 
HETATM   23  C   UNL     1     -10.305   7.224  69.636  1.00  0.00    -0.221 C  
HETATM   24  O   UNL     1     -10.260   6.822  68.476  1.00  0.00    -0.159 OA 
BRANCH  23  25
HETATM   25  C   UNL     1     -10.498   6.282  70.778  1.00  0.00    -0.222 A  
HETATM   26  N   UNL     1      -9.957   5.041  70.633  1.00  0.00    -0.213 NA 
HETATM   27  C   UNL     1     -10.165   4.156  71.622  1.00  0.00    -0.063 A  
HETATM   28  C   UNL     1     -10.892   4.479  72.789  1.00  0.00    -0.239 A  
HETATM   29  C   UNL     1     -11.399   5.778  72.919  1.00  0.00    -0.298 A  
HETATM   30  C   UNL     1     -11.104   3.511  73.785  1.00  0.00    -0.286 A  
HETATM   31  C   UNL     1     -11.205   6.697  71.895  1.00  0.00    -0.302 A  
HETATM   32  C   UNL     1     -10.604   2.221  73.629  1.00  0.00    -0.236 A  
HETATM   33  C   UNL     1      -9.877   1.899  72.487  1.00  0.00    -0.188 A  
HETATM   34  C   UNL     1      -9.661   2.867  71.501  1.00  0.00    -0.224 A  
ENDBRANCH  23  25
ENDBRANCH  20  21
BRANCH  20  35
HETATM   35  C   UNL     1     -11.177  10.576  68.839  1.00  0.00    -0.323 C  
BRANCH  35  36
HETATM   36  C   UNL     1     -11.792  11.007  70.148  1.00  0.00    -0.357 C  
HETATM   37  N   UNL     1     -11.735  12.337  70.430  1.00  0.00    -0.534 N  
HETATM   38  O   UNL     1     -12.284  10.214  70.943  1.00  0.00    -0.305 OA 
HETATM   39  H2  UNL     1     -11.302  13.004  69.793  1.00  0.00     0.000 HD 
HETATM   40  H1  UNL     1     -12.151  12.627  71.315  1.00  0.00     0.000 HD 
ENDBRANCH  35  36
ENDBRANCH  20  35
ENDBRANCH  17  20
ENDBRANCH  15  16
BRANCH  15  41
HETATM   41  C   UNL     1      -5.716  11.283  68.212  1.00  0.00    -0.045 C  
BRANCH  41  42
HETATM   42  C   UNL     1      -5.801  10.326  67.041  1.00  0.00    -0.050 A  
HETATM   43  C   UNL     1      -6.032   8.958  67.240  1.00  0.00    -0.050 A  
HETATM   44  C   UNL     1      -6.174   8.596  64.848  1.00  0.00    -0.064 A  
HETATM   45  C   UNL     1      -6.213   8.099  66.151  1.00  0.00    -0.045 A  
HETATM   46  C   UNL     1      -5.756  10.810  65.724  1.00  0.00    -0.144 A  
HETATM   47  C   UNL     1      -5.942   9.953  64.636  1.00  0.00    -0.101 A  
ENDBRANCH  41  42
ENDBRANCH  15  41
ENDBRANCH  12  15
ENDBRANCH  11  12
ENDBRANCH   8  11
BRANCH   9  48
HETATM   48  C   UNL     1     -10.236  15.491  66.499  1.00  0.00    -0.283 C  
HETATM   49  C   UNL     1     -10.293  13.429  64.212  1.00  0.00    -0.249 C  
HETATM   50  O   UNL     1      -9.879  16.186  65.550  1.00  0.00    -0.458 OA 
HETATM   51  C   UNL     1     -12.371  14.851  64.289  1.00  0.00    -0.300 C  
HETATM   52  C   UNL     1     -11.508  13.841  65.064  1.00  0.00    -0.332 C  
HETATM   53  N   UNL     1     -11.083  14.406  66.359  1.00  0.00    -0.320 N  
HETATM   54  C   UNL     1     -12.358  12.581  65.315  1.00  0.00    -0.469 C  
HETATM   55  H   UNL     1     -11.439  13.966  67.208  1.00  0.00     0.000 HD 
ENDBRANCH   9  48
TORSDOF 12
ENDMDL
MODEL       28
REMARK 921   NORMALIZED FREE ENERGY PREDICTED BY IDOCK:   -6.13 KCAL/MOL
REMARK 922        TOTAL FREE ENERGY PREDICTED BY IDOCK:  -14.53 KCAL/MOL
REMARK 923 INTER-LIGAND FREE ENERGY PREDICTED BY IDOCK:  -11.29 KCAL/MOL
REMARK 924 INTRA-LIGAND FREE ENERGY PREDICTED BY IDOCK:   -3.24 KCAL/MOL
REMARK 927      BINDING AFFINITY PREDICTED BY RF-SCORE:    0.00 PKD
ROOT
HETATM    1  C   UNL     1      -6.399  17.859  68.252  1.00  0.00    -0.187 C  
HETATM    2  C   UNL     1      -6.637  19.363  68.065  1.00  0.00    -0.263 C  
HETATM    3  C   UNL     1      -7.995  19.657  67.431  1.00  0.00    -0.313 C  
HETATM    4  C   UNL     1      -8.143  18.937  66.096  1.00  0.00    -0.241 C  
HETATM    5  C   UNL     1      -7.933  17.432  66.239  1.00  0.00    -0.314 C  
HETATM    6  C   UNL     1      -6.620  17.086  66.952  1.00  0.00    -0.251 C  
HETATM    7  C   UNL     1      -6.471  15.591  67.243  1.00  0.00    -0.014 C  
HETATM    8  N   UNL     1      -7.487  15.037  68.150  1.00  0.00    -0.105 NA 
HETATM    9  C   UNL     1      -7.835  15.907  69.305  1.00  0.00    -0.226 C  
HETATM   10  C   UNL     1      -7.194  17.303  69.441  1.00  0.00    -0.022 C  
ENDROOT
BRANCH   8  11
HETATM   11  C   UNL     1      -7.031  13.688  68.599  1.00  0.00    -0.103 C  
BRANCH  11  12
HETATM   12  C   UNL     1      -6.720  12.656  67.482  1.00  0.00    -0.156 C  
HETATM   13  H   UNL     1      -5.723  10.972  67.356  1.00  0.00     0.000 HD 
HETATM   14  O   UNL     1      -5.913  11.604  68.039  1.00  0.00    -0.046 OA 
BRANCH  12  15
HETATM   15  C   UNL     1      -7.991  12.009  66.862  1.00  0.00    -0.112 C  
BRANCH  15  16
HETATM   16  N   UNL     1      -8.021  10.566  67.173  1.00  0.00    -0.114 N  
HETATM   17  C   UNL     1      -7.591   9.616  66.266  1.00  0.00    -0.101 C  
HETATM   18  O   UNL     1      -7.280   9.891  65.106  1.00  0.00    -0.119 OA 
HETATM   19  H   UNL     1      -8.370  10.262  68.082  1.00  0.00     0.000 HD 
BRANCH  17  20
HETATM   20  C   UNL     1      -7.596   8.164  66.788  1.00  0.00    -0.094 C  
BRANCH  20  21
HETATM   21  N   UNL     1      -8.752   7.973  67.660  1.00  0.00    -0.126 N  
HETATM   22  H   UNL     1      -9.677   8.180  67.284  1.00  0.00     0.000 HD 
HETATM   23  C   UNL     1      -8.662   7.530  68.957  1.00  0.00    -0.136 C  
HETATM   24  O   UNL     1      -7.605   7.177  69.472  1.00  0.00    -0.096 OA 
BRANCH  23  25
HETATM   25  C   UNL     1      -9.954   7.452  69.702  1.00  0.00    -0.182 A  
HETATM   26  N   UNL     1     -10.552   8.640  69.996  1.00  0.00    -0.224 NA 
HETATM   27  C   UNL     1     -11.687   8.600  70.714  1.00  0.00    -0.210 A  
HETATM   28  C   UNL     1     -12.272   7.387  71.142  1.00  0.00    -0.357 A  
HETATM   29  C   UNL     1     -11.647   6.185  70.785  1.00  0.00    -0.257 A  
HETATM   30  C   UNL     1     -13.446   7.398  71.912  1.00  0.00    -0.301 A  
HETATM   31  C   UNL     1     -10.465   6.214  70.057  1.00  0.00    -0.294 A  
HETATM   32  C   UNL     1     -14.042   8.605  72.268  1.00  0.00    -0.491 A  
HETATM   33  C   UNL     1     -13.477   9.803  71.841  1.00  0.00    -0.485 A  
HETATM   34  C   UNL     1     -12.312   9.789  71.068  1.00  0.00    -0.422 A  
ENDBRANCH  23  25
ENDBRANCH  20  21
BRANCH  20  35
HETATM   35  C   UNL     1      -7.487   7.124  65.675  1.00  0.00    -0.082 C  
BRANCH  35  36
HETATM   36  C   UNL     1      -6.204   6.329  65.713  1.00  0.00    -0.037 C  
HETATM   37  N   UNL     1      -5.503   6.264  64.549  1.00  0.00    -0.018 N  
HETATM   38  O   UNL     1      -5.820   5.737  66.715  1.00  0.00    -0.016 OA 
HETATM   39  H2  UNL     1      -5.825   6.725  63.699  1.00  0.00     0.000 HD 
HETATM   40  H1  UNL     1      -4.636   5.727  64.575  1.00  0.00     0.000 HD 
ENDBRANCH  35  36
ENDBRANCH  20  35
ENDBRANCH  17  20
ENDBRANCH  15  16
BRANCH  15  41
HETATM   41  C   UNL     1      -9.311  12.706  67.285  1.00  0.00    -0.195 C  
BRANCH  41  42
HETATM   42  C   UNL     1     -10.273  13.095  66.182  1.00  0.00    -0.291 A  
HETATM   43  C   UNL     1     -11.361  12.277  65.848  1.00  0.00    -0.406 A  
HETATM   44  C   UNL     1     -12.176  13.937  64.281  1.00  0.00    -0.447 A  
HETATM   45  C   UNL     1     -12.302  12.693  64.900  1.00  0.00    -0.563 A  
HETATM   46  C   UNL     1     -10.154  14.340  65.543  1.00  0.00    -0.370 A  
HETATM   47  C   UNL     1     -11.097  14.758  64.601  1.00  0.00    -0.337 A  
ENDBRANCH  41  42
ENDBRANCH  15  41
ENDBRANCH  12  15
ENDBRANCH  11  12
ENDBRANCH   8  11
BRANCH   9  48
HETATM   48  C   UNL     1      -9.386  16.048  69.424  1.00  0.00    -0.218 C  
HETATM   49  C   UNL     1     -12.137  15.120  68.396  1.00  0.00    -0.107 C  
HETATM   50  O   UNL     1      -9.941  17.129  69.235  1.00  0.00    -0.240 OA 
HETATM   51  C   UNL     1     -12.161  15.698  70.849  1.00  0.00    -0.466 C  
HETATM   52  C   UNL     1     -11.546  14.781  69.777  1.00  0.00    -0.297 C  
HETATM   53  N   UNL     1     -10.076  14.900  69.772  1.00  0.00    -0.444 N  
HETATM   54  C   UNL     1     -11.936  13.328  70.113  1.00  0.00    -0.388 C  
HETATM   55  H   UNL     1      -9.532  14.081  70.043  1.00  0.00     0.000 HD 
ENDBRANCH   9  48
TORSDOF 12
ENDMDL
MODEL       29
REMARK 921   NORMALIZED FREE ENERGY PREDICTED BY IDOCK:   -6.07 KCAL/MOL
REMARK 922        TOTAL FREE ENERGY PREDICTED BY IDOCK:  -14.43 KCAL/MOL
REMARK 923 INTER-LIGAND FREE ENERGY PREDICTED BY IDOCK:  -11.11 KCAL/MOL
REMARK 924 INTRA-LIGAND FREE ENERGY PREDICTED BY IDOCK:   -3.32 KCAL/MOL
REMARK 927      BINDING AFFINITY PREDICTED BY RF-SCORE:    0.00 PKD
ROOT
HETATM    1  C   UNL     1      -9.839  18.233  68.592  1.00  0.00    -0.400 C  
HETATM    2  C   UNL     1     -10.394  19.563  68.065  1.00  0.00    -0.564 C  
HETATM    3  C   UNL     1     -10.158  19.732  66.566  1.00  0.00    -0.589 C  
HETATM    4  C   UNL     1      -8.676  19.617  66.228  1.00  0.00    -0.401 C  
HETATM    5  C   UNL     1      -8.087  18.297  66.718  1.00  0.00    -0.268 C  
HETATM    6  C   UNL     1      -8.374  18.038  68.202  1.00  0.00    -0.273 C  
HETATM    7  C   UNL     1      -7.928  16.650  68.666  1.00  0.00    -0.236 C  
HETATM    8  N   UNL     1      -8.613  15.529  68.005  1.00  0.00    -0.154 NA 
HETATM    9  C   UNL     1     -10.073  15.723  67.799  1.00  0.00    -0.238 C  
HETATM   10  C   UNL     1     -10.740  17.052  68.209  1.00  0.00    -0.372 C  
ENDROOT
BRANCH   8  11
HETATM   11  C   UNL     1      -8.329  14.283  68.776  1.00  0.00    -0.095 C  
BRANCH  11  12
HETATM   12  C   UNL     1      -8.737  12.945  68.104  1.00  0.00    -0.190 C  
HETATM   13  H   UNL     1      -8.590  12.165  66.311  1.00  0.00     0.000 HD 
HETATM   14  O   UNL     1      -8.340  12.984  66.723  1.00  0.00    -0.090 OA 
BRANCH  12  15
HETATM   15  C   UNL     1      -8.083  11.696  68.758  1.00  0.00    -0.072 C  
BRANCH  15  16
HETATM   16  N   UNL     1      -9.122  10.702  69.091  1.00  0.00    -0.298 N  
HETATM   17  C   UNL     1      -9.023   9.887  70.203  1.00  0.00    -0.114 C  
HETATM   18  O   UNL     1      -8.015   9.841  70.910  1.00  0.00    -0.279 OA 
HETATM   19  H   UNL     1      -9.937  10.613  68.483  1.00  0.00     0.000 HD 
BRANCH  17  20
HETATM   20  C   UNL     1     -10.243   8.976  70.458  1.00  0.00    -0.219 C  
BRANCH  20  21
HETATM   21  N   UNL     1     -10.084   7.740  69.697  1.00  0.00    -0.191 N  
HETATM   22  H   UNL     1      -9.731   6.917  70.185  1.00  0.00     0.000 HD 
HETATM   23  C   UNL     1     -10.385   7.624  68.363  1.00  0.00    -0.194 C  
HETATM   24  O   UNL     1     -10.893   8.532  67.709  1.00  0.00    -0.148 OA 
BRANCH  23  25
HETATM   25  C   UNL     1     -10.104   6.291  67.752  1.00  0.00    -0.149 A  
HETATM   26  N   UNL     1      -9.254   5.480  68.442  1.00  0.00    -0.111 NA 
HETATM   27  C   UNL     1      -8.940   4.297  67.887  1.00  0.00    -0.122 A  
HETATM   28  C   UNL     1      -9.472   3.875  66.648  1.00  0.00    -0.217 A  
HETATM   29  C   UNL     1     -10.374   4.721  65.989  1.00  0.00    -0.328 A  
HETATM   30  C   UNL     1      -9.095   2.640  66.097  1.00  0.00    -0.115 A  
HETATM   31  C   UNL     1     -10.694   5.952  66.545  1.00  0.00    -0.251 A  
HETATM   32  C   UNL     1      -8.185   1.822  66.762  1.00  0.00    -0.079 A  
HETATM   33  C   UNL     1      -7.665   2.227  67.988  1.00  0.00    -0.055 A  
HETATM   34  C   UNL     1      -8.050   3.454  68.538  1.00  0.00    -0.073 A  
ENDBRANCH  23  25
ENDBRANCH  20  21
BRANCH  20  35
HETATM   35  C   UNL     1     -10.527   8.754  71.942  1.00  0.00    -0.423 C  
BRANCH  35  36
HETATM   36  C   UNL     1     -11.333   7.508  72.224  1.00  0.00    -0.292 C  
HETATM   37  N   UNL     1     -12.670   7.687  72.405  1.00  0.00    -0.522 N  
HETATM   38  O   UNL     1     -10.825   6.398  72.326  1.00  0.00    -0.221 OA 
HETATM   39  H2  UNL     1     -13.102   8.609  72.353  1.00  0.00     0.000 HD 
HETATM   40  H1  UNL     1     -13.214   6.846  72.595  1.00  0.00     0.000 HD 
ENDBRANCH  35  36
ENDBRANCH  20  35
ENDBRANCH  17  20
ENDBRANCH  15  16
BRANCH  15  41
HETATM   41  C   UNL     1      -6.954  11.067  67.901  1.00  0.00    -0.073 C  
BRANCH  41  42
HETATM   42  C   UNL     1      -7.295   9.818  67.114  1.00  0.00    -0.087 A  
HETATM   43  C   UNL     1      -8.067   9.887  65.946  1.00  0.00    -0.121 A  
HETATM   44  C   UNL     1      -7.737   7.521  65.543  1.00  0.00    -0.103 A  
HETATM   45  C   UNL     1      -8.291   8.746  65.170  1.00  0.00    -0.176 A  
HETATM   46  C   UNL     1      -6.752   8.577  67.481  1.00  0.00    -0.063 A  
HETATM   47  C   UNL     1      -6.970   7.438  66.703  1.00  0.00    -0.070 A  
ENDBRANCH  41  42
ENDBRANCH  15  41
ENDBRANCH  12  15
ENDBRANCH  11  12
ENDBRANCH   8  11
BRANCH   9  48
HETATM   48  C   UNL     1     -10.456  15.399  66.320  1.00  0.00    -0.303 C  
HETATM   49  C   UNL     1     -10.471  13.293  64.073  1.00  0.00    -0.160 C  
HETATM   50  O   UNL     1      -9.991  16.050  65.387  1.00  0.00    -0.445 OA 
HETATM   51  C   UNL     1     -12.462  14.835  63.972  1.00  0.00    -0.015 C  
HETATM   52  C   UNL     1     -11.718  13.794  64.827  1.00  0.00    -0.381 C  
HETATM   53  N   UNL     1     -11.354  14.362  66.139  1.00  0.00    -0.343 N  
HETATM   54  C   UNL     1     -12.657  12.591  65.037  1.00  0.00    -0.424 C  
HETATM   55  H   UNL     1     -11.795  13.963  66.967  1.00  0.00     0.000 HD 
ENDBRANCH   9  48
TORSDOF 12
ENDMDL
MODEL       30
REMARK 921   NORMALIZED FREE ENERGY PREDICTED BY IDOCK:   -5.98 KCAL/MOL
REMARK 922        TOTAL FREE ENERGY PREDICTED BY IDOCK:  -14.27 KCAL/MOL
REMARK 923 INTER-LIGAND FREE ENERGY PREDICTED BY IDOCK:  -10.94 KCAL/MOL
REMARK 924 INTRA-LIGAND FREE ENERGY PREDICTED BY IDOCK:   -3.33 KCAL/MOL
REMARK 927      BINDING AFFINITY PREDICTED BY RF-SCORE:    0.00 PKD
ROOT
HETATM    1  C   UNL     1     -10.610   9.031  71.528  1.00  0.00    -0.415 C  
HETATM    2  C   UNL     1     -11.805   8.322  72.180  1.00  0.00    -0.431 C  
HETATM    3  C   UNL     1     -11.866   6.841  71.816  1.00  0.00    -0.371 C  
HETATM    4  C   UNL     1     -11.909   6.650  70.304  1.00  0.00    -0.378 C  
HETATM    5  C   UNL     1     -10.725   7.323  69.616  1.00  0.00    -0.249 C  
HETATM    6  C   UNL     1     -10.568   8.795  70.019  1.00  0.00    -0.232 C  
HETATM    7  C   UNL     1      -9.296   9.437  69.462  1.00  0.00    -0.180 C  
HETATM    8  N   UNL     1      -8.042   8.836  69.940  1.00  0.00    -0.104 NA 
HETATM    9  C   UNL     1      -8.030   8.483  71.384  1.00  0.00    -0.137 C  
HETATM   10  C   UNL     1      -9.294   8.692  72.241  1.00  0.00    -0.322 C  
ENDROOT
BRANCH   8  11
HETATM   11  C   UNL     1      -6.918   9.753  69.590  1.00  0.00    -0.078 C  
BRANCH  11  12
HETATM   12  C   UNL     1      -6.174   9.461  68.260  1.00  0.00    -0.053 C  
HETATM   13  H   UNL     1      -6.311   8.123  66.833  1.00  0.00     0.000 HD 
HETATM   14  O   UNL     1      -6.766   8.302  67.647  1.00  0.00    -0.060 OA 
BRANCH  12  15
HETATM   15  C   UNL     1      -6.240  10.632  67.239  1.00  0.00    -0.056 C  
BRANCH  15  16
HETATM   16  N   UNL     1      -7.640  11.072  67.073  1.00  0.00    -0.120 N  
HETATM   17  C   UNL     1      -8.338  10.855  65.899  1.00  0.00    -0.149 C  
HETATM   18  O   UNL     1      -7.810  10.405  64.881  1.00  0.00    -0.149 OA 
HETATM   19  H   UNL     1      -8.105  11.550  67.845  1.00  0.00     0.000 HD 
BRANCH  17  20
HETATM   20  C   UNL     1      -9.819  11.288  65.930  1.00  0.00    -0.232 C  
BRANCH  20  21
HETATM   21  N   UNL     1      -9.894  12.744  65.835  1.00  0.00    -0.319 N  
HETATM   22  H   UNL     1      -9.289  13.214  65.162  1.00  0.00     0.000 HD 
HETATM   23  C   UNL     1     -10.734  13.513  66.601  1.00  0.00    -0.282 C  
HETATM   24  O   UNL     1     -11.558  13.036  67.378  1.00  0.00    -0.314 OA 
BRANCH  23  25
HETATM   25  C   UNL     1     -10.625  14.988  66.395  1.00  0.00    -0.310 A  
HETATM   26  N   UNL     1     -10.488  15.745  67.519  1.00  0.00    -0.282 NA 
HETATM   27  C   UNL     1     -10.444  17.079  67.365  1.00  0.00    -0.322 A  
HETATM   28  C   UNL     1     -10.510  17.699  66.097  1.00  0.00    -0.295 A  
HETATM   29  C   UNL     1     -10.610  16.884  64.962  1.00  0.00     0.004 A  
HETATM   30  C   UNL     1     -10.485  19.099  65.989  1.00  0.00    -0.546 A  
HETATM   31  C   UNL     1     -10.673  15.504  65.110  1.00  0.00    -0.460 A  
HETATM   32  C   UNL     1     -10.401  19.890  67.131  1.00  0.00    -0.581 A  
HETATM   33  C   UNL     1     -10.324  19.286  68.382  1.00  0.00    -0.435 A  
HETATM   34  C   UNL     1     -10.342  17.892  68.486  1.00  0.00    -0.365 A  
ENDBRANCH  23  25
ENDBRANCH  20  21
BRANCH  20  35
HETATM   35  C   UNL     1     -10.679  10.559  64.900  1.00  0.00     0.054 C  
BRANCH  35  36
HETATM   36  C   UNL     1     -10.834  11.311  63.599  1.00  0.00    -0.333 C  
HETATM   37  N   UNL     1      -9.963  10.981  62.608  1.00  0.00    -0.635 N  
HETATM   38  O   UNL     1     -11.664  12.198  63.441  1.00  0.00    -0.449 OA 
HETATM   39  H2  UNL     1      -9.247  10.267  62.735  1.00  0.00     0.000 HD 
HETATM   40  H1  UNL     1     -10.068  11.489  61.730  1.00  0.00     0.000 HD 
ENDBRANCH  35  36
ENDBRANCH  20  35
ENDBRANCH  17  20
ENDBRANCH  15  16
BRANCH  15  41
HETATM   41  C   UNL     1      -5.313  11.822  67.599  1.00  0.00    -0.065 C  
BRANCH  41  42
HETATM   42  C   UNL     1      -5.960  13.038  68.229  1.00  0.00    -0.086 A  
HETATM   43  C   UNL     1      -6.675  13.961  67.453  1.00  0.00     0.007 A  
HETATM   44  C   UNL     1      -7.341  15.174  69.442  1.00  0.00    -0.203 A  
HETATM   45  C   UNL     1      -7.356  15.024  68.056  1.00  0.00    -0.135 A  
HETATM   46  C   UNL     1      -5.947  13.208  69.623  1.00  0.00    -0.116 A  
HETATM   47  C   UNL     1      -6.631  14.266  70.225  1.00  0.00    -0.042 A  
ENDBRANCH  41  42
ENDBRANCH  15  41
ENDBRANCH  12  15
ENDBRANCH  11  12
ENDBRANCH   8  11
BRANCH   9  48
HETATM   48  C   UNL     1      -7.525   7.017  71.575  1.00  0.00    -0.084 C  
HETATM   49  C   UNL     1      -7.717   4.430  73.236  1.00  0.00    -0.086 C  
HETATM   50  O   UNL     1      -6.336   6.775  71.768  1.00  0.00    -0.041 OA 
HETATM   51  C   UNL     1      -7.265   3.987  70.797  1.00  0.00    -0.037 C  
HETATM   52  C   UNL     1      -8.252   4.605  71.802  1.00  0.00    -0.105 C  
HETATM   53  N   UNL     1      -8.489   6.027  71.492  1.00  0.00    -0.127 N  
HETATM   54  C   UNL     1      -9.583   3.834  71.699  1.00  0.00    -0.227 C  
HETATM   55  H   UNL     1      -9.427   6.299  71.196  1.00  0.00     0.000 HD 
ENDBRANCH   9  48
TORSDOF 12
ENDMDL
MODEL       31
REMARK 921   NORMALIZED FREE ENERGY PREDICTED BY IDOCK:   -5.97 KCAL/MOL
REMARK 922        TOTAL FREE ENERGY PREDICTED BY IDOCK:  -14.25 KCAL/MOL
REMARK 923 INTER-LIGAND FREE ENERGY PREDICTED BY IDOCK:   -9.19 KCAL/MOL
REMARK 924 INTRA-LIGAND FREE ENERGY PREDICTED BY IDOCK:   -5.06 KCAL/MOL
REMARK 927      BINDING AFFINITY PREDICTED BY RF-SCORE:    0.00 PKD
ROOT
HETATM    1  C   UNL     1      -9.677  13.260  66.919  1.00  0.00    -0.248 C  
HETATM    2  C   UNL     1     -10.388  14.611  67.076  1.00  0.00    -0.263 C  
HETATM    3  C   UNL     1     -11.903  14.457  67.174  1.00  0.00    -0.437 C  
HETATM    4  C   UNL     1     -12.458  13.715  65.964  1.00  0.00    -0.477 C  
HETATM    5  C   UNL     1     -11.793  12.354  65.782  1.00  0.00    -0.467 C  
HETATM    6  C   UNL     1     -10.261  12.445  65.766  1.00  0.00    -0.283 C  
HETATM    7  C   UNL     1      -9.579  11.076  65.743  1.00  0.00    -0.222 C  
HETATM    8  N   UNL     1      -9.840  10.238  66.923  1.00  0.00    -0.189 NA 
HETATM    9  C   UNL     1      -9.827  10.965  68.220  1.00  0.00    -0.170 C  
HETATM   10  C   UNL     1      -9.620  12.493  68.247  1.00  0.00    -0.209 C  
ENDROOT
BRANCH   8  11
HETATM   11  C   UNL     1      -8.868   9.105  66.919  1.00  0.00    -0.123 C  
BRANCH  11  12
HETATM   12  C   UNL     1      -9.471   7.675  66.917  1.00  0.00    -0.172 C  
HETATM   13  H   UNL     1      -9.238   6.049  65.846  1.00  0.00     0.000 HD 
HETATM   14  O   UNL     1      -8.869   6.924  65.848  1.00  0.00    -0.155 OA 
BRANCH  12  15
HETATM   15  C   UNL     1      -9.234   6.899  68.243  1.00  0.00    -0.123 C  
BRANCH  15  16
HETATM   16  N   UNL     1      -8.702   7.814  69.272  1.00  0.00    -0.138 N  
HETATM   17  C   UNL     1      -7.536   7.538  69.961  1.00  0.00    -0.088 C  
HETATM   18  O   UNL     1      -6.939   6.465  69.861  1.00  0.00    -0.062 OA 
HETATM   19  H   UNL     1      -9.209   8.674  69.481  1.00  0.00     0.000 HD 
BRANCH  17  20
HETATM   20  C   UNL     1      -7.069   8.646  70.928  1.00  0.00    -0.067 C  
BRANCH  20  21
HETATM   21  N   UNL     1      -7.019   9.917  70.210  1.00  0.00    -0.132 N  
HETATM   22  H   UNL     1      -7.700  10.078  69.468  1.00  0.00     0.000 HD 
HETATM   23  C   UNL     1      -6.105  10.906  70.477  1.00  0.00    -0.102 C  
HETATM   24  O   UNL     1      -5.300  10.841  71.403  1.00  0.00    -0.205 OA 
BRANCH  23  25
HETATM   25  C   UNL     1      -6.181  12.110  69.597  1.00  0.00    -0.131 A  
HETATM   26  N   UNL     1      -6.643  13.252  70.177  1.00  0.00     0.129 NA 
HETATM   27  C   UNL     1      -6.775  14.335  69.393  1.00  0.00    -0.130 A  
HETATM   28  C   UNL     1      -6.434  14.325  68.022  1.00  0.00    -0.158 A  
HETATM   29  C   UNL     1      -5.925  13.142  67.472  1.00  0.00    -0.092 A  
HETATM   30  C   UNL     1      -6.613  15.476  67.237  1.00  0.00    -0.090 A  
HETATM   31  C   UNL     1      -5.800  12.011  68.269  1.00  0.00    -0.051 A  
HETATM   32  C   UNL     1      -7.134  16.637  67.802  1.00  0.00    -0.152 A  
HETATM   33  C   UNL     1      -7.462  16.657  69.154  1.00  0.00    -0.207 A  
HETATM   34  C   UNL     1      -7.275  15.512  69.934  1.00  0.00    -0.028 A  
ENDBRANCH  23  25
ENDBRANCH  20  21
BRANCH  20  35
HETATM   35  C   UNL     1      -7.884   8.701  72.218  1.00  0.00    -0.062 C  
BRANCH  35  36
HETATM   36  C   UNL     1      -7.084   8.364  73.454  1.00  0.00    -0.074 C  
HETATM   37  N   UNL     1      -6.530   7.122  73.490  1.00  0.00    -0.065 N  
HETATM   38  O   UNL     1      -6.963   9.137  74.397  1.00  0.00    -0.391 OA 
HETATM   39  H2  UNL     1      -6.648   6.457  72.726  1.00  0.00     0.000 HD 
HETATM   40  H1  UNL     1      -5.990   6.894  74.324  1.00  0.00     0.000 HD 
ENDBRANCH  35  36
ENDBRANCH  20  35
ENDBRANCH  17  20
ENDBRANCH  15  16
BRANCH  15  41
HETATM   41  C   UNL     1     -10.490   6.144  68.753  1.00  0.00    -0.295 C  
BRANCH  41  42
HETATM   42  C   UNL     1     -10.290   5.143  69.871  1.00  0.00    -0.347 A  
HETATM   43  C   UNL     1      -9.747   3.876  69.620  1.00  0.00    -0.208 A  
HETATM   44  C   UNL     1      -9.721   3.375  71.991  1.00  0.00    -0.234 A  
HETATM   45  C   UNL     1      -9.469   2.997  70.672  1.00  0.00    -0.224 A  
HETATM   46  C   UNL     1     -10.546   5.506  71.203  1.00  0.00    -0.303 A  
HETATM   47  C   UNL     1     -10.264   4.630  72.254  1.00  0.00    -0.256 A  
ENDBRANCH  41  42
ENDBRANCH  15  41
ENDBRANCH  12  15
ENDBRANCH  11  12
ENDBRANCH   8  11
BRANCH   9  48
HETATM   48  C   UNL     1     -11.105  10.612  69.047  1.00  0.00    -0.254 C  
HETATM   49  C   UNL     1     -12.762   8.393  70.393  1.00  0.00     0.795 C  
HETATM   50  O   UNL     1     -12.228  10.868  68.619  1.00  0.00    -0.533 OA 
HETATM   51  C   UNL     1     -12.888  10.585  71.630  1.00  0.00    -0.581 C  
HETATM   52  C   UNL     1     -11.950   9.468  71.139  1.00  0.00    -0.348 C  
HETATM   53  N   UNL     1     -10.886  10.023  70.280  1.00  0.00    -0.294 N  
HETATM   54  C   UNL     1     -11.311   8.806  72.374  1.00  0.00    -0.272 C  
HETATM   55  H   UNL     1      -9.926   9.969  70.619  1.00  0.00     0.000 HD 
ENDBRANCH   9  48
TORSDOF 12
ENDMDL
MODEL       32
REMARK 921   NORMALIZED FREE ENERGY PREDICTED BY IDOCK:   -5.94 KCAL/MOL
REMARK 922        TOTAL FREE ENERGY PREDICTED BY IDOCK:  -14.20 KCAL/MOL
REMARK 923 INTER-LIGAND FREE ENERGY PREDICTED BY IDOCK:  -11.89 KCAL/MOL
REMARK 924 INTRA-LIGAND FREE ENERGY PREDICTED BY IDOCK:   -2.31 KCAL/MOL
REMARK 927      BINDING AFFINITY PREDICTED BY RF-SCORE:    0.00 PKD
ROOT
HETATM    1  C   UNL     1     -10.224   7.424  72.802  1.00  0.00    -0.287 C  
HETATM    2  C   UNL     1     -10.209   6.690  74.149  1.00  0.00    -0.390 C  
HETATM    3  C   UNL     1     -10.262   5.174  73.980  1.00  0.00    -0.270 C  
HETATM    4  C   UNL     1     -11.486   4.755  73.173  1.00  0.00    -0.348 C  
HETATM    5  C   UNL     1     -11.530   5.447  71.814  1.00  0.00     0.091 C  
HETATM    6  C   UNL     1     -11.391   6.971  71.924  1.00  0.00    -0.291 C  
HETATM    7  C   UNL     1     -11.275   7.663  70.565  1.00  0.00    -0.261 C  
HETATM    8  N   UNL     1     -10.088   7.287  69.782  1.00  0.00    -0.190 NA 
HETATM    9  C   UNL     1      -8.835   7.158  70.570  1.00  0.00    -0.154 C  
HETATM   10  C   UNL     1      -8.862   7.349  72.101  1.00  0.00    -0.144 C  
ENDROOT
BRANCH   8  11
HETATM   11  C   UNL     1      -9.934   8.264  68.664  1.00  0.00    -0.190 C  
BRANCH  11  12
HETATM   12  C   UNL     1      -8.751   8.021  67.690  1.00  0.00    -0.126 C  
HETATM   13  H   UNL     1      -8.365   6.777  66.223  1.00  0.00     0.000 HD 
HETATM   14  O   UNL     1      -9.089   6.927  66.819  1.00  0.00    -0.134 OA 
BRANCH  12  15
HETATM   15  C   UNL     1      -8.410   9.252  66.804  1.00  0.00    -0.123 C  
BRANCH  15  16
HETATM   16  N   UNL     1      -9.583  10.145  66.715  1.00  0.00    -0.171 N  
HETATM   17  C   UNL     1      -9.455  11.490  66.425  1.00  0.00    -0.213 C  
HETATM   18  O   UNL     1      -8.363  12.057  66.351  1.00  0.00    -0.088 OA 
HETATM   19  H   UNL     1     -10.514   9.758  66.872  1.00  0.00     0.000 HD 
BRANCH  17  20
HETATM   20  C   UNL     1     -10.786  12.256  66.270  1.00  0.00    -0.259 C  
BRANCH  20  21
HETATM   21  N   UNL     1     -11.222  12.727  67.582  1.00  0.00    -0.264 N  
HETATM   22  H   UNL     1     -11.083  13.711  67.811  1.00  0.00     0.000 HD 
HETATM   23  C   UNL     1     -11.809  11.919  68.524  1.00  0.00    -0.297 C  
HETATM   24  O   UNL     1     -12.095  10.743  68.313  1.00  0.00    -0.496 OA 
BRANCH  23  25
HETATM   25  C   UNL     1     -12.135  12.576  69.824  1.00  0.00    -0.224 A  
HETATM   26  N   UNL     1     -11.809  13.894  69.931  1.00  0.00    -0.312 NA 
HETATM   27  C   UNL     1     -12.040  14.495  71.111  1.00  0.00    -0.344 A  
HETATM   28  C   UNL     1     -12.619  13.818  72.207  1.00  0.00    -0.175 A  
HETATM   29  C   UNL     1     -12.978  12.474  72.044  1.00  0.00    -0.379 A  
HETATM   30  C   UNL     1     -12.818  14.483  73.428  1.00  0.00    -0.423 A  
HETATM   31  C   UNL     1     -12.728  11.837  70.835  1.00  0.00    -0.328 A  
HETATM   32  C   UNL     1     -12.440  15.816  73.572  1.00  0.00    -0.666 A  
HETATM   33  C   UNL     1     -11.879  16.492  72.493  1.00  0.00    -0.438 A  
HETATM   34  C   UNL     1     -11.690  15.829  71.276  1.00  0.00    -0.496 A  
ENDBRANCH  23  25
ENDBRANCH  20  21
BRANCH  20  35
HETATM   35  C   UNL     1     -10.729  13.354  65.211  1.00  0.00    -0.321 C  
BRANCH  35  36
HETATM   36  C   UNL     1     -12.078  13.708  64.633  1.00  0.00    -0.412 C  
HETATM   37  N   UNL     1     -12.138  13.828  63.279  1.00  0.00    -1.000 N  
HETATM   38  O   UNL     1     -13.063  13.918  65.329  1.00  0.00    -0.777 OA 
HETATM   39  H2  UNL     1     -11.320  13.687  62.688  1.00  0.00     0.000 HD 
HETATM   40  H1  UNL     1     -13.050  14.067  62.889  1.00  0.00     0.000 HD 
ENDBRANCH  35  36
ENDBRANCH  20  35
ENDBRANCH  17  20
ENDBRANCH  15  16
BRANCH  15  41
HETATM   41  C   UNL     1      -7.148  10.023  67.272  1.00  0.00    -0.085 C  
BRANCH  41  42
HETATM   42  C   UNL     1      -6.542   9.618  68.600  1.00  0.00    -0.051 A  
HETATM   43  C   UNL     1      -6.934  10.238  69.794  1.00  0.00    -0.129 A  
HETATM   44  C   UNL     1      -5.568   8.706  71.082  1.00  0.00    -0.035 A  
HETATM   45  C   UNL     1      -6.447   9.788  71.025  1.00  0.00    -0.017 A  
HETATM   46  C   UNL     1      -5.650   8.536  68.672  1.00  0.00    -0.037 A  
HETATM   47  C   UNL     1      -5.167   8.083  69.902  1.00  0.00    -0.023 A  
ENDBRANCH  41  42
ENDBRANCH  15  41
ENDBRANCH  12  15
ENDBRANCH  11  12
ENDBRANCH   8  11
BRANCH   9  48
HETATM   48  C   UNL     1      -8.129   5.804  70.241  1.00  0.00    -0.105 C  
HETATM   49  C   UNL     1      -8.480   2.813  69.599  1.00  0.00    -0.101 C  
HETATM   50  O   UNL     1      -7.324   5.302  71.022  1.00  0.00    -0.073 OA 
HETATM   51  C   UNL     1      -6.494   3.830  68.429  1.00  0.00    -0.037 C  
HETATM   52  C   UNL     1      -8.022   3.887  68.594  1.00  0.00    -0.067 C  
HETATM   53  N   UNL     1      -8.449   5.233  69.022  1.00  0.00    -0.095 N  
HETATM   54  C   UNL     1      -8.661   3.562  67.231  1.00  0.00    -0.131 C  
HETATM   55  H   UNL     1      -9.019   5.778  68.375  1.00  0.00     0.000 HD 
ENDBRANCH   9  48
TORSDOF 12
ENDMDL
MODEL       33
REMARK 921   NORMALIZED FREE ENERGY PREDICTED BY IDOCK:   -5.87 KCAL/MOL
REMARK 922        TOTAL FREE ENERGY PREDICTED BY IDOCK:  -14.09 KCAL/MOL
REMARK 923 INTER-LIGAND FREE ENERGY PREDICTED BY IDOCK:  -11.05 KCAL/MOL
REMARK 924 INTRA-LIGAND FREE ENERGY PREDICTED BY IDOCK:   -3.05 KCAL/MOL
REMARK 927      BINDING AFFINITY PREDICTED BY RF-SCORE:    0.00 PKD
ROOT
HETATM    1  C   UNL     1      -9.010   5.443  65.901  1.00  0.00    -0.151 C  
HETATM    2  C   UNL     1      -9.808   4.134  65.868  1.00  0.00    -0.206 C  
HETATM    3  C   UNL     1      -9.752   3.391  67.201  1.00  0.00     0.001 C  
HETATM    4  C   UNL     1      -8.311   3.111  67.611  1.00  0.00    -0.092 C  
HETATM    5  C   UNL     1      -7.484   4.392  67.677  1.00  0.00    -0.073 C  
HETATM    6  C   UNL     1      -7.579   5.221  66.390  1.00  0.00    -0.088 C  
HETATM    7  C   UNL     1      -6.885   6.579  66.499  1.00  0.00    -0.065 C  
HETATM    8  N   UNL     1      -7.456   7.484  67.508  1.00  0.00    -0.102 NA 
HETATM    9  C   UNL     1      -8.942   7.490  67.571  1.00  0.00    -0.126 C  
HETATM   10  C   UNL     1      -9.757   6.543  66.668  1.00  0.00    -0.201 C  
ENDROOT
BRANCH   8  11
HETATM   11  C   UNL     1      -6.912   8.854  67.274  1.00  0.00    -0.078 C  
BRANCH  11  12
HETATM   12  C   UNL     1      -7.049   9.863  68.445  1.00  0.00    -0.072 C  
HETATM   13  H   UNL     1      -6.025  10.293  70.061  1.00  0.00     0.000 HD 
HETATM   14  O   UNL     1      -5.941   9.676  69.344  1.00  0.00    -0.034 OA 
BRANCH  12  15
HETATM   15  C   UNL     1      -7.053  11.349  67.989  1.00  0.00    -0.074 C  
BRANCH  15  16
HETATM   16  N   UNL     1      -8.190  11.591  67.080  1.00  0.00    -0.160 N  
HETATM   17  C   UNL     1      -9.496  11.344  67.463  1.00  0.00    -0.167 C  
HETATM   18  O   UNL     1      -9.787  10.790  68.524  1.00  0.00    -0.163 OA 
HETATM   19  H   UNL     1      -8.009  11.950  66.143  1.00  0.00     0.000 HD 
BRANCH  17  20
HETATM   20  C   UNL     1     -10.568  11.746  66.429  1.00  0.00    -0.255 C  
BRANCH  20  21
HETATM   21  N   UNL     1     -10.509  13.190  66.216  1.00  0.00    -0.280 N  
HETATM   22  H   UNL     1     -10.072  13.533  65.360  1.00  0.00     0.000 HD 
HETATM   23  C   UNL     1     -11.010  14.111  67.102  1.00  0.00    -0.299 C  
HETATM   24  O   UNL     1     -11.627  13.797  68.117  1.00  0.00    -0.294 OA 
BRANCH  23  25
HETATM   25  C   UNL     1     -10.805  15.542  66.730  1.00  0.00    -0.291 A  
HETATM   26  N   UNL     1     -10.496  16.391  67.748  1.00  0.00    -0.292 NA 
HETATM   27  C   UNL     1     -10.361  17.694  67.449  1.00  0.00    -0.360 A  
HETATM   28  C   UNL     1     -10.505  18.189  66.134  1.00  0.00    -0.377 A  
HETATM   29  C   UNL     1     -10.783  17.278  65.107  1.00  0.00     0.053 A  
HETATM   30  C   UNL     1     -10.379  19.564  65.874  1.00  0.00    -0.562 A  
HETATM   31  C   UNL     1     -10.941  15.931  65.407  1.00  0.00    -0.293 A  
HETATM   32  C   UNL     1     -10.118  20.453  66.913  1.00  0.00    -0.503 A  
HETATM   33  C   UNL     1      -9.964  19.971  68.209  1.00  0.00    -0.508 A  
HETATM   34  C   UNL     1     -10.082  18.601  68.463  1.00  0.00    -0.426 A  
ENDBRANCH  23  25
ENDBRANCH  20  21
BRANCH  20  35
HETATM   35  C   UNL     1     -10.497  10.931  65.139  1.00  0.00    -0.316 C  
BRANCH  35  36
HETATM   36  C   UNL     1     -10.444  11.777  63.890  1.00  0.00    -0.390 C  
HETATM   37  N   UNL     1      -9.280  11.740  63.188  1.00  0.00    -0.538 N  
HETATM   38  O   UNL     1     -11.373  12.493  63.535  1.00  0.00    -0.453 OA 
HETATM   39  H2  UNL     1      -8.487  11.173  63.488  1.00  0.00     0.000 HD 
HETATM   40  H1  UNL     1      -9.245  12.312  62.344  1.00  0.00     0.000 HD 
ENDBRANCH  35  36
ENDBRANCH  20  35
ENDBRANCH  17  20
ENDBRANCH  15  16
BRANCH  15  41
HETATM   41  C   UNL     1      -7.046  12.359  69.166  1.00  0.00     0.007 C  
BRANCH  41  42
HETATM   42  C   UNL     1      -7.102  13.832  68.815  1.00  0.00    -0.106 A  
HETATM   43  C   UNL     1      -7.021  14.816  69.810  1.00  0.00    -0.158 A  
HETATM   44  C   UNL     1      -6.986  16.563  68.130  1.00  0.00    -0.149 A  
HETATM   45  C   UNL     1      -6.969  16.172  69.469  1.00  0.00    -0.186 A  
HETATM   46  C   UNL     1      -7.126  14.241  67.472  1.00  0.00    -0.189 A  
HETATM   47  C   UNL     1      -7.069  15.595  67.132  1.00  0.00    -0.203 A  
ENDBRANCH  41  42
ENDBRANCH  15  41
ENDBRANCH  12  15
ENDBRANCH  11  12
ENDBRANCH   8  11
BRANCH   9  48
HETATM   48  C   UNL     1      -9.419   7.315  69.049  1.00  0.00    -0.147 C  
HETATM   49  C   UNL     1      -9.787   8.641  71.803  1.00  0.00    -0.365 C  
HETATM   50  O   UNL     1      -8.910   6.471  69.784  1.00  0.00    -0.141 OA 
HETATM   51  C   UNL     1     -11.566   6.928  71.305  1.00  0.00    -0.352 C  
HETATM   52  C   UNL     1     -10.930   8.252  70.847  1.00  0.00    -0.246 C  
HETATM   53  N   UNL     1     -10.449   8.144  69.457  1.00  0.00    -0.226 N  
HETATM   54  C   UNL     1     -12.007   9.351  70.927  1.00  0.00    -0.351 C  
HETATM   55  H   UNL     1     -10.905   8.720  68.750  1.00  0.00     0.000 HD 
ENDBRANCH   9  48
TORSDOF 12
ENDMDL
MODEL       34
REMARK 921   NORMALIZED FREE ENERGY PREDICTED BY IDOCK:   -5.82 KCAL/MOL
REMARK 922        TOTAL FREE ENERGY PREDICTED BY IDOCK:  -14.00 KCAL/MOL
REMARK 923 INTER-LIGAND FREE ENERGY PREDICTED BY IDOCK:   -9.72 KCAL/MOL
REMARK 924 INTRA-LIGAND FREE ENERGY PREDICTED BY IDOCK:   -4.28 KCAL/MOL
REMARK 927      BINDING AFFINITY PREDICTED BY RF-SCORE:    0.00 PKD
ROOT
HETATM    1  C   UNL     1     -11.569   7.303  70.859  1.00  0.00    -0.331 C  
HETATM    2  C   UNL     1     -12.319   6.486  71.919  1.00  0.00    -0.339 C  
HETATM    3  C   UNL     1     -11.417   5.459  72.598  1.00  0.00    -0.305 C  
HETATM    4  C   UNL     1     -10.782   4.525  71.574  1.00  0.00     0.172 C  
HETATM    5  C   UNL     1     -10.008   5.296  70.510  1.00  0.00    -0.299 C  
HETATM    6  C   UNL     1     -10.846   6.403  69.858  1.00  0.00    -0.370 C  
HETATM    7  C   UNL     1     -10.038   7.285  68.904  1.00  0.00    -0.180 C  
HETATM    8  N   UNL     1      -8.947   8.039  69.539  1.00  0.00    -0.147 NA 
HETATM    9  C   UNL     1      -9.282   8.626  70.864  1.00  0.00    -0.190 C  
HETATM   10  C   UNL     1     -10.663   8.364  71.498  1.00  0.00    -0.313 C  
ENDROOT
BRANCH   8  11
HETATM   11  C   UNL     1      -8.477   9.083  68.581  1.00  0.00    -0.128 C  
BRANCH  11  12
HETATM   12  C   UNL     1      -9.117  10.490  68.722  1.00  0.00    -0.166 C  
HETATM   13  H   UNL     1      -8.457  12.325  68.927  1.00  0.00     0.000 HD 
HETATM   14  O   UNL     1      -8.065  11.463  68.841  1.00  0.00    -0.137 OA 
BRANCH  12  15
HETATM   15  C   UNL     1     -10.009  10.891  67.513  1.00  0.00    -0.174 C  
BRANCH  15  16
HETATM   16  N   UNL     1      -9.720  10.011  66.363  1.00  0.00    -0.198 N  
HETATM   17  C   UNL     1      -8.627  10.218  65.542  1.00  0.00    -0.164 C  
HETATM   18  O   UNL     1      -7.903  11.211  65.632  1.00  0.00    -0.013 OA 
HETATM   19  H   UNL     1     -10.344   9.228  66.168  1.00  0.00     0.000 HD 
BRANCH  17  20
HETATM   20  C   UNL     1      -8.416   9.149  64.450  1.00  0.00    -0.184 C  
BRANCH  20  21
HETATM   21  N   UNL     1      -8.643   7.826  65.026  1.00  0.00    -0.366 N  
HETATM   22  H   UNL     1      -9.553   7.388  64.885  1.00  0.00     0.000 HD 
HETATM   23  C   UNL     1      -7.698   7.138  65.748  1.00  0.00    -0.099 C  
HETATM   24  O   UNL     1      -6.548   7.543  65.902  1.00  0.00    -0.044 OA 
BRANCH  23  25
HETATM   25  C   UNL     1      -8.140   5.823  66.300  1.00  0.00    -0.107 A  
HETATM   26  N   UNL     1      -7.427   5.343  67.356  1.00  0.00    -0.083 NA 
HETATM   27  C   UNL     1      -7.768   4.135  67.835  1.00  0.00    -0.071 A  
HETATM   28  C   UNL     1      -8.836   3.381  67.300  1.00  0.00    -0.152 A  
HETATM   29  C   UNL     1      -9.571   3.927  66.240  1.00  0.00    -0.198 A  
HETATM   30  C   UNL     1      -9.139   2.112  67.820  1.00  0.00    -0.213 A  
HETATM   31  C   UNL     1      -9.217   5.167  65.725  1.00  0.00    -0.162 A  
HETATM   32  C   UNL     1      -8.386   1.582  68.864  1.00  0.00    -0.073 A  
HETATM   33  C   UNL     1      -7.340   2.324  69.403  1.00  0.00    -0.043 A  
HETATM   34  C   UNL     1      -7.045   3.591  68.889  1.00  0.00    -0.050 A  
ENDBRANCH  23  25
ENDBRANCH  20  21
BRANCH  20  35
HETATM   35  C   UNL     1      -9.227   9.415  63.183  1.00  0.00     0.091 C  
BRANCH  35  36
HETATM   36  C   UNL     1      -9.427  10.882  62.890  1.00  0.00    -0.355 C  
HETATM   37  N   UNL     1     -10.691  11.360  63.050  1.00  0.00    -0.768 N  
HETATM   38  O   UNL     1      -8.523  11.607  62.491  1.00  0.00    -0.185 OA 
HETATM   39  H2  UNL     1     -11.459  10.761  63.351  1.00  0.00     0.000 HD 
HETATM   40  H1  UNL     1     -10.825  12.351  62.851  1.00  0.00     0.000 HD 
ENDBRANCH  35  36
ENDBRANCH  20  35
ENDBRANCH  17  20
ENDBRANCH  15  16
BRANCH  15  41
HETATM   41  C   UNL     1     -11.525  10.913  67.840  1.00  0.00    -0.344 C  
BRANCH  41  42
HETATM   42  C   UNL     1     -11.962  11.719  69.046  1.00  0.00    -0.341 A  
HETATM   43  C   UNL     1     -12.493  11.093  70.181  1.00  0.00    -0.316 A  
HETATM   44  C   UNL     1     -12.565  13.208  71.361  1.00  0.00    -0.352 A  
HETATM   45  C   UNL     1     -12.798  11.833  71.328  1.00  0.00    -0.409 A  
HETATM   46  C   UNL     1     -11.741  13.105  69.091  1.00  0.00    -0.376 A  
HETATM   47  C   UNL     1     -12.040  13.843  70.238  1.00  0.00    -0.423 A  
ENDBRANCH  41  42
ENDBRANCH  15  41
ENDBRANCH  12  15
ENDBRANCH  11  12
ENDBRANCH   8  11
BRANCH   9  48
HETATM   48  C   UNL     1      -8.172   8.272  71.905  1.00  0.00    -0.149 C  
HETATM   49  C   UNL     1      -6.810   6.058  73.556  1.00  0.00    -0.080 C  
HETATM   50  O   UNL     1      -8.162   8.786  73.021  1.00  0.00    -0.418 OA 
HETATM   51  C   UNL     1      -5.208   7.875  72.861  1.00  0.00    -0.036 C  
HETATM   52  C   UNL     1      -6.174   6.788  72.358  1.00  0.00    -0.045 C  
HETATM   53  N   UNL     1      -7.207   7.374  71.483  1.00  0.00    -0.070 N  
HETATM   54  C   UNL     1      -5.356   5.757  71.557  1.00  0.00    -0.017 C  
HETATM   55  H   UNL     1      -7.209   7.099  70.501  1.00  0.00     0.000 HD 
ENDBRANCH   9  48
TORSDOF 12
ENDMDL
MODEL       35
REMARK 921   NORMALIZED FREE ENERGY PREDICTED BY IDOCK:   -5.77 KCAL/MOL
REMARK 922        TOTAL FREE ENERGY PREDICTED BY IDOCK:  -13.91 KCAL/MOL
REMARK 923 INTER-LIGAND FREE ENERGY PREDICTED BY IDOCK:  -12.27 KCAL/MOL
REMARK 924 INTRA-LIGAND FREE ENERGY PREDICTED BY IDOCK:   -1.63 KCAL/MOL
REMARK 927      BINDING AFFINITY PREDICTED BY RF-SCORE:    0.00 PKD
ROOT
HETATM    1  C   UNL     1     -10.366  17.155  66.213  1.00  0.00    -0.315 C  
HETATM    2  C   UNL     1     -10.657  18.619  65.857  1.00  0.00    -0.365 C  
HETATM    3  C   UNL     1     -10.021  19.591  66.847  1.00  0.00    -0.495 C  
HETATM    4  C   UNL     1     -10.481  19.301  68.271  1.00  0.00    -0.399 C  
HETATM    5  C   UNL     1     -10.190  17.858  68.675  1.00  0.00    -0.387 C  
HETATM    6  C   UNL     1     -10.734  16.842  67.663  1.00  0.00    -0.290 C  
HETATM    7  C   UNL     1     -10.315  15.404  67.972  1.00  0.00    -0.249 C  
HETATM    8  N   UNL     1      -8.865  15.161  67.926  1.00  0.00    -0.164 NA 
HETATM    9  C   UNL     1      -8.156  15.834  66.805  1.00  0.00    -0.262 C  
HETATM   10  C   UNL     1      -8.930  16.758  65.844  1.00  0.00    -0.103 C  
ENDROOT
BRANCH   8  11
HETATM   11  C   UNL     1      -8.636  13.687  67.913  1.00  0.00    -0.181 C  
BRANCH  11  12
HETATM   12  C   UNL     1      -9.749  12.818  67.268  1.00  0.00    -0.206 C  
HETATM   13  H   UNL     1     -10.271  12.323  65.444  1.00  0.00     0.000 HD 
HETATM   14  O   UNL     1      -9.590  12.854  65.839  1.00  0.00    -0.224 OA 
BRANCH  12  15
HETATM   15  C   UNL     1      -9.717  11.331  67.719  1.00  0.00    -0.173 C  
BRANCH  15  16
HETATM   16  N   UNL     1     -10.560  11.151  68.916  1.00  0.00    -0.199 N  
HETATM   17  C   UNL     1     -11.872  11.586  68.956  1.00  0.00    -0.343 C  
HETATM   18  O   UNL     1     -12.381  12.259  68.058  1.00  0.00    -0.260 OA 
HETATM   19  H   UNL     1     -10.165  10.694  69.738  1.00  0.00     0.000 HD 
BRANCH  17  20
HETATM   20  C   UNL     1     -12.641  11.229  70.246  1.00  0.00    -0.177 C  
BRANCH  20  21
HETATM   21  N   UNL     1     -11.999  10.083  70.884  1.00  0.00    -0.334 N  
HETATM   22  H   UNL     1     -10.982  10.014  70.838  1.00  0.00     0.000 HD 
HETATM   23  C   UNL     1     -12.688   9.094  71.542  1.00  0.00    -0.341 C  
HETATM   24  O   UNL     1     -13.902   9.130  71.722  1.00  0.00    -0.389 OA 
BRANCH  23  25
HETATM   25  C   UNL     1     -11.855   7.978  72.081  1.00  0.00    -0.349 A  
HETATM   26  N   UNL     1     -10.739   8.339  72.773  1.00  0.00    -0.317 NA 
HETATM   27  C   UNL     1      -9.942   7.354  73.220  1.00  0.00    -0.291 A  
HETATM   28  C   UNL     1     -10.237   5.987  73.016  1.00  0.00    -0.210 A  
HETATM   29  C   UNL     1     -11.416   5.656  72.334  1.00  0.00    -0.309 A  
HETATM   30  C   UNL     1      -9.361   4.994  73.481  1.00  0.00    -0.134 A  
HETATM   31  C   UNL     1     -12.238   6.666  71.853  1.00  0.00    -0.381 A  
HETATM   32  C   UNL     1      -8.187   5.347  74.143  1.00  0.00    -0.109 A  
HETATM   33  C   UNL     1      -7.896   6.690  74.357  1.00  0.00    -0.118 A  
HETATM   34  C   UNL     1      -8.775   7.677  73.900  1.00  0.00    -0.302 A  
ENDBRANCH  23  25
ENDBRANCH  20  21
BRANCH  20  35
HETATM   35  C   UNL     1     -12.837  12.422  71.179  1.00  0.00    -0.299 C  
BRANCH  35  36
HETATM   36  C   UNL     1     -12.337  13.727  70.606  1.00  0.00    -0.375 C  
HETATM   37  N   UNL     1     -13.277  14.537  70.050  1.00  0.00    -0.353 N  
HETATM   38  O   UNL     1     -11.152  14.037  70.599  1.00  0.00     0.196 OA 
HETATM   39  H2  UNL     1     -14.263  14.279  70.021  1.00  0.00     0.000 HD 
HETATM   40  H1  UNL     1     -12.939  15.419  69.663  1.00  0.00     0.000 HD 
ENDBRANCH  35  36
ENDBRANCH  20  35
ENDBRANCH  17  20
ENDBRANCH  15  16
BRANCH  15  41
HETATM   41  C   UNL     1     -10.109  10.334  66.597  1.00  0.00    -0.281 C  
BRANCH  41  42
HETATM   42  C   UNL     1      -9.631   8.904  66.742  1.00  0.00    -0.262 A  
HETATM   43  C   UNL     1     -10.541   7.846  66.866  1.00  0.00    -0.333 A  
HETATM   44  C   UNL     1      -8.734   6.233  66.789  1.00  0.00    -0.117 A  
HETATM   45  C   UNL     1     -10.094   6.520  66.895  1.00  0.00    -0.253 A  
HETATM   46  C   UNL     1      -8.264   8.600  66.645  1.00  0.00    -0.107 A  
HETATM   47  C   UNL     1      -7.818   7.276  66.668  1.00  0.00    -0.102 A  
ENDBRANCH  41  42
ENDBRANCH  15  41
ENDBRANCH  12  15
ENDBRANCH  11  12
ENDBRANCH   8  11
BRANCH   9  48
HETATM   48  C   UNL     1      -6.903  16.598  67.343  1.00  0.00    -0.165 C  
HETATM   49  C   UNL     1      -5.378  19.270  67.459  1.00  0.00    -0.171 C  
HETATM   50  O   UNL     1      -5.765  16.229  67.059  1.00  0.00    -0.314 OA 
HETATM   51  C   UNL     1      -5.135  17.921  69.574  1.00  0.00    -0.182 C  
HETATM   52  C   UNL     1      -6.132  18.628  68.639  1.00  0.00    -0.211 C  
HETATM   53  N   UNL     1      -7.159  17.683  68.163  1.00  0.00    -0.209 N  
HETATM   54  C   UNL     1      -6.812  19.758  69.436  1.00  0.00    -0.364 C  
HETATM   55  H   UNL     1      -8.123  17.840  68.459  1.00  0.00     0.000 HD 
ENDBRANCH   9  48
TORSDOF 12
ENDMDL
MODEL       36
REMARK 921   NORMALIZED FREE ENERGY PREDICTED BY IDOCK:   -5.76 KCAL/MOL
REMARK 922        TOTAL FREE ENERGY PREDICTED BY IDOCK:  -13.91 KCAL/MOL
REMARK 923 INTER-LIGAND FREE ENERGY PREDICTED BY IDOCK:  -11.82 KCAL/MOL
REMARK 924 INTRA-LIGAND FREE ENERGY PREDICTED BY IDOCK:   -2.09 KCAL/MOL
REMARK 927      BINDING AFFINITY PREDICTED BY RF-SCORE:    0.00 PKD
ROOT
HETATM    1  C   UNL     1     -10.643  18.168  66.416  1.00  0.00    -0.288 C  
HETATM    2  C   UNL     1     -10.470  19.625  65.967  1.00  0.00    -0.622 C  
HETATM    3  C   UNL     1      -9.460  20.378  66.828  1.00  0.00    -0.478 C  
HETATM    4  C   UNL     1      -9.853  20.331  68.301  1.00  0.00    -0.345 C  
HETATM    5  C   UNL     1     -10.015  18.897  68.796  1.00  0.00    -0.466 C  
HETATM    6  C   UNL     1     -10.955  18.070  67.909  1.00  0.00    -0.083 C  
HETATM    7  C   UNL     1     -11.004  16.592  68.300  1.00  0.00    -0.341 C  
HETATM    8  N   UNL     1      -9.725  15.878  68.169  1.00  0.00    -0.211 NA 
HETATM    9  C   UNL     1      -8.943  16.217  66.950  1.00  0.00    -0.223 C  
HETATM   10  C   UNL     1      -9.459  17.297  65.977  1.00  0.00    -0.143 C  
ENDROOT
BRANCH   8  11
HETATM   11  C   UNL     1      -9.995  14.412  68.257  1.00  0.00    -0.232 C  
BRANCH  11  12
HETATM   12  C   UNL     1     -11.474  13.992  68.466  1.00  0.00    -0.302 C  
HETATM   13  H   UNL     1     -13.036  13.709  67.314  1.00  0.00     0.000 HD 
HETATM   14  O   UNL     1     -12.130  13.967  67.186  1.00  0.00    -0.407 OA 
BRANCH  12  15
HETATM   15  C   UNL     1     -11.636  12.589  69.117  1.00  0.00    -0.320 C  
BRANCH  15  16
HETATM   16  N   UNL     1     -10.307  12.023  69.424  1.00  0.00    -0.381 N  
HETATM   17  C   UNL     1      -9.939  10.758  69.006  1.00  0.00    -0.199 C  
HETATM   18  O   UNL     1     -10.726   9.976  68.470  1.00  0.00    -0.211 OA 
HETATM   19  H   UNL     1      -9.642  12.581  69.960  1.00  0.00     0.000 HD 
BRANCH  17  20
HETATM   20  C   UNL     1      -8.482  10.362  69.325  1.00  0.00    -0.154 C  
BRANCH  20  21
HETATM   21  N   UNL     1      -8.466   9.020  69.903  1.00  0.00    -0.127 N  
HETATM   22  H   UNL     1      -8.894   8.262  69.371  1.00  0.00     0.000 HD 
HETATM   23  C   UNL     1      -7.907   8.723  71.121  1.00  0.00    -0.134 C  
HETATM   24  O   UNL     1      -7.296   9.548  71.797  1.00  0.00    -0.232 OA 
BRANCH  23  25
HETATM   25  C   UNL     1      -8.040   7.303  71.562  1.00  0.00    -0.101 A  
HETATM   26  N   UNL     1      -8.409   6.407  70.604  1.00  0.00    -0.131 NA 
HETATM   27  C   UNL     1      -8.591   5.132  70.987  1.00  0.00    -0.124 A  
HETATM   28  C   UNL     1      -8.392   4.703  72.318  1.00  0.00    -0.114 A  
HETATM   29  C   UNL     1      -7.974   5.647  73.265  1.00  0.00    -0.110 A  
HETATM   30  C   UNL     1      -8.618   3.364  72.675  1.00  0.00    -0.090 A  
HETATM   31  C   UNL     1      -7.799   6.971  72.885  1.00  0.00    -0.105 A  
HETATM   32  C   UNL     1      -9.048   2.446  71.720  1.00  0.00    -0.147 A  
HETATM   33  C   UNL     1      -9.235   2.859  70.404  1.00  0.00    -0.211 A  
HETATM   34  C   UNL     1      -9.001   4.192  70.051  1.00  0.00    -0.158 A  
ENDBRANCH  23  25
ENDBRANCH  20  21
BRANCH  20  35
HETATM   35  C   UNL     1      -7.538  10.530  68.136  1.00  0.00    -0.091 C  
BRANCH  35  36
HETATM   36  C   UNL     1      -7.306  11.971  67.747  1.00  0.00    -0.113 C  
HETATM   37  N   UNL     1      -7.658  12.315  66.479  1.00  0.00    -0.353 N  
HETATM   38  O   UNL     1      -6.794  12.787  68.504  1.00  0.00    -0.081 OA 
HETATM   39  H2  UNL     1      -8.056  11.639  65.828  1.00  0.00     0.000 HD 
HETATM   40  H1  UNL     1      -7.500  13.288  66.217  1.00  0.00     0.000 HD 
ENDBRANCH  35  36
ENDBRANCH  20  35
ENDBRANCH  17  20
ENDBRANCH  15  16
BRANCH  15  41
HETATM   41  C   UNL     1     -12.553  12.587  70.367  1.00  0.00    -0.099 C  
BRANCH  41  42
HETATM   42  C   UNL     1     -12.741  13.904  71.091  1.00  0.00    -0.441 A  
HETATM   43  C   UNL     1     -14.009  14.321  71.517  1.00  0.00    -0.415 A  
HETATM   44  C   UNL     1     -13.045  16.248  72.626  1.00  0.00    -0.112 A  
HETATM   45  C   UNL     1     -14.160  15.488  72.275  1.00  0.00    -0.637 A  
HETATM   46  C   UNL     1     -11.629  14.685  71.445  1.00  0.00    -0.226 A  
HETATM   47  C   UNL     1     -11.779  15.847  72.205  1.00  0.00    -0.586 A  
ENDBRANCH  41  42
ENDBRANCH  15  41
ENDBRANCH  12  15
ENDBRANCH  11  12
ENDBRANCH   8  11
BRANCH   9  48
HETATM   48  C   UNL     1      -7.465  16.545  67.334  1.00  0.00    -0.149 C  
HETATM   49  C   UNL     1      -5.188  18.617  67.249  1.00  0.00    -0.140 C  
HETATM   50  O   UNL     1      -6.535  15.852  66.927  1.00  0.00    -0.294 OA 
HETATM   51  C   UNL     1      -5.138  17.204  69.335  1.00  0.00    -0.147 C  
HETATM   52  C   UNL     1      -5.966  18.207  68.513  1.00  0.00    -0.190 C  
HETATM   53  N   UNL     1      -7.281  17.635  68.167  1.00  0.00    -0.211 N  
HETATM   54  C   UNL     1      -6.173  19.471  69.371  1.00  0.00    -0.337 C  
HETATM   55  H   UNL     1      -8.110  18.073  68.569  1.00  0.00     0.000 HD 
ENDBRANCH   9  48
TORSDOF 12
ENDMDL
MODEL       37
REMARK 921   NORMALIZED FREE ENERGY PREDICTED BY IDOCK:   -5.75 KCAL/MOL
REMARK 922        TOTAL FREE ENERGY PREDICTED BY IDOCK:  -13.88 KCAL/MOL
REMARK 923 INTER-LIGAND FREE ENERGY PREDICTED BY IDOCK:   -9.51 KCAL/MOL
REMARK 924 INTRA-LIGAND FREE ENERGY PREDICTED BY IDOCK:   -4.37 KCAL/MOL
REMARK 927      BINDING AFFINITY PREDICTED BY RF-SCORE:    0.00 PKD
ROOT
HETATM    1  C   UNL     1      -8.034   7.470  69.435  1.00  0.00    -0.123 C  
HETATM    2  C   UNL     1      -7.691   5.978  69.542  1.00  0.00    -0.098 C  
HETATM    3  C   UNL     1      -7.664   5.294  68.177  1.00  0.00    -0.084 C  
HETATM    4  C   UNL     1      -8.991   5.473  67.448  1.00  0.00    -0.107 C  
HETATM    5  C   UNL     1      -9.360   6.945  67.301  1.00  0.00    -0.152 C  
HETATM    6  C   UNL     1      -9.316   7.700  68.636  1.00  0.00    -0.147 C  
HETATM    7  C   UNL     1      -9.530   9.207  68.481  1.00  0.00    -0.146 C  
HETATM    8  N   UNL     1      -8.502   9.896  67.687  1.00  0.00    -0.115 NA 
HETATM    9  C   UNL     1      -7.108   9.446  67.944  1.00  0.00    -0.081 C  
HETATM   10  C   UNL     1      -6.839   8.290  68.929  1.00  0.00    -0.061 C  
ENDROOT
BRANCH   8  11
HETATM   11  C   UNL     1      -8.651  11.366  67.899  1.00  0.00    -0.140 C  
BRANCH  11  12
HETATM   12  C   UNL     1      -9.030  12.210  66.653  1.00  0.00    -0.198 C  
HETATM   13  H   UNL     1     -10.031  11.906  64.995  1.00  0.00     0.000 HD 
HETATM   14  O   UNL     1      -9.800  11.389  65.758  1.00  0.00    -0.214 OA 
BRANCH  12  15
HETATM   15  C   UNL     1      -9.871  13.474  66.990  1.00  0.00    -0.251 C  
BRANCH  15  16
HETATM   16  N   UNL     1     -10.539  13.297  68.295  1.00  0.00    -0.244 N  
HETATM   17  C   UNL     1     -11.731  12.608  68.417  1.00  0.00    -0.333 C  
HETATM   18  O   UNL     1     -12.376  12.212  67.445  1.00  0.00    -0.344 OA 
HETATM   19  H   UNL     1     -10.109  13.695  69.130  1.00  0.00     0.000 HD 
BRANCH  17  20
HETATM   20  C   UNL     1     -12.240  12.431  69.863  1.00  0.00    -0.157 C  
BRANCH  20  21
HETATM   21  N   UNL     1     -11.761  11.153  70.385  1.00  0.00    -0.381 N  
HETATM   22  H   UNL     1     -10.772  10.928  70.273  1.00  0.00     0.000 HD 
HETATM   23  C   UNL     1     -12.567  10.239  71.018  1.00  0.00    -0.390 C  
HETATM   24  O   UNL     1     -13.750  10.454  71.273  1.00  0.00    -0.103 OA 
BRANCH  23  25
HETATM   25  C   UNL     1     -11.901   8.969  71.431  1.00  0.00    -0.325 A  
HETATM   26  N   UNL     1     -10.696   9.096  72.053  1.00  0.00    -0.282 NA 
HETATM   27  C   UNL     1     -10.049   7.966  72.385  1.00  0.00    -0.248 A  
HETATM   28  C   UNL     1     -10.584   6.683  72.133  1.00  0.00    -0.238 A  
HETATM   29  C   UNL     1     -11.844   6.595  71.527  1.00  0.00    -0.387 A  
HETATM   30  C   UNL     1      -9.858   5.531  72.476  1.00  0.00    -0.188 A  
HETATM   31  C   UNL     1     -12.515   7.756  71.165  1.00  0.00    -0.245 A  
HETATM   32  C   UNL     1      -8.601   5.642  73.064  1.00  0.00    -0.121 A  
HETATM   33  C   UNL     1      -8.072   6.903  73.325  1.00  0.00    -0.113 A  
HETATM   34  C   UNL     1      -8.801   8.048  72.989  1.00  0.00    -0.302 A  
ENDBRANCH  23  25
ENDBRANCH  20  21
BRANCH  20  35
HETATM   35  C   UNL     1     -11.920  13.622  70.764  1.00  0.00    -0.286 C  
BRANCH  35  36
HETATM   36  C   UNL     1     -13.104  14.113  71.561  1.00  0.00    -0.353 C  
HETATM   37  N   UNL     1     -13.943  14.972  70.921  1.00  0.00    -0.673 N  
HETATM   38  O   UNL     1     -13.294  13.799  72.729  1.00  0.00    -0.551 OA 
HETATM   39  H2  UNL     1     -13.782  15.267  69.959  1.00  0.00     0.000 HD 
HETATM   40  H1  UNL     1     -14.743  15.304  71.460  1.00  0.00     0.000 HD 
ENDBRANCH  35  36
ENDBRANCH  20  35
ENDBRANCH  17  20
ENDBRANCH  15  16
BRANCH  15  41
HETATM   41  C   UNL     1      -9.055  14.792  66.948  1.00  0.00    -0.268 C  
BRANCH  41  42
HETATM   42  C   UNL     1      -7.862  14.899  67.875  1.00  0.00    -0.145 A  
HETATM   43  C   UNL     1      -6.558  14.688  67.404  1.00  0.00     0.010 A  
HETATM   44  C   UNL     1      -5.639  15.315  69.556  1.00  0.00    -0.098 A  
HETATM   45  C   UNL     1      -5.456  14.890  68.240  1.00  0.00    -0.116 A  
HETATM   46  C   UNL     1      -8.030  15.319  69.204  1.00  0.00    -0.214 A  
HETATM   47  C   UNL     1      -6.929  15.525  70.038  1.00  0.00     0.011 A  
ENDBRANCH  41  42
ENDBRANCH  15  41
ENDBRANCH  12  15
ENDBRANCH  11  12
ENDBRANCH   8  11
BRANCH   9  48
HETATM   48  C   UNL     1      -6.384   9.139  66.594  1.00  0.00    -0.066 C  
HETATM   49  C   UNL     1      -5.760   7.035  64.434  1.00  0.00    -0.033 C  
HETATM   50  O   UNL     1      -5.168   9.275  66.481  1.00  0.00    -0.039 OA 
HETATM   51  C   UNL     1      -5.963   9.363  63.491  1.00  0.00    -0.090 C  
HETATM   52  C   UNL     1      -6.697   8.243  64.249  1.00  0.00    -0.066 C  
HETATM   53  N   UNL     1      -7.195   8.734  65.548  1.00  0.00    -0.083 N  
HETATM   54  C   UNL     1      -7.890   7.788  63.387  1.00  0.00    -0.131 C  
HETATM   55  H   UNL     1      -8.205   8.778  65.683  1.00  0.00     0.000 HD 
ENDBRANCH   9  48
TORSDOF 12
ENDMDL
MODEL       38
REMARK 921   NORMALIZED FREE ENERGY PREDICTED BY IDOCK:   -5.72 KCAL/MOL
REMARK 922        TOTAL FREE ENERGY PREDICTED BY IDOCK:  -13.83 KCAL/MOL
REMARK 923 INTER-LIGAND FREE ENERGY PREDICTED BY IDOCK:  -10.20 KCAL/MOL
REMARK 924 INTRA-LIGAND FREE ENERGY PREDICTED BY IDOCK:   -3.63 KCAL/MOL
REMARK 927      BINDING AFFINITY PREDICTED BY RF-SCORE:    0.00 PKD
ROOT
HETATM    1  C   UNL     1      -5.479  19.588  68.373  1.00  0.00    -0.218 C  
HETATM    2  C   UNL     1      -5.533  21.037  67.871  1.00  0.00    -0.348 C  
HETATM    3  C   UNL     1      -6.496  21.206  66.699  1.00  0.00    -0.349 C  
HETATM    4  C   UNL     1      -6.131  20.271  65.551  1.00  0.00    -0.245 C  
HETATM    5  C   UNL     1      -6.086  18.814  66.002  1.00  0.00    -0.218 C  
HETATM    6  C   UNL     1      -5.198  18.606  67.235  1.00  0.00    -0.140 C  
HETATM    7  C   UNL     1      -5.269  17.183  67.792  1.00  0.00    -0.117 C  
HETATM    8  N   UNL     1      -6.596  16.777  68.278  1.00  0.00    -0.149 NA 
HETATM    9  C   UNL     1      -7.331  17.824  69.036  1.00  0.00    -0.182 C  
HETATM   10  C   UNL     1      -6.720  19.230  69.202  1.00  0.00    -0.362 C  
ENDROOT
BRANCH   8  11
HETATM   11  C   UNL     1      -6.441  15.527  69.079  1.00  0.00    -0.123 C  
BRANCH  11  12
HETATM   12  C   UNL     1      -5.988  14.260  68.305  1.00  0.00    -0.120 C  
HETATM   13  H   UNL     1      -4.848  12.710  68.682  1.00  0.00     0.000 HD 
HETATM   14  O   UNL     1      -5.125  13.485  69.156  1.00  0.00    -0.073 OA 
BRANCH  12  15
HETATM   15  C   UNL     1      -7.167  13.350  67.859  1.00  0.00    -0.133 C  
BRANCH  15  16
HETATM   16  N   UNL     1      -6.950  11.974  68.348  1.00  0.00    -0.074 N  
HETATM   17  C   UNL     1      -6.618  10.940  67.493  1.00  0.00    -0.063 C  
HETATM   18  O   UNL     1      -6.608  11.063  66.267  1.00  0.00    -0.130 OA 
HETATM   19  H   UNL     1      -7.049  11.781  69.345  1.00  0.00     0.000 HD 
BRANCH  17  20
HETATM   20  C   UNL     1      -6.329   9.589  68.182  1.00  0.00    -0.057 C  
BRANCH  20  21
HETATM   21  N   UNL     1      -7.519   9.160  68.912  1.00  0.00    -0.074 N  
HETATM   22  H   UNL     1      -8.242   8.655  68.400  1.00  0.00     0.000 HD 
HETATM   23  C   UNL     1      -7.718   9.399  70.250  1.00  0.00    -0.144 C  
HETATM   24  O   UNL     1      -6.872   9.925  70.969  1.00  0.00    -0.320 OA 
BRANCH  23  25
HETATM   25  C   UNL     1      -9.023   8.929  70.801  1.00  0.00    -0.209 A  
HETATM   26  N   UNL     1     -10.073   9.787  70.679  1.00  0.00    -0.246 NA 
HETATM   27  C   UNL     1     -11.245   9.411  71.218  1.00  0.00    -0.367 A  
HETATM   28  C   UNL     1     -11.418   8.170  71.869  1.00  0.00    -0.357 A  
HETATM   29  C   UNL     1     -10.324   7.297  71.938  1.00  0.00    -0.210 A  
HETATM   30  C   UNL     1     -12.657   7.832  72.438  1.00  0.00    -0.105 A  
HETATM   31  C   UNL     1      -9.103   7.682  71.400  1.00  0.00    -0.146 A  
HETATM   32  C   UNL     1     -13.726   8.721  72.370  1.00  0.00    -0.471 A  
HETATM   33  C   UNL     1     -13.567   9.941  71.720  1.00  0.00    -0.363 A  
HETATM   34  C   UNL     1     -12.334  10.271  71.149  1.00  0.00    -0.501 A  
ENDBRANCH  23  25
ENDBRANCH  20  21
BRANCH  20  35
HETATM   35  C   UNL     1      -5.780   8.532  67.226  1.00  0.00    -0.039 C  
BRANCH  35  36
HETATM   36  C   UNL     1      -6.836   7.597  66.686  1.00  0.00    -0.066 C  
HETATM   37  N   UNL     1      -6.604   6.267  66.858  1.00  0.00    -0.056 N  
HETATM   38  O   UNL     1      -7.831   7.993  66.091  1.00  0.00    -0.088 OA 
HETATM   39  H2  UNL     1      -5.766   5.922  67.324  1.00  0.00     0.000 HD 
HETATM   40  H1  UNL     1      -7.318   5.636  66.493  1.00  0.00     0.000 HD 
ENDBRANCH  35  36
ENDBRANCH  20  35
ENDBRANCH  17  20
ENDBRANCH  15  16
BRANCH  15  41
HETATM   41  C   UNL     1      -8.560  13.887  68.280  1.00  0.00    -0.177 C  
BRANCH  41  42
HETATM   42  C   UNL     1      -9.737  13.524  67.400  1.00  0.00    -0.229 A  
HETATM   43  C   UNL     1      -9.546  13.053  66.094  1.00  0.00    -0.209 A  
HETATM   44  C   UNL     1     -11.923  12.647  65.852  1.00  0.00    -0.497 A  
HETATM   45  C   UNL     1     -10.632  12.623  65.324  1.00  0.00    -0.317 A  
HETATM   46  C   UNL     1     -11.044  13.551  67.914  1.00  0.00    -0.288 A  
HETATM   47  C   UNL     1     -12.127  13.116  67.147  1.00  0.00    -0.343 A  
ENDBRANCH  41  42
ENDBRANCH  15  41
ENDBRANCH  12  15
ENDBRANCH  11  12
ENDBRANCH   8  11
BRANCH   9  48
HETATM   48  C   UNL     1      -8.786  17.966  68.484  1.00  0.00    -0.292 C  
HETATM   49  C   UNL     1     -10.563  18.795  66.110  1.00  0.00    -0.435 C  
HETATM   50  O   UNL     1      -9.612  18.679  69.050  1.00  0.00    -0.315 OA 
HETATM   51  C   UNL     1     -11.532  16.876  67.425  1.00  0.00     0.516 C  
HETATM   52  C   UNL     1     -10.334  17.347  66.582  1.00  0.00    -0.306 C  
HETATM   53  N   UNL     1      -9.080  17.229  67.350  1.00  0.00    -0.225 N  
HETATM   54  C   UNL     1     -10.249  16.451  65.332  1.00  0.00    -0.218 C  
HETATM   55  H   UNL     1      -8.383  16.560  67.022  1.00  0.00     0.000 HD 
ENDBRANCH   9  48
TORSDOF 12
ENDMDL
MODEL       39
REMARK 921   NORMALIZED FREE ENERGY PREDICTED BY IDOCK:   -5.71 KCAL/MOL
REMARK 922        TOTAL FREE ENERGY PREDICTED BY IDOCK:  -13.82 KCAL/MOL
REMARK 923 INTER-LIGAND FREE ENERGY PREDICTED BY IDOCK:  -11.43 KCAL/MOL
REMARK 924 INTRA-LIGAND FREE ENERGY PREDICTED BY IDOCK:   -2.39 KCAL/MOL
REMARK 927      BINDING AFFINITY PREDICTED BY RF-SCORE:    0.00 PKD
ROOT
HETATM    1  C   UNL     1      -8.596   4.905  68.136  1.00  0.00    -0.104 C  
HETATM    2  C   UNL     1      -8.280   3.419  67.919  1.00  0.00    -0.086 C  
HETATM    3  C   UNL     1      -8.452   3.000  66.462  1.00  0.00    -0.106 C  
HETATM    4  C   UNL     1      -9.859   3.310  65.965  1.00  0.00     0.186 C  
HETATM    5  C   UNL     1     -10.208   4.785  66.142  1.00  0.00    -0.313 C  
HETATM    6  C   UNL     1      -9.968   5.279  67.575  1.00  0.00    -0.206 C  
HETATM    7  C   UNL     1     -10.162   6.788  67.729  1.00  0.00    -0.171 C  
HETATM    8  N   UNL     1      -9.232   7.613  66.943  1.00  0.00    -0.138 NA 
HETATM    9  C   UNL     1      -7.828   7.123  66.922  1.00  0.00    -0.107 C  
HETATM   10  C   UNL     1      -7.460   5.804  67.632  1.00  0.00    -0.078 C  
ENDROOT
BRANCH   8  11
HETATM   11  C   UNL     1      -9.314   9.018  67.441  1.00  0.00    -0.139 C  
BRANCH  11  12
HETATM   12  C   UNL     1      -9.419   9.203  68.978  1.00  0.00    -0.152 C  
HETATM   13  H   UNL     1      -8.252   9.884  70.399  1.00  0.00     0.000 HD 
HETATM   14  O   UNL     1      -8.188   9.771  69.458  1.00  0.00    -0.114 OA 
BRANCH  12  15
HETATM   15  C   UNL     1     -10.582  10.137  69.414  1.00  0.00    -0.237 C  
BRANCH  15  16
HETATM   16  N   UNL     1     -11.050  10.928  68.258  1.00  0.00    -0.243 N  
HETATM   17  C   UNL     1     -11.644  12.166  68.413  1.00  0.00    -0.327 C  
HETATM   18  O   UNL     1     -11.939  12.632  69.515  1.00  0.00    -0.306 OA 
HETATM   19  H   UNL     1     -10.933  10.549  67.318  1.00  0.00     0.000 HD 
BRANCH  17  20
HETATM   20  C   UNL     1     -11.982  12.900  67.098  1.00  0.00    -0.310 C  
BRANCH  20  21
HETATM   21  N   UNL     1     -11.488  14.272  67.176  1.00  0.00    -0.341 N  
HETATM   22  H   UNL     1     -12.166  15.032  67.112  1.00  0.00     0.000 HD 
HETATM   23  C   UNL     1     -10.162  14.597  67.329  1.00  0.00    -0.241 C  
HETATM   24  O   UNL     1      -9.283  13.756  67.498  1.00  0.00    -0.199 OA 
BRANCH  23  25
HETATM   25  C   UNL     1      -9.852  16.057  67.332  1.00  0.00    -0.236 A  
HETATM   26  N   UNL     1      -8.578  16.402  67.666  1.00  0.00    -0.173 NA 
HETATM   27  C   UNL     1      -8.288  17.712  67.731  1.00  0.00    -0.226 A  
HETATM   28  C   UNL     1      -9.241  18.715  67.446  1.00  0.00    -0.292 A  
HETATM   29  C   UNL     1     -10.530  18.319  67.067  1.00  0.00    -0.407 A  
HETATM   30  C   UNL     1      -8.897  20.072  67.551  1.00  0.00    -0.426 A  
HETATM   31  C   UNL     1     -10.847  16.968  67.013  1.00  0.00    -0.048 A  
HETATM   32  C   UNL     1      -7.613  20.443  67.944  1.00  0.00    -0.243 A  
HETATM   33  C   UNL     1      -6.666  19.460  68.215  1.00  0.00    -0.293 A  
HETATM   34  C   UNL     1      -7.010  18.110  68.102  1.00  0.00    -0.222 A  
ENDBRANCH  23  25
ENDBRANCH  20  21
BRANCH  20  35
HETATM   35  C   UNL     1     -11.516  12.148  65.853  1.00  0.00    -0.418 C  
BRANCH  35  36
HETATM   36  C   UNL     1     -12.190  12.606  64.582  1.00  0.00    -0.452 C  
HETATM   37  N   UNL     1     -11.843  11.942  63.446  1.00  0.00    -0.723 N  
HETATM   38  O   UNL     1     -12.977  13.544  64.550  1.00  0.00    -0.643 OA 
HETATM   39  H2  UNL     1     -11.167  11.179  63.453  1.00  0.00     0.000 HD 
HETATM   40  H1  UNL     1     -12.299  12.252  62.588  1.00  0.00     0.000 HD 
ENDBRANCH  35  36
ENDBRANCH  20  35
ENDBRANCH  17  20
ENDBRANCH  15  16
BRANCH  15  41
HETATM   41  C   UNL     1     -11.756   9.389  70.098  1.00  0.00    -0.057 C  
BRANCH  41  42
HETATM   42  C   UNL     1     -11.400   8.295  71.084  1.00  0.00    -0.298 A  
HETATM   43  C   UNL     1     -10.761   8.592  72.295  1.00  0.00    -0.383 A  
HETATM   44  C   UNL     1     -10.941   6.281  73.001  1.00  0.00    -0.271 A  
HETATM   45  C   UNL     1     -10.529   7.591  73.244  1.00  0.00    -0.426 A  
HETATM   46  C   UNL     1     -11.802   6.971  70.850  1.00  0.00    -0.401 A  
HETATM   47  C   UNL     1     -11.575   5.972  71.799  1.00  0.00    -0.288 A  
ENDBRANCH  41  42
ENDBRANCH  15  41
ENDBRANCH  12  15
ENDBRANCH  11  12
ENDBRANCH   8  11
BRANCH   9  48
HETATM   48  C   UNL     1      -7.299   7.072  65.453  1.00  0.00    -0.080 C  
HETATM   49  C   UNL     1      -8.002   6.680  62.481  1.00  0.00    -0.102 C  
HETATM   50  O   UNL     1      -6.441   6.258  65.116  1.00  0.00    -0.037 OA 
HETATM   51  C   UNL     1      -6.114   8.313  62.824  1.00  0.00    -0.082 C  
HETATM   52  C   UNL     1      -7.594   8.017  63.126  1.00  0.00    -0.126 C  
HETATM   53  N   UNL     1      -7.835   8.003  64.581  1.00  0.00    -0.133 N  
HETATM   54  C   UNL     1      -8.443   9.130  62.482  1.00  0.00    -0.209 C  
HETATM   55  H   UNL     1      -8.439   8.727  64.970  1.00  0.00     0.000 HD 
ENDBRANCH   9  48
TORSDOF 12
ENDMDL
MODEL       40
REMARK 921   NORMALIZED FREE ENERGY PREDICTED BY IDOCK:   -5.68 KCAL/MOL
REMARK 922        TOTAL FREE ENERGY PREDICTED BY IDOCK:  -13.76 KCAL/MOL
REMARK 923 INTER-LIGAND FREE ENERGY PREDICTED BY IDOCK:   -9.02 KCAL/MOL
REMARK 924 INTRA-LIGAND FREE ENERGY PREDICTED BY IDOCK:   -4.74 KCAL/MOL
REMARK 927      BINDING AFFINITY PREDICTED BY RF-SCORE:    0.00 PKD
ROOT
HETATM    1  C   UNL     1     -11.296   9.347  70.489  1.00  0.00    -0.328 C  
HETATM    2  C   UNL     1     -12.521   9.181  71.398  1.00  0.00    -0.396 C  
HETATM    3  C   UNL     1     -12.499   7.858  72.159  1.00  0.00    -0.304 C  
HETATM    4  C   UNL     1     -12.398   6.677  71.200  1.00  0.00    -0.310 C  
HETATM    5  C   UNL     1     -11.179   6.791  70.290  1.00  0.00    -0.385 C  
HETATM    6  C   UNL     1     -11.108   8.143  69.567  1.00  0.00     0.040 C  
HETATM    7  C   UNL     1      -9.814   8.333  68.775  1.00  0.00    -0.173 C  
HETATM    8  N   UNL     1      -8.589   8.337  69.589  1.00  0.00    -0.128 NA 
HETATM    9  C   UNL     1      -8.696   9.078  70.874  1.00  0.00    -0.229 C  
HETATM   10  C   UNL     1     -10.040   9.708  71.292  1.00  0.00    -0.026 C  
ENDROOT
BRANCH   8  11
HETATM   11  C   UNL     1      -7.469   8.856  68.750  1.00  0.00    -0.083 C  
BRANCH  11  12
HETATM   12  C   UNL     1      -7.076  10.342  68.962  1.00  0.00    -0.076 C  
HETATM   13  H   UNL     1      -5.406  11.372  68.973  1.00  0.00     0.000 HD 
HETATM   14  O   UNL     1      -5.647  10.462  68.843  1.00  0.00    -0.042 OA 
BRANCH  12  15
HETATM   15  C   UNL     1      -7.726  11.311  67.935  1.00  0.00    -0.110 C  
BRANCH  15  16
HETATM   16  N   UNL     1      -7.889  10.628  66.636  1.00  0.00    -0.129 N  
HETATM   17  C   UNL     1      -6.917  10.686  65.654  1.00  0.00    -0.078 C  
HETATM   18  O   UNL     1      -5.922  11.407  65.741  1.00  0.00    -0.063 OA 
HETATM   19  H   UNL     1      -8.743  10.098  66.458  1.00  0.00     0.000 HD 
BRANCH  17  20
HETATM   20  C   UNL     1      -7.203   9.834  64.400  1.00  0.00    -0.129 C  
BRANCH  20  21
HETATM   21  N   UNL     1      -7.691   8.521  64.814  1.00  0.00    -0.101 N  
HETATM   22  H   UNL     1      -8.395   8.479  65.550  1.00  0.00     0.000 HD 
HETATM   23  C   UNL     1      -7.254   7.340  64.266  1.00  0.00    -0.075 C  
HETATM   24  O   UNL     1      -6.472   7.289  63.320  1.00  0.00    -0.051 OA 
BRANCH  23  25
HETATM   25  C   UNL     1      -7.833   6.100  64.863  1.00  0.00    -0.108 A  
HETATM   26  N   UNL     1      -8.003   6.104  66.214  1.00  0.00    -0.104 NA 
HETATM   27  C   UNL     1      -8.470   4.980  66.782  1.00  0.00    -0.106 A  
HETATM   28  C   UNL     1      -8.804   3.831  66.031  1.00  0.00    -0.126 A  
HETATM   29  C   UNL     1      -8.653   3.881  64.639  1.00  0.00    -0.110 A  
HETATM   30  C   UNL     1      -9.266   2.671  66.673  1.00  0.00    -0.094 A  
HETATM   31  C   UNL     1      -8.155   5.031  64.041  1.00  0.00    -0.119 A  
HETATM   32  C   UNL     1      -9.393   2.639  68.059  1.00  0.00    -0.255 A  
HETATM   33  C   UNL     1      -9.077   3.771  68.805  1.00  0.00    -0.199 A  
HETATM   34  C   UNL     1      -8.625   4.927  68.162  1.00  0.00    -0.104 A  
ENDBRANCH  23  25
ENDBRANCH  20  21
BRANCH  20  35
HETATM   35  C   UNL     1      -8.109  10.536  63.390  1.00  0.00    -0.076 C  
BRANCH  35  36
HETATM   36  C   UNL     1      -9.579  10.420  63.712  1.00  0.00    -0.310 C  
HETATM   37  N   UNL     1     -10.440  10.681  62.692  1.00  0.00    -0.666 N  
HETATM   38  O   UNL     1      -9.993  10.147  64.833  1.00  0.00    -0.329 OA 
HETATM   39  H2  UNL     1     -10.111  10.940  61.762  1.00  0.00     0.000 HD 
HETATM   40  H1  UNL     1     -11.433  10.603  62.910  1.00  0.00     0.000 HD 
ENDBRANCH  35  36
ENDBRANCH  20  35
ENDBRANCH  17  20
ENDBRANCH  15  16
BRANCH  15  41
HETATM   41  C   UNL     1      -9.065  11.924  68.422  1.00  0.00    -0.167 C  
BRANCH  41  42
HETATM   42  C   UNL     1      -9.947  12.578  67.379  1.00  0.00    -0.207 A  
HETATM   43  C   UNL     1      -9.428  13.520  66.479  1.00  0.00    -0.265 A  
HETATM   44  C   UNL     1     -11.546  13.622  65.306  1.00  0.00    -0.334 A  
HETATM   45  C   UNL     1     -10.224  14.041  65.454  1.00  0.00    -0.368 A  
HETATM   46  C   UNL     1     -11.282  12.173  67.222  1.00  0.00    -0.366 A  
HETATM   47  C   UNL     1     -12.075  12.690  66.195  1.00  0.00    -0.399 A  
ENDBRANCH  41  42
ENDBRANCH  15  41
ENDBRANCH  12  15
ENDBRANCH  11  12
ENDBRANCH   8  11
BRANCH   9  48
HETATM   48  C   UNL     1      -8.163   8.197  72.049  1.00  0.00    -0.149 C  
HETATM   49  C   UNL     1      -8.842   6.109  74.208  1.00  0.00    -0.135 C  
HETATM   50  O   UNL     1      -7.641   8.707  73.038  1.00  0.00    -0.352 OA 
HETATM   51  C   UNL     1      -6.509   5.837  73.295  1.00  0.00    -0.068 C  
HETATM   52  C   UNL     1      -8.007   5.836  72.943  1.00  0.00    -0.108 C  
HETATM   53  N   UNL     1      -8.295   6.828  71.890  1.00  0.00    -0.109 N  
HETATM   54  C   UNL     1      -8.375   4.430  72.429  1.00  0.00    -0.109 C  
HETATM   55  H   UNL     1      -8.613   6.482  70.985  1.00  0.00     0.000 HD 
ENDBRANCH   9  48
TORSDOF 12
ENDMDL
MODEL       41
REMARK 921   NORMALIZED FREE ENERGY PREDICTED BY IDOCK:   -5.67 KCAL/MOL
REMARK 922        TOTAL FREE ENERGY PREDICTED BY IDOCK:  -13.74 KCAL/MOL
REMARK 923 INTER-LIGAND FREE ENERGY PREDICTED BY IDOCK:  -12.37 KCAL/MOL
REMARK 924 INTRA-LIGAND FREE ENERGY PREDICTED BY IDOCK:   -1.38 KCAL/MOL
REMARK 927      BINDING AFFINITY PREDICTED BY RF-SCORE:    0.00 PKD
ROOT
HETATM    1  C   UNL     1      -9.897  18.662  68.415  1.00  0.00    -0.424 C  
HETATM    2  C   UNL     1     -10.361  19.959  67.738  1.00  0.00    -0.548 C  
HETATM    3  C   UNL     1     -10.021  19.986  66.251  1.00  0.00    -0.597 C  
HETATM    4  C   UNL     1      -8.526  19.788  66.027  1.00  0.00    -0.304 C  
HETATM    5  C   UNL     1      -8.025  18.497  66.667  1.00  0.00    -0.278 C  
HETATM    6  C   UNL     1      -8.419  18.381  68.145  1.00  0.00    -0.301 C  
HETATM    7  C   UNL     1      -8.062  17.025  68.756  1.00  0.00    -0.250 C  
HETATM    8  N   UNL     1      -8.748  15.875  68.148  1.00  0.00    -0.169 NA 
HETATM    9  C   UNL     1     -10.182  16.102  67.828  1.00  0.00    -0.267 C  
HETATM   10  C   UNL     1     -10.820  17.484  68.074  1.00  0.00    -0.260 C  
ENDROOT
BRANCH   8  11
HETATM   11  C   UNL     1      -8.566  14.693  69.042  1.00  0.00    -0.097 C  
BRANCH  11  12
HETATM   12  C   UNL     1      -9.859  13.964  69.496  1.00  0.00     0.633 C  
HETATM   13  H   UNL     1     -11.734  14.463  69.779  1.00  0.00     0.000 HD 
HETATM   14  O   UNL     1     -10.943  14.910  69.501  1.00  0.00    -0.256 OA 
BRANCH  12  15
HETATM   15  C   UNL     1     -10.260  12.778  68.574  1.00  0.00    -0.200 C  
BRANCH  15  16
HETATM   16  N   UNL     1      -9.334  11.647  68.780  1.00  0.00    -0.382 N  
HETATM   17  C   UNL     1      -8.995  10.786  67.753  1.00  0.00    -0.137 C  
HETATM   18  O   UNL     1      -9.534  10.821  66.646  1.00  0.00    -0.170 OA 
HETATM   19  H   UNL     1      -8.933  11.497  69.706  1.00  0.00     0.000 HD 
BRANCH  17  20
HETATM   20  C   UNL     1      -7.938   9.721  68.115  1.00  0.00    -0.100 C  
BRANCH  20  21
HETATM   21  N   UNL     1      -8.471   8.855  69.164  1.00  0.00    -0.130 N  
HETATM   22  H   UNL     1      -9.135   8.128  68.897  1.00  0.00     0.000 HD 
HETATM   23  C   UNL     1      -8.128   8.965  70.489  1.00  0.00    -0.135 C  
HETATM   24  O   UNL     1      -7.277   9.752  70.897  1.00  0.00    -0.310 OA 
BRANCH  23  25
HETATM   25  C   UNL     1      -8.822   8.022  71.415  1.00  0.00    -0.141 A  
HETATM   26  N   UNL     1      -8.951   6.738  70.981  1.00  0.00    -0.145 NA 
HETATM   27  C   UNL     1      -9.621   5.882  71.771  1.00  0.00    -0.151 A  
HETATM   28  C   UNL     1     -10.162   6.265  73.018  1.00  0.00    -0.213 A  
HETATM   29  C   UNL     1      -9.973   7.586  73.447  1.00  0.00    -0.378 A  
HETATM   30  C   UNL     1     -10.876   5.341  73.798  1.00  0.00    -0.315 A  
HETATM   31  C   UNL     1      -9.297   8.484  72.632  1.00  0.00    -0.284 A  
HETATM   32  C   UNL     1     -11.064   4.038  73.345  1.00  0.00    -0.341 A  
HETATM   33  C   UNL     1     -10.525   3.650  72.122  1.00  0.00    -0.018 A  
HETATM   34  C   UNL     1      -9.807   4.571  71.352  1.00  0.00    -0.264 A  
ENDBRANCH  23  25
ENDBRANCH  20  21
BRANCH  20  35
HETATM   35  C   UNL     1      -7.409   8.961  66.900  1.00  0.00    -0.083 C  
BRANCH  35  36
HETATM   36  C   UNL     1      -8.185   7.704  66.587  1.00  0.00    -0.124 C  
HETATM   37  N   UNL     1      -9.010   7.762  65.507  1.00  0.00    -0.380 N  
HETATM   38  O   UNL     1      -8.119   6.695  67.278  1.00  0.00    -0.117 OA 
HETATM   39  H2  UNL     1      -9.099   8.605  64.940  1.00  0.00     0.000 HD 
HETATM   40  H1  UNL     1      -9.534   6.913  65.296  1.00  0.00     0.000 HD 
ENDBRANCH  35  36
ENDBRANCH  20  35
ENDBRANCH  17  20
ENDBRANCH  15  16
BRANCH  15  41
HETATM   41  C   UNL     1     -11.738  12.335  68.740  1.00  0.00    -0.390 C  
BRANCH  41  42
HETATM   42  C   UNL     1     -12.053  11.390  69.880  1.00  0.00    -0.404 A  
HETATM   43  C   UNL     1     -12.641  11.855  71.065  1.00  0.00    -0.381 A  
HETATM   44  C   UNL     1     -12.835   9.590  71.903  1.00  0.00    -0.508 A  
HETATM   45  C   UNL     1     -13.024  10.962  72.070  1.00  0.00    -0.418 A  
HETATM   46  C   UNL     1     -11.862  10.007  69.730  1.00  0.00    -0.087 A  
HETATM   47  C   UNL     1     -12.250   9.114  70.732  1.00  0.00    -0.151 A  
ENDBRANCH  41  42
ENDBRANCH  15  41
ENDBRANCH  12  15
ENDBRANCH  11  12
ENDBRANCH   8  11
BRANCH   9  48
HETATM   48  C   UNL     1     -10.481  15.661  66.359  1.00  0.00    -0.305 C  
HETATM   49  C   UNL     1     -10.301  13.410  64.265  1.00  0.00    -0.249 C  
HETATM   50  O   UNL     1     -10.001  16.269  65.404  1.00  0.00    -0.514 OA 
HETATM   51  C   UNL     1     -12.348  14.849  63.970  1.00  0.00    -0.089 C  
HETATM   52  C   UNL     1     -11.601  13.903  64.926  1.00  0.00    -0.359 C  
HETATM   53  N   UNL     1     -11.325  14.574  66.211  1.00  0.00    -0.347 N  
HETATM   54  C   UNL     1     -12.497  12.675  65.178  1.00  0.00    -0.531 C  
HETATM   55  H   UNL     1     -11.787  14.212  67.045  1.00  0.00     0.000 HD 
ENDBRANCH   9  48
TORSDOF 12
ENDMDL
MODEL       42
REMARK 921   NORMALIZED FREE ENERGY PREDICTED BY IDOCK:   -5.67 KCAL/MOL
REMARK 922        TOTAL FREE ENERGY PREDICTED BY IDOCK:  -13.74 KCAL/MOL
REMARK 923 INTER-LIGAND FREE ENERGY PREDICTED BY IDOCK:  -12.65 KCAL/MOL
REMARK 924 INTRA-LIGAND FREE ENERGY PREDICTED BY IDOCK:   -1.09 KCAL/MOL
REMARK 927      BINDING AFFINITY PREDICTED BY RF-SCORE:    0.00 PKD
ROOT
HETATM    1  C   UNL     1     -10.691  17.550  66.530  1.00  0.00    -0.085 C  
HETATM    2  C   UNL     1     -10.340  18.876  65.842  1.00  0.00    -0.408 C  
HETATM    3  C   UNL     1      -9.198  19.605  66.545  1.00  0.00    -0.449 C  
HETATM    4  C   UNL     1      -9.527  19.852  68.013  1.00  0.00    -0.458 C  
HETATM    5  C   UNL     1      -9.863  18.555  68.742  1.00  0.00    -0.411 C  
HETATM    6  C   UNL     1     -10.947  17.740  68.025  1.00  0.00    -0.088 C  
HETATM    7  C   UNL     1     -11.182  16.367  68.656  1.00  0.00    -0.332 C  
HETATM    8  N   UNL     1     -10.021  15.464  68.617  1.00  0.00    -0.205 NA 
HETATM    9  C   UNL     1      -9.255  15.487  67.343  1.00  0.00    -0.202 C  
HETATM   10  C   UNL     1      -9.660  16.459  66.216  1.00  0.00    -0.338 C  
ENDROOT
BRANCH   8  11
HETATM   11  C   UNL     1     -10.485  14.086  68.952  1.00  0.00    -0.200 C  
BRANCH  11  12
HETATM   12  C   UNL     1     -11.496  13.438  67.968  1.00  0.00    -0.304 C  
HETATM   13  H   UNL     1     -12.418  13.990  66.328  1.00  0.00     0.000 HD 
HETATM   14  O   UNL     1     -11.800  14.386  66.931  1.00  0.00    -0.392 OA 
BRANCH  12  15
HETATM   15  C   UNL     1     -10.963  12.142  67.294  1.00  0.00    -0.260 C  
BRANCH  15  16
HETATM   16  N   UNL     1     -11.298  10.970  68.128  1.00  0.00    -0.292 N  
HETATM   17  C   UNL     1     -10.373  10.391  68.977  1.00  0.00    -0.214 C  
HETATM   18  O   UNL     1      -9.187  10.724  69.000  1.00  0.00    -0.180 OA 
HETATM   19  H   UNL     1     -12.237  10.576  68.076  1.00  0.00     0.000 HD 
BRANCH  17  20
HETATM   20  C   UNL     1     -10.916   9.239  69.849  1.00  0.00    -0.213 C  
BRANCH  20  21
HETATM   21  N   UNL     1     -10.422   7.968  69.325  1.00  0.00    -0.221 N  
HETATM   22  H   UNL     1      -9.528   7.965  68.833  1.00  0.00     0.000 HD 
HETATM   23  C   UNL     1     -11.094   6.778  69.456  1.00  0.00    -0.273 C  
HETATM   24  O   UNL     1     -12.134   6.664  70.101  1.00  0.00    -0.323 OA 
BRANCH  23  25
HETATM   25  C   UNL     1     -10.451   5.599  68.805  1.00  0.00    -0.219 A  
HETATM   26  N   UNL     1     -10.509   5.557  67.445  1.00  0.00    -0.226 NA 
HETATM   27  C   UNL     1      -9.987   4.479  66.836  1.00  0.00    -0.198 A  
HETATM   28  C   UNL     1      -9.375   3.426  67.552  1.00  0.00    -0.248 A  
HETATM   29  C   UNL     1      -9.298   3.526  68.947  1.00  0.00    -0.236 A  
HETATM   30  C   UNL     1      -8.865   2.307  66.873  1.00  0.00    -0.146 A  
HETATM   31  C   UNL     1      -9.849   4.628  69.588  1.00  0.00    -0.293 A  
HETATM   32  C   UNL     1      -8.964   2.222  65.486  1.00  0.00    -0.122 A  
HETATM   33  C   UNL     1      -9.557   3.260  64.774  1.00  0.00    -0.149 A  
HETATM   34  C   UNL     1     -10.057   4.376  65.453  1.00  0.00    -0.238 A  
ENDBRANCH  23  25
ENDBRANCH  20  21
BRANCH  20  35
HETATM   35  C   UNL     1     -10.648   9.435  71.339  1.00  0.00    -0.381 C  
BRANCH  35  36
HETATM   36  C   UNL     1      -9.426   8.701  71.837  1.00  0.00    -0.299 C  
HETATM   37  N   UNL     1      -9.653   7.668  72.692  1.00  0.00    -0.165 N  
HETATM   38  O   UNL     1      -8.286   9.028  71.530  1.00  0.00    -0.303 OA 
HETATM   39  H2  UNL     1     -10.595   7.403  72.980  1.00  0.00     0.000 HD 
HETATM   40  H1  UNL     1      -8.827   7.172  73.027  1.00  0.00     0.000 HD 
ENDBRANCH  35  36
ENDBRANCH  20  35
ENDBRANCH  17  20
ENDBRANCH  15  16
BRANCH  15  41
HETATM   41  C   UNL     1     -11.454  11.955  65.835  1.00  0.00    -0.340 C  
BRANCH  41  42
HETATM   42  C   UNL     1     -10.505  11.281  64.866  1.00  0.00    -0.375 A  
HETATM   43  C   UNL     1      -9.768  10.150  65.242  1.00  0.00    -0.365 A  
HETATM   44  C   UNL     1      -8.911   9.911  62.989  1.00  0.00    -0.273 A  
HETATM   45  C   UNL     1      -8.974   9.473  64.311  1.00  0.00    -0.248 A  
HETATM   46  C   UNL     1     -10.425  11.715  63.533  1.00  0.00    -0.498 A  
HETATM   47  C   UNL     1      -9.636  11.036  62.602  1.00  0.00    -0.285 A  
ENDBRANCH  41  42
ENDBRANCH  15  41
ENDBRANCH  12  15
ENDBRANCH  11  12
ENDBRANCH   8  11
BRANCH   9  48
HETATM   48  C   UNL     1      -7.730  15.658  67.635  1.00  0.00    -0.156 C  
HETATM   49  C   UNL     1      -5.142  17.189  66.970  1.00  0.00    -0.184 C  
HETATM   50  O   UNL     1      -6.944  14.727  67.469  1.00  0.00    -0.175 OA 
HETATM   51  C   UNL     1      -5.255  16.476  69.384  1.00  0.00    -0.134 C  
HETATM   52  C   UNL     1      -5.932  17.314  68.286  1.00  0.00    -0.148 C  
HETATM   53  N   UNL     1      -7.336  16.898  68.106  1.00  0.00    -0.173 N  
HETATM   54  C   UNL     1      -5.893  18.791  68.722  1.00  0.00    -0.217 C  
HETATM   55  H   UNL     1      -8.065  17.570  68.344  1.00  0.00     0.000 HD 
ENDBRANCH   9  48
TORSDOF 12
ENDMDL
MODEL       43
REMARK 921   NORMALIZED FREE ENERGY PREDICTED BY IDOCK:   -5.62 KCAL/MOL
REMARK 922        TOTAL FREE ENERGY PREDICTED BY IDOCK:  -13.66 KCAL/MOL
REMARK 923 INTER-LIGAND FREE ENERGY PREDICTED BY IDOCK:  -11.28 KCAL/MOL
REMARK 924 INTRA-LIGAND FREE ENERGY PREDICTED BY IDOCK:   -2.38 KCAL/MOL
REMARK 927      BINDING AFFINITY PREDICTED BY RF-SCORE:    0.00 PKD
ROOT
HETATM    1  C   UNL     1     -10.211  18.965  66.348  1.00  0.00    -0.481 C  
HETATM    2  C   UNL     1      -9.302  20.022  65.706  1.00  0.00    -0.098 C  
HETATM    3  C   UNL     1      -7.970  20.158  66.438  1.00  0.00    -0.298 C  
HETATM    4  C   UNL     1      -8.185  20.482  67.912  1.00  0.00    -0.080 C  
HETATM    5  C   UNL     1      -9.067  19.442  68.596  1.00  0.00    -0.423 C  
HETATM    6  C   UNL     1     -10.385  19.205  67.847  1.00  0.00    -0.505 C  
HETATM    7  C   UNL     1     -11.208  18.055  68.431  1.00  0.00     0.702 C  
HETATM    8  N   UNL     1     -10.558  16.737  68.367  1.00  0.00    -0.336 NA 
HETATM    9  C   UNL     1      -9.836  16.459  67.097  1.00  0.00    -0.249 C  
HETATM   10  C   UNL     1      -9.754  17.542  66.002  1.00  0.00    -0.160 C  
ENDROOT
BRANCH   8  11
HETATM   11  C   UNL     1     -11.584  15.692  68.654  1.00  0.00    -0.382 C  
BRANCH  11  12
HETATM   12  C   UNL     1     -11.078  14.394  69.337  1.00  0.00    -0.261 C  
HETATM   13  H   UNL     1     -11.849  13.025  70.510  1.00  0.00     0.000 HD 
HETATM   14  O   UNL     1     -12.159  13.819  70.091  1.00  0.00    -0.319 OA 
BRANCH  12  15
HETATM   15  C   UNL     1     -10.568  13.321  68.333  1.00  0.00    -0.252 C  
BRANCH  15  16
HETATM   16  N   UNL     1      -9.592  12.436  68.999  1.00  0.00    -0.357 N  
HETATM   17  C   UNL     1      -8.556  11.840  68.305  1.00  0.00    -0.162 C  
HETATM   18  O   UNL     1      -8.452  11.899  67.079  1.00  0.00    -0.166 OA 
HETATM   19  H   UNL     1      -9.685  12.258  70.000  1.00  0.00     0.000 HD 
BRANCH  17  20
HETATM   20  C   UNL     1      -7.570  11.028  69.171  1.00  0.00    -0.113 C  
BRANCH  20  21
HETATM   21  N   UNL     1      -8.319  10.063  69.972  1.00  0.00    -0.324 N  
HETATM   22  H   UNL     1      -8.183  10.068  70.983  1.00  0.00     0.000 HD 
HETATM   23  C   UNL     1      -9.196   9.151  69.439  1.00  0.00    -0.156 C  
HETATM   24  O   UNL     1      -9.490   9.121  68.247  1.00  0.00    -0.141 OA 
BRANCH  23  25
HETATM   25  C   UNL     1      -9.824   8.214  70.418  1.00  0.00    -0.186 A  
HETATM   26  N   UNL     1      -9.143   7.062  70.671  1.00  0.00    -0.158 NA 
HETATM   27  C   UNL     1      -9.713   6.176  71.505  1.00  0.00    -0.162 A  
HETATM   28  C   UNL     1     -10.959   6.413  72.128  1.00  0.00    -0.288 A  
HETATM   29  C   UNL     1     -11.609   7.628  71.873  1.00  0.00    -0.321 A  
HETATM   30  C   UNL     1     -11.526   5.446  72.973  1.00  0.00    -0.324 A  
HETATM   31  C   UNL     1     -11.037   8.544  71.000  1.00  0.00    -0.306 A  
HETATM   32  C   UNL     1     -10.869   4.239  73.200  1.00  0.00    -0.303 A  
HETATM   33  C   UNL     1      -9.637   4.003  72.598  1.00  0.00    -0.185 A  
HETATM   34  C   UNL     1      -9.071   4.972  71.764  1.00  0.00    -0.160 A  
ENDBRANCH  23  25
ENDBRANCH  20  21
BRANCH  20  35
HETATM   35  C   UNL     1      -6.432  10.406  68.364  1.00  0.00    -0.055 C  
BRANCH  35  36
HETATM   36  C   UNL     1      -5.846   9.168  69.000  1.00  0.00    -0.039 C  
HETATM   37  N   UNL     1      -5.539   8.147  68.154  1.00  0.00    -0.033 N  
HETATM   38  O   UNL     1      -5.687   9.055  70.209  1.00  0.00    -0.032 OA 
HETATM   39  H2  UNL     1      -5.694   8.215  67.149  1.00  0.00     0.000 HD 
HETATM   40  H1  UNL     1      -5.143   7.311  68.583  1.00  0.00     0.000 HD 
ENDBRANCH  35  36
ENDBRANCH  20  35
ENDBRANCH  17  20
ENDBRANCH  15  16
BRANCH  15  41
HETATM   41  C   UNL     1     -11.706  12.506  67.666  1.00  0.00    -0.423 C  
BRANCH  41  42
HETATM   42  C   UNL     1     -11.882  12.659  66.169  1.00  0.00    -0.477 A  
HETATM   43  C   UNL     1     -12.414  13.833  65.620  1.00  0.00    -0.541 A  
HETATM   44  C   UNL     1     -12.000  13.016  63.376  1.00  0.00    -0.592 A  
HETATM   45  C   UNL     1     -12.477  14.008  64.233  1.00  0.00    -0.303 A  
HETATM   46  C   UNL     1     -11.415  11.666  65.294  1.00  0.00    -0.173 A  
HETATM   47  C   UNL     1     -11.472  11.842  63.910  1.00  0.00    -0.511 A  
ENDBRANCH  41  42
ENDBRANCH  15  41
ENDBRANCH  12  15
ENDBRANCH  11  12
ENDBRANCH   8  11
BRANCH   9  48
HETATM   48  C   UNL     1      -8.395  15.937  67.401  1.00  0.00    -0.171 C  
HETATM   49  C   UNL     1      -5.394  16.612  67.542  1.00  0.00    -0.158 C  
HETATM   50  O   UNL     1      -7.915  14.997  66.770  1.00  0.00    -0.150 OA 
HETATM   51  C   UNL     1      -6.089  14.913  69.268  1.00  0.00    -0.107 C  
HETATM   52  C   UNL     1      -6.301  16.349  68.758  1.00  0.00    -0.135 C  
HETATM   53  N   UNL     1      -7.719  16.578  68.424  1.00  0.00    -0.180 N  
HETATM   54  C   UNL     1      -5.881  17.319  69.879  1.00  0.00    -0.240 C  
HETATM   55  H   UNL     1      -8.236  17.255  68.986  1.00  0.00     0.000 HD 
ENDBRANCH   9  48
TORSDOF 12
ENDMDL
MODEL       44
REMARK 921   NORMALIZED FREE ENERGY PREDICTED BY IDOCK:   -5.58 KCAL/MOL
REMARK 922        TOTAL FREE ENERGY PREDICTED BY IDOCK:  -13.59 KCAL/MOL
REMARK 923 INTER-LIGAND FREE ENERGY PREDICTED BY IDOCK:  -11.21 KCAL/MOL
REMARK 924 INTRA-LIGAND FREE ENERGY PREDICTED BY IDOCK:   -2.39 KCAL/MOL
REMARK 927      BINDING AFFINITY PREDICTED BY RF-SCORE:    0.00 PKD
ROOT
HETATM    1  C   UNL     1     -10.468  17.306  66.439  1.00  0.00    -0.263 C  
HETATM    2  C   UNL     1     -10.398  18.721  65.850  1.00  0.00    -0.385 C  
HETATM    3  C   UNL     1      -9.559  19.663  66.709  1.00  0.00    -0.474 C  
HETATM    4  C   UNL     1     -10.090  19.720  68.137  1.00  0.00    -0.574 C  
HETATM    5  C   UNL     1     -10.157  18.333  68.771  1.00  0.00    -0.393 C  
HETATM    6  C   UNL     1     -10.916  17.324  67.900  1.00  0.00    -0.179 C  
HETATM    7  C   UNL     1     -10.856  15.896  68.446  1.00  0.00    -0.316 C  
HETATM    8  N   UNL     1      -9.505  15.317  68.507  1.00  0.00    -0.194 NA 
HETATM    9  C   UNL     1      -8.643  15.617  67.333  1.00  0.00    -0.175 C  
HETATM   10  C   UNL     1      -9.165  16.530  66.205  1.00  0.00    -0.345 C  
ENDROOT
BRANCH   8  11
HETATM   11  C   UNL     1      -9.634  13.847  68.731  1.00  0.00    -0.070 C  
BRANCH  11  12
HETATM   12  C   UNL     1     -10.732  13.116  67.914  1.00  0.00    -0.235 C  
HETATM   13  H   UNL     1     -10.923  12.468  66.073  1.00  0.00     0.000 HD 
HETATM   14  O   UNL     1     -10.251  12.916  66.573  1.00  0.00    -0.250 OA 
BRANCH  12  15
HETATM   15  C   UNL     1     -11.121  11.728  68.497  1.00  0.00    -0.239 C  
BRANCH  15  16
HETATM   16  N   UNL     1      -9.906  10.918  68.715  1.00  0.00    -0.191 N  
HETATM   17  C   UNL     1      -9.501   9.952  67.812  1.00  0.00    -0.140 C  
HETATM   18  O   UNL     1     -10.185   9.614  66.845  1.00  0.00    -0.216 OA 
HETATM   19  H   UNL     1      -9.349  11.074  69.556  1.00  0.00     0.000 HD 
BRANCH  17  20
HETATM   20  C   UNL     1      -8.158   9.269  68.143  1.00  0.00    -0.107 C  
BRANCH  20  21
HETATM   21  N   UNL     1      -8.403   8.135  69.031  1.00  0.00    -0.127 N  
HETATM   22  H   UNL     1      -9.112   7.455  68.758  1.00  0.00     0.000 HD 
HETATM   23  C   UNL     1      -7.732   7.935  70.212  1.00  0.00    -0.088 C  
HETATM   24  O   UNL     1      -6.806   8.650  70.586  1.00  0.00    -0.038 OA 
BRANCH  23  25
HETATM   25  C   UNL     1      -8.164   6.746  71.005  1.00  0.00    -0.119 A  
HETATM   26  N   UNL     1      -8.465   5.624  70.293  1.00  0.00    -0.121 NA 
HETATM   27  C   UNL     1      -8.911   4.558  70.978  1.00  0.00    -0.115 A  
HETATM   28  C   UNL     1      -9.050   4.563  72.384  1.00  0.00    -0.144 A  
HETATM   29  C   UNL     1      -8.692   5.722  73.084  1.00  0.00    -0.122 A  
HETATM   30  C   UNL     1      -9.543   3.431  73.053  1.00  0.00    -0.155 A  
HETATM   31  C   UNL     1      -8.245   6.837  72.385  1.00  0.00    -0.105 A  
HETATM   32  C   UNL     1      -9.907   2.294  72.336  1.00  0.00    -0.207 A  
HETATM   33  C   UNL     1      -9.763   2.279  70.952  1.00  0.00    -0.130 A  
HETATM   34  C   UNL     1      -9.264   3.404  70.290  1.00  0.00    -0.226 A  
ENDBRANCH  23  25
ENDBRANCH  20  21
BRANCH  20  35
HETATM   35  C   UNL     1      -7.342   8.913  66.902  1.00  0.00    -0.083 C  
BRANCH  35  36
HETATM   36  C   UNL     1      -7.673   7.556  66.329  1.00  0.00    -0.089 C  
HETATM   37  N   UNL     1      -8.461   7.548  65.220  1.00  0.00    -0.281 N  
HETATM   38  O   UNL     1      -7.295   6.509  66.842  1.00  0.00    -0.076 OA 
HETATM   39  H2  UNL     1      -8.809   8.409  64.800  1.00  0.00     0.000 HD 
HETATM   40  H1  UNL     1      -8.685   6.631  64.834  1.00  0.00     0.000 HD 
ENDBRANCH  35  36
ENDBRANCH  20  35
ENDBRANCH  17  20
ENDBRANCH  15  16
BRANCH  15  41
HETATM   41  C   UNL     1     -11.980  11.815  69.785  1.00  0.00    -0.392 C  
BRANCH  41  42
HETATM   42  C   UNL     1     -12.139  10.547  70.599  1.00  0.00    -0.452 A  
HETATM   43  C   UNL     1     -11.022   9.817  71.028  1.00  0.00    -0.402 A  
HETATM   44  C   UNL     1     -12.441   8.316  72.294  1.00  0.00    -0.384 A  
HETATM   45  C   UNL     1     -11.173   8.707  71.865  1.00  0.00    -0.413 A  
HETATM   46  C   UNL     1     -13.410  10.136  71.032  1.00  0.00    -0.333 A  
HETATM   47  C   UNL     1     -13.560   9.030  71.872  1.00  0.00    -0.486 A  
ENDBRANCH  41  42
ENDBRANCH  15  41
ENDBRANCH  12  15
ENDBRANCH  11  12
ENDBRANCH   8  11
BRANCH   9  48
HETATM   48  C   UNL     1      -7.251  16.142  67.808  1.00  0.00    -0.138 C  
HETATM   49  C   UNL     1      -5.245  18.478  67.790  1.00  0.00    -0.164 C  
HETATM   50  O   UNL     1      -6.214  15.557  67.503  1.00  0.00    -0.174 OA 
HETATM   51  C   UNL     1      -5.186  17.165  69.940  1.00  0.00    -0.190 C  
HETATM   52  C   UNL     1      -6.064  18.023  69.012  1.00  0.00    -0.223 C  
HETATM   53  N   UNL     1      -7.268  17.278  68.599  1.00  0.00    -0.221 N  
HETATM   54  C   UNL     1      -6.490  19.283  69.791  1.00  0.00    -0.259 C  
HETATM   55  H   UNL     1      -8.173  17.623  68.917  1.00  0.00     0.000 HD 
ENDBRANCH   9  48
TORSDOF 12
ENDMDL
MODEL       45
REMARK 921   NORMALIZED FREE ENERGY PREDICTED BY IDOCK:   -5.49 KCAL/MOL
REMARK 922        TOTAL FREE ENERGY PREDICTED BY IDOCK:  -13.43 KCAL/MOL
REMARK 923 INTER-LIGAND FREE ENERGY PREDICTED BY IDOCK:  -10.69 KCAL/MOL
REMARK 924 INTRA-LIGAND FREE ENERGY PREDICTED BY IDOCK:   -2.74 KCAL/MOL
REMARK 927      BINDING AFFINITY PREDICTED BY RF-SCORE:    0.00 PKD
ROOT
HETATM    1  C   UNL     1      -8.865   7.710  67.938  1.00  0.00    -0.126 C  
HETATM    2  C   UNL     1      -8.460   6.717  69.035  1.00  0.00    -0.130 C  
HETATM    3  C   UNL     1      -6.955   6.723  69.290  1.00  0.00    -0.074 C  
HETATM    4  C   UNL     1      -6.181   6.430  68.010  1.00  0.00    -0.032 C  
HETATM    5  C   UNL     1      -6.539   7.409  66.896  1.00  0.00    -0.057 C  
HETATM    6  C   UNL     1      -8.052   7.505  66.661  1.00  0.00    -0.123 C  
HETATM    7  C   UNL     1      -8.435   8.596  65.659  1.00  0.00    -0.156 C  
HETATM    8  N   UNL     1      -8.086   9.963  66.074  1.00  0.00    -0.117 NA 
HETATM    9  C   UNL     1      -8.333  10.263  67.509  1.00  0.00    -0.114 C  
HETATM   10  C   UNL     1      -8.851   9.156  68.451  1.00  0.00    -0.129 C  
ENDROOT
BRANCH   8  11
HETATM   11  C   UNL     1      -8.802  10.922  65.183  1.00  0.00    -0.156 C  
BRANCH  11  12
HETATM   12  C   UNL     1     -10.352  10.919  65.266  1.00  0.00    -0.268 C  
HETATM   13  H   UNL     1     -11.701  10.046  66.390  1.00  0.00     0.000 HD 
HETATM   14  O   UNL     1     -10.753  10.048  66.338  1.00  0.00    -0.118 OA 
BRANCH  12  15
HETATM   15  C   UNL     1     -10.963  12.323  65.534  1.00  0.00    -0.298 C  
BRANCH  15  16
HETATM   16  N   UNL     1     -10.939  12.612  66.982  1.00  0.00    -0.257 N  
HETATM   17  C   UNL     1     -12.005  13.217  67.623  1.00  0.00    -0.315 C  
HETATM   18  O   UNL     1     -12.979  13.668  67.019  1.00  0.00     0.393 OA 
HETATM   19  H   UNL     1     -10.113  12.360  67.525  1.00  0.00     0.000 HD 
BRANCH  17  20
HETATM   20  C   UNL     1     -11.856  13.354  69.153  1.00  0.00    -0.336 C  
BRANCH  20  21
HETATM   21  N   UNL     1     -11.780  12.022  69.747  1.00  0.00    -0.386 N  
HETATM   22  H   UNL     1     -11.155  11.339  69.319  1.00  0.00     0.000 HD 
HETATM   23  C   UNL     1     -12.503  11.638  70.850  1.00  0.00    -0.341 C  
HETATM   24  O   UNL     1     -13.218  12.411  71.484  1.00  0.00    -0.345 OA 
BRANCH  23  25
HETATM   25  C   UNL     1     -12.328  10.218  71.273  1.00  0.00    -0.403 A  
HETATM   26  N   UNL     1     -11.054   9.825  71.552  1.00  0.00    -0.276 NA 
HETATM   27  C   UNL     1     -10.861   8.537  71.881  1.00  0.00    -0.322 A  
HETATM   28  C   UNL     1     -11.922   7.608  71.965  1.00  0.00    -0.341 A  
HETATM   29  C   UNL     1     -13.224   8.060  71.710  1.00  0.00    -0.367 A  
HETATM   30  C   UNL     1     -11.668   6.266  72.289  1.00  0.00    -0.344 A  
HETATM   31  C   UNL     1     -13.433   9.386  71.353  1.00  0.00    -0.403 A  
HETATM   32  C   UNL     1     -10.365   5.835  72.524  1.00  0.00    -0.233 A  
HETATM   33  C   UNL     1      -9.316   6.746  72.454  1.00  0.00    -0.146 A  
HETATM   34  C   UNL     1      -9.574   8.084  72.139  1.00  0.00    -0.277 A  
ENDBRANCH  23  25
ENDBRANCH  20  21
BRANCH  20  35
HETATM   35  C   UNL     1     -10.712  14.277  69.565  1.00  0.00    -0.095 C  
BRANCH  35  36
HETATM   36  C   UNL     1     -11.153  15.445  70.415  1.00  0.00    -0.328 C  
HETATM   37  N   UNL     1     -10.958  16.682  69.883  1.00  0.00    -0.416 N  
HETATM   38  O   UNL     1     -11.625  15.307  71.537  1.00  0.00    -0.337 OA 
HETATM   39  H2  UNL     1     -10.539  16.813  68.964  1.00  0.00     0.000 HD 
HETATM   40  H1  UNL     1     -11.256  17.470  70.458  1.00  0.00     0.000 HD 
ENDBRANCH  35  36
ENDBRANCH  20  35
ENDBRANCH  17  20
ENDBRANCH  15  16
BRANCH  15  41
HETATM   41  C   UNL     1     -10.290  13.459  64.721  1.00  0.00    -0.397 C  
BRANCH  41  42
HETATM   42  C   UNL     1     -10.051  14.774  65.433  1.00  0.00    -0.406 A  
HETATM   43  C   UNL     1      -9.010  14.916  66.360  1.00  0.00    -0.254 A  
HETATM   44  C   UNL     1      -9.482  17.282  66.586  1.00  0.00    -0.278 A  
HETATM   45  C   UNL     1      -8.731  16.160  66.936  1.00  0.00    -0.253 A  
HETATM   46  C   UNL     1     -10.804  15.911  65.098  1.00  0.00    -0.438 A  
HETATM   47  C   UNL     1     -10.522  17.154  65.668  1.00  0.00    -0.208 A  
ENDBRANCH  41  42
ENDBRANCH  15  41
ENDBRANCH  12  15
ENDBRANCH  11  12
ENDBRANCH   8  11
BRANCH   9  48
HETATM   48  C   UNL     1      -7.068  10.920  68.148  1.00  0.00    -0.077 C  
HETATM   49  C   UNL     1      -5.165  13.340  68.170  1.00  0.00    -0.101 C  
HETATM   50  O   UNL     1      -5.975  10.357  68.113  1.00  0.00    -0.044 OA 
HETATM   51  C   UNL     1      -5.459  12.316  70.453  1.00  0.00    -0.150 C  
HETATM   52  C   UNL     1      -6.179  13.000  69.278  1.00  0.00    -0.103 C  
HETATM   53  N   UNL     1      -7.264  12.144  68.763  1.00  0.00    -0.111 N  
HETATM   54  C   UNL     1      -6.778  14.324  69.792  1.00  0.00    -0.095 C  
HETATM   55  H   UNL     1      -8.222  12.477  68.867  1.00  0.00     0.000 HD 
ENDBRANCH   9  48
TORSDOF 12
ENDMDL
MODEL       46
REMARK 921   NORMALIZED FREE ENERGY PREDICTED BY IDOCK:   -5.40 KCAL/MOL
REMARK 922        TOTAL FREE ENERGY PREDICTED BY IDOCK:  -13.28 KCAL/MOL
REMARK 923 INTER-LIGAND FREE ENERGY PREDICTED BY IDOCK:  -10.92 KCAL/MOL
REMARK 924 INTRA-LIGAND FREE ENERGY PREDICTED BY IDOCK:   -2.36 KCAL/MOL
REMARK 927      BINDING AFFINITY PREDICTED BY RF-SCORE:    0.00 PKD
ROOT
HETATM    1  C   UNL     1     -10.603  17.065  66.299  1.00  0.00    -0.185 C  
HETATM    2  C   UNL     1     -10.620  18.480  65.706  1.00  0.00    -0.265 C  
HETATM    3  C   UNL     1      -9.745  19.447  66.498  1.00  0.00    -0.452 C  
HETATM    4  C   UNL     1     -10.164  19.492  67.963  1.00  0.00    -0.552 C  
HETATM    5  C   UNL     1     -10.141  18.106  68.599  1.00  0.00    -0.406 C  
HETATM    6  C   UNL     1     -10.937  17.073  67.791  1.00  0.00    -0.199 C  
HETATM    7  C   UNL     1     -10.792  15.649  68.329  1.00  0.00    -0.298 C  
HETATM    8  N   UNL     1      -9.425  15.109  68.286  1.00  0.00    -0.197 NA 
HETATM    9  C   UNL     1      -8.666  15.431  67.048  1.00  0.00    -0.229 C  
HETATM   10  C   UNL     1      -9.300  16.327  65.964  1.00  0.00    -0.361 C  
ENDROOT
BRANCH   8  11
HETATM   11  C   UNL     1      -9.493  13.636  68.519  1.00  0.00    -0.143 C  
BRANCH  11  12
HETATM   12  C   UNL     1      -8.412  12.773  67.815  1.00  0.00    -0.177 C  
HETATM   13  H   UNL     1      -6.636  12.084  68.277  1.00  0.00     0.000 HD 
HETATM   14  O   UNL     1      -7.297  12.612  68.708  1.00  0.00    -0.107 OA 
BRANCH  12  15
HETATM   15  C   UNL     1      -8.913  11.358  67.411  1.00  0.00    -0.154 C  
BRANCH  15  16
HETATM   16  N   UNL     1     -10.054  10.968  68.263  1.00  0.00    -0.171 N  
HETATM   17  C   UNL     1      -9.954   9.952  69.195  1.00  0.00    -0.198 C  
HETATM   18  O   UNL     1      -8.964   9.225  69.288  1.00  0.00    -0.138 OA 
HETATM   19  H   UNL     1     -10.941  11.462  68.161  1.00  0.00     0.000 HD 
BRANCH  17  20
HETATM   20  C   UNL     1     -11.208   9.742  70.070  1.00  0.00    -0.251 C  
BRANCH  20  21
HETATM   21  N   UNL     1     -10.975   8.621  70.978  1.00  0.00    -0.248 N  
HETATM   22  H   UNL     1     -10.613   8.824  71.910  1.00  0.00     0.000 HD 
HETATM   23  C   UNL     1     -11.217   7.311  70.647  1.00  0.00    -0.274 C  
HETATM   24  O   UNL     1     -11.730   6.973  69.583  1.00  0.00    -0.084 OA 
BRANCH  23  25
HETATM   25  C   UNL     1     -10.864   6.306  71.693  1.00  0.00    -0.251 A  
HETATM   26  N   UNL     1     -10.413   5.102  71.245  1.00  0.00    -0.205 NA 
HETATM   27  C   UNL     1     -10.141   4.161  72.164  1.00  0.00    -0.178 A  
HETATM   28  C   UNL     1     -10.286   4.391  73.551  1.00  0.00    -0.243 A  
HETATM   29  C   UNL     1     -10.714   5.656  73.974  1.00  0.00    -0.177 A  
HETATM   30  C   UNL     1     -10.013   3.367  74.473  1.00  0.00    -0.190 A  
HETATM   31  C   UNL     1     -11.014   6.631  73.032  1.00  0.00    -0.279 A  
HETATM   32  C   UNL     1      -9.603   2.113  74.029  1.00  0.00    -0.105 A  
HETATM   33  C   UNL     1      -9.448   1.883  72.665  1.00  0.00    -0.130 A  
HETATM   34  C   UNL     1      -9.713   2.907  71.750  1.00  0.00    -0.224 A  
ENDBRANCH  23  25
ENDBRANCH  20  21
BRANCH  20  35
HETATM   35  C   UNL     1     -11.672  11.016  70.772  1.00  0.00    -0.286 C  
BRANCH  35  36
HETATM   36  C   UNL     1     -12.925  10.832  71.595  1.00  0.00    -0.476 C  
HETATM   37  N   UNL     1     -13.336  11.912  72.313  1.00  0.00    -0.548 N  
HETATM   38  O   UNL     1     -13.528   9.767  71.656  1.00  0.00    -0.376 OA 
HETATM   39  H2  UNL     1     -12.827  12.795  72.296  1.00  0.00     0.000 HD 
HETATM   40  H1  UNL     1     -14.182  11.787  72.869  1.00  0.00     0.000 HD 
ENDBRANCH  35  36
ENDBRANCH  20  35
ENDBRANCH  17  20
ENDBRANCH  15  16
BRANCH  15  41
HETATM   41  C   UNL     1      -9.263  11.230  65.905  1.00  0.00    -0.229 C  
BRANCH  41  42
HETATM   42  C   UNL     1      -8.441  10.259  65.083  1.00  0.00    -0.173 A  
HETATM   43  C   UNL     1      -7.414  10.710  64.243  1.00  0.00     0.211 A  
HETATM   44  C   UNL     1      -6.779   8.429  63.730  1.00  0.00    -0.076 A  
HETATM   45  C   UNL     1      -6.593   9.802  63.568  1.00  0.00    -0.117 A  
HETATM   46  C   UNL     1      -8.622   8.874  65.230  1.00  0.00    -0.209 A  
HETATM   47  C   UNL     1      -7.798   7.967  64.559  1.00  0.00    -0.134 A  
ENDBRANCH  41  42
ENDBRANCH  15  41
ENDBRANCH  12  15
ENDBRANCH  11  12
ENDBRANCH   8  11
BRANCH   9  48
HETATM   48  C   UNL     1      -7.257  15.998  67.413  1.00  0.00    -0.187 C  
HETATM   49  C   UNL     1      -5.204  18.252  66.982  1.00  0.00    -0.140 C  
HETATM   50  O   UNL     1      -6.236  15.346  67.201  1.00  0.00    -0.307 OA 
HETATM   51  C   UNL     1      -5.142  17.317  69.321  1.00  0.00    -0.149 C  
HETATM   52  C   UNL     1      -6.015  18.027  68.272  1.00  0.00    -0.173 C  
HETATM   53  N   UNL     1      -7.240  17.250  68.002  1.00  0.00    -0.185 N  
HETATM   54  C   UNL     1      -6.405  19.409  68.832  1.00  0.00    -0.296 C  
HETATM   55  H   UNL     1      -8.133  17.664  68.268  1.00  0.00     0.000 HD 
ENDBRANCH   9  48
TORSDOF 12
ENDMDL
MODEL       47
REMARK 921   NORMALIZED FREE ENERGY PREDICTED BY IDOCK:   -5.39 KCAL/MOL
REMARK 922        TOTAL FREE ENERGY PREDICTED BY IDOCK:  -13.27 KCAL/MOL
REMARK 923 INTER-LIGAND FREE ENERGY PREDICTED BY IDOCK:  -11.68 KCAL/MOL
REMARK 924 INTRA-LIGAND FREE ENERGY PREDICTED BY IDOCK:   -1.59 KCAL/MOL
REMARK 927      BINDING AFFINITY PREDICTED BY RF-SCORE:    0.00 PKD
ROOT
HETATM    1  C   UNL     1     -10.815  17.765  66.341  1.00  0.00     0.061 C  
HETATM    2  C   UNL     1     -10.648  19.154  65.710  1.00  0.00    -0.417 C  
HETATM    3  C   UNL     1      -9.552  19.969  66.392  1.00  0.00    -0.536 C  
HETATM    4  C   UNL     1      -9.821  20.105  67.886  1.00  0.00    -0.525 C  
HETATM    5  C   UNL     1      -9.974  18.744  68.559  1.00  0.00    -0.450 C  
HETATM    6  C   UNL     1     -11.004  17.852  67.855  1.00  0.00    -0.080 C  
HETATM    7  C   UNL     1     -11.053  16.431  68.421  1.00  0.00    -0.351 C  
HETATM    8  N   UNL     1      -9.806  15.665  68.272  1.00  0.00    -0.208 NA 
HETATM    9  C   UNL     1      -9.122  15.835  66.963  1.00  0.00    -0.220 C  
HETATM   10  C   UNL     1      -9.692  16.811  65.914  1.00  0.00    -0.247 C  
ENDROOT
BRANCH   8  11
HETATM   11  C   UNL     1     -10.101  14.229  68.554  1.00  0.00    -0.246 C  
BRANCH  11  12
HETATM   12  C   UNL     1     -11.598  13.822  68.578  1.00  0.00    -0.338 C  
HETATM   13  H   UNL     1     -13.015  13.579  67.245  1.00  0.00     0.000 HD 
HETATM   14  O   UNL     1     -12.099  13.828  67.230  1.00  0.00    -0.389 OA 
BRANCH  12  15
HETATM   15  C   UNL     1     -11.848  12.409  69.177  1.00  0.00    -0.300 C  
BRANCH  15  16
HETATM   16  N   UNL     1     -10.564  11.698  69.337  1.00  0.00    -0.437 N  
HETATM   17  C   UNL     1     -10.043  10.898  68.337  1.00  0.00    -0.183 C  
HETATM   18  O   UNL     1     -10.666  10.622  67.310  1.00  0.00    -0.251 OA 
HETATM   19  H   UNL     1     -10.047  11.799  70.210  1.00  0.00     0.000 HD 
BRANCH  17  20
HETATM   20  C   UNL     1      -8.647  10.311  68.629  1.00  0.00    -0.128 C  
BRANCH  20  21
HETATM   21  N   UNL     1      -8.623   8.908  68.224  1.00  0.00    -0.133 N  
HETATM   22  H   UNL     1      -8.387   8.690  67.256  1.00  0.00     0.000 HD 
HETATM   23  C   UNL     1      -8.901   7.866  69.074  1.00  0.00    -0.145 C  
HETATM   24  O   UNL     1      -9.114   8.019  70.275  1.00  0.00    -0.146 OA 
BRANCH  23  25
HETATM   25  C   UNL     1      -8.877   6.507  68.457  1.00  0.00    -0.121 A  
HETATM   26  N   UNL     1      -8.010   6.330  67.422  1.00  0.00    -0.108 NA 
HETATM   27  C   UNL     1      -8.009   5.133  66.813  1.00  0.00    -0.104 A  
HETATM   28  C   UNL     1      -8.848   4.072  67.222  1.00  0.00    -0.130 A  
HETATM   29  C   UNL     1      -9.697   4.281  68.316  1.00  0.00    -0.162 A  
HETATM   30  C   UNL     1      -8.829   2.846  66.537  1.00  0.00    -0.153 A  
HETATM   31  C   UNL     1      -9.719   5.519  68.944  1.00  0.00    -0.193 A  
HETATM   32  C   UNL     1      -7.987   2.666  65.443  1.00  0.00    -0.079 A  
HETATM   33  C   UNL     1      -7.150   3.703  65.041  1.00  0.00    -0.066 A  
HETATM   34  C   UNL     1      -7.166   4.919  65.730  1.00  0.00    -0.076 A  
ENDBRANCH  23  25
ENDBRANCH  20  21
BRANCH  20  35
HETATM   35  C   UNL     1      -7.509  11.141  68.037  1.00  0.00    -0.094 C  
BRANCH  35  36
HETATM   36  C   UNL     1      -6.817  12.025  69.046  1.00  0.00    -0.105 C  
HETATM   37  N   UNL     1      -7.286  13.298  69.150  1.00  0.00    -0.305 N  
HETATM   38  O   UNL     1      -5.861  11.648  69.712  1.00  0.00    -0.083 OA 
HETATM   39  H2  UNL     1      -8.061  13.635  68.580  1.00  0.00     0.000 HD 
HETATM   40  H1  UNL     1      -6.818  13.895  69.832  1.00  0.00     0.000 HD 
ENDBRANCH  35  36
ENDBRANCH  20  35
ENDBRANCH  17  20
ENDBRANCH  15  16
BRANCH  15  41
HETATM   41  C   UNL     1     -12.651  12.430  70.504  1.00  0.00    -0.169 C  
BRANCH  41  42
HETATM   42  C   UNL     1     -12.797  13.765  71.204  1.00  0.00    -0.409 A  
HETATM   43  C   UNL     1     -14.031  14.178  71.723  1.00  0.00    -0.505 A  
HETATM   44  C   UNL     1     -13.006  16.148  72.694  1.00  0.00    -0.370 A  
HETATM   45  C   UNL     1     -14.136  15.364  72.458  1.00  0.00    -0.593 A  
HETATM   46  C   UNL     1     -11.671  14.569  71.442  1.00  0.00    -0.231 A  
HETATM   47  C   UNL     1     -11.774  15.750  72.180  1.00  0.00    -0.573 A  
ENDBRANCH  41  42
ENDBRANCH  15  41
ENDBRANCH  12  15
ENDBRANCH  11  12
ENDBRANCH   8  11
BRANCH   9  48
HETATM   48  C   UNL     1      -7.609  16.158  67.185  1.00  0.00    -0.202 C  
HETATM   49  C   UNL     1      -5.134  17.688  66.178  1.00  0.00    -0.222 C  
HETATM   50  O   UNL     1      -6.765  15.265  67.191  1.00  0.00    -0.276 OA 
HETATM   51  C   UNL     1      -5.183  17.465  68.687  1.00  0.00    -0.143 C  
HETATM   52  C   UNL     1      -5.922  18.022  67.458  1.00  0.00    -0.152 C  
HETATM   53  N   UNL     1      -7.296  17.490  67.392  1.00  0.00    -0.177 N  
HETATM   54  C   UNL     1      -5.978  19.556  67.591  1.00  0.00    -0.208 C  
HETATM   55  H   UNL     1      -8.067  18.148  67.507  1.00  0.00     0.000 HD 
ENDBRANCH   9  48
TORSDOF 12
ENDMDL
MODEL       48
REMARK 921   NORMALIZED FREE ENERGY PREDICTED BY IDOCK:   -5.37 KCAL/MOL
REMARK 922        TOTAL FREE ENERGY PREDICTED BY IDOCK:  -13.23 KCAL/MOL
REMARK 923 INTER-LIGAND FREE ENERGY PREDICTED BY IDOCK:   -9.79 KCAL/MOL
REMARK 924 INTRA-LIGAND FREE ENERGY PREDICTED BY IDOCK:   -3.44 KCAL/MOL
REMARK 927      BINDING AFFINITY PREDICTED BY RF-SCORE:    0.00 PKD
ROOT
HETATM    1  C   UNL     1      -8.997  16.251  68.697  1.00  0.00    -0.232 C  
HETATM    2  C   UNL     1      -9.671  17.629  68.741  1.00  0.00    -0.311 C  
HETATM    3  C   UNL     1     -10.288  18.012  67.398  1.00  0.00    -0.391 C  
HETATM    4  C   UNL     1      -9.246  17.977  66.286  1.00  0.00    -0.203 C  
HETATM    5  C   UNL     1      -8.565  16.615  66.194  1.00  0.00    -0.324 C  
HETATM    6  C   UNL     1      -8.003  16.144  67.541  1.00  0.00    -0.171 C  
HETATM    7  C   UNL     1      -7.458  14.715  67.499  1.00  0.00    -0.195 C  
HETATM    8  N   UNL     1      -8.460  13.684  67.188  1.00  0.00    -0.198 NA 
HETATM    9  C   UNL     1      -9.777  13.873  67.851  1.00  0.00    -0.231 C  
HETATM   10  C   UNL     1     -10.029  15.116  68.728  1.00  0.00    -0.229 C  
ENDROOT
BRANCH   8  11
HETATM   11  C   UNL     1      -7.873  12.348  67.506  1.00  0.00    -0.169 C  
BRANCH  11  12
HETATM   12  C   UNL     1      -8.658  11.471  68.517  1.00  0.00    -0.140 C  
HETATM   13  H   UNL     1     -10.211  10.277  68.439  1.00  0.00     0.000 HD 
HETATM   14  O   UNL     1      -9.730  10.814  67.820  1.00  0.00    -0.159 OA 
BRANCH  12  15
HETATM   15  C   UNL     1      -7.787  10.378  69.199  1.00  0.00    -0.134 C  
BRANCH  15  16
HETATM   16  N   UNL     1      -8.629   9.222  69.564  1.00  0.00    -0.137 N  
HETATM   17  C   UNL     1      -8.708   8.759  70.864  1.00  0.00    -0.194 C  
HETATM   18  O   UNL     1      -7.992   9.187  71.771  1.00  0.00    -0.340 OA 
HETATM   19  H   UNL     1      -9.168   8.751  68.837  1.00  0.00     0.000 HD 
BRANCH  17  20
HETATM   20  C   UNL     1      -9.711   7.607  71.089  1.00  0.00    -0.162 C  
BRANCH  20  21
HETATM   21  N   UNL     1      -9.503   6.585  70.067  1.00  0.00    -0.156 N  
HETATM   22  H   UNL     1      -8.555   6.239  69.919  1.00  0.00     0.000 HD 
HETATM   23  C   UNL     1     -10.512   6.064  69.296  1.00  0.00    -0.264 C  
HETATM   24  O   UNL     1     -11.695   6.354  69.456  1.00  0.00    -0.366 OA 
BRANCH  23  25
HETATM   25  C   UNL     1     -10.088   5.067  68.268  1.00  0.00    -0.103 A  
HETATM   26  N   UNL     1     -10.576   5.254  67.011  1.00  0.00    -0.231 NA 
HETATM   27  C   UNL     1     -10.255   4.339  66.080  1.00  0.00    -0.132 A  
HETATM   28  C   UNL     1      -9.427   3.229  66.360  1.00  0.00    -0.101 A  
HETATM   29  C   UNL     1      -8.912   3.095  67.656  1.00  0.00    -0.184 A  
HETATM   30  C   UNL     1      -9.140   2.287  65.360  1.00  0.00    -0.106 A  
HETATM   31  C   UNL     1      -9.250   4.024  68.631  1.00  0.00    -0.209 A  
HETATM   32  C   UNL     1      -9.675   2.433  64.083  1.00  0.00    -0.131 A  
HETATM   33  C   UNL     1     -10.482   3.529  63.797  1.00  0.00    -0.267 A  
HETATM   34  C   UNL     1     -10.760   4.471  64.793  1.00  0.00     0.014 A  
ENDBRANCH  23  25
ENDBRANCH  20  21
BRANCH  20  35
HETATM   35  C   UNL     1      -9.692   7.063  72.516  1.00  0.00    -0.170 C  
BRANCH  35  36
HETATM   36  C   UNL     1     -11.009   6.470  72.955  1.00  0.00    -0.239 C  
HETATM   37  N   UNL     1     -12.128   7.035  72.426  1.00  0.00    -0.494 N  
HETATM   38  O   UNL     1     -11.087   5.559  73.770  1.00  0.00    -0.206 OA 
HETATM   39  H2  UNL     1     -12.080   7.814  71.770  1.00  0.00     0.000 HD 
HETATM   40  H1  UNL     1     -13.018   6.634  72.723  1.00  0.00     0.000 HD 
ENDBRANCH  35  36
ENDBRANCH  20  35
ENDBRANCH  17  20
ENDBRANCH  15  16
BRANCH  15  41
HETATM   41  C   UNL     1      -6.564   9.940  68.351  1.00  0.00    -0.055 C  
BRANCH  41  42
HETATM   42  C   UNL     1      -6.709   8.676  67.528  1.00  0.00    -0.066 A  
HETATM   43  C   UNL     1      -6.321   7.431  68.040  1.00  0.00    -0.048 A  
HETATM   44  C   UNL     1      -7.186   6.310  66.074  1.00  0.00    -0.075 A  
HETATM   45  C   UNL     1      -6.553   6.257  67.316  1.00  0.00    -0.058 A  
HETATM   46  C   UNL     1      -7.337   8.714  66.273  1.00  0.00    -0.086 A  
HETATM   47  C   UNL     1      -7.574   7.542  65.552  1.00  0.00    -0.093 A  
ENDBRANCH  41  42
ENDBRANCH  15  41
ENDBRANCH  12  15
ENDBRANCH  11  12
ENDBRANCH   8  11
BRANCH   9  48
HETATM   48  C   UNL     1     -10.929  13.750  66.803  1.00  0.00    -0.304 C  
HETATM   49  C   UNL     1     -11.960  14.549  64.013  1.00  0.00    -0.238 C  
HETATM   50  O   UNL     1     -12.073  14.112  67.072  1.00  0.00    -0.427 OA 
HETATM   51  C   UNL     1     -12.687  12.233  64.690  1.00  0.00    -0.275 C  
HETATM   52  C   UNL     1     -11.477  13.141  64.410  1.00  0.00    -0.366 C  
HETATM   53  N   UNL     1     -10.584  13.196  65.583  1.00  0.00    -0.273 N  
HETATM   54  C   UNL     1     -10.706  12.552  63.213  1.00  0.00    -0.161 C  
HETATM   55  H   UNL     1      -9.650  12.798  65.488  1.00  0.00     0.000 HD 
ENDBRANCH   9  48
TORSDOF 12
ENDMDL
MODEL       49
REMARK 921   NORMALIZED FREE ENERGY PREDICTED BY IDOCK:   -5.29 KCAL/MOL
REMARK 922        TOTAL FREE ENERGY PREDICTED BY IDOCK:  -13.09 KCAL/MOL
REMARK 923 INTER-LIGAND FREE ENERGY PREDICTED BY IDOCK:   -9.97 KCAL/MOL
REMARK 924 INTRA-LIGAND FREE ENERGY PREDICTED BY IDOCK:   -3.12 KCAL/MOL
REMARK 927      BINDING AFFINITY PREDICTED BY RF-SCORE:    0.00 PKD
ROOT
HETATM    1  C   UNL     1     -13.894  14.639  71.280  1.00  0.00    -0.420 C  
HETATM    2  C   UNL     1     -14.395  15.484  72.458  1.00  0.00    -0.363 C  
HETATM    3  C   UNL     1     -13.253  16.172  73.201  1.00  0.00    -0.518 C  
HETATM    4  C   UNL     1     -12.226  15.156  73.689  1.00  0.00    -0.634 C  
HETATM    5  C   UNL     1     -11.685  14.307  72.543  1.00  0.00     0.664 C  
HETATM    6  C   UNL     1     -12.800  13.662  71.709  1.00  0.00    -0.407 C  
HETATM    7  C   UNL     1     -12.278  12.938  70.467  1.00  0.00    -0.314 C  
HETATM    8  N   UNL     1     -11.602  13.804  69.489  1.00  0.00    -0.285 NA 
HETATM    9  C   UNL     1     -12.254  15.121  69.265  1.00  0.00    -0.177 C  
HETATM   10  C   UNL     1     -13.501  15.515  70.082  1.00  0.00     0.528 C  
ENDROOT
BRANCH   8  11
HETATM   11  C   UNL     1     -11.452  13.043  68.213  1.00  0.00    -0.312 C  
BRANCH  11  12
HETATM   12  C   UNL     1     -10.062  13.110  67.527  1.00  0.00    -0.222 C  
HETATM   13  H   UNL     1      -8.297  13.833  67.984  1.00  0.00     0.000 HD 
HETATM   14  O   UNL     1      -9.148  13.791  68.404  1.00  0.00    -0.192 OA 
BRANCH  12  15
HETATM   15  C   UNL     1      -9.462  11.714  67.198  1.00  0.00    -0.176 C  
BRANCH  15  16
HETATM   16  N   UNL     1      -8.897  11.111  68.422  1.00  0.00    -0.152 N  
HETATM   17  C   UNL     1      -7.580  10.696  68.490  1.00  0.00    -0.097 C  
HETATM   18  O   UNL     1      -6.834  10.679  67.510  1.00  0.00    -0.076 OA 
HETATM   19  H   UNL     1      -9.496  10.996  69.241  1.00  0.00     0.000 HD 
BRANCH  17  20
HETATM   20  C   UNL     1      -7.127  10.182  69.873  1.00  0.00    -0.144 C  
BRANCH  20  21
HETATM   21  N   UNL     1      -7.431   8.757  69.977  1.00  0.00    -0.052 N  
HETATM   22  H   UNL     1      -6.922   8.111  69.374  1.00  0.00     0.000 HD 
HETATM   23  C   UNL     1      -8.365   8.240  70.841  1.00  0.00    -0.130 C  
HETATM   24  O   UNL     1      -8.968   8.925  71.663  1.00  0.00    -0.249 OA 
BRANCH  23  25
HETATM   25  C   UNL     1      -8.570   6.763  70.760  1.00  0.00    -0.141 A  
HETATM   26  N   UNL     1      -9.383   6.215  71.704  1.00  0.00    -0.149 NA 
HETATM   27  C   UNL     1      -9.539   4.881  71.688  1.00  0.00    -0.159 A  
HETATM   28  C   UNL     1      -8.916   4.056  70.726  1.00  0.00    -0.152 A  
HETATM   29  C   UNL     1      -8.119   4.662  69.746  1.00  0.00    -0.068 A  
HETATM   30  C   UNL     1      -9.090   2.663  70.764  1.00  0.00    -0.189 A  
HETATM   31  C   UNL     1      -7.936   6.039  69.763  1.00  0.00    -0.106 A  
HETATM   32  C   UNL     1      -9.875   2.080  71.756  1.00  0.00    -0.218 A  
HETATM   33  C   UNL     1     -10.501   2.888  72.700  1.00  0.00    -0.180 A  
HETATM   34  C   UNL     1     -10.332   4.275  72.654  1.00  0.00    -0.243 A  
ENDBRANCH  23  25
ENDBRANCH  20  21
BRANCH  20  35
HETATM   35  C   UNL     1      -5.674  10.525  70.195  1.00  0.00    -0.071 C  
BRANCH  35  36
HETATM   36  C   UNL     1      -5.475  11.954  70.642  1.00  0.00    -0.156 C  
HETATM   37  N   UNL     1      -5.166  12.851  69.666  1.00  0.00    -0.074 N  
HETATM   38  O   UNL     1      -5.544  12.297  71.816  1.00  0.00    -0.364 OA 
HETATM   39  H2  UNL     1      -5.075  12.574  68.689  1.00  0.00     0.000 HD 
HETATM   40  H1  UNL     1      -5.032  13.815  69.969  1.00  0.00     0.000 HD 
ENDBRANCH  35  36
ENDBRANCH  20  35
ENDBRANCH  17  20
ENDBRANCH  15  16
BRANCH  15  41
HETATM   41  C   UNL     1     -10.466  10.754  66.508  1.00  0.00    -0.299 C  
BRANCH  41  42
HETATM   42  C   UNL     1     -10.064   9.298  66.392  1.00  0.00    -0.337 A  
HETATM   43  C   UNL     1      -9.033   8.897  65.532  1.00  0.00    -0.246 A  
HETATM   44  C   UNL     1      -9.183   6.622  66.351  1.00  0.00    -0.180 A  
HETATM   45  C   UNL     1      -8.599   7.568  65.508  1.00  0.00    -0.102 A  
HETATM   46  C   UNL     1     -10.647   8.332  67.229  1.00  0.00    -0.335 A  
HETATM   47  C   UNL     1     -10.211   7.006  67.209  1.00  0.00    -0.301 A  
ENDBRANCH  41  42
ENDBRANCH  15  41
ENDBRANCH  12  15
ENDBRANCH  11  12
ENDBRANCH   8  11
BRANCH   9  48
HETATM   48  C   UNL     1     -11.198  16.268  69.368  1.00  0.00    -0.311 C  
HETATM   49  C   UNL     1      -8.366  17.227  68.630  1.00  0.00    -0.255 C  
HETATM   50  O   UNL     1     -10.794  16.662  70.460  1.00  0.00    -0.154 OA 
HETATM   51  C   UNL     1     -10.035  19.113  68.728  1.00  0.00    -0.493 C  
HETATM   52  C   UNL     1      -9.673  17.786  68.038  1.00  0.00    -0.304 C  
HETATM   53  N   UNL     1     -10.776  16.814  68.168  1.00  0.00    -0.351 N  
HETATM   54  C   UNL     1      -9.428  18.077  66.544  1.00  0.00    -0.306 C  
HETATM   55  H   UNL     1     -11.258  16.526  67.317  1.00  0.00     0.000 HD 
ENDBRANCH   9  48
TORSDOF 12
ENDMDL
MODEL       50
REMARK 921   NORMALIZED FREE ENERGY PREDICTED BY IDOCK:   -5.26 KCAL/MOL
REMARK 922        TOTAL FREE ENERGY PREDICTED BY IDOCK:  -13.05 KCAL/MOL
REMARK 923 INTER-LIGAND FREE ENERGY PREDICTED BY IDOCK:  -10.64 KCAL/MOL
REMARK 924 INTRA-LIGAND FREE ENERGY PREDICTED BY IDOCK:   -2.41 KCAL/MOL
REMARK 927      BINDING AFFINITY PREDICTED BY RF-SCORE:    0.00 PKD
ROOT
HETATM    1  C   UNL     1      -9.830   4.359  69.477  1.00  0.00    -0.258 C  
HETATM    2  C   UNL     1      -9.706   3.600  70.805  1.00  0.00    -0.222 C  
HETATM    3  C   UNL     1      -8.420   3.949  71.550  1.00  0.00    -0.102 C  
HETATM    4  C   UNL     1      -7.195   3.683  70.682  1.00  0.00    -0.037 C  
HETATM    5  C   UNL     1      -7.268   4.437  69.358  1.00  0.00    -0.051 C  
HETATM    6  C   UNL     1      -8.584   4.188  68.610  1.00  0.00    -0.114 C  
HETATM    7  C   UNL     1      -8.737   5.057  67.360  1.00  0.00    -0.103 C  
HETATM    8  N   UNL     1      -8.781   6.504  67.618  1.00  0.00    -0.115 NA 
HETATM    9  C   UNL     1      -9.581   6.903  68.807  1.00  0.00    -0.134 C  
HETATM   10  C   UNL     1     -10.230   5.824  69.698  1.00  0.00    -0.299 C  
ENDROOT
BRANCH   8  11
HETATM   11  C   UNL     1      -9.261   7.188  66.381  1.00  0.00    -0.157 C  
BRANCH  11  12
HETATM   12  C   UNL     1      -8.909   8.693  66.241  1.00  0.00    -0.157 C  
HETATM   13  H   UNL     1      -7.608   9.748  65.221  1.00  0.00     0.000 HD 
HETATM   14  O   UNL     1      -7.824   8.827  65.307  1.00  0.00    -0.100 OA 
BRANCH  12  15
HETATM   15  C   UNL     1     -10.092   9.564  65.733  1.00  0.00    -0.153 C  
BRANCH  15  16
HETATM   16  N   UNL     1     -10.635  10.370  66.844  1.00  0.00    -0.246 N  
HETATM   17  C   UNL     1      -9.825  11.167  67.631  1.00  0.00    -0.174 C  
HETATM   18  O   UNL     1      -8.596  11.161  67.546  1.00  0.00    -0.127 OA 
HETATM   19  H   UNL     1     -11.637  10.337  67.037  1.00  0.00     0.000 HD 
BRANCH  17  20
HETATM   20  C   UNL     1     -10.568  12.019  68.681  1.00  0.00    -0.229 C  
BRANCH  20  21
HETATM   21  N   UNL     1     -10.461  13.430  68.316  1.00  0.00    -0.244 N  
HETATM   22  H   UNL     1     -11.274  13.881  67.897  1.00  0.00     0.000 HD 
HETATM   23  C   UNL     1      -9.327  14.181  68.506  1.00  0.00    -0.191 C  
HETATM   24  O   UNL     1      -8.327  13.751  69.076  1.00  0.00     0.045 OA 
BRANCH  23  25
HETATM   25  C   UNL     1      -9.398  15.589  68.017  1.00  0.00    -0.193 A  
HETATM   26  N   UNL     1      -8.315  16.043  67.326  1.00  0.00    -0.169 NA 
HETATM   27  C   UNL     1      -8.330  17.325  66.924  1.00  0.00    -0.227 A  
HETATM   28  C   UNL     1      -9.423  18.186  67.173  1.00  0.00    -0.264 A  
HETATM   29  C   UNL     1     -10.535  17.670  67.851  1.00  0.00    -0.392 A  
HETATM   30  C   UNL     1      -9.381  19.525  66.753  1.00  0.00    -0.431 A  
HETATM   31  C   UNL     1     -10.524  16.351  68.286  1.00  0.00    -0.302 A  
HETATM   32  C   UNL     1      -8.259  20.020  66.094  1.00  0.00    -0.302 A  
HETATM   33  C   UNL     1      -7.184  19.175  65.836  1.00  0.00    -0.293 A  
HETATM   34  C   UNL     1      -7.232  17.840  66.248  1.00  0.00    -0.331 A  
ENDBRANCH  23  25
ENDBRANCH  20  21
BRANCH  20  35
HETATM   35  C   UNL     1     -12.002  11.555  68.928  1.00  0.00    -0.364 C  
BRANCH  35  36
HETATM   36  C   UNL     1     -12.196  10.871  70.259  1.00  0.00    -0.348 C  
HETATM   37  N   UNL     1     -12.114   9.513  70.254  1.00  0.00    -0.464 N  
HETATM   38  O   UNL     1     -12.452  11.484  71.289  1.00  0.00    -0.353 OA 
HETATM   39  H2  UNL     1     -11.932   8.987  69.400  1.00  0.00     0.000 HD 
HETATM   40  H1  UNL     1     -12.245   9.051  71.154  1.00  0.00     0.000 HD 
ENDBRANCH  35  36
ENDBRANCH  20  35
ENDBRANCH  17  20
ENDBRANCH  15  16
BRANCH  15  41
HETATM   41  C   UNL     1      -9.729  10.454  64.515  1.00  0.00    -0.393 C  
BRANCH  41  42
HETATM   42  C   UNL     1     -10.584  11.680  64.274  1.00  0.00    -0.394 A  
HETATM   43  C   UNL     1     -11.869  11.571  63.727  1.00  0.00    -0.237 A  
HETATM   44  C   UNL     1     -12.245  13.944  64.036  1.00  0.00    -0.413 A  
HETATM   45  C   UNL     1     -12.692  12.696  63.604  1.00  0.00    -0.329 A  
HETATM   46  C   UNL     1     -10.146  12.946  64.697  1.00  0.00    -0.254 A  
HETATM   47  C   UNL     1     -10.968  14.068  64.579  1.00  0.00    -0.361 A  
ENDBRANCH  41  42
ENDBRANCH  15  41
ENDBRANCH  12  15
ENDBRANCH  11  12
ENDBRANCH   8  11
BRANCH   9  48
HETATM   48  C   UNL     1      -8.757   7.876  69.709  1.00  0.00    -0.137 C  
HETATM   49  C   UNL     1      -7.348   8.300  72.414  1.00  0.00    -0.140 C  
HETATM   50  O   UNL     1      -9.207   8.972  70.037  1.00  0.00    -0.159 OA 
HETATM   51  C   UNL     1      -6.196   9.500  70.521  1.00  0.00    -0.071 C  
HETATM   52  C   UNL     1      -6.634   8.127  71.061  1.00  0.00    -0.038 C  
HETATM   53  N   UNL     1      -7.499   7.437  70.086  1.00  0.00    -0.085 N  
HETATM   54  C   UNL     1      -5.367   7.283  71.300  1.00  0.00    -0.027 C  
HETATM   55  H   UNL     1      -7.148   6.579  69.662  1.00  0.00     0.000 HD 
ENDBRANCH   9  48
TORSDOF 12
ENDMDL
MODEL       51
REMARK 921   NORMALIZED FREE ENERGY PREDICTED BY IDOCK:   -5.17 KCAL/MOL
REMARK 922        TOTAL FREE ENERGY PREDICTED BY IDOCK:  -12.90 KCAL/MOL
REMARK 923 INTER-LIGAND FREE ENERGY PREDICTED BY IDOCK:  -10.74 KCAL/MOL
REMARK 924 INTRA-LIGAND FREE ENERGY PREDICTED BY IDOCK:   -2.16 KCAL/MOL
REMARK 927      BINDING AFFINITY PREDICTED BY RF-SCORE:    0.00 PKD
ROOT
HETATM    1  C   UNL     1     -11.393   9.318  71.269  1.00  0.00    -0.423 C  
HETATM    2  C   UNL     1     -12.811   9.279  71.853  1.00  0.00    -0.485 C  
HETATM    3  C   UNL     1     -13.321   7.851  72.033  1.00  0.00    -0.251 C  
HETATM    4  C   UNL     1     -13.278   7.084  70.716  1.00  0.00     0.152 C  
HETATM    5  C   UNL     1     -11.878   7.081  70.110  1.00  0.00    -0.190 C  
HETATM    6  C   UNL     1     -11.285   8.490  69.989  1.00  0.00    -0.086 C  
HETATM    7  C   UNL     1      -9.825   8.490  69.531  1.00  0.00    -0.187 C  
HETATM    8  N   UNL     1      -8.891   7.824  70.452  1.00  0.00    -0.145 NA 
HETATM    9  C   UNL     1      -9.135   8.096  71.893  1.00  0.00    -0.171 C  
HETATM   10  C   UNL     1     -10.337   8.961  72.324  1.00  0.00    -0.204 C  
ENDROOT
BRANCH   8  11
HETATM   11  C   UNL     1      -7.499   8.187  70.054  1.00  0.00    -0.065 C  
BRANCH  11  12
HETATM   12  C   UNL     1      -7.191   8.182  68.533  1.00  0.00    -0.088 C  
HETATM   13  H   UNL     1      -8.170   7.719  66.897  1.00  0.00     0.000 HD 
HETATM   14  O   UNL     1      -8.358   7.723  67.828  1.00  0.00    -0.123 OA 
BRANCH  12  15
HETATM   15  C   UNL     1      -6.810   9.580  67.970  1.00  0.00    -0.074 C  
BRANCH  15  16
HETATM   16  N   UNL     1      -8.011  10.249  67.434  1.00  0.00    -0.107 N  
HETATM   17  C   UNL     1      -8.090  10.663  66.117  1.00  0.00    -0.154 C  
HETATM   18  O   UNL     1      -7.130  10.621  65.346  1.00  0.00    -0.108 OA 
HETATM   19  H   UNL     1      -8.806  10.412  68.052  1.00  0.00     0.000 HD 
BRANCH  17  20
HETATM   20  C   UNL     1      -9.452  11.252  65.696  1.00  0.00    -0.229 C  
BRANCH  20  21
HETATM   21  N   UNL     1      -9.936  12.140  66.751  1.00  0.00    -0.201 N  
HETATM   22  H   UNL     1      -9.250  12.564  67.375  1.00  0.00     0.000 HD 
HETATM   23  C   UNL     1     -11.262  12.434  66.948  1.00  0.00    -0.305 C  
HETATM   24  O   UNL     1     -12.154  12.040  66.201  1.00  0.00    -0.582 OA 
BRANCH  23  25
HETATM   25  C   UNL     1     -11.559  13.320  68.113  1.00  0.00    -0.338 A  
HETATM   26  N   UNL     1     -12.076  12.711  69.216  1.00  0.00    -0.222 NA 
HETATM   27  C   UNL     1     -12.404  13.493  70.258  1.00  0.00    -0.300 A  
HETATM   28  C   UNL     1     -12.210  14.892  70.248  1.00  0.00    -0.389 A  
HETATM   29  C   UNL     1     -11.638  15.475  69.110  1.00  0.00    -0.374 A  
HETATM   30  C   UNL     1     -12.592  15.670  71.352  1.00  0.00    -0.519 A  
HETATM   31  C   UNL     1     -11.310  14.680  68.020  1.00  0.00    -0.329 A  
HETATM   32  C   UNL     1     -13.172  15.071  72.467  1.00  0.00    -0.500 A  
HETATM   33  C   UNL     1     -13.356  13.692  72.489  1.00  0.00    -0.638 A  
HETATM   34  C   UNL     1     -12.968  12.919  71.390  1.00  0.00    -0.362 A  
ENDBRANCH  23  25
ENDBRANCH  20  21
BRANCH  20  35
HETATM   35  C   UNL     1      -9.427  11.898  64.312  1.00  0.00     0.064 C  
BRANCH  35  36
HETATM   36  C   UNL     1     -10.198  11.126  63.269  1.00  0.00    -0.350 C  
HETATM   37  N   UNL     1     -11.478  11.530  63.047  1.00  0.00    -0.844 N  
HETATM   38  O   UNL     1      -9.729  10.162  62.675  1.00  0.00    -0.261 OA 
HETATM   39  H2  UNL     1     -11.893  12.310  63.556  1.00  0.00     0.000 HD 
HETATM   40  H1  UNL     1     -11.999  11.008  62.343  1.00  0.00     0.000 HD 
ENDBRANCH  35  36
ENDBRANCH  20  35
ENDBRANCH  17  20
ENDBRANCH  15  16
BRANCH  15  41
HETATM   41  C   UNL     1      -6.072  10.481  68.995  1.00  0.00    -0.040 C  
BRANCH  41  42
HETATM   42  C   UNL     1      -6.098  11.975  68.749  1.00  0.00    -0.059 A  
HETATM   43  C   UNL     1      -6.873  12.827  69.548  1.00  0.00     0.104 A  
HETATM   44  C   UNL     1      -5.968  14.771  68.420  1.00  0.00    -0.102 A  
HETATM   45  C   UNL     1      -6.812  14.214  69.381  1.00  0.00    -0.104 A  
HETATM   46  C   UNL     1      -5.260  12.551  67.780  1.00  0.00    -0.101 A  
HETATM   47  C   UNL     1      -5.195  13.936  67.617  1.00  0.00     0.078 A  
ENDBRANCH  41  42
ENDBRANCH  15  41
ENDBRANCH  12  15
ENDBRANCH  11  12
ENDBRANCH   8  11
BRANCH   9  48
HETATM   48  C   UNL     1      -9.163   6.756  72.696  1.00  0.00    -0.139 C  
HETATM   49  C   UNL     1     -10.810   4.287  73.519  1.00  0.00    -0.351 C  
HETATM   50  O   UNL     1      -8.967   6.739  73.910  1.00  0.00    -0.140 OA 
HETATM   51  C   UNL     1      -8.356   3.775  73.261  1.00  0.00    -0.087 C  
HETATM   52  C   UNL     1      -9.621   4.273  72.540  1.00  0.00    -0.138 C  
HETATM   53  N   UNL     1      -9.395   5.609  71.957  1.00  0.00    -0.150 N  
HETATM   54  C   UNL     1      -9.950   3.276  71.412  1.00  0.00    -0.120 C  
HETATM   55  H   UNL     1      -9.412   5.693  70.940  1.00  0.00     0.000 HD 
ENDBRANCH   9  48
TORSDOF 12
ENDMDL
MODEL       52
REMARK 921   NORMALIZED FREE ENERGY PREDICTED BY IDOCK:   -5.14 KCAL/MOL
REMARK 922        TOTAL FREE ENERGY PREDICTED BY IDOCK:  -12.84 KCAL/MOL
REMARK 923 INTER-LIGAND FREE ENERGY PREDICTED BY IDOCK:  -11.28 KCAL/MOL
REMARK 924 INTRA-LIGAND FREE ENERGY PREDICTED BY IDOCK:   -1.55 KCAL/MOL
REMARK 927      BINDING AFFINITY PREDICTED BY RF-SCORE:    0.00 PKD
ROOT
HETATM    1  C   UNL     1     -10.951  17.828  66.530  1.00  0.00     0.237 C  
HETATM    2  C   UNL     1     -10.853  19.239  65.934  1.00  0.00    -0.364 C  
HETATM    3  C   UNL     1      -9.725  20.053  66.563  1.00  0.00    -0.564 C  
HETATM    4  C   UNL     1      -9.888  20.137  68.076  1.00  0.00    -0.498 C  
HETATM    5  C   UNL     1      -9.969  18.753  68.713  1.00  0.00    -0.442 C  
HETATM    6  C   UNL     1     -11.032  17.863  68.056  1.00  0.00    -0.059 C  
HETATM    7  C   UNL     1     -11.017  16.425  68.577  1.00  0.00    -0.350 C  
HETATM    8  N   UNL     1      -9.771  15.688  68.315  1.00  0.00    -0.200 NA 
HETATM    9  C   UNL     1      -9.185  15.912  66.967  1.00  0.00    -0.214 C  
HETATM   10  C   UNL     1      -9.846  16.909  65.994  1.00  0.00    -0.281 C  
ENDROOT
BRANCH   8  11
HETATM   11  C   UNL     1     -10.020  14.239  68.571  1.00  0.00    -0.235 C  
BRANCH  11  12
HETATM   12  C   UNL     1     -11.499  13.772  68.526  1.00  0.00    -0.307 C  
HETATM   13  H   UNL     1     -12.912  13.692  67.167  1.00  0.00     0.000 HD 
HETATM   14  O   UNL     1     -12.006  13.977  67.195  1.00  0.00    -0.400 OA 
BRANCH  12  15
HETATM   15  C   UNL     1     -11.690  12.272  68.887  1.00  0.00    -0.328 C  
BRANCH  15  16
HETATM   16  N   UNL     1     -10.493  11.505  68.489  1.00  0.00    -0.201 N  
HETATM   17  C   UNL     1     -10.381  10.924  67.239  1.00  0.00    -0.216 C  
HETATM   18  O   UNL     1     -11.310  10.895  66.431  1.00  0.00    -0.133 OA 
HETATM   19  H   UNL     1      -9.727  11.400  69.154  1.00  0.00     0.000 HD 
BRANCH  17  20
HETATM   20  C   UNL     1      -9.025  10.246  66.952  1.00  0.00    -0.136 C  
BRANCH  20  21
HETATM   21  N   UNL     1      -9.138   8.816  67.226  1.00  0.00    -0.131 N  
HETATM   22  H   UNL     1      -9.755   8.260  66.634  1.00  0.00     0.000 HD 
HETATM   23  C   UNL     1      -8.459   8.178  68.235  1.00  0.00    -0.130 C  
HETATM   24  O   UNL     1      -7.632   8.743  68.947  1.00  0.00    -0.088 OA 
BRANCH  23  25
HETATM   25  C   UNL     1      -8.750   6.722  68.387  1.00  0.00    -0.123 A  
HETATM   26  N   UNL     1      -8.723   6.232  69.658  1.00  0.00    -0.135 NA 
HETATM   27  C   UNL     1      -8.926   4.913  69.817  1.00  0.00    -0.099 A  
HETATM   28  C   UNL     1      -9.183   4.048  68.730  1.00  0.00    -0.211 A  
HETATM   29  C   UNL     1      -9.244   4.598  67.443  1.00  0.00    -0.146 A  
HETATM   30  C   UNL     1      -9.365   2.673  68.944  1.00  0.00    -0.223 A  
HETATM   31  C   UNL     1      -9.019   5.957  67.264  1.00  0.00    -0.108 A  
HETATM   32  C   UNL     1      -9.286   2.146  70.231  1.00  0.00    -0.182 A  
HETATM   33  C   UNL     1      -9.043   2.993  71.307  1.00  0.00    -0.179 A  
HETATM   34  C   UNL     1      -8.871   4.364  71.091  1.00  0.00    -0.153 A  
ENDBRANCH  23  25
ENDBRANCH  20  21
BRANCH  20  35
HETATM   35  C   UNL     1      -8.475  10.565  65.564  1.00  0.00    -0.177 C  
BRANCH  35  36
HETATM   36  C   UNL     1      -7.096  10.003  65.315  1.00  0.00    -0.137 C  
HETATM   37  N   UNL     1      -6.328  10.673  64.414  1.00  0.00    -0.368 N  
HETATM   38  O   UNL     1      -6.689   8.981  65.855  1.00  0.00    -0.070 OA 
HETATM   39  H2  UNL     1      -6.664  11.507  63.933  1.00  0.00     0.000 HD 
HETATM   40  H1  UNL     1      -5.396  10.293  64.246  1.00  0.00     0.000 HD 
ENDBRANCH  35  36
ENDBRANCH  20  35
ENDBRANCH  17  20
ENDBRANCH  15  16
BRANCH  15  41
HETATM   41  C   UNL     1     -12.044  12.033  70.378  1.00  0.00    -0.407 C  
BRANCH  41  42
HETATM   42  C   UNL     1     -12.074  10.598  70.861  1.00  0.00    -0.489 A  
HETATM   43  C   UNL     1     -12.951  10.195  71.877  1.00  0.00    -0.549 A  
HETATM   44  C   UNL     1     -12.276   7.885  71.596  1.00  0.00    -0.339 A  
HETATM   45  C   UNL     1     -13.047   8.848  72.245  1.00  0.00    -0.491 A  
HETATM   46  C   UNL     1     -11.299   9.617  70.222  1.00  0.00    -0.311 A  
HETATM   47  C   UNL     1     -11.398   8.272  70.586  1.00  0.00    -0.257 A  
ENDBRANCH  41  42
ENDBRANCH  15  41
ENDBRANCH  12  15
ENDBRANCH  11  12
ENDBRANCH   8  11
BRANCH   9  48
HETATM   48  C   UNL     1      -7.666  16.257  67.091  1.00  0.00    -0.188 C  
HETATM   49  C   UNL     1      -5.188  17.472  65.726  1.00  0.00    -0.063 C  
HETATM   50  O   UNL     1      -6.832  15.378  67.299  1.00  0.00    -0.192 OA 
HETATM   51  C   UNL     1      -5.206  17.846  68.218  1.00  0.00    -0.155 C  
HETATM   52  C   UNL     1      -5.955  18.109  66.900  1.00  0.00    -0.147 C  
HETATM   53  N   UNL     1      -7.336  17.596  66.976  1.00  0.00    -0.183 N  
HETATM   54  C   UNL     1      -5.992  19.632  66.669  1.00  0.00    -0.164 C  
HETATM   55  H   UNL     1      -8.097  18.273  66.940  1.00  0.00     0.000 HD 
ENDBRANCH   9  48
TORSDOF 12
ENDMDL
MODEL       53
REMARK 921   NORMALIZED FREE ENERGY PREDICTED BY IDOCK:   -5.09 KCAL/MOL
REMARK 922        TOTAL FREE ENERGY PREDICTED BY IDOCK:  -12.75 KCAL/MOL
REMARK 923 INTER-LIGAND FREE ENERGY PREDICTED BY IDOCK:  -12.54 KCAL/MOL
REMARK 924 INTRA-LIGAND FREE ENERGY PREDICTED BY IDOCK:   -0.21 KCAL/MOL
REMARK 927      BINDING AFFINITY PREDICTED BY RF-SCORE:    0.00 PKD
ROOT
HETATM    1  C   UNL     1     -10.696  17.774  66.508  1.00  0.00    -0.111 C  
HETATM    2  C   UNL     1     -10.357  19.070  65.761  1.00  0.00    -0.316 C  
HETATM    3  C   UNL     1      -9.175  19.805  66.388  1.00  0.00    -0.468 C  
HETATM    4  C   UNL     1      -9.435  20.105  67.860  1.00  0.00    -0.438 C  
HETATM    5  C   UNL     1      -9.756  18.838  68.646  1.00  0.00    -0.437 C  
HETATM    6  C   UNL     1     -10.882  18.017  68.005  1.00  0.00    -0.194 C  
HETATM    7  C   UNL     1     -11.107  16.669  68.693  1.00  0.00    -0.294 C  
HETATM    8  N   UNL     1      -9.962  15.748  68.633  1.00  0.00    -0.203 NA 
HETATM    9  C   UNL     1      -9.253  15.717  67.327  1.00  0.00    -0.204 C  
HETATM   10  C   UNL     1      -9.694  16.657  66.186  1.00  0.00    -0.329 C  
ENDROOT
BRANCH   8  11
HETATM   11  C   UNL     1     -10.430  14.389  69.035  1.00  0.00    -0.222 C  
BRANCH  11  12
HETATM   12  C   UNL     1     -11.595  13.785  68.206  1.00  0.00    -0.338 C  
HETATM   13  H   UNL     1     -12.649  14.336  66.647  1.00  0.00     0.000 HD 
HETATM   14  O   UNL     1     -11.936  14.705  67.154  1.00  0.00    -0.391 OA 
BRANCH  12  15
HETATM   15  C   UNL     1     -11.251  12.416  67.555  1.00  0.00    -0.294 C  
BRANCH  15  16
HETATM   16  N   UNL     1     -11.831  11.320  68.357  1.00  0.00    -0.296 N  
HETATM   17  C   UNL     1     -11.069  10.586  69.247  1.00  0.00    -0.246 C  
HETATM   18  O   UNL     1      -9.847  10.705  69.337  1.00  0.00    -0.210 OA 
HETATM   19  H   UNL     1     -12.821  11.098  68.251  1.00  0.00     0.000 HD 
BRANCH  17  20
HETATM   20  C   UNL     1     -11.853   9.547  70.076  1.00  0.00     0.100 C  
BRANCH  20  21
HETATM   21  N   UNL     1     -11.308   8.217  69.815  1.00  0.00    -0.453 N  
HETATM   22  H   UNL     1     -11.632   7.718  68.986  1.00  0.00     0.000 HD 
HETATM   23  C   UNL     1     -10.383   7.602  70.622  1.00  0.00    -0.205 C  
HETATM   24  O   UNL     1      -9.871   8.152  71.594  1.00  0.00    -0.162 OA 
BRANCH  23  25
HETATM   25  C   UNL     1      -9.990   6.220  70.215  1.00  0.00    -0.173 A  
HETATM   26  N   UNL     1      -9.876   5.306  71.218  1.00  0.00    -0.165 NA 
HETATM   27  C   UNL     1      -9.469   4.070  70.885  1.00  0.00    -0.166 A  
HETATM   28  C   UNL     1      -9.185   3.697  69.552  1.00  0.00    -0.225 A  
HETATM   29  C   UNL     1      -9.352   4.656  68.544  1.00  0.00    -0.190 A  
HETATM   30  C   UNL     1      -8.738   2.399  69.257  1.00  0.00    -0.131 A  
HETATM   31  C   UNL     1      -9.757   5.942  68.878  1.00  0.00    -0.168 A  
HETATM   32  C   UNL     1      -8.565   1.467  70.277  1.00  0.00    -0.087 A  
HETATM   33  C   UNL     1      -8.853   1.824  71.590  1.00  0.00    -0.104 A  
HETATM   34  C   UNL     1      -9.305   3.115  71.880  1.00  0.00    -0.196 A  
ENDBRANCH  23  25
ENDBRANCH  20  21
BRANCH  20  35
HETATM   35  C   UNL     1     -11.934   9.898  71.560  1.00  0.00    -0.473 C  
BRANCH  35  36
HETATM   36  C   UNL     1     -13.335  10.192  72.037  1.00  0.00    -0.387 C  
HETATM   37  N   UNL     1     -14.123   9.112  72.291  1.00  0.00    -0.442 N  
HETATM   38  O   UNL     1     -13.770  11.332  72.156  1.00  0.00    -0.167 OA 
HETATM   39  H2  UNL     1     -13.785   8.158  72.167  1.00  0.00     0.000 HD 
HETATM   40  H1  UNL     1     -15.069   9.312  72.614  1.00  0.00     0.000 HD 
ENDBRANCH  35  36
ENDBRANCH  20  35
ENDBRANCH  17  20
ENDBRANCH  15  16
BRANCH  15  41
HETATM   41  C   UNL     1     -11.675  12.312  66.067  1.00  0.00    -0.451 C  
BRANCH  41  42
HETATM   42  C   UNL     1     -10.741  11.575  65.130  1.00  0.00    -0.348 A  
HETATM   43  C   UNL     1      -9.951  10.511  65.585  1.00  0.00    -0.332 A  
HETATM   44  C   UNL     1      -9.174  10.074  63.332  1.00  0.00    -0.317 A  
HETATM   45  C   UNL     1      -9.170   9.769  64.693  1.00  0.00    -0.312 A  
HETATM   46  C   UNL     1     -10.728  11.875  63.758  1.00  0.00    -0.476 A  
HETATM   47  C   UNL     1      -9.952  11.132  62.867  1.00  0.00    -0.282 A  
ENDBRANCH  41  42
ENDBRANCH  15  41
ENDBRANCH  12  15
ENDBRANCH  11  12
ENDBRANCH   8  11
BRANCH   9  48
HETATM   48  C   UNL     1      -7.714  15.874  67.546  1.00  0.00    -0.159 C  
HETATM   49  C   UNL     1      -5.171  17.468  66.858  1.00  0.00    -0.177 C  
HETATM   50  O   UNL     1      -6.938  14.963  67.265  1.00  0.00    -0.213 OA 
HETATM   51  C   UNL     1      -5.147  16.570  69.213  1.00  0.00    -0.124 C  
HETATM   52  C   UNL     1      -5.886  17.486  68.222  1.00  0.00    -0.158 C  
HETATM   53  N   UNL     1      -7.297  17.077  68.089  1.00  0.00    -0.186 N  
HETATM   54  C   UNL     1      -5.825  18.925  68.768  1.00  0.00    -0.221 C  
HETATM   55  H   UNL     1      -8.013  17.724  68.418  1.00  0.00     0.000 HD 
ENDBRANCH   9  48
TORSDOF 12
ENDMDL
MODEL       54
REMARK 921   NORMALIZED FREE ENERGY PREDICTED BY IDOCK:   -5.08 KCAL/MOL
REMARK 922        TOTAL FREE ENERGY PREDICTED BY IDOCK:  -12.73 KCAL/MOL
REMARK 923 INTER-LIGAND FREE ENERGY PREDICTED BY IDOCK:  -11.84 KCAL/MOL
REMARK 924 INTRA-LIGAND FREE ENERGY PREDICTED BY IDOCK:   -0.89 KCAL/MOL
REMARK 927      BINDING AFFINITY PREDICTED BY RF-SCORE:    0.00 PKD
ROOT
HETATM    1  C   UNL     1     -10.471  17.393  66.675  1.00  0.00    -0.253 C  
HETATM    2  C   UNL     1      -9.762  18.549  65.956  1.00  0.00    -0.126 C  
HETATM    3  C   UNL     1      -8.408  18.873  66.582  1.00  0.00    -0.304 C  
HETATM    4  C   UNL     1      -8.553  19.193  68.065  1.00  0.00    -0.345 C  
HETATM    5  C   UNL     1      -9.235  18.059  68.824  1.00  0.00    -0.229 C  
HETATM    6  C   UNL     1     -10.563  17.635  68.181  1.00  0.00    -0.359 C  
HETATM    7  C   UNL     1     -11.179  16.399  68.837  1.00  0.00    -0.304 C  
HETATM    8  N   UNL     1     -10.366  15.177  68.733  1.00  0.00    -0.229 NA 
HETATM    9  C   UNL     1      -9.711  14.973  67.414  1.00  0.00    -0.216 C  
HETATM   10  C   UNL     1      -9.857  16.036  66.307  1.00  0.00    -0.331 C  
ENDROOT
BRANCH   8  11
HETATM   11  C   UNL     1     -11.220  14.011  69.107  1.00  0.00    -0.269 C  
BRANCH  11  12
HETATM   12  C   UNL     1     -12.040  13.359  67.963  1.00  0.00    -0.248 C  
HETATM   13  H   UNL     1     -12.722  13.929  66.214  1.00  0.00     0.000 HD 
HETATM   14  O   UNL     1     -12.220  14.328  66.915  1.00  0.00    -0.438 OA 
BRANCH  12  15
HETATM   15  C   UNL     1     -11.359  12.105  67.345  1.00  0.00    -0.326 C  
BRANCH  15  16
HETATM   16  N   UNL     1     -11.660  10.916  68.166  1.00  0.00    -0.343 N  
HETATM   17  C   UNL     1     -10.788  10.459  69.137  1.00  0.00    -0.236 C  
HETATM   18  O   UNL     1      -9.659  10.926  69.293  1.00  0.00    -0.158 OA 
HETATM   19  H   UNL     1     -12.536  10.416  68.013  1.00  0.00     0.000 HD 
BRANCH  17  20
HETATM   20  C   UNL     1     -11.302   9.266  69.970  1.00  0.00    -0.113 C  
BRANCH  20  21
HETATM   21  N   UNL     1     -10.932   8.021  69.303  1.00  0.00    -0.427 N  
HETATM   22  H   UNL     1     -11.608   7.595  68.669  1.00  0.00     0.000 HD 
HETATM   23  C   UNL     1      -9.724   7.393  69.481  1.00  0.00    -0.159 C  
HETATM   24  O   UNL     1      -8.815   7.869  70.156  1.00  0.00    -0.141 OA 
BRANCH  23  25
HETATM   25  C   UNL     1      -9.556   6.101  68.751  1.00  0.00    -0.125 A  
HETATM   26  N   UNL     1      -9.330   6.191  67.411  1.00  0.00    -0.115 NA 
HETATM   27  C   UNL     1      -9.231   5.042  66.722  1.00  0.00    -0.120 A  
HETATM   28  C   UNL     1      -9.331   3.776  67.339  1.00  0.00    -0.233 A  
HETATM   29  C   UNL     1      -9.523   3.725  68.726  1.00  0.00    -0.220 A  
HETATM   30  C   UNL     1      -9.245   2.603  66.572  1.00  0.00    -0.082 A  
HETATM   31  C   UNL     1      -9.643   4.906  69.447  1.00  0.00    -0.239 A  
HETATM   32  C   UNL     1      -9.068   2.677  65.193  1.00  0.00    -0.140 A  
HETATM   33  C   UNL     1      -8.959   3.921  64.579  1.00  0.00    -0.132 A  
HETATM   34  C   UNL     1      -9.036   5.087  65.347  1.00  0.00    -0.157 A  
ENDBRANCH  23  25
ENDBRANCH  20  21
BRANCH  20  35
HETATM   35  C   UNL     1     -10.878   9.329  71.436  1.00  0.00    -0.434 C  
BRANCH  35  36
HETATM   36  C   UNL     1     -11.775   8.542  72.360  1.00  0.00    -0.358 C  
HETATM   37  N   UNL     1     -13.095   8.870  72.338  1.00  0.00    -0.470 N  
HETATM   38  O   UNL     1     -11.351   7.680  73.122  1.00  0.00    -0.360 OA 
HETATM   39  H2  UNL     1     -13.458   9.605  71.732  1.00  0.00     0.000 HD 
HETATM   40  H1  UNL     1     -13.701   8.338  72.963  1.00  0.00     0.000 HD 
ENDBRANCH  35  36
ENDBRANCH  20  35
ENDBRANCH  17  20
ENDBRANCH  15  16
BRANCH  15  41
HETATM   41  C   UNL     1     -11.723  11.870  65.856  1.00  0.00    -0.208 C  
BRANCH  41  42
HETATM   42  C   UNL     1     -10.663  11.243  64.974  1.00  0.00    -0.322 A  
HETATM   43  C   UNL     1     -10.397  11.746  63.694  1.00  0.00    -0.476 A  
HETATM   44  C   UNL     1      -8.543  10.207  63.434  1.00  0.00    -0.199 A  
HETATM   45  C   UNL     1      -9.347  11.228  62.927  1.00  0.00    -0.376 A  
HETATM   46  C   UNL     1      -9.850  10.209  65.467  1.00  0.00    -0.365 A  
HETATM   47  C   UNL     1      -8.799   9.696  64.704  1.00  0.00    -0.253 A  
ENDBRANCH  41  42
ENDBRANCH  15  41
ENDBRANCH  12  15
ENDBRANCH  11  12
ENDBRANCH   8  11
BRANCH   9  48
HETATM   48  C   UNL     1      -8.195  14.651  67.611  1.00  0.00    -0.171 C  
HETATM   49  C   UNL     1      -5.903  14.205  69.618  1.00  0.00    -0.107 C  
HETATM   50  O   UNL     1      -7.326  15.378  67.136  1.00  0.00    -0.204 OA 
HETATM   51  C   UNL     1      -5.660  12.800  67.539  1.00  0.00    -0.104 C  
HETATM   52  C   UNL     1      -6.552  13.106  68.756  1.00  0.00    -0.096 C  
HETATM   53  N   UNL     1      -7.906  13.499  68.322  1.00  0.00    -0.137 N  
HETATM   54  C   UNL     1      -6.645  11.828  69.612  1.00  0.00    -0.081 C  
HETATM   55  H   UNL     1      -8.681  12.881  68.564  1.00  0.00     0.000 HD 
ENDBRANCH   9  48
TORSDOF 12
ENDMDL
MODEL       55
REMARK 921   NORMALIZED FREE ENERGY PREDICTED BY IDOCK:   -5.04 KCAL/MOL
REMARK 922        TOTAL FREE ENERGY PREDICTED BY IDOCK:  -12.68 KCAL/MOL
REMARK 923 INTER-LIGAND FREE ENERGY PREDICTED BY IDOCK:  -11.05 KCAL/MOL
REMARK 924 INTRA-LIGAND FREE ENERGY PREDICTED BY IDOCK:   -1.63 KCAL/MOL
REMARK 927      BINDING AFFINITY PREDICTED BY RF-SCORE:    0.00 PKD
ROOT
HETATM    1  C   UNL     1      -8.640   3.575  68.048  1.00  0.00    -0.118 C  
HETATM    2  C   UNL     1      -8.281   2.376  68.935  1.00  0.00    -0.071 C  
HETATM    3  C   UNL     1      -7.640   2.804  70.252  1.00  0.00    -0.043 C  
HETATM    4  C   UNL     1      -6.402   3.659  70.006  1.00  0.00    -0.028 C  
HETATM    5  C   UNL     1      -6.719   4.877  69.144  1.00  0.00    -0.049 C  
HETATM    6  C   UNL     1      -7.445   4.506  67.844  1.00  0.00    -0.069 C  
HETATM    7  C   UNL     1      -7.908   5.726  67.047  1.00  0.00    -0.102 C  
HETATM    8  N   UNL     1      -8.892   6.575  67.735  1.00  0.00    -0.114 NA 
HETATM    9  C   UNL     1      -9.942   5.833  68.484  1.00  0.00    -0.154 C  
HETATM   10  C   UNL     1      -9.900   4.293  68.550  1.00  0.00    -0.115 C  
ENDROOT
BRANCH   8  11
HETATM   11  C   UNL     1      -9.489   7.509  66.735  1.00  0.00    -0.179 C  
BRANCH  11  12
HETATM   12  C   UNL     1      -9.082   9.002  66.853  1.00  0.00    -0.132 C  
HETATM   13  H   UNL     1      -7.642  10.130  66.147  1.00  0.00     0.000 HD 
HETATM   14  O   UNL     1      -7.892   9.216  66.074  1.00  0.00    -0.100 OA 
BRANCH  12  15
HETATM   15  C   UNL     1     -10.173   9.986  66.345  1.00  0.00    -0.221 C  
BRANCH  15  16
HETATM   16  N   UNL     1     -10.546  10.920  67.426  1.00  0.00    -0.227 N  
HETATM   17  C   UNL     1      -9.669  11.878  67.898  1.00  0.00    -0.192 C  
HETATM   18  O   UNL     1      -8.489  11.933  67.549  1.00  0.00    -0.147 OA 
HETATM   19  H   UNL     1     -11.479  10.858  67.835  1.00  0.00     0.000 HD 
BRANCH  17  20
HETATM   20  C   UNL     1     -10.253  12.836  68.957  1.00  0.00     0.128 C  
BRANCH  20  21
HETATM   21  N   UNL     1      -9.461  14.063  68.981  1.00  0.00    -0.403 N  
HETATM   22  H   UNL     1      -8.637  14.093  69.582  1.00  0.00     0.000 HD 
HETATM   23  C   UNL     1      -9.764  15.179  68.241  1.00  0.00    -0.219 C  
HETATM   24  O   UNL     1     -10.685  15.214  67.428  1.00  0.00    -0.274 OA 
BRANCH  23  25
HETATM   25  C   UNL     1      -8.863  16.352  68.445  1.00  0.00    -0.214 A  
HETATM   26  N   UNL     1      -9.176  17.480  67.749  1.00  0.00    -0.250 NA 
HETATM   27  C   UNL     1      -8.349  18.532  67.871  1.00  0.00    -0.265 A  
HETATM   28  C   UNL     1      -7.205  18.506  68.700  1.00  0.00    -0.306 A  
HETATM   29  C   UNL     1      -6.940  17.340  69.431  1.00  0.00    -0.123 A  
HETATM   30  C   UNL     1      -6.357  19.622  68.776  1.00  0.00    -0.307 A  
HETATM   31  C   UNL     1      -7.778  16.241  69.300  1.00  0.00    -0.186 A  
HETATM   32  C   UNL     1      -6.632  20.765  68.029  1.00  0.00    -0.337 A  
HETATM   33  C   UNL     1      -7.762  20.802  67.219  1.00  0.00    -0.332 A  
HETATM   34  C   UNL     1      -8.609  19.691  67.151  1.00  0.00    -0.357 A  
ENDBRANCH  23  25
ENDBRANCH  20  21
BRANCH  20  35
HETATM   35  C   UNL     1     -11.752  13.075  68.790  1.00  0.00    -0.363 C  
BRANCH  35  36
HETATM   36  C   UNL     1     -12.399  13.727  69.988  1.00  0.00    -0.300 C  
HETATM   37  N   UNL     1     -12.875  14.988  69.802  1.00  0.00    -0.600 N  
HETATM   38  O   UNL     1     -12.465  13.183  71.084  1.00  0.00    -0.361 OA 
HETATM   39  H2  UNL     1     -12.800  15.465  68.904  1.00  0.00     0.000 HD 
HETATM   40  H1  UNL     1     -13.312  15.428  70.611  1.00  0.00     0.000 HD 
ENDBRANCH  35  36
ENDBRANCH  20  35
ENDBRANCH  17  20
ENDBRANCH  15  16
BRANCH  15  41
HETATM   41  C   UNL     1      -9.770  10.747  65.055  1.00  0.00    -0.323 C  
BRANCH  41  42
HETATM   42  C   UNL     1     -10.705  11.836  64.573  1.00  0.00    -0.369 A  
HETATM   43  C   UNL     1     -10.415  13.190  64.793  1.00  0.00    -0.390 A  
HETATM   44  C   UNL     1     -12.339  13.856  63.481  1.00  0.00    -0.075 A  
HETATM   45  C   UNL     1     -11.229  14.192  64.255  1.00  0.00    -0.194 A  
HETATM   46  C   UNL     1     -11.831  11.514  63.798  1.00  0.00    -0.237 A  
HETATM   47  C   UNL     1     -12.641  12.514  63.256  1.00  0.00    -0.326 A  
ENDBRANCH  41  42
ENDBRANCH  15  41
ENDBRANCH  12  15
ENDBRANCH  11  12
ENDBRANCH   8  11
BRANCH   9  48
HETATM   48  C   UNL     1     -10.069   6.399  69.934  1.00  0.00    -0.171 C  
HETATM   49  C   UNL     1      -9.323   8.664  71.883  1.00  0.00    -0.357 C  
HETATM   50  O   UNL     1      -9.679   5.753  70.904  1.00  0.00    -0.167 OA 
HETATM   51  C   UNL     1     -11.607   7.702  72.341  1.00  0.00    -0.386 C  
HETATM   52  C   UNL     1     -10.729   8.422  71.303  1.00  0.00    -0.230 C  
HETATM   53  N   UNL     1     -10.661   7.645  70.051  1.00  0.00    -0.239 N  
HETATM   54  C   UNL     1     -11.363   9.796  71.013  1.00  0.00    -0.460 C  
HETATM   55  H   UNL     1     -11.079   8.054  69.215  1.00  0.00     0.000 HD 
ENDBRANCH   9  48
TORSDOF 12
ENDMDL
MODEL       56
REMARK 921   NORMALIZED FREE ENERGY PREDICTED BY IDOCK:   -5.03 KCAL/MOL
REMARK 922        TOTAL FREE ENERGY PREDICTED BY IDOCK:  -12.65 KCAL/MOL
REMARK 923 INTER-LIGAND FREE ENERGY PREDICTED BY IDOCK:  -11.05 KCAL/MOL
REMARK 924 INTRA-LIGAND FREE ENERGY PREDICTED BY IDOCK:   -1.60 KCAL/MOL
REMARK 927      BINDING AFFINITY PREDICTED BY RF-SCORE:    0.00 PKD
ROOT
HETATM    1  C   UNL     1     -10.969  18.389  66.302  1.00  0.00     0.192 C  
HETATM    2  C   UNL     1     -10.854  19.762  65.627  1.00  0.00    -0.337 C  
HETATM    3  C   UNL     1      -9.702  20.588  66.194  1.00  0.00    -0.164 C  
HETATM    4  C   UNL     1      -9.842  20.759  67.703  1.00  0.00    -0.353 C  
HETATM    5  C   UNL     1      -9.938  19.414  68.417  1.00  0.00    -0.527 C  
HETATM    6  C   UNL     1     -11.026  18.510  67.824  1.00  0.00    -0.152 C  
HETATM    7  C   UNL     1     -11.030  17.103  68.424  1.00  0.00    -0.221 C  
HETATM    8  N   UNL     1      -9.802  16.329  68.187  1.00  0.00    -0.226 NA 
HETATM    9  C   UNL     1      -9.231  16.467  66.820  1.00  0.00    -0.237 C  
HETATM   10  C   UNL     1      -9.888  17.421  65.802  1.00  0.00    -0.028 C  
ENDROOT
BRANCH   8  11
HETATM   11  C   UNL     1     -10.073  14.901  68.525  1.00  0.00    -0.232 C  
BRANCH  11  12
HETATM   12  C   UNL     1     -11.554  14.523  68.795  1.00  0.00    -0.312 C  
HETATM   13  H   UNL     1     -13.256  14.724  67.843  1.00  0.00     0.000 HD 
HETATM   14  O   UNL     1     -12.350  14.955  67.678  1.00  0.00    -0.026 OA 
BRANCH  12  15
HETATM   15  C   UNL     1     -11.782  12.997  68.986  1.00  0.00    -0.329 C  
BRANCH  15  16
HETATM   16  N   UNL     1     -10.711  12.242  68.307  1.00  0.00    -0.213 N  
HETATM   17  C   UNL     1     -10.920  11.607  67.097  1.00  0.00    -0.280 C  
HETATM   18  O   UNL     1     -12.031  11.519  66.572  1.00  0.00    -0.386 OA 
HETATM   19  H   UNL     1      -9.790  12.186  68.743  1.00  0.00     0.000 HD 
BRANCH  17  20
HETATM   20  C   UNL     1      -9.669  10.950  66.477  1.00  0.00    -0.198 C  
BRANCH  20  21
HETATM   21  N   UNL     1      -9.263   9.818  67.307  1.00  0.00    -0.134 N  
HETATM   22  H   UNL     1      -9.895   9.021  67.376  1.00  0.00     0.000 HD 
HETATM   23  C   UNL     1      -8.077   9.769  67.999  1.00  0.00    -0.105 C  
HETATM   24  O   UNL     1      -7.216  10.640  67.914  1.00  0.00    -0.085 OA 
BRANCH  23  25
HETATM   25  C   UNL     1      -7.870   8.549  68.834  1.00  0.00    -0.109 A  
HETATM   26  N   UNL     1      -7.957   7.354  68.187  1.00  0.00    -0.121 NA 
HETATM   27  C   UNL     1      -7.830   6.239  68.926  1.00  0.00    -0.105 A  
HETATM   28  C   UNL     1      -7.591   6.274  70.318  1.00  0.00    -0.096 A  
HETATM   29  C   UNL     1      -7.467   7.523  70.940  1.00  0.00    -0.073 A  
HETATM   30  C   UNL     1      -7.490   5.081  71.052  1.00  0.00    -0.077 A  
HETATM   31  C   UNL     1      -7.613   8.683  70.189  1.00  0.00    -0.069 A  
HETATM   32  C   UNL     1      -7.631   3.851  70.415  1.00  0.00    -0.044 A  
HETATM   33  C   UNL     1      -7.855   3.808  69.043  1.00  0.00    -0.052 A  
HETATM   34  C   UNL     1      -7.948   4.998  68.314  1.00  0.00    -0.086 A  
ENDBRANCH  23  25
ENDBRANCH  20  21
BRANCH  20  35
HETATM   35  C   UNL     1      -9.842  10.599  65.001  1.00  0.00    -0.353 C  
BRANCH  35  36
HETATM   36  C   UNL     1     -10.421  11.723  64.176  1.00  0.00    -0.346 C  
HETATM   37  N   UNL     1     -11.484  11.404  63.389  1.00  0.00    -0.797 N  
HETATM   38  O   UNL     1      -9.950  12.854  64.172  1.00  0.00    -0.284 OA 
HETATM   39  H2  UNL     1     -11.868  10.460  63.358  1.00  0.00     0.000 HD 
HETATM   40  H1  UNL     1     -11.875  12.163  62.831  1.00  0.00     0.000 HD 
ENDBRANCH  35  36
ENDBRANCH  20  35
ENDBRANCH  17  20
ENDBRANCH  15  16
BRANCH  15  41
HETATM   41  C   UNL     1     -11.918  12.571  70.471  1.00  0.00    -0.277 C  
BRANCH  41  42
HETATM   42  C   UNL     1     -12.068  11.091  70.756  1.00  0.00    -0.467 A  
HETATM   43  C   UNL     1     -11.073  10.178  70.382  1.00  0.00    -0.393 A  
HETATM   44  C   UNL     1     -12.258   8.376  71.487  1.00  0.00    -0.340 A  
HETATM   45  C   UNL     1     -11.170   8.829  70.741  1.00  0.00    -0.309 A  
HETATM   46  C   UNL     1     -13.161  10.618  71.500  1.00  0.00    -0.460 A  
HETATM   47  C   UNL     1     -13.256   9.272  71.863  1.00  0.00    -0.493 A  
ENDBRANCH  41  42
ENDBRANCH  15  41
ENDBRANCH  12  15
ENDBRANCH  11  12
ENDBRANCH   8  11
BRANCH   9  48
HETATM   48  C   UNL     1      -7.705  16.789  66.904  1.00  0.00    -0.219 C  
HETATM   49  C   UNL     1      -5.284  18.131  65.555  1.00  0.00    -0.215 C  
HETATM   50  O   UNL     1      -6.870  15.889  66.976  1.00  0.00    -0.202 OA 
HETATM   51  C   UNL     1      -5.176  18.237  68.070  1.00  0.00    -0.158 C  
HETATM   52  C   UNL     1      -5.986  18.643  66.827  1.00  0.00    -0.154 C  
HETATM   53  N   UNL     1      -7.367  18.131  66.916  1.00  0.00    -0.198 N  
HETATM   54  C   UNL     1      -6.020  20.182  66.761  1.00  0.00    -0.197 C  
HETATM   55  H   UNL     1      -8.122  18.812  66.991  1.00  0.00     0.000 HD 
ENDBRANCH   9  48
TORSDOF 12
ENDMDL
MODEL       57
REMARK 921   NORMALIZED FREE ENERGY PREDICTED BY IDOCK:   -4.91 KCAL/MOL
REMARK 922        TOTAL FREE ENERGY PREDICTED BY IDOCK:  -12.45 KCAL/MOL
REMARK 923 INTER-LIGAND FREE ENERGY PREDICTED BY IDOCK:   -8.12 KCAL/MOL
REMARK 924 INTRA-LIGAND FREE ENERGY PREDICTED BY IDOCK:   -4.34 KCAL/MOL
REMARK 927      BINDING AFFINITY PREDICTED BY RF-SCORE:    0.00 PKD
ROOT
HETATM    1  C   UNL     1     -10.513   8.767  72.052  1.00  0.00    -0.414 C  
HETATM    2  C   UNL     1     -11.738   7.934  72.453  1.00  0.00    -0.423 C  
HETATM    3  C   UNL     1     -11.645   6.495  71.953  1.00  0.00    -0.357 C  
HETATM    4  C   UNL     1     -11.457   6.451  70.441  1.00  0.00    -0.458 C  
HETATM    5  C   UNL     1     -10.235   7.250  70.000  1.00  0.00    -0.206 C  
HETATM    6  C   UNL     1     -10.238   8.682  70.551  1.00  0.00    -0.229 C  
HETATM    7  C   UNL     1      -8.946   9.444  70.250  1.00  0.00    -0.240 C  
HETATM    8  N   UNL     1      -7.735   8.867  70.854  1.00  0.00    -0.109 NA 
HETATM    9  C   UNL     1      -7.907   8.376  72.247  1.00  0.00    -0.110 C  
HETATM   10  C   UNL     1      -9.293   8.432  72.921  1.00  0.00    -0.283 C  
ENDROOT
BRANCH   8  11
HETATM   11  C   UNL     1      -6.638   9.874  70.760  1.00  0.00    -0.066 C  
BRANCH  11  12
HETATM   12  C   UNL     1      -5.357   9.433  70.001  1.00  0.00    -0.032 C  
HETATM   13  H   UNL     1      -4.515   7.726  69.531  1.00  0.00     0.000 HD 
HETATM   14  O   UNL     1      -5.299   7.996  69.995  1.00  0.00    -0.023 OA 
BRANCH  12  15
HETATM   15  C   UNL     1      -5.309   9.922  68.527  1.00  0.00    -0.035 C  
BRANCH  15  16
HETATM   16  N   UNL     1      -6.492   9.428  67.795  1.00  0.00    -0.059 N  
HETATM   17  C   UNL     1      -6.384   8.503  66.773  1.00  0.00    -0.056 C  
HETATM   18  O   UNL     1      -5.300   8.131  66.321  1.00  0.00    -0.025 OA 
HETATM   19  H   UNL     1      -7.415   9.778  68.050  1.00  0.00     0.000 HD 
BRANCH  17  20
HETATM   20  C   UNL     1      -7.726   8.018  66.185  1.00  0.00    -0.087 C  
BRANCH  20  21
HETATM   21  N   UNL     1      -8.648   9.148  66.104  1.00  0.00    -0.131 N  
HETATM   22  H   UNL     1      -8.291  10.038  65.757  1.00  0.00     0.000 HD 
HETATM   23  C   UNL     1      -9.970   9.079  66.471  1.00  0.00    -0.285 C  
HETATM   24  O   UNL     1     -10.514   8.034  66.821  1.00  0.00    -0.330 OA 
BRANCH  23  25
HETATM   25  C   UNL     1     -10.736  10.356  66.366  1.00  0.00    -0.064 A  
HETATM   26  N   UNL     1     -10.857  10.885  65.117  1.00  0.00    -0.135 NA 
HETATM   27  C   UNL     1     -11.492  12.063  65.003  1.00  0.00    -0.286 A  
HETATM   28  C   UNL     1     -12.045  12.738  66.114  1.00  0.00    -0.429 A  
HETATM   29  C   UNL     1     -11.935  12.141  67.377  1.00  0.00    -0.168 A  
HETATM   30  C   UNL     1     -12.679  13.980  65.948  1.00  0.00    -0.436 A  
HETATM   31  C   UNL     1     -11.265  10.932  67.510  1.00  0.00    -0.364 A  
HETATM   32  C   UNL     1     -12.764  14.562  64.686  1.00  0.00    -0.062 A  
HETATM   33  C   UNL     1     -12.232  13.897  63.585  1.00  0.00    -0.232 A  
HETATM   34  C   UNL     1     -11.608  12.657  63.753  1.00  0.00    -0.550 A  
ENDBRANCH  23  25
ENDBRANCH  20  21
BRANCH  20  35
HETATM   35  C   UNL     1      -7.567   7.260  64.869  1.00  0.00    -0.102 C  
BRANCH  35  36
HETATM   36  C   UNL     1      -7.497   8.158  63.657  1.00  0.00    -0.120 C  
HETATM   37  N   UNL     1      -6.258   8.363  63.133  1.00  0.00    -0.081 N  
HETATM   38  O   UNL     1      -8.482   8.710  63.183  1.00  0.00    -0.176 OA 
HETATM   39  H2  UNL     1      -5.425   7.935  63.535  1.00  0.00     0.000 HD 
HETATM   40  H1  UNL     1      -6.211   8.970  62.314  1.00  0.00     0.000 HD 
ENDBRANCH  35  36
ENDBRANCH  20  35
ENDBRANCH  17  20
ENDBRANCH  15  16
BRANCH  15  41
HETATM   41  C   UNL     1      -5.161  11.460  68.387  1.00  0.00    -0.039 C  
BRANCH  41  42
HETATM   42  C   UNL     1      -6.433  12.282  68.401  1.00  0.00    -0.057 A  
HETATM   43  C   UNL     1      -6.708  13.172  69.449  1.00  0.00    -0.022 A  
HETATM   44  C   UNL     1      -8.693  13.963  68.305  1.00  0.00    -0.183 A  
HETATM   45  C   UNL     1      -7.833  14.002  69.403  1.00  0.00     0.306 A  
HETATM   46  C   UNL     1      -7.312  12.249  67.307  1.00  0.00    -0.140 A  
HETATM   47  C   UNL     1      -8.432  13.082  67.259  1.00  0.00    -0.199 A  
ENDBRANCH  41  42
ENDBRANCH  15  41
ENDBRANCH  12  15
ENDBRANCH  11  12
ENDBRANCH   8  11
BRANCH   9  48
HETATM   48  C   UNL     1      -7.337   6.928  72.381  1.00  0.00    -0.086 C  
HETATM   49  C   UNL     1      -7.804   4.069  73.428  1.00  0.00    -0.085 C  
HETATM   50  O   UNL     1      -6.274   6.715  72.960  1.00  0.00    -0.057 OA 
HETATM   51  C   UNL     1      -6.467   4.115  71.292  1.00  0.00    -0.019 C  
HETATM   52  C   UNL     1      -7.812   4.482  71.944  1.00  0.00    -0.097 C  
HETATM   53  N   UNL     1      -8.086   5.923  71.793  1.00  0.00    -0.117 N  
HETATM   54  C   UNL     1      -8.919   3.678  71.236  1.00  0.00    -0.159 C  
HETATM   55  H   UNL     1      -8.882   6.198  71.217  1.00  0.00     0.000 HD 
ENDBRANCH   9  48
TORSDOF 12
ENDMDL
MODEL       58
REMARK 921   NORMALIZED FREE ENERGY PREDICTED BY IDOCK:   -4.71 KCAL/MOL
REMARK 922        TOTAL FREE ENERGY PREDICTED BY IDOCK:  -12.12 KCAL/MOL
REMARK 923 INTER-LIGAND FREE ENERGY PREDICTED BY IDOCK:   -9.27 KCAL/MOL
REMARK 924 INTRA-LIGAND FREE ENERGY PREDICTED BY IDOCK:   -2.85 KCAL/MOL
REMARK 927      BINDING AFFINITY PREDICTED BY RF-SCORE:    0.00 PKD
ROOT
HETATM    1  C   UNL     1     -12.077  12.974  69.846  1.00  0.00    -0.347 C  
HETATM    2  C   UNL     1     -11.758  11.563  70.358  1.00  0.00    -0.328 C  
HETATM    3  C   UNL     1     -10.513  10.978  69.697  1.00  0.00    -0.069 C  
HETATM    4  C   UNL     1     -10.657  10.961  68.179  1.00  0.00    -0.233 C  
HETATM    5  C   UNL     1     -10.954  12.351  67.624  1.00  0.00    -0.276 C  
HETATM    6  C   UNL     1     -12.147  13.020  68.320  1.00  0.00    -0.197 C  
HETATM    7  C   UNL     1     -12.358  14.471  67.886  1.00  0.00     0.066 C  
HETATM    8  N   UNL     1     -11.246  15.378  68.206  1.00  0.00    -0.308 NA 
HETATM    9  C   UNL     1     -10.636  15.169  69.546  1.00  0.00    -0.270 C  
HETATM   10  C   UNL     1     -11.133  14.022  70.450  1.00  0.00     0.285 C  
ENDROOT
BRANCH   8  11
HETATM   11  C   UNL     1     -11.721  16.783  68.035  1.00  0.00     0.536 C  
BRANCH  11  12
HETATM   12  C   UNL     1     -10.658  17.824  67.594  1.00  0.00    -0.379 C  
HETATM   13  H   UNL     1      -9.402  19.026  68.501  1.00  0.00     0.000 HD 
HETATM   14  O   UNL     1     -10.053  18.389  68.770  1.00  0.00    -0.379 OA 
BRANCH  12  15
HETATM   15  C   UNL     1      -9.527  17.223  66.713  1.00  0.00    -0.265 C  
BRANCH  15  16
HETATM   16  N   UNL     1     -10.098  16.254  65.757  1.00  0.00    -0.351 N  
HETATM   17  C   UNL     1      -9.563  14.990  65.592  1.00  0.00    -0.244 C  
HETATM   18  O   UNL     1      -8.510  14.636  66.126  1.00  0.00     0.253 OA 
HETATM   19  H   UNL     1     -10.911  16.523  65.203  1.00  0.00     0.000 HD 
BRANCH  17  20
HETATM   20  C   UNL     1     -10.341  14.070  64.629  1.00  0.00    -0.309 C  
BRANCH  20  21
HETATM   21  N   UNL     1      -9.891  12.692  64.814  1.00  0.00    -0.505 N  
HETATM   22  H   UNL     1      -9.820  12.334  65.767  1.00  0.00     0.000 HD 
HETATM   23  C   UNL     1      -9.559  11.854  63.779  1.00  0.00    -0.117 C  
HETATM   24  O   UNL     1      -9.691  12.165  62.597  1.00  0.00     0.039 OA 
BRANCH  23  25
HETATM   25  C   UNL     1      -9.070  10.501  64.176  1.00  0.00    -0.231 A  
HETATM   26  N   UNL     1      -9.704   9.918  65.231  1.00  0.00    -0.301 NA 
HETATM   27  C   UNL     1      -9.246   8.724  65.645  1.00  0.00    -0.180 A  
HETATM   28  C   UNL     1      -8.166   8.065  65.015  1.00  0.00    -0.144 A  
HETATM   29  C   UNL     1      -7.567   8.680  63.908  1.00  0.00    -0.127 A  
HETATM   30  C   UNL     1      -7.708   6.830  65.500  1.00  0.00    -0.101 A  
HETATM   31  C   UNL     1      -8.021   9.921  63.482  1.00  0.00    -0.155 A  
HETATM   32  C   UNL     1      -8.309   6.244  66.611  1.00  0.00    -0.112 A  
HETATM   33  C   UNL     1      -9.380   6.882  67.230  1.00  0.00    -0.152 A  
HETATM   34  C   UNL     1      -9.839   8.109  66.740  1.00  0.00    -0.329 A  
ENDBRANCH  23  25
ENDBRANCH  20  21
BRANCH  20  35
HETATM   35  C   UNL     1     -11.856  14.240  64.726  1.00  0.00    -0.436 C  
BRANCH  35  36
HETATM   36  C   UNL     1     -12.634  13.162  64.011  1.00  0.00    -0.169 C  
HETATM   37  N   UNL     1     -12.706  13.272  62.657  1.00  0.00    -0.213 N  
HETATM   38  O   UNL     1     -13.206  12.254  64.602  1.00  0.00    -0.763 OA 
HETATM   39  H2  UNL     1     -12.261  14.039  62.154  1.00  0.00     0.000 HD 
HETATM   40  H1  UNL     1     -13.232  12.543  62.174  1.00  0.00     0.000 HD 
ENDBRANCH  35  36
ENDBRANCH  20  35
ENDBRANCH  17  20
ENDBRANCH  15  16
BRANCH  15  41
HETATM   41  C   UNL     1      -8.671  18.294  65.987  1.00  0.00     0.006 C  
BRANCH  41  42
HETATM   42  C   UNL     1      -7.562  18.951  66.782  1.00  0.00    -0.242 A  
HETATM   43  C   UNL     1      -7.451  20.346  66.853  1.00  0.00    -0.345 A  
HETATM   44  C   UNL     1      -5.630  20.158  68.441  1.00  0.00    -0.263 A  
HETATM   45  C   UNL     1      -6.489  20.945  67.673  1.00  0.00    -0.398 A  
HETATM   46  C   UNL     1      -6.686  18.172  67.555  1.00  0.00    -0.198 A  
HETATM   47  C   UNL     1      -5.728  18.770  68.377  1.00  0.00    -0.193 A  
ENDBRANCH  41  42
ENDBRANCH  15  41
ENDBRANCH  12  15
ENDBRANCH  11  12
ENDBRANCH   8  11
BRANCH   9  48
HETATM   48  C   UNL     1      -9.082  15.077  69.421  1.00  0.00    -0.115 C  
HETATM   49  C   UNL     1      -6.495  13.757  70.445  1.00  0.00     0.084 C  
HETATM   50  O   UNL     1      -8.372  16.064  69.600  1.00  0.00    -0.117 OA 
HETATM   51  C   UNL     1      -6.396  14.309  67.989  1.00  0.00    -0.159 C  
HETATM   52  C   UNL     1      -7.136  13.500  69.069  1.00  0.00    -0.066 C  
HETATM   53  N   UNL     1      -8.572  13.837  69.078  1.00  0.00    -0.355 N  
HETATM   54  C   UNL     1      -6.967  12.004  68.742  1.00  0.00    -0.101 C  
HETATM   55  H   UNL     1      -9.233  13.106  68.815  1.00  0.00     0.000 HD 
ENDBRANCH   9  48
TORSDOF 12
ENDMDL
MODEL       59
REMARK 921   NORMALIZED FREE ENERGY PREDICTED BY IDOCK:   -4.71 KCAL/MOL
REMARK 922        TOTAL FREE ENERGY PREDICTED BY IDOCK:  -12.11 KCAL/MOL
REMARK 923 INTER-LIGAND FREE ENERGY PREDICTED BY IDOCK:  -10.60 KCAL/MOL
REMARK 924 INTRA-LIGAND FREE ENERGY PREDICTED BY IDOCK:   -1.51 KCAL/MOL
REMARK 927      BINDING AFFINITY PREDICTED BY RF-SCORE:    0.00 PKD
ROOT
HETATM    1  C   UNL     1     -11.420   7.268  71.440  1.00  0.00    -0.294 C  
HETATM    2  C   UNL     1     -11.545   5.959  72.231  1.00  0.00    -0.338 C  
HETATM    3  C   UNL     1     -10.304   5.081  72.094  1.00  0.00    -0.276 C  
HETATM    4  C   UNL     1     -10.008   4.777  70.630  1.00  0.00    -0.300 C  
HETATM    5  C   UNL     1      -9.854   6.054  69.808  1.00  0.00    -0.208 C  
HETATM    6  C   UNL     1     -11.039   7.012  69.982  1.00  0.00    -0.316 C  
HETATM    7  C   UNL     1     -10.827   8.360  69.291  1.00  0.00    -0.054 C  
HETATM    8  N   UNL     1      -9.697   9.147  69.808  1.00  0.00    -0.173 NA 
HETATM    9  C   UNL     1      -9.550   9.128  71.288  1.00  0.00    -0.261 C  
HETATM   10  C   UNL     1     -10.501   8.272  72.148  1.00  0.00    -0.371 C  
ENDROOT
BRANCH   8  11
HETATM   11  C   UNL     1      -9.816  10.540  69.287  1.00  0.00    -0.205 C  
BRANCH  11  12
HETATM   12  C   UNL     1      -8.497  11.231  68.851  1.00  0.00    -0.058 C  
HETATM   13  H   UNL     1      -7.021  10.809  67.631  1.00  0.00     0.000 HD 
HETATM   14  O   UNL     1      -7.829  10.387  67.898  1.00  0.00    -0.099 OA 
BRANCH  12  15
HETATM   15  C   UNL     1      -8.712  12.623  68.192  1.00  0.00    -0.190 C  
BRANCH  15  16
HETATM   16  N   UNL     1      -8.892  12.466  66.736  1.00  0.00    -0.261 N  
HETATM   17  C   UNL     1     -10.142  12.293  66.170  1.00  0.00    -0.245 C  
HETATM   18  O   UNL     1     -11.162  12.130  66.841  1.00  0.00    -0.282 OA 
HETATM   19  H   UNL     1      -8.072  12.484  66.129  1.00  0.00     0.000 HD 
BRANCH  17  20
HETATM   20  C   UNL     1     -10.161  12.246  64.628  1.00  0.00    -0.285 C  
BRANCH  20  21
HETATM   21  N   UNL     1      -9.227  11.222  64.169  1.00  0.00    -0.390 N  
HETATM   22  H   UNL     1      -8.521  11.487  63.481  1.00  0.00     0.000 HD 
HETATM   23  C   UNL     1      -9.244   9.922  64.611  1.00  0.00    -0.258 C  
HETATM   24  O   UNL     1      -9.999   9.527  65.497  1.00  0.00    -0.304 OA 
BRANCH  23  25
HETATM   25  C   UNL     1      -8.241   9.014  63.982  1.00  0.00    -0.167 A  
HETATM   26  N   UNL     1      -8.088   7.791  64.562  1.00  0.00    -0.134 NA 
HETATM   27  C   UNL     1      -7.151   6.976  64.050  1.00  0.00    -0.060 A  
HETATM   28  C   UNL     1      -6.358   7.335  62.937  1.00  0.00    -0.053 A  
HETATM   29  C   UNL     1      -6.574   8.585  62.343  1.00  0.00    -0.095 A  
HETATM   30  C   UNL     1      -5.375   6.458  62.452  1.00  0.00    -0.023 A  
HETATM   31  C   UNL     1      -7.528   9.444  62.874  1.00  0.00    -0.104 A  
HETATM   32  C   UNL     1      -5.167   5.226  63.068  1.00  0.00    -0.013 A  
HETATM   33  C   UNL     1      -5.952   4.861  64.157  1.00  0.00    -0.021 A  
HETATM   34  C   UNL     1      -6.936   5.734  64.633  1.00  0.00    -0.052 A  
ENDBRANCH  23  25
ENDBRANCH  20  21
BRANCH  20  35
HETATM   35  C   UNL     1     -11.566  12.101  64.048  1.00  0.00    -0.504 C  
BRANCH  35  36
HETATM   36  C   UNL     1     -12.351  13.391  64.032  1.00  0.00    -0.337 C  
HETATM   37  N   UNL     1     -12.898  13.776  65.217  1.00  0.00    -0.737 N  
HETATM   38  O   UNL     1     -12.529  14.046  63.012  1.00  0.00    -0.641 OA 
HETATM   39  H2  UNL     1     -12.784  13.225  66.067  1.00  0.00     0.000 HD 
HETATM   40  H1  UNL     1     -13.428  14.647  65.205  1.00  0.00     0.000 HD 
ENDBRANCH  35  36
ENDBRANCH  20  35
ENDBRANCH  17  20
ENDBRANCH  15  16
BRANCH  15  41
HETATM   41  C   UNL     1      -9.875  13.434  68.821  1.00  0.00    -0.030 C  
BRANCH  41  42
HETATM   42  C   UNL     1      -9.803  14.943  68.715  1.00  0.00    -0.225 A  
HETATM   43  C   UNL     1      -8.580  15.619  68.821  1.00  0.00    -0.193 A  
HETATM   44  C   UNL     1      -9.656  17.727  68.298  1.00  0.00    -0.312 A  
HETATM   45  C   UNL     1      -8.508  17.002  68.619  1.00  0.00    -0.262 A  
HETATM   46  C   UNL     1     -10.951  15.689  68.400  1.00  0.00    -0.308 A  
HETATM   47  C   UNL     1     -10.879  17.068  68.193  1.00  0.00    -0.338 A  
ENDBRANCH  41  42
ENDBRANCH  15  41
ENDBRANCH  12  15
ENDBRANCH  11  12
ENDBRANCH   8  11
BRANCH   9  48
HETATM   48  C   UNL     1      -8.074   8.794  71.677  1.00  0.00    -0.096 C  
HETATM   49  C   UNL     1      -6.057   8.351  73.962  1.00  0.00    -0.133 C  
HETATM   50  O   UNL     1      -7.143   9.506  71.307  1.00  0.00    -0.313 OA 
HETATM   51  C   UNL     1      -5.572   6.917  71.947  1.00  0.00    -0.037 C  
HETATM   52  C   UNL     1      -6.606   7.248  73.038  1.00  0.00    -0.064 C  
HETATM   53  N   UNL     1      -7.890   7.649  72.433  1.00  0.00    -0.097 N  
HETATM   54  C   UNL     1      -6.820   5.982  73.890  1.00  0.00    -0.080 C  
HETATM   55  H   UNL     1      -8.696   7.042  72.583  1.00  0.00     0.000 HD 
ENDBRANCH   9  48
TORSDOF 12
ENDMDL
MODEL       60
REMARK 921   NORMALIZED FREE ENERGY PREDICTED BY IDOCK:   -4.67 KCAL/MOL
REMARK 922        TOTAL FREE ENERGY PREDICTED BY IDOCK:  -12.04 KCAL/MOL
REMARK 923 INTER-LIGAND FREE ENERGY PREDICTED BY IDOCK:   -8.76 KCAL/MOL
REMARK 924 INTRA-LIGAND FREE ENERGY PREDICTED BY IDOCK:   -3.28 KCAL/MOL
REMARK 927      BINDING AFFINITY PREDICTED BY RF-SCORE:    0.00 PKD
ROOT
HETATM    1  C   UNL     1     -13.934  14.550  71.426  1.00  0.00    -0.432 C  
HETATM    2  C   UNL     1     -14.406  15.576  72.465  1.00  0.00    -0.363 C  
HETATM    3  C   UNL     1     -13.241  16.332  73.099  1.00  0.00    -0.359 C  
HETATM    4  C   UNL     1     -12.244  15.369  73.734  1.00  0.00    -0.714 C  
HETATM    5  C   UNL     1     -11.732  14.342  72.728  1.00  0.00     0.477 C  
HETATM    6  C   UNL     1     -12.869  13.615  71.998  1.00  0.00    -0.367 C  
HETATM    7  C   UNL     1     -12.373  12.699  70.878  1.00  0.00    -0.260 C  
HETATM    8  N   UNL     1     -11.674  13.388  69.783  1.00  0.00    -0.298 NA 
HETATM    9  C   UNL     1     -12.286  14.677  69.364  1.00  0.00    -0.164 C  
HETATM   10  C   UNL     1     -13.518  15.226  70.113  1.00  0.00     0.343 C  
ENDROOT
BRANCH   8  11
HETATM   11  C   UNL     1     -11.551  12.442  68.634  1.00  0.00    -0.319 C  
BRANCH  11  12
HETATM   12  C   UNL     1     -10.144  12.313  67.992  1.00  0.00    -0.206 C  
HETATM   13  H   UNL     1      -8.373  13.093  68.308  1.00  0.00     0.000 HD 
HETATM   14  O   UNL     1      -9.234  13.172  68.701  1.00  0.00    -0.109 OA 
BRANCH  12  15
HETATM   15  C   UNL     1      -9.572  10.867  68.034  1.00  0.00    -0.162 C  
BRANCH  15  16
HETATM   16  N   UNL     1      -8.714  10.702  69.224  1.00  0.00    -0.321 N  
HETATM   17  C   UNL     1      -7.405  10.269  69.125  1.00  0.00    -0.096 C  
HETATM   18  O   UNL     1      -6.912   9.871  68.069  1.00  0.00    -0.075 OA 
HETATM   19  H   UNL     1      -9.098  10.914  70.145  1.00  0.00     0.000 HD 
BRANCH  17  20
HETATM   20  C   UNL     1      -6.620  10.248  70.454  1.00  0.00    -0.126 C  
BRANCH  20  21
HETATM   21  N   UNL     1      -6.373   8.862  70.842  1.00  0.00    -0.048 N  
HETATM   22  H   UNL     1      -5.815   8.280  70.218  1.00  0.00     0.000 HD 
HETATM   23  C   UNL     1      -6.850   8.300  72.001  1.00  0.00    -0.085 C  
HETATM   24  O   UNL     1      -7.459   8.941  72.854  1.00  0.00    -0.354 OA 
BRANCH  23  25
HETATM   25  C   UNL     1      -6.535   6.854  72.192  1.00  0.00    -0.053 A  
HETATM   26  N   UNL     1      -6.447   6.101  71.060  1.00  0.00    -0.047 NA 
HETATM   27  C   UNL     1      -6.221   4.785  71.208  1.00  0.00    -0.019 A  
HETATM   28  C   UNL     1      -6.051   4.182  72.474  1.00  0.00    -0.016 A  
HETATM   29  C   UNL     1      -6.108   4.997  73.612  1.00  0.00    -0.038 A  
HETATM   30  C   UNL     1      -5.840   2.797  72.578  1.00  0.00    -0.008 A  
HETATM   31  C   UNL     1      -6.358   6.355  73.473  1.00  0.00    -0.065 A  
HETATM   32  C   UNL     1      -5.803   2.004  71.434  1.00  0.00    -0.013 A  
HETATM   33  C   UNL     1      -5.958   2.594  70.183  1.00  0.00    -0.023 A  
HETATM   34  C   UNL     1      -6.160   3.974  70.082  1.00  0.00    -0.019 A  
ENDBRANCH  23  25
ENDBRANCH  20  21
BRANCH  20  35
HETATM   35  C   UNL     1      -5.361  11.112  70.422  1.00  0.00    -0.104 C  
BRANCH  35  36
HETATM   36  C   UNL     1      -5.557  12.489  71.009  1.00  0.00    -0.079 C  
HETATM   37  N   UNL     1      -6.011  13.447  70.155  1.00  0.00    -0.173 N  
HETATM   38  O   UNL     1      -5.291  12.757  72.174  1.00  0.00    -0.383 OA 
HETATM   39  H2  UNL     1      -6.208  13.246  69.176  1.00  0.00     0.000 HD 
HETATM   40  H1  UNL     1      -6.143  14.377  70.553  1.00  0.00     0.000 HD 
ENDBRANCH  35  36
ENDBRANCH  20  35
ENDBRANCH  17  20
ENDBRANCH  15  16
BRANCH  15  41
HETATM   41  C   UNL     1     -10.663   9.766  67.967  1.00  0.00    -0.298 C  
BRANCH  41  42
HETATM   42  C   UNL     1     -10.727   8.784  69.119  1.00  0.00    -0.150 A  
HETATM   43  C   UNL     1     -10.059   7.554  69.058  1.00  0.00    -0.192 A  
HETATM   44  C   UNL     1     -10.674   7.064  71.350  1.00  0.00    -0.241 A  
HETATM   45  C   UNL     1     -10.037   6.698  70.165  1.00  0.00    -0.200 A  
HETATM   46  C   UNL     1     -11.370   9.135  70.317  1.00  0.00    -0.217 A  
HETATM   47  C   UNL     1     -11.344   8.284  71.423  1.00  0.00    -0.309 A  
ENDBRANCH  41  42
ENDBRANCH  15  41
ENDBRANCH  12  15
ENDBRANCH  11  12
ENDBRANCH   8  11
BRANCH   9  48
HETATM   48  C   UNL     1     -11.196  15.794  69.297  1.00  0.00    -0.324 C  
HETATM   49  C   UNL     1      -8.238  16.468  68.770  1.00  0.00    -0.248 C  
HETATM   50  O   UNL     1     -10.936  16.487  70.279  1.00  0.00    -0.332 OA 
HETATM   51  C   UNL     1      -9.796  18.315  68.057  1.00  0.00    -0.343 C  
HETATM   52  C   UNL     1      -9.410  16.841  67.844  1.00  0.00    -0.229 C  
HETATM   53  N   UNL     1     -10.571  15.961  68.073  1.00  0.00    -0.277 N  
HETATM   54  C   UNL     1      -8.931  16.679  66.388  1.00  0.00    -0.326 C  
HETATM   55  H   UNL     1     -10.938  15.440  67.277  1.00  0.00     0.000 HD 
ENDBRANCH   9  48
TORSDOF 12
ENDMDL
MODEL       61
REMARK 921   NORMALIZED FREE ENERGY PREDICTED BY IDOCK:   -4.62 KCAL/MOL
REMARK 922        TOTAL FREE ENERGY PREDICTED BY IDOCK:  -11.97 KCAL/MOL
REMARK 923 INTER-LIGAND FREE ENERGY PREDICTED BY IDOCK:   -9.13 KCAL/MOL
REMARK 924 INTRA-LIGAND FREE ENERGY PREDICTED BY IDOCK:   -2.83 KCAL/MOL
REMARK 927      BINDING AFFINITY PREDICTED BY RF-SCORE:    0.00 PKD
ROOT
HETATM    1  C   UNL     1     -11.529   7.206  71.545  1.00  0.00    -0.298 C  
HETATM    2  C   UNL     1     -12.109   6.037  72.353  1.00  0.00    -0.169 C  
HETATM    3  C   UNL     1     -11.040   5.022  72.747  1.00  0.00    -0.310 C  
HETATM    4  C   UNL     1     -10.308   4.492  71.519  1.00  0.00    -0.138 C  
HETATM    5  C   UNL     1      -9.696   5.622  70.696  1.00  0.00    -0.232 C  
HETATM    6  C   UNL     1     -10.714   6.716  70.348  1.00  0.00    -0.297 C  
HETATM    7  C   UNL     1     -10.082   7.927  69.661  1.00  0.00    -0.197 C  
HETATM    8  N   UNL     1      -9.095   8.652  70.476  1.00  0.00    -0.154 NA 
HETATM    9  C   UNL     1      -9.467   8.819  71.906  1.00  0.00    -0.292 C  
HETATM   10  C   UNL     1     -10.771   8.193  72.443  1.00  0.00    -0.404 C  
ENDROOT
BRANCH   8  11
HETATM   11  C   UNL     1      -8.822   9.967  69.824  1.00  0.00    -0.211 C  
BRANCH  11  12
HETATM   12  C   UNL     1      -7.344  10.441  69.817  1.00  0.00    -0.154 C  
HETATM   13  H   UNL     1      -5.784  10.214  70.983  1.00  0.00     0.000 HD 
HETATM   14  O   UNL     1      -6.689   9.924  70.987  1.00  0.00    -0.300 OA 
BRANCH  12  15
HETATM   15  C   UNL     1      -6.545   9.968  68.570  1.00  0.00    -0.053 C  
BRANCH  15  16
HETATM   16  N   UNL     1      -7.473   9.691  67.455  1.00  0.00    -0.091 N  
HETATM   17  C   UNL     1      -7.392   8.529  66.710  1.00  0.00    -0.082 C  
HETATM   18  O   UNL     1      -6.474   7.718  66.836  1.00  0.00    -0.052 OA 
HETATM   19  H   UNL     1      -8.194  10.376  67.228  1.00  0.00     0.000 HD 
BRANCH  17  20
HETATM   20  C   UNL     1      -8.500   8.353  65.650  1.00  0.00    -0.164 C  
BRANCH  20  21
HETATM   21  N   UNL     1      -9.014   9.667  65.273  1.00  0.00    -0.189 N  
HETATM   22  H   UNL     1      -8.544  10.170  64.520  1.00  0.00     0.000 HD 
HETATM   23  C   UNL     1     -10.095  10.263  65.875  1.00  0.00    -0.251 C  
HETATM   24  O   UNL     1     -10.776   9.705  66.731  1.00  0.00    -0.180 OA 
BRANCH  23  25
HETATM   25  C   UNL     1     -10.433  11.632  65.383  1.00  0.00    -0.275 A  
HETATM   26  N   UNL     1      -9.823  12.668  66.022  1.00  0.00    -0.259 NA 
HETATM   27  C   UNL     1     -10.152  13.913  65.636  1.00  0.00    -0.313 A  
HETATM   28  C   UNL     1     -11.074  14.166  64.596  1.00  0.00    -0.378 A  
HETATM   29  C   UNL     1     -11.650  13.072  63.937  1.00  0.00    -0.508 A  
HETATM   30  C   UNL     1     -11.405  15.485  64.245  1.00  0.00    -0.165 A  
HETATM   31  C   UNL     1     -11.330  11.781  64.338  1.00  0.00    -0.373 A  
HETATM   32  C   UNL     1     -10.832  16.557  64.924  1.00  0.00    -0.222 A  
HETATM   33  C   UNL     1      -9.914  16.315  65.942  1.00  0.00    -0.366 A  
HETATM   34  C   UNL     1      -9.581  15.001  66.284  1.00  0.00    -0.335 A  
ENDBRANCH  23  25
ENDBRANCH  20  21
BRANCH  20  35
HETATM   35  C   UNL     1      -8.065   7.498  64.462  1.00  0.00    -0.086 C  
BRANCH  35  36
HETATM   36  C   UNL     1      -6.990   8.138  63.617  1.00  0.00    -0.077 C  
HETATM   37  N   UNL     1      -5.761   7.556  63.667  1.00  0.00    -0.044 N  
HETATM   38  O   UNL     1      -7.184   9.147  62.950  1.00  0.00    -0.096 OA 
HETATM   39  H2  UNL     1      -5.577   6.734  64.242  1.00  0.00     0.000 HD 
HETATM   40  H1  UNL     1      -5.035   7.988  63.096  1.00  0.00     0.000 HD 
ENDBRANCH  35  36
ENDBRANCH  20  35
ENDBRANCH  17  20
ENDBRANCH  15  16
BRANCH  15  41
HETATM   41  C   UNL     1      -5.425  10.952  68.140  1.00  0.00    -0.039 C  
BRANCH  41  42
HETATM   42  C   UNL     1      -5.637  12.420  68.446  1.00  0.00    -0.057 A  
HETATM   43  C   UNL     1      -6.077  13.309  67.456  1.00  0.00    -0.098 A  
HETATM   44  C   UNL     1      -6.238  15.099  69.082  1.00  0.00    -0.106 A  
HETATM   45  C   UNL     1      -6.370  14.640  67.771  1.00  0.00    -0.170 A  
HETATM   46  C   UNL     1      -5.502  12.899  69.759  1.00  0.00    -0.095 A  
HETATM   47  C   UNL     1      -5.799  14.226  70.075  1.00  0.00    -0.131 A  
ENDBRANCH  41  42
ENDBRANCH  15  41
ENDBRANCH  12  15
ENDBRANCH  11  12
ENDBRANCH   8  11
BRANCH   9  48
HETATM   48  C   UNL     1      -8.281   8.385  72.825  1.00  0.00    -0.121 C  
HETATM   49  C   UNL     1      -6.948   6.090  74.388  1.00  0.00    -0.087 C  
HETATM   50  O   UNL     1      -8.092   8.923  73.913  1.00  0.00    -0.315 OA 
HETATM   51  C   UNL     1      -5.276   7.725  73.449  1.00  0.00    -0.041 C  
HETATM   52  C   UNL     1      -6.392   6.725  73.099  1.00  0.00    -0.062 C  
HETATM   53  N   UNL     1      -7.461   7.387  72.327  1.00  0.00    -0.075 N  
HETATM   54  C   UNL     1      -5.774   5.600  72.247  1.00  0.00    -0.026 C  
HETATM   55  H   UNL     1      -7.604   7.089  71.363  1.00  0.00     0.000 HD 
ENDBRANCH   9  48
TORSDOF 12
ENDMDL
MODEL       62
REMARK 921   NORMALIZED FREE ENERGY PREDICTED BY IDOCK:   -4.61 KCAL/MOL
REMARK 922        TOTAL FREE ENERGY PREDICTED BY IDOCK:  -11.94 KCAL/MOL
REMARK 923 INTER-LIGAND FREE ENERGY PREDICTED BY IDOCK:  -10.74 KCAL/MOL
REMARK 924 INTRA-LIGAND FREE ENERGY PREDICTED BY IDOCK:   -1.20 KCAL/MOL
REMARK 927      BINDING AFFINITY PREDICTED BY RF-SCORE:    0.00 PKD
ROOT
HETATM    1  C   UNL     1     -10.235   5.007  68.431  1.00  0.00    -0.143 C  
HETATM    2  C   UNL     1      -9.474   3.679  68.327  1.00  0.00    -0.214 C  
HETATM    3  C   UNL     1      -8.070   3.771  68.919  1.00  0.00    -0.065 C  
HETATM    4  C   UNL     1      -7.268   4.884  68.254  1.00  0.00    -0.062 C  
HETATM    5  C   UNL     1      -7.980   6.230  68.353  1.00  0.00    -0.105 C  
HETATM    6  C   UNL     1      -9.428   6.168  67.850  1.00  0.00    -0.115 C  
HETATM    7  C   UNL     1     -10.202   7.466  68.089  1.00  0.00    -0.187 C  
HETATM    8  N   UNL     1     -10.367   7.834  69.503  1.00  0.00    -0.215 NA 
HETATM    9  C   UNL     1     -10.678   6.699  70.412  1.00  0.00    -0.250 C  
HETATM   10  C   UNL     1     -10.738   5.260  69.858  1.00  0.00    -0.196 C  
ENDROOT
BRANCH   8  11
HETATM   11  C   UNL     1     -11.401   8.907  69.593  1.00  0.00     0.157 C  
BRANCH  11  12
HETATM   12  C   UNL     1     -10.879  10.366  69.675  1.00  0.00    -0.277 C  
HETATM   13  H   UNL     1      -9.123  11.230  69.804  1.00  0.00     0.000 HD 
HETATM   14  O   UNL     1      -9.443  10.337  69.753  1.00  0.00    -0.191 OA 
BRANCH  12  15
HETATM   15  C   UNL     1     -11.276  11.238  68.451  1.00  0.00    -0.262 C  
BRANCH  15  16
HETATM   16  N   UNL     1     -11.168  12.669  68.799  1.00  0.00    -0.263 N  
HETATM   17  C   UNL     1      -9.978  13.362  68.676  1.00  0.00    -0.135 C  
HETATM   18  O   UNL     1      -8.911  12.813  68.397  1.00  0.00    -0.184 OA 
HETATM   19  H   UNL     1     -11.994  13.160  69.141  1.00  0.00     0.000 HD 
BRANCH  17  20
HETATM   20  C   UNL     1     -10.065  14.871  68.986  1.00  0.00    -0.237 C  
BRANCH  20  21
HETATM   21  N   UNL     1      -9.137  15.592  68.118  1.00  0.00    -0.182 N  
HETATM   22  H   UNL     1      -8.690  15.078  67.359  1.00  0.00     0.000 HD 
HETATM   23  C   UNL     1      -8.834  16.923  68.267  1.00  0.00    -0.228 C  
HETATM   24  O   UNL     1      -9.381  17.646  69.096  1.00  0.00    -0.126 OA 
BRANCH  23  25
HETATM   25  C   UNL     1      -7.821  17.463  67.312  1.00  0.00    -0.198 A  
HETATM   26  N   UNL     1      -8.094  18.684  66.772  1.00  0.00    -0.256 NA 
HETATM   27  C   UNL     1      -7.226  19.168  65.867  1.00  0.00    -0.266 A  
HETATM   28  C   UNL     1      -6.057  18.471  65.489  1.00  0.00    -0.287 A  
HETATM   29  C   UNL     1      -5.792  17.237  66.097  1.00  0.00    -0.080 A  
HETATM   30  C   UNL     1      -5.193  19.007  64.520  1.00  0.00    -0.239 A  
HETATM   31  C   UNL     1      -6.689  16.719  67.021  1.00  0.00    -0.241 A  
HETATM   32  C   UNL     1      -5.484  20.229  63.918  1.00  0.00    -0.258 A  
HETATM   33  C   UNL     1      -6.629  20.925  64.294  1.00  0.00    -0.187 A  
HETATM   34  C   UNL     1      -7.483  20.392  65.265  1.00  0.00     0.081 A  
ENDBRANCH  23  25
ENDBRANCH  20  21
BRANCH  20  35
HETATM   35  C   UNL     1     -11.492  15.413  68.945  1.00  0.00    -0.354 C  
BRANCH  35  36
HETATM   36  C   UNL     1     -12.147  15.494  70.303  1.00  0.00    -0.386 C  
HETATM   37  N   UNL     1     -11.793  16.554  71.078  1.00  0.00    -0.484 N  
HETATM   38  O   UNL     1     -12.926  14.643  70.716  1.00  0.00    -0.348 OA 
HETATM   39  H2  UNL     1     -11.123  17.254  70.761  1.00  0.00     0.000 HD 
HETATM   40  H1  UNL     1     -12.236  16.609  71.995  1.00  0.00     0.000 HD 
ENDBRANCH  35  36
ENDBRANCH  20  35
ENDBRANCH  17  20
ENDBRANCH  15  16
BRANCH  15  41
HETATM   41  C   UNL     1     -10.472  10.908  67.166  1.00  0.00    -0.281 C  
BRANCH  41  42
HETATM   42  C   UNL     1     -10.855  11.646  65.900  1.00  0.00    -0.339 A  
HETATM   43  C   UNL     1     -10.008  11.655  64.784  1.00  0.00    -0.292 A  
HETATM   44  C   UNL     1     -11.676  12.837  63.482  1.00  0.00    -0.597 A  
HETATM   45  C   UNL     1     -10.414  12.250  63.585  1.00  0.00    -0.483 A  
HETATM   46  C   UNL     1     -12.118  12.248  65.784  1.00  0.00    -0.287 A  
HETATM   47  C   UNL     1     -12.526  12.837  64.585  1.00  0.00    -0.525 A  
ENDBRANCH  41  42
ENDBRANCH  15  41
ENDBRANCH  12  15
ENDBRANCH  11  12
ENDBRANCH   8  11
BRANCH   9  48
HETATM   48  C   UNL     1      -9.726   6.724  71.650  1.00  0.00    -0.162 C  
HETATM   49  C   UNL     1      -6.896   6.165  72.728  1.00  0.00    -0.074 C  
HETATM   50  O   UNL     1      -9.986   6.079  72.664  1.00  0.00    -0.174 OA 
HETATM   51  C   UNL     1      -7.999   8.125  73.866  1.00  0.00    -0.277 C  
HETATM   52  C   UNL     1      -7.505   7.565  72.521  1.00  0.00    -0.079 C  
HETATM   53  N   UNL     1      -8.604   7.527  71.538  1.00  0.00    -0.115 N  
HETATM   54  C   UNL     1      -6.390   8.492  72.000  1.00  0.00    -0.071 C  
HETATM   55  H   UNL     1      -8.532   8.134  70.721  1.00  0.00     0.000 HD 
ENDBRANCH   9  48
TORSDOF 12
ENDMDL
MODEL       63
REMARK 921   NORMALIZED FREE ENERGY PREDICTED BY IDOCK:   -4.58 KCAL/MOL
REMARK 922        TOTAL FREE ENERGY PREDICTED BY IDOCK:  -11.89 KCAL/MOL
REMARK 923 INTER-LIGAND FREE ENERGY PREDICTED BY IDOCK:  -10.62 KCAL/MOL
REMARK 924 INTRA-LIGAND FREE ENERGY PREDICTED BY IDOCK:   -1.28 KCAL/MOL
REMARK 927      BINDING AFFINITY PREDICTED BY RF-SCORE:    0.00 PKD
ROOT
HETATM    1  C   UNL     1     -10.889  17.867  66.499  1.00  0.00     0.026 C  
HETATM    2  C   UNL     1     -10.764  19.296  65.952  1.00  0.00    -0.463 C  
HETATM    3  C   UNL     1      -9.622  20.066  66.610  1.00  0.00    -0.548 C  
HETATM    4  C   UNL     1      -9.787  20.102  68.125  1.00  0.00    -0.460 C  
HETATM    5  C   UNL     1      -9.895  18.699  68.715  1.00  0.00    -0.422 C  
HETATM    6  C   UNL     1     -10.973  17.852  68.025  1.00  0.00    -0.059 C  
HETATM    7  C   UNL     1     -10.986  16.397  68.497  1.00  0.00    -0.350 C  
HETATM    8  N   UNL     1      -9.753  15.646  68.212  1.00  0.00    -0.200 NA 
HETATM    9  C   UNL     1      -9.160  15.905  66.873  1.00  0.00    -0.231 C  
HETATM   10  C   UNL     1      -9.800  16.947  65.933  1.00  0.00    -0.241 C  
ENDROOT
BRANCH   8  11
HETATM   11  C   UNL     1     -10.030  14.194  68.418  1.00  0.00    -0.235 C  
BRANCH  11  12
HETATM   12  C   UNL     1     -11.520  13.761  68.381  1.00  0.00    -0.316 C  
HETATM   13  H   UNL     1     -12.930  13.677  67.021  1.00  0.00     0.000 HD 
HETATM   14  O   UNL     1     -12.018  13.942  67.044  1.00  0.00    -0.391 OA 
BRANCH  12  15
HETATM   15  C   UNL     1     -11.746  12.276  68.782  1.00  0.00    -0.340 C  
BRANCH  15  16
HETATM   16  N   UNL     1     -10.589  11.462  68.361  1.00  0.00    -0.193 N  
HETATM   17  C   UNL     1     -10.530  10.868  67.114  1.00  0.00    -0.237 C  
HETATM   18  O   UNL     1     -11.479  10.867  66.329  1.00  0.00    -0.057 OA 
HETATM   19  H   UNL     1      -9.812  11.333  69.009  1.00  0.00     0.000 HD 
BRANCH  17  20
HETATM   20  C   UNL     1      -9.207  10.137  66.800  1.00  0.00    -0.151 C  
BRANCH  20  21
HETATM   21  N   UNL     1      -9.312   8.748  67.241  1.00  0.00    -0.144 N  
HETATM   22  H   UNL     1      -9.971   8.138  66.757  1.00  0.00     0.000 HD 
HETATM   23  C   UNL     1      -8.573   8.218  68.270  1.00  0.00    -0.133 C  
HETATM   24  O   UNL     1      -7.697   8.848  68.859  1.00  0.00    -0.091 OA 
BRANCH  23  25
HETATM   25  C   UNL     1      -8.864   6.793  68.605  1.00  0.00    -0.123 A  
HETATM   26  N   UNL     1      -8.764   6.451  69.919  1.00  0.00    -0.141 NA 
HETATM   27  C   UNL     1      -8.966   5.161  70.240  1.00  0.00    -0.124 A  
HETATM   28  C   UNL     1      -9.293   4.182  69.276  1.00  0.00    -0.237 A  
HETATM   29  C   UNL     1      -9.426   4.582  67.940  1.00  0.00    -0.200 A  
HETATM   30  C   UNL     1      -9.470   2.842  69.657  1.00  0.00    -0.148 A  
HETATM   31  C   UNL     1      -9.203   5.908  67.594  1.00  0.00    -0.104 A  
HETATM   32  C   UNL     1      -9.318   2.464  70.989  1.00  0.00    -0.212 A  
HETATM   33  C   UNL     1      -9.007   3.426  71.945  1.00  0.00    -0.147 A  
HETATM   34  C   UNL     1      -8.839   4.760  71.564  1.00  0.00    -0.151 A  
ENDBRANCH  23  25
ENDBRANCH  20  21
BRANCH  20  35
HETATM   35  C   UNL     1      -8.767  10.289  65.346  1.00  0.00    -0.183 C  
BRANCH  35  36
HETATM   36  C   UNL     1      -7.423   9.666  65.053  1.00  0.00    -0.116 C  
HETATM   37  N   UNL     1      -7.388   8.767  64.032  1.00  0.00    -0.099 N  
HETATM   38  O   UNL     1      -6.419   9.914  65.710  1.00  0.00    -0.081 OA 
HETATM   39  H2  UNL     1      -8.221   8.528  63.495  1.00  0.00     0.000 HD 
HETATM   40  H1  UNL     1      -6.480   8.347  63.834  1.00  0.00     0.000 HD 
ENDBRANCH  35  36
ENDBRANCH  20  35
ENDBRANCH  17  20
ENDBRANCH  15  16
BRANCH  15  41
HETATM   41  C   UNL     1     -12.057  12.081  70.289  1.00  0.00    -0.395 C  
BRANCH  41  42
HETATM   42  C   UNL     1     -12.636  13.264  71.036  1.00  0.00    -0.408 A  
HETATM   43  C   UNL     1     -13.176  14.360  70.349  1.00  0.00     0.022 A  
HETATM   44  C   UNL     1     -13.905  15.356  72.435  1.00  0.00    -0.661 A  
HETATM   45  C   UNL     1     -13.801  15.400  71.045  1.00  0.00    -0.361 A  
HETATM   46  C   UNL     1     -12.741  13.237  72.436  1.00  0.00    -0.069 A  
HETATM   47  C   UNL     1     -13.370  14.273  73.130  1.00  0.00    -0.252 A  
ENDBRANCH  41  42
ENDBRANCH  15  41
ENDBRANCH  12  15
ENDBRANCH  11  12
ENDBRANCH   8  11
BRANCH   9  48
HETATM   48  C   UNL     1      -7.636  16.216  67.012  1.00  0.00    -0.225 C  
HETATM   49  C   UNL     1      -5.145  17.483  65.718  1.00  0.00    -0.085 C  
HETATM   50  O   UNL     1      -6.814  15.313  67.154  1.00  0.00    -0.254 OA 
HETATM   51  C   UNL     1      -5.144  17.687  68.229  1.00  0.00    -0.144 C  
HETATM   52  C   UNL     1      -5.896  18.051  66.937  1.00  0.00    -0.142 C  
HETATM   53  N   UNL     1      -7.284  17.555  66.985  1.00  0.00    -0.171 N  
HETATM   54  C   UNL     1      -5.910  19.586  66.809  1.00  0.00    -0.169 C  
HETATM   55  H   UNL     1      -8.035  18.245  67.000  1.00  0.00     0.000 HD 
ENDBRANCH   9  48
TORSDOF 12
ENDMDL
MODEL       64
REMARK 921   NORMALIZED FREE ENERGY PREDICTED BY IDOCK:   -4.51 KCAL/MOL
REMARK 922        TOTAL FREE ENERGY PREDICTED BY IDOCK:  -11.77 KCAL/MOL
REMARK 923 INTER-LIGAND FREE ENERGY PREDICTED BY IDOCK:   -8.26 KCAL/MOL
REMARK 924 INTRA-LIGAND FREE ENERGY PREDICTED BY IDOCK:   -3.51 KCAL/MOL
REMARK 927      BINDING AFFINITY PREDICTED BY RF-SCORE:    0.00 PKD
ROOT
HETATM    1  C   UNL     1     -10.290   8.216  72.340  1.00  0.00    -0.382 C  
HETATM    2  C   UNL     1     -11.292   7.407  73.176  1.00  0.00    -0.209 C  
HETATM    3  C   UNL     1     -11.986   6.324  72.354  1.00  0.00    -0.234 C  
HETATM    4  C   UNL     1     -12.686   6.923  71.139  1.00  0.00    -0.331 C  
HETATM    5  C   UNL     1     -11.720   7.721  70.267  1.00  0.00     0.031 C  
HETATM    6  C   UNL     1     -10.931   8.766  71.067  1.00  0.00    -0.328 C  
HETATM    7  C   UNL     1      -9.850   9.463  70.239  1.00  0.00    -0.243 C  
HETATM    8  N   UNL     1      -8.791   8.574  69.736  1.00  0.00    -0.135 NA 
HETATM    9  C   UNL     1      -8.327   7.546  70.705  1.00  0.00    -0.126 C  
HETATM   10  C   UNL     1      -8.998   7.429  72.088  1.00  0.00    -0.154 C  
ENDROOT
BRANCH   8  11
HETATM   11  C   UNL     1      -7.660   9.419  69.250  1.00  0.00    -0.081 C  
BRANCH  11  12
HETATM   12  C   UNL     1      -7.734  10.933  69.584  1.00  0.00     0.066 C  
HETATM   13  H   UNL     1      -6.690  12.190  70.667  1.00  0.00     0.000 HD 
HETATM   14  O   UNL     1      -6.645  11.264  70.463  1.00  0.00    -0.239 OA 
BRANCH  12  15
HETATM   15  C   UNL     1      -7.639  11.851  68.333  1.00  0.00    -0.120 C  
BRANCH  15  16
HETATM   16  N   UNL     1      -8.300  11.202  67.184  1.00  0.00    -0.131 N  
HETATM   17  C   UNL     1      -7.587  10.763  66.084  1.00  0.00    -0.139 C  
HETATM   18  O   UNL     1      -6.387  10.997  65.929  1.00  0.00    -0.110 OA 
HETATM   19  H   UNL     1      -9.312  11.074  67.201  1.00  0.00     0.000 HD 
BRANCH  17  20
HETATM   20  C   UNL     1      -8.420  10.018  65.019  1.00  0.00    -0.160 C  
BRANCH  20  21
HETATM   21  N   UNL     1      -8.321   8.580  65.254  1.00  0.00    -0.152 N  
HETATM   22  H   UNL     1      -8.495   8.234  66.198  1.00  0.00     0.000 HD 
HETATM   23  C   UNL     1      -8.006   7.669  64.277  1.00  0.00    -0.112 C  
HETATM   24  O   UNL     1      -7.860   7.977  63.096  1.00  0.00    -0.136 OA 
BRANCH  23  25
HETATM   25  C   UNL     1      -7.901   6.250  64.728  1.00  0.00    -0.110 A  
HETATM   26  N   UNL     1      -8.902   5.416  64.332  1.00  0.00    -0.011 NA 
HETATM   27  C   UNL     1      -8.860   4.147  64.771  1.00  0.00    -0.135 A  
HETATM   28  C   UNL     1      -7.820   3.662  65.594  1.00  0.00    -0.092 A  
HETATM   29  C   UNL     1      -6.787   4.541  65.947  1.00  0.00    -0.058 A  
HETATM   30  C   UNL     1      -7.833   2.334  66.049  1.00  0.00    -0.077 A  
HETATM   31  C   UNL     1      -6.827   5.859  65.513  1.00  0.00    -0.052 A  
HETATM   32  C   UNL     1      -8.877   1.482  65.697  1.00  0.00    -0.124 A  
HETATM   33  C   UNL     1      -9.900   1.949  64.878  1.00  0.00     0.264 A  
HETATM   34  C   UNL     1      -9.879   3.271  64.421  1.00  0.00    -0.162 A  
ENDBRANCH  23  25
ENDBRANCH  20  21
BRANCH  20  35
HETATM   35  C   UNL     1      -9.856  10.527  64.914  1.00  0.00    -0.379 C  
BRANCH  35  36
HETATM   36  C   UNL     1     -10.214  11.048  63.543  1.00  0.00    -0.365 C  
HETATM   37  N   UNL     1     -11.521  11.371  63.347  1.00  0.00    -0.797 N  
HETATM   38  O   UNL     1      -9.397  11.144  62.635  1.00  0.00    -0.327 OA 
HETATM   39  H2  UNL     1     -12.219  11.268  64.083  1.00  0.00     0.000 HD 
HETATM   40  H1  UNL     1     -11.763  11.723  62.421  1.00  0.00     0.000 HD 
ENDBRANCH  35  36
ENDBRANCH  20  35
ENDBRANCH  17  20
ENDBRANCH  15  16
BRANCH  15  41
HETATM   41  C   UNL     1      -8.191  13.281  68.569  1.00  0.00    -0.084 C  
BRANCH  41  42
HETATM   42  C   UNL     1      -9.612  13.557  68.124  1.00  0.00    -0.215 A  
HETATM   43  C   UNL     1     -10.699  12.916  68.733  1.00  0.00    -0.249 A  
HETATM   44  C   UNL     1     -12.258  14.242  67.436  1.00  0.00    -0.267 A  
HETATM   45  C   UNL     1     -12.012  13.253  68.388  1.00  0.00    -0.336 A  
HETATM   46  C   UNL     1      -9.876  14.545  67.161  1.00  0.00    -0.245 A  
HETATM   47  C   UNL     1     -11.186  14.885  66.820  1.00  0.00    -0.338 A  
ENDBRANCH  41  42
ENDBRANCH  15  41
ENDBRANCH  12  15
ENDBRANCH  11  12
ENDBRANCH   8  11
BRANCH   9  48
HETATM   48  C   UNL     1      -8.313   6.137  70.028  1.00  0.00    -0.125 C  
HETATM   49  C   UNL     1      -6.711   3.565  69.482  1.00  0.00    -0.034 C  
HETATM   50  O   UNL     1      -8.476   6.014  68.816  1.00  0.00    -0.112 OA 
HETATM   51  C   UNL     1      -9.184   3.138  69.714  1.00  0.00    -0.220 C  
HETATM   52  C   UNL     1      -7.926   3.669  70.423  1.00  0.00    -0.050 C  
HETATM   53  N   UNL     1      -8.132   5.058  70.875  1.00  0.00    -0.094 N  
HETATM   54  C   UNL     1      -7.654   2.772  71.646  1.00  0.00    -0.044 C  
HETATM   55  H   UNL     1      -8.140   5.234  71.880  1.00  0.00     0.000 HD 
ENDBRANCH   9  48
TORSDOF 12
ENDMDL
MODEL       65
REMARK 921   NORMALIZED FREE ENERGY PREDICTED BY IDOCK:   -4.23 KCAL/MOL
REMARK 922        TOTAL FREE ENERGY PREDICTED BY IDOCK:  -11.30 KCAL/MOL
REMARK 923 INTER-LIGAND FREE ENERGY PREDICTED BY IDOCK:   -7.44 KCAL/MOL
REMARK 924 INTRA-LIGAND FREE ENERGY PREDICTED BY IDOCK:   -3.85 KCAL/MOL
REMARK 927      BINDING AFFINITY PREDICTED BY RF-SCORE:    0.00 PKD
ROOT
HETATM    1  C   UNL     1     -10.698  14.674  69.103  1.00  0.00    -0.263 C  
HETATM    2  C   UNL     1     -10.889  16.187  68.933  1.00  0.00    -0.305 C  
HETATM    3  C   UNL     1     -10.533  16.659  67.526  1.00  0.00    -0.317 C  
HETATM    4  C   UNL     1      -9.104  16.271  67.164  1.00  0.00    -0.217 C  
HETATM    5  C   UNL     1      -8.875  14.769  67.299  1.00  0.00    -0.218 C  
HETATM    6  C   UNL     1      -9.301  14.229  68.670  1.00  0.00    -0.172 C  
HETATM    7  C   UNL     1      -9.225  12.705  68.765  1.00  0.00     0.159 C  
HETATM    8  N   UNL     1     -10.116  11.985  67.843  1.00  0.00    -0.190 NA 
HETATM    9  C   UNL     1     -11.474  12.574  67.700  1.00  0.00    -0.334 C  
HETATM   10  C   UNL     1     -11.830  13.882  68.436  1.00  0.00    -0.409 C  
ENDROOT
BRANCH   8  11
HETATM   11  C   UNL     1     -10.181  10.556  68.272  1.00  0.00    -0.163 C  
BRANCH  11  12
HETATM   12  C   UNL     1     -10.303  10.296  69.797  1.00  0.00    -0.246 C  
HETATM   13  H   UNL     1     -11.666   9.553  70.996  1.00  0.00     0.000 HD 
HETATM   14  O   UNL     1     -11.591   9.712  70.062  1.00  0.00    -0.198 OA 
BRANCH  12  15
HETATM   15  C   UNL     1      -9.216   9.335  70.353  1.00  0.00    -0.247 C  
BRANCH  15  16
HETATM   16  N   UNL     1      -9.401   7.985  69.784  1.00  0.00    -0.159 N  
HETATM   17  C   UNL     1      -9.885   6.934  70.541  1.00  0.00    -0.179 C  
HETATM   18  O   UNL     1     -10.068   7.016  71.756  1.00  0.00    -0.185 OA 
HETATM   19  H   UNL     1      -9.166   7.823  68.804  1.00  0.00     0.000 HD 
BRANCH  17  20
HETATM   20  C   UNL     1     -10.113   5.620  69.765  1.00  0.00    -0.218 C  
BRANCH  20  21
HETATM   21  N   UNL     1      -9.217   5.583  68.612  1.00  0.00    -0.120 N  
HETATM   22  H   UNL     1      -8.215   5.672  68.778  1.00  0.00     0.000 HD 
HETATM   23  C   UNL     1      -9.649   5.435  67.317  1.00  0.00    -0.132 C  
HETATM   24  O   UNL     1     -10.826   5.238  67.022  1.00  0.00    -0.179 OA 
BRANCH  23  25
HETATM   25  C   UNL     1      -8.583   5.476  66.273  1.00  0.00    -0.125 A  
HETATM   26  N   UNL     1      -8.593   6.557  65.445  1.00  0.00    -0.113 NA 
HETATM   27  C   UNL     1      -7.678   6.591  64.461  1.00  0.00    -0.108 A  
HETATM   28  C   UNL     1      -6.717   5.571  64.283  1.00  0.00    -0.046 A  
HETATM   29  C   UNL     1      -6.714   4.496  65.181  1.00  0.00    -0.049 A  
HETATM   30  C   UNL     1      -5.796   5.639  63.225  1.00  0.00    -0.018 A  
HETATM   31  C   UNL     1      -7.665   4.442  66.192  1.00  0.00    -0.094 A  
HETATM   32  C   UNL     1      -5.827   6.710  62.335  1.00  0.00    -0.035 A  
HETATM   33  C   UNL     1      -6.764   7.723  62.510  1.00  0.00    -0.080 A  
HETATM   34  C   UNL     1      -7.674   7.656  63.570  1.00  0.00    -0.130 A  
ENDBRANCH  23  25
ENDBRANCH  20  21
BRANCH  20  35
HETATM   35  C   UNL     1     -10.028   4.377  70.649  1.00  0.00    -0.254 C  
BRANCH  35  36
HETATM   36  C   UNL     1      -8.622   4.035  71.080  1.00  0.00    -0.076 C  
HETATM   37  N   UNL     1      -8.216   4.553  72.271  1.00  0.00    -0.107 N  
HETATM   38  O   UNL     1      -7.863   3.364  70.391  1.00  0.00    -0.044 OA 
HETATM   39  H2  UNL     1      -8.826   5.138  72.840  1.00  0.00     0.000 HD 
HETATM   40  H1  UNL     1      -7.266   4.321  72.561  1.00  0.00     0.000 HD 
ENDBRANCH  35  36
ENDBRANCH  20  35
ENDBRANCH  17  20
ENDBRANCH  15  16
BRANCH  15  41
HETATM   41  C   UNL     1      -7.767   9.845  70.135  1.00  0.00    -0.188 C  
BRANCH  41  42
HETATM   42  C   UNL     1      -6.873   9.025  69.228  1.00  0.00    -0.050 A  
HETATM   43  C   UNL     1      -6.264   7.848  69.684  1.00  0.00    -0.033 A  
HETATM   44  C   UNL     1      -5.392   7.397  67.468  1.00  0.00    -0.025 A  
HETATM   45  C   UNL     1      -5.525   7.042  68.810  1.00  0.00    -0.018 A  
HETATM   46  C   UNL     1      -6.724   9.372  67.876  1.00  0.00    -0.067 A  
HETATM   47  C   UNL     1      -5.990   8.566  67.003  1.00  0.00    -0.053 A  
ENDBRANCH  41  42
ENDBRANCH  15  41
ENDBRANCH  12  15
ENDBRANCH  11  12
ENDBRANCH   8  11
BRANCH   9  48
HETATM   48  C   UNL     1     -11.836  12.729  66.189  1.00  0.00    -0.425 C  
HETATM   49  C   UNL     1     -10.789  13.194  63.330  1.00  0.00     0.347 C  
HETATM   50  O   UNL     1     -12.592  13.620  65.806  1.00  0.00    -0.476 OA 
HETATM   51  C   UNL     1     -12.815  11.697  63.390  1.00  0.00    -0.154 C  
HETATM   52  C   UNL     1     -11.360  11.865  63.860  1.00  0.00    -0.428 C  
HETATM   53  N   UNL     1     -11.277  11.798  65.331  1.00  0.00    -0.285 N  
HETATM   54  C   UNL     1     -10.528  10.719  63.252  1.00  0.00    -0.019 C  
HETATM   55  H   UNL     1     -10.772  11.013  65.743  1.00  0.00     0.000 HD 
ENDBRANCH   9  48
TORSDOF 12
ENDMDL
MODEL       66
REMARK 921   NORMALIZED FREE ENERGY PREDICTED BY IDOCK:   -4.21 KCAL/MOL
REMARK 922        TOTAL FREE ENERGY PREDICTED BY IDOCK:  -11.27 KCAL/MOL
REMARK 923 INTER-LIGAND FREE ENERGY PREDICTED BY IDOCK:   -9.05 KCAL/MOL
REMARK 924 INTRA-LIGAND FREE ENERGY PREDICTED BY IDOCK:   -2.22 KCAL/MOL
REMARK 927      BINDING AFFINITY PREDICTED BY RF-SCORE:    0.00 PKD
ROOT
HETATM    1  C   UNL     1      -9.210  14.283  69.254  1.00  0.00     0.252 C  
HETATM    2  C   UNL     1      -8.968  15.775  68.988  1.00  0.00    -0.246 C  
HETATM    3  C   UNL     1      -8.828  16.080  67.499  1.00  0.00    -0.198 C  
HETATM    4  C   UNL     1      -7.711  15.252  66.873  1.00  0.00    -0.108 C  
HETATM    5  C   UNL     1      -7.924  13.757  67.096  1.00  0.00    -0.065 C  
HETATM    6  C   UNL     1      -8.158  13.409  68.572  1.00  0.00    -0.105 C  
HETATM    7  C   UNL     1      -8.528  11.942  68.791  1.00  0.00     0.038 C  
HETATM    8  N   UNL     1      -9.787  11.522  68.156  1.00  0.00    -0.188 NA 
HETATM    9  C   UNL     1     -10.895  12.509  68.257  1.00  0.00    -0.234 C  
HETATM   10  C   UNL     1     -10.653  13.877  68.926  1.00  0.00    -0.228 C  
ENDROOT
BRANCH   8  11
HETATM   11  C   UNL     1     -10.180  10.198  68.721  1.00  0.00    -0.186 C  
BRANCH  11  12
HETATM   12  C   UNL     1     -10.860  10.215  70.116  1.00  0.00    -0.311 C  
HETATM   13  H   UNL     1     -12.662  10.571  70.802  1.00  0.00     0.000 HD 
HETATM   14  O   UNL     1     -12.246  10.560  69.948  1.00  0.00    -0.281 OA 
BRANCH  12  15
HETATM   15  C   UNL     1     -10.792   8.850  70.858  1.00  0.00    -0.248 C  
BRANCH  15  16
HETATM   16  N   UNL     1     -10.336   7.797  69.929  1.00  0.00    -0.218 N  
HETATM   17  C   UNL     1     -11.069   6.644  69.717  1.00  0.00    -0.342 C  
HETATM   18  O   UNL     1     -12.071   6.359  70.375  1.00  0.00    -0.305 OA 
HETATM   19  H   UNL     1      -9.455   7.923  69.429  1.00  0.00     0.000 HD 
BRANCH  17  20
HETATM   20  C   UNL     1     -10.501   5.696  68.640  1.00  0.00    -0.207 C  
BRANCH  20  21
HETATM   21  N   UNL     1      -9.931   6.491  67.555  1.00  0.00    -0.128 N  
HETATM   22  H   UNL     1     -10.489   6.625  66.712  1.00  0.00     0.000 HD 
HETATM   23  C   UNL     1      -8.686   7.068  67.607  1.00  0.00    -0.121 C  
HETATM   24  O   UNL     1      -7.973   7.033  68.607  1.00  0.00    -0.116 OA 
BRANCH  23  25
HETATM   25  C   UNL     1      -8.261   7.796  66.375  1.00  0.00    -0.116 A  
HETATM   26  N   UNL     1      -9.135   8.722  65.892  1.00  0.00    -0.207 NA 
HETATM   27  C   UNL     1      -8.802   9.351  64.752  1.00  0.00    -0.204 A  
HETATM   28  C   UNL     1      -7.589   9.101  64.073  1.00  0.00    -0.113 A  
HETATM   29  C   UNL     1      -6.698   8.171  64.625  1.00  0.00    -0.067 A  
HETATM   30  C   UNL     1      -7.297   9.767  62.872  1.00  0.00    -0.115 A  
HETATM   31  C   UNL     1      -7.039   7.501  65.793  1.00  0.00    -0.065 A  
HETATM   32  C   UNL     1      -8.204  10.676  62.334  1.00  0.00    -0.249 A  
HETATM   33  C   UNL     1      -9.396  10.936  63.004  1.00  0.00    -0.349 A  
HETATM   34  C   UNL     1      -9.680  10.277  64.204  1.00  0.00    -0.357 A  
ENDBRANCH  23  25
ENDBRANCH  20  21
BRANCH  20  35
HETATM   35  C   UNL     1      -9.542   4.650  69.205  1.00  0.00    -0.251 C  
BRANCH  35  36
HETATM   36  C   UNL     1      -9.098   3.624  68.190  1.00  0.00    -0.149 C  
HETATM   37  N   UNL     1      -7.943   3.898  67.526  1.00  0.00    -0.090 N  
HETATM   38  O   UNL     1      -9.749   2.617  67.937  1.00  0.00    -0.113 OA 
HETATM   39  H2  UNL     1      -7.407   4.746  67.703  1.00  0.00     0.000 HD 
HETATM   40  H1  UNL     1      -7.644   3.205  66.840  1.00  0.00     0.000 HD 
ENDBRANCH  35  36
ENDBRANCH  20  35
ENDBRANCH  17  20
ENDBRANCH  15  16
BRANCH  15  41
HETATM   41  C   UNL     1      -9.922   8.884  72.142  1.00  0.00    -0.274 C  
BRANCH  41  42
HETATM   42  C   UNL     1      -9.585   7.555  72.786  1.00  0.00    -0.229 A  
HETATM   43  C   UNL     1     -10.432   6.978  73.741  1.00  0.00    -0.392 A  
HETATM   44  C   UNL     1      -9.057   4.984  73.812  1.00  0.00    -0.116 A  
HETATM   45  C   UNL     1     -10.167   5.704  74.254  1.00  0.00    -0.293 A  
HETATM   46  C   UNL     1      -8.467   6.822  72.357  1.00  0.00    -0.121 A  
HETATM   47  C   UNL     1      -8.205   5.548  72.864  1.00  0.00    -0.109 A  
ENDBRANCH  41  42
ENDBRANCH  15  41
ENDBRANCH  12  15
ENDBRANCH  11  12
ENDBRANCH   8  11
BRANCH   9  48
HETATM   48  C   UNL     1     -11.539  12.739  66.852  1.00  0.00    -0.366 C  
HETATM   49  C   UNL     1     -13.357  14.522  65.121  1.00  0.00     0.683 C  
HETATM   50  O   UNL     1     -12.280  11.897  66.348  1.00  0.00    -0.476 OA 
HETATM   51  C   UNL     1     -11.491  13.465  63.799  1.00  0.00    -0.286 C  
HETATM   52  C   UNL     1     -11.829  14.404  64.970  1.00  0.00    -0.400 C  
HETATM   53  N   UNL     1     -11.207  13.923  66.218  1.00  0.00    -0.305 N  
HETATM   54  C   UNL     1     -11.278  15.803  64.634  1.00  0.00    -0.373 C  
HETATM   55  H   UNL     1     -10.482  14.503  66.641  1.00  0.00     0.000 HD 
ENDBRANCH   9  48
TORSDOF 12
ENDMDL
MODEL       67
REMARK 921   NORMALIZED FREE ENERGY PREDICTED BY IDOCK:   -4.21 KCAL/MOL
REMARK 922        TOTAL FREE ENERGY PREDICTED BY IDOCK:  -11.26 KCAL/MOL
REMARK 923 INTER-LIGAND FREE ENERGY PREDICTED BY IDOCK:   -9.77 KCAL/MOL
REMARK 924 INTRA-LIGAND FREE ENERGY PREDICTED BY IDOCK:   -1.49 KCAL/MOL
REMARK 927      BINDING AFFINITY PREDICTED BY RF-SCORE:    0.00 PKD
ROOT
HETATM    1  C   UNL     1     -10.412  16.846  66.312  1.00  0.00    -0.263 C  
HETATM    2  C   UNL     1     -10.533  18.318  65.895  1.00  0.00    -0.324 C  
HETATM    3  C   UNL     1      -9.801  19.251  66.857  1.00  0.00    -0.424 C  
HETATM    4  C   UNL     1     -10.305  19.071  68.284  1.00  0.00    -0.415 C  
HETATM    5  C   UNL     1     -10.184  17.623  68.748  1.00  0.00    -0.373 C  
HETATM    6  C   UNL     1     -10.828  16.634  67.767  1.00  0.00    -0.292 C  
HETATM    7  C   UNL     1     -10.577  15.172  68.138  1.00  0.00    -0.246 C  
HETATM    8  N   UNL     1      -9.164  14.766  68.122  1.00  0.00    -0.190 NA 
HETATM    9  C   UNL     1      -8.371  15.309  66.987  1.00  0.00    -0.234 C  
HETATM   10  C   UNL     1      -9.026  16.276  65.980  1.00  0.00    -0.325 C  
ENDROOT
BRANCH   8  11
HETATM   11  C   UNL     1      -9.102  13.275  68.170  1.00  0.00    -0.207 C  
BRANCH  11  12
HETATM   12  C   UNL     1      -8.218  12.585  67.097  1.00  0.00    -0.168 C  
HETATM   13  H   UNL     1      -6.392  11.874  67.018  1.00  0.00     0.000 HD 
HETATM   14  O   UNL     1      -6.933  12.297  67.675  1.00  0.00    -0.102 OA 
BRANCH  12  15
HETATM   15  C   UNL     1      -8.815  11.252  66.563  1.00  0.00    -0.179 C  
BRANCH  15  16
HETATM   16  N   UNL     1      -9.686  10.647  67.590  1.00  0.00    -0.164 N  
HETATM   17  C   UNL     1     -10.249   9.395  67.424  1.00  0.00    -0.239 C  
HETATM   18  O   UNL     1     -10.171   8.763  66.369  1.00  0.00    -0.289 OA 
HETATM   19  H   UNL     1      -9.879  11.167  68.446  1.00  0.00     0.000 HD 
BRANCH  17  20
HETATM   20  C   UNL     1     -11.050   8.871  68.634  1.00  0.00     0.244 C  
BRANCH  20  21
HETATM   21  N   UNL     1     -10.182   8.029  69.454  1.00  0.00    -0.205 N  
HETATM   22  H   UNL     1     -10.143   8.211  70.457  1.00  0.00     0.000 HD 
HETATM   23  C   UNL     1      -9.416   7.008  68.949  1.00  0.00    -0.137 C  
HETATM   24  O   UNL     1      -9.457   6.659  67.772  1.00  0.00    -0.122 OA 
BRANCH  23  25
HETATM   25  C   UNL     1      -8.554   6.298  69.940  1.00  0.00    -0.134 A  
HETATM   26  N   UNL     1      -8.709   6.663  71.243  1.00  0.00    -0.130 NA 
HETATM   27  C   UNL     1      -7.906   6.080  72.149  1.00  0.00    -0.102 A  
HETATM   28  C   UNL     1      -6.945   5.106  71.796  1.00  0.00    -0.065 A  
HETATM   29  C   UNL     1      -6.845   4.728  70.451  1.00  0.00    -0.037 A  
HETATM   30  C   UNL     1      -6.112   4.543  72.776  1.00  0.00    -0.017 A  
HETATM   31  C   UNL     1      -7.658   5.336  69.503  1.00  0.00    -0.069 A  
HETATM   32  C   UNL     1      -6.219   4.944  74.105  1.00  0.00    -0.059 A  
HETATM   33  C   UNL     1      -7.170   5.895  74.461  1.00  0.00    -0.087 A  
HETATM   34  C   UNL     1      -8.004   6.448  73.484  1.00  0.00    -0.099 A  
ENDBRANCH  23  25
ENDBRANCH  20  21
BRANCH  20  35
HETATM   35  C   UNL     1     -11.749   9.980  69.418  1.00  0.00    -0.012 C  
BRANCH  35  36
HETATM   36  C   UNL     1     -12.007   9.629  70.864  1.00  0.00    -0.309 C  
HETATM   37  N   UNL     1     -13.234   9.957  71.352  1.00  0.00    -0.394 N  
HETATM   38  O   UNL     1     -11.158   9.115  71.582  1.00  0.00    -0.332 OA 
HETATM   39  H2  UNL     1     -13.939  10.413  70.774  1.00  0.00     0.000 HD 
HETATM   40  H1  UNL     1     -13.407   9.720  72.328  1.00  0.00     0.000 HD 
ENDBRANCH  35  36
ENDBRANCH  20  35
ENDBRANCH  17  20
ENDBRANCH  15  16
BRANCH  15  41
HETATM   41  C   UNL     1      -9.558  11.403  65.210  1.00  0.00    -0.256 C  
BRANCH  41  42
HETATM   42  C   UNL     1     -10.632  12.467  65.123  1.00  0.00    -0.322 A  
HETATM   43  C   UNL     1     -10.427  13.644  64.390  1.00  0.00    -0.322 A  
HETATM   44  C   UNL     1     -12.714  14.336  64.790  1.00  0.00    -0.191 A  
HETATM   45  C   UNL     1     -11.459  14.574  64.229  1.00  0.00    -0.194 A  
HETATM   46  C   UNL     1     -11.898  12.246  65.689  1.00  0.00    -0.423 A  
HETATM   47  C   UNL     1     -12.930  13.172  65.524  1.00  0.00    -0.005 A  
ENDBRANCH  41  42
ENDBRANCH  15  41
ENDBRANCH  12  15
ENDBRANCH  11  12
ENDBRANCH   8  11
BRANCH   9  48
HETATM   48  C   UNL     1      -7.046  15.949  67.514  1.00  0.00    -0.179 C  
HETATM   49  C   UNL     1      -5.212  18.422  67.520  1.00  0.00    -0.144 C  
HETATM   50  O   UNL     1      -5.956  15.431  67.281  1.00  0.00    -0.330 OA 
HETATM   51  C   UNL     1      -5.174  17.180  69.712  1.00  0.00    -0.176 C  
HETATM   52  C   UNL     1      -6.060  17.945  68.714  1.00  0.00    -0.197 C  
HETATM   53  N   UNL     1      -7.185  17.103  68.265  1.00  0.00    -0.195 N  
HETATM   54  C   UNL     1      -6.615  19.193  69.428  1.00  0.00    -0.333 C  
HETATM   55  H   UNL     1      -8.128  17.391  68.526  1.00  0.00     0.000 HD 
ENDBRANCH   9  48
TORSDOF 12
ENDMDL
MODEL       68
REMARK 921   NORMALIZED FREE ENERGY PREDICTED BY IDOCK:   -4.16 KCAL/MOL
REMARK 922        TOTAL FREE ENERGY PREDICTED BY IDOCK:  -11.17 KCAL/MOL
REMARK 923 INTER-LIGAND FREE ENERGY PREDICTED BY IDOCK:   -8.76 KCAL/MOL
REMARK 924 INTRA-LIGAND FREE ENERGY PREDICTED BY IDOCK:   -2.41 KCAL/MOL
REMARK 927      BINDING AFFINITY PREDICTED BY RF-SCORE:    0.00 PKD
ROOT
HETATM    1  C   UNL     1      -8.428   5.210  66.943  1.00  0.00    -0.106 C  
HETATM    2  C   UNL     1      -9.219   3.914  66.715  1.00  0.00    -0.186 C  
HETATM    3  C   UNL     1      -9.402   3.116  68.003  1.00  0.00    -0.248 C  
HETATM    4  C   UNL     1      -8.058   2.798  68.646  1.00  0.00    -0.069 C  
HETATM    5  C   UNL     1      -7.245   4.062  68.911  1.00  0.00    -0.054 C  
HETATM    6  C   UNL     1      -7.107   4.945  67.664  1.00  0.00    -0.062 C  
HETATM    7  C   UNL     1      -6.432   6.287  67.951  1.00  0.00    -0.052 C  
HETATM    8  N   UNL     1      -7.164   7.158  68.883  1.00  0.00    -0.088 NA 
HETATM    9  C   UNL     1      -8.638   7.184  68.686  1.00  0.00    -0.124 C  
HETATM   10  C   UNL     1      -9.290   6.288  67.614  1.00  0.00    -0.116 C  
ENDROOT
BRANCH   8  11
HETATM   11  C   UNL     1      -6.577   8.528  68.807  1.00  0.00    -0.054 C  
BRANCH  11  12
HETATM   12  C   UNL     1      -7.474   9.694  69.301  1.00  0.00    -0.085 C  
HETATM   13  H   UNL     1      -7.918  10.493  71.036  1.00  0.00     0.000 HD 
HETATM   14  O   UNL     1      -7.369   9.780  70.733  1.00  0.00    -0.285 OA 
BRANCH  12  15
HETATM   15  C   UNL     1      -7.081  11.076  68.707  1.00  0.00    -0.086 C  
BRANCH  15  16
HETATM   16  N   UNL     1      -8.274  11.735  68.140  1.00  0.00    -0.146 N  
HETATM   17  C   UNL     1      -9.554  11.394  68.537  1.00  0.00    -0.189 C  
HETATM   18  O   UNL     1      -9.791  10.442  69.281  1.00  0.00    -0.212 OA 
HETATM   19  H   UNL     1      -8.151  12.463  67.436  1.00  0.00     0.000 HD 
BRANCH  17  20
HETATM   20  C   UNL     1     -10.680  12.250  67.919  1.00  0.00    -0.215 C  
BRANCH  20  21
HETATM   21  N   UNL     1     -10.197  13.616  67.736  1.00  0.00    -0.238 N  
HETATM   22  H   UNL     1      -9.313  13.753  67.246  1.00  0.00     0.000 HD 
HETATM   23  C   UNL     1     -10.867  14.727  68.188  1.00  0.00    -0.254 C  
HETATM   24  O   UNL     1     -11.976  14.672  68.714  1.00  0.00    -0.306 OA 
BRANCH  23  25
HETATM   25  C   UNL     1     -10.184  16.032  67.951  1.00  0.00    -0.258 A  
HETATM   26  N   UNL     1      -9.215  16.040  66.994  1.00  0.00    -0.206 NA 
HETATM   27  C   UNL     1      -8.545  17.188  66.800  1.00  0.00    -0.243 A  
HETATM   28  C   UNL     1      -8.829  18.365  67.529  1.00  0.00    -0.267 A  
HETATM   29  C   UNL     1      -9.860  18.327  68.476  1.00  0.00    -0.400 A  
HETATM   30  C   UNL     1      -8.085  19.535  67.308  1.00  0.00    -0.307 A  
HETATM   31  C   UNL     1     -10.548  17.141  68.697  1.00  0.00    -0.352 A  
HETATM   32  C   UNL     1      -7.054  19.545  66.371  1.00  0.00    -0.240 A  
HETATM   33  C   UNL     1      -6.776  18.393  65.642  1.00  0.00    -0.304 A  
HETATM   34  C   UNL     1      -7.524  17.232  65.859  1.00  0.00    -0.069 A  
ENDBRANCH  23  25
ENDBRANCH  20  21
BRANCH  20  35
HETATM   35  C   UNL     1     -11.279  11.635  66.656  1.00  0.00    -0.362 C  
BRANCH  35  36
HETATM   36  C   UNL     1     -10.252  11.009  65.743  1.00  0.00    -0.260 C  
HETATM   37  N   UNL     1     -10.243   9.649  65.693  1.00  0.00    -0.257 N  
HETATM   38  O   UNL     1      -9.441  11.669  65.105  1.00  0.00    -0.216 OA 
HETATM   39  H2  UNL     1     -10.892   9.085  66.240  1.00  0.00     0.000 HD 
HETATM   40  H1  UNL     1      -9.550   9.227  65.076  1.00  0.00     0.000 HD 
ENDBRANCH  35  36
ENDBRANCH  20  35
ENDBRANCH  17  20
ENDBRANCH  15  16
BRANCH  15  41
HETATM   41  C   UNL     1      -6.352  12.001  69.717  1.00  0.00    -0.110 C  
BRANCH  41  42
HETATM   42  C   UNL     1      -6.233  13.466  69.353  1.00  0.00    -0.109 A  
HETATM   43  C   UNL     1      -6.812  14.460  70.155  1.00  0.00     0.012 A  
HETATM   44  C   UNL     1      -5.820  16.196  68.786  1.00  0.00    -0.109 A  
HETATM   45  C   UNL     1      -6.610  15.815  69.870  1.00  0.00    -0.099 A  
HETATM   46  C   UNL     1      -5.447  13.866  68.261  1.00  0.00    -0.111 A  
HETATM   47  C   UNL     1      -5.242  15.219  67.979  1.00  0.00    -0.130 A  
ENDBRANCH  41  42
ENDBRANCH  15  41
ENDBRANCH  12  15
ENDBRANCH  11  12
ENDBRANCH   8  11
BRANCH   9  48
HETATM   48  C   UNL     1      -9.367   6.956  70.049  1.00  0.00    -0.158 C  
HETATM   49  C   UNL     1     -10.483   4.901  72.052  1.00  0.00    -0.245 C  
HETATM   50  O   UNL     1     -10.489   7.415  70.252  1.00  0.00    -0.212 OA 
HETATM   51  C   UNL     1      -9.589   6.969  73.180  1.00  0.00    -0.196 C  
HETATM   52  C   UNL     1      -9.234   5.772  72.280  1.00  0.00    -0.145 C  
HETATM   53  N   UNL     1      -8.666   6.235  70.999  1.00  0.00    -0.135 N  
HETATM   54  C   UNL     1      -8.188   4.914  73.018  1.00  0.00    -0.101 C  
HETATM   55  H   UNL     1      -7.692   6.007  70.802  1.00  0.00     0.000 HD 
ENDBRANCH   9  48
TORSDOF 12
ENDMDL
MODEL       69
REMARK 921   NORMALIZED FREE ENERGY PREDICTED BY IDOCK:   -4.09 KCAL/MOL
REMARK 922        TOTAL FREE ENERGY PREDICTED BY IDOCK:  -11.06 KCAL/MOL
REMARK 923 INTER-LIGAND FREE ENERGY PREDICTED BY IDOCK:  -11.75 KCAL/MOL
REMARK 924 INTRA-LIGAND FREE ENERGY PREDICTED BY IDOCK:    0.70 KCAL/MOL
REMARK 927      BINDING AFFINITY PREDICTED BY RF-SCORE:    0.00 PKD
ROOT
HETATM    1  C   UNL     1      -9.533   4.824  68.098  1.00  0.00    -0.186 C  
HETATM    2  C   UNL     1      -8.982   3.394  68.179  1.00  0.00    -0.182 C  
HETATM    3  C   UNL     1      -8.413   2.919  66.844  1.00  0.00    -0.102 C  
HETATM    4  C   UNL     1      -9.458   3.012  65.739  1.00  0.00    -0.023 C  
HETATM    5  C   UNL     1     -10.019   4.425  65.610  1.00  0.00    -0.247 C  
HETATM    6  C   UNL     1     -10.525   4.983  66.946  1.00  0.00    -0.243 C  
HETATM    7  C   UNL     1     -10.943   6.452  66.864  1.00  0.00    -0.341 C  
HETATM    8  N   UNL     1      -9.859   7.383  66.515  1.00  0.00    -0.176 NA 
HETATM    9  C   UNL     1      -8.557   7.099  67.175  1.00  0.00    -0.121 C  
HETATM   10  C   UNL     1      -8.406   5.865  68.087  1.00  0.00    -0.115 C  
ENDROOT
BRANCH   8  11
HETATM   11  C   UNL     1     -10.324   8.773  66.796  1.00  0.00    -0.258 C  
BRANCH  11  12
HETATM   12  C   UNL     1     -10.687   9.096  68.270  1.00  0.00    -0.122 C  
HETATM   13  H   UNL     1     -10.703   8.112  69.966  1.00  0.00     0.000 HD 
HETATM   14  O   UNL     1     -10.481   7.915  69.064  1.00  0.00    -0.214 OA 
BRANCH  12  15
HETATM   15  C   UNL     1      -9.835  10.242  68.884  1.00  0.00    -0.195 C  
BRANCH  15  16
HETATM   16  N   UNL     1     -10.179  11.524  68.238  1.00  0.00    -0.190 N  
HETATM   17  C   UNL     1     -11.489  11.878  67.971  1.00  0.00    -0.323 C  
HETATM   18  O   UNL     1     -12.435  11.105  68.131  1.00  0.00    -0.202 OA 
HETATM   19  H   UNL     1      -9.430  12.167  67.980  1.00  0.00     0.000 HD 
BRANCH  17  20
HETATM   20  C   UNL     1     -11.678  13.293  67.386  1.00  0.00    -0.373 C  
BRANCH  20  21
HETATM   21  N   UNL     1     -10.521  14.113  67.733  1.00  0.00    -0.244 N  
HETATM   22  H   UNL     1      -9.594  13.768  67.483  1.00  0.00     0.000 HD 
HETATM   23  C   UNL     1     -10.611  15.323  68.376  1.00  0.00    -0.246 C  
HETATM   24  O   UNL     1     -11.682  15.861  68.643  1.00  0.00    -0.387 OA 
BRANCH  23  25
HETATM   25  C   UNL     1      -9.310  15.984  68.690  1.00  0.00    -0.214 A  
HETATM   26  N   UNL     1      -9.259  17.332  68.506  1.00  0.00    -0.267 NA 
HETATM   27  C   UNL     1      -8.083  17.943  68.729  1.00  0.00    -0.232 A  
HETATM   28  C   UNL     1      -6.934  17.244  69.160  1.00  0.00    -0.215 A  
HETATM   29  C   UNL     1      -7.038  15.864  69.377  1.00  0.00    -0.215 A  
HETATM   30  C   UNL     1      -5.720  17.923  69.355  1.00  0.00    -0.221 A  
HETATM   31  C   UNL     1      -8.243  15.218  69.134  1.00  0.00    -0.234 A  
HETATM   32  C   UNL     1      -5.636  19.293  69.119  1.00  0.00    -0.223 A  
HETATM   33  C   UNL     1      -6.767  19.990  68.705  1.00  0.00    -0.344 A  
HETATM   34  C   UNL     1      -7.975  19.312  68.519  1.00  0.00    -0.396 A  
ENDBRANCH  23  25
ENDBRANCH  20  21
BRANCH  20  35
HETATM   35  C   UNL     1     -12.004  13.288  65.893  1.00  0.00    -0.466 C  
BRANCH  35  36
HETATM   36  C   UNL     1     -10.916  13.887  65.035  1.00  0.00    -0.368 C  
HETATM   37  N   UNL     1     -10.113  13.004  64.381  1.00  0.00    -0.610 N  
HETATM   38  O   UNL     1     -10.726  15.094  64.950  1.00  0.00    -0.409 OA 
HETATM   39  H2  UNL     1     -10.239  11.996  64.466  1.00  0.00     0.000 HD 
HETATM   40  H1  UNL     1      -9.378  13.408  63.801  1.00  0.00     0.000 HD 
ENDBRANCH  35  36
ENDBRANCH  20  35
ENDBRANCH  17  20
ENDBRANCH  15  16
BRANCH  15  41
HETATM   41  C   UNL     1      -9.946  10.340  70.427  1.00  0.00     0.176 C  
BRANCH  41  42
HETATM   42  C   UNL     1     -11.262   9.932  71.055  1.00  0.00    -0.435 A  
HETATM   43  C   UNL     1     -11.406   8.694  71.696  1.00  0.00    -0.377 A  
HETATM   44  C   UNL     1     -13.647   9.279  72.406  1.00  0.00    -0.527 A  
HETATM   45  C   UNL     1     -12.592   8.368  72.362  1.00  0.00    -0.372 A  
HETATM   46  C   UNL     1     -12.337  10.835  71.101  1.00  0.00    -0.498 A  
HETATM   47  C   UNL     1     -13.519  10.512  71.771  1.00  0.00    -0.345 A  
ENDBRANCH  41  42
ENDBRANCH  15  41
ENDBRANCH  12  15
ENDBRANCH  11  12
ENDBRANCH   8  11
BRANCH   9  48
HETATM   48  C   UNL     1      -7.408   7.089  66.115  1.00  0.00    -0.075 C  
HETATM   49  C   UNL     1      -6.075   5.580  63.785  1.00  0.00    -0.022 C  
HETATM   50  O   UNL     1      -6.229   7.126  66.459  1.00  0.00    -0.037 OA 
HETATM   51  C   UNL     1      -5.931   8.083  63.530  1.00  0.00    -0.063 C  
HETATM   52  C   UNL     1      -6.886   6.883  63.649  1.00  0.00    -0.054 C  
HETATM   53  N   UNL     1      -7.805   7.060  64.790  1.00  0.00    -0.122 N  
HETATM   54  C   UNL     1      -7.705   6.794  62.347  1.00  0.00    -0.098 C  
HETATM   55  H   UNL     1      -8.799   7.167  64.587  1.00  0.00     0.000 HD 
ENDBRANCH   9  48
TORSDOF 12
ENDMDL
MODEL       70
REMARK 921   NORMALIZED FREE ENERGY PREDICTED BY IDOCK:   -4.03 KCAL/MOL
REMARK 922        TOTAL FREE ENERGY PREDICTED BY IDOCK:  -10.96 KCAL/MOL
REMARK 923 INTER-LIGAND FREE ENERGY PREDICTED BY IDOCK:   -7.24 KCAL/MOL
REMARK 924 INTRA-LIGAND FREE ENERGY PREDICTED BY IDOCK:   -3.72 KCAL/MOL
REMARK 927      BINDING AFFINITY PREDICTED BY RF-SCORE:    0.00 PKD
ROOT
HETATM    1  C   UNL     1     -10.669  14.752  69.626  1.00  0.00    -0.207 C  
HETATM    2  C   UNL     1     -10.586  16.275  69.457  1.00  0.00    -0.314 C  
HETATM    3  C   UNL     1     -10.172  16.676  68.043  1.00  0.00    -0.280 C  
HETATM    4  C   UNL     1      -8.843  16.036  67.659  1.00  0.00    -0.190 C  
HETATM    5  C   UNL     1      -8.888  14.517  67.794  1.00  0.00    -0.183 C  
HETATM    6  C   UNL     1      -9.384  14.062  69.172  1.00  0.00     0.250 C  
HETATM    7  C   UNL     1      -9.584  12.548  69.269  1.00  0.00     0.797 C  
HETATM    8  N   UNL     1     -10.606  12.004  68.362  1.00  0.00    -0.210 NA 
HETATM    9  C   UNL     1     -11.836  12.830  68.239  1.00  0.00    -0.312 C  
HETATM   10  C   UNL     1     -11.937  14.180  68.979  1.00  0.00    -0.376 C  
ENDROOT
BRANCH   8  11
HETATM   11  C   UNL     1     -10.923  10.610  68.794  1.00  0.00    -0.246 C  
BRANCH  11  12
HETATM   12  C   UNL     1     -11.274  10.413  70.293  1.00  0.00    -0.320 C  
HETATM   13  H   UNL     1     -12.904  10.482  71.380  1.00  0.00     0.000 HD 
HETATM   14  O   UNL     1     -12.689  10.602  70.463  1.00  0.00    -0.340 OA 
BRANCH  12  15
HETATM   15  C   UNL     1     -10.908   9.004  70.837  1.00  0.00    -0.258 C  
BRANCH  15  16
HETATM   16  N   UNL     1     -10.518   8.121  69.720  1.00  0.00    -0.224 N  
HETATM   17  C   UNL     1     -11.173   6.929  69.469  1.00  0.00    -0.200 C  
HETATM   18  O   UNL     1     -12.027   6.465  70.226  1.00  0.00    -0.361 OA 
HETATM   19  H   UNL     1      -9.744   8.397  69.116  1.00  0.00     0.000 HD 
BRANCH  17  20
HETATM   20  C   UNL     1     -10.706   6.179  68.204  1.00  0.00    -0.294 C  
BRANCH  20  21
HETATM   21  N   UNL     1      -9.634   6.939  67.566  1.00  0.00    -0.126 N  
HETATM   22  H   UNL     1      -9.169   7.665  68.111  1.00  0.00     0.000 HD 
HETATM   23  C   UNL     1      -9.219   6.731  66.274  1.00  0.00    -0.127 C  
HETATM   24  O   UNL     1      -9.658   5.827  65.567  1.00  0.00     0.056 OA 
BRANCH  23  25
HETATM   25  C   UNL     1      -8.146   7.647  65.787  1.00  0.00    -0.126 A  
HETATM   26  N   UNL     1      -8.408   8.322  64.634  1.00  0.00    -0.141 NA 
HETATM   27  C   UNL     1      -7.437   9.111  64.143  1.00  0.00    -0.109 A  
HETATM   28  C   UNL     1      -6.191   9.271  64.789  1.00  0.00    -0.071 A  
HETATM   29  C   UNL     1      -5.974   8.590  65.994  1.00  0.00    -0.048 A  
HETATM   30  C   UNL     1      -5.198  10.087  64.224  1.00  0.00    -0.088 A  
HETATM   31  C   UNL     1      -6.964   7.759  66.502  1.00  0.00    -0.067 A  
HETATM   32  C   UNL     1      -5.430  10.742  63.017  1.00  0.00    -0.146 A  
HETATM   33  C   UNL     1      -6.659  10.598  62.382  1.00  0.00    -0.133 A  
HETATM   34  C   UNL     1      -7.648   9.791  62.951  1.00  0.00    -0.124 A  
ENDBRANCH  23  25
ENDBRANCH  20  21
BRANCH  20  35
HETATM   35  C   UNL     1     -10.350   4.718  68.469  1.00  0.00     0.037 C  
BRANCH  35  36
HETATM   36  C   UNL     1      -9.206   4.539  69.439  1.00  0.00    -0.129 C  
HETATM   37  N   UNL     1      -9.520   3.986  70.641  1.00  0.00    -0.155 N  
HETATM   38  O   UNL     1      -8.063   4.902  69.190  1.00  0.00    -0.078 OA 
HETATM   39  H2  UNL     1     -10.473   3.707  70.875  1.00  0.00     0.000 HD 
HETATM   40  H1  UNL     1      -8.747   3.865  71.296  1.00  0.00     0.000 HD 
ENDBRANCH  35  36
ENDBRANCH  20  35
ENDBRANCH  17  20
ENDBRANCH  15  16
BRANCH  15  41
HETATM   41  C   UNL     1      -9.821   9.028  71.943  1.00  0.00    -0.283 C  
BRANCH  41  42
HETATM   42  C   UNL     1      -8.519   8.311  71.651  1.00  0.00    -0.193 A  
HETATM   43  C   UNL     1      -7.509   8.922  70.896  1.00  0.00    -0.110 A  
HETATM   44  C   UNL     1      -6.022   7.052  71.301  1.00  0.00    -0.036 A  
HETATM   45  C   UNL     1      -6.271   8.295  70.719  1.00  0.00    -0.033 A  
HETATM   46  C   UNL     1      -8.256   7.056  72.223  1.00  0.00    -0.102 A  
HETATM   47  C   UNL     1      -7.019   6.432  72.051  1.00  0.00    -0.073 A  
ENDBRANCH  41  42
ENDBRANCH  15  41
ENDBRANCH  12  15
ENDBRANCH  11  12
ENDBRANCH   8  11
BRANCH   9  48
HETATM   48  C   UNL     1     -12.188  13.050  66.733  1.00  0.00    -0.194 C  
HETATM   49  C   UNL     1     -11.325  14.283  64.047  1.00  0.00     0.091 C  
HETATM   50  O   UNL     1     -13.220  13.630  66.401  1.00  0.00     0.201 OA 
HETATM   51  C   UNL     1     -12.611  12.135  63.760  1.00  0.00    -0.585 C  
HETATM   52  C   UNL     1     -11.349  12.776  64.363  1.00  0.00    -0.347 C  
HETATM   53  N   UNL     1     -11.287  12.536  65.817  1.00  0.00    -0.320 N  
HETATM   54  C   UNL     1     -10.120  12.133  63.690  1.00  0.00    -0.410 C  
HETATM   55  H   UNL     1     -10.529  11.952  66.171  1.00  0.00     0.000 HD 
ENDBRANCH   9  48
TORSDOF 12
ENDMDL
MODEL       71
REMARK 921   NORMALIZED FREE ENERGY PREDICTED BY IDOCK:   -4.01 KCAL/MOL
REMARK 922        TOTAL FREE ENERGY PREDICTED BY IDOCK:  -10.91 KCAL/MOL
REMARK 923 INTER-LIGAND FREE ENERGY PREDICTED BY IDOCK:   -9.30 KCAL/MOL
REMARK 924 INTRA-LIGAND FREE ENERGY PREDICTED BY IDOCK:   -1.62 KCAL/MOL
REMARK 927      BINDING AFFINITY PREDICTED BY RF-SCORE:    0.00 PKD
ROOT
HETATM    1  C   UNL     1     -10.442  17.390  66.596  1.00  0.00    -0.253 C  
HETATM    2  C   UNL     1     -10.097  18.564  65.669  1.00  0.00     0.173 C  
HETATM    3  C   UNL     1      -9.152  19.562  66.332  1.00  0.00    -0.417 C  
HETATM    4  C   UNL     1      -9.737  20.086  67.639  1.00  0.00    -0.535 C  
HETATM    5  C   UNL     1     -10.076  18.950  68.600  1.00  0.00    -0.447 C  
HETATM    6  C   UNL     1     -10.954  17.872  67.952  1.00  0.00    -0.080 C  
HETATM    7  C   UNL     1     -11.171  16.654  68.852  1.00  0.00    -0.200 C  
HETATM    8  N   UNL     1      -9.947  15.913  69.190  1.00  0.00    -0.229 NA 
HETATM    9  C   UNL     1      -8.987  15.746  68.067  1.00  0.00    -0.178 C  
HETATM   10  C   UNL     1      -9.283  16.389  66.696  1.00  0.00    -0.279 C  
ENDROOT
BRANCH   8  11
HETATM   11  C   UNL     1     -10.341  14.597  69.774  1.00  0.00     0.065 C  
BRANCH  11  12
HETATM   12  C   UNL     1     -10.703  13.473  68.766  1.00  0.00    -0.238 C  
HETATM   13  H   UNL     1     -11.562  13.382  67.006  1.00  0.00     0.000 HD 
HETATM   14  O   UNL     1     -11.340  14.070  67.622  1.00  0.00    -0.284 OA 
BRANCH  12  15
HETATM   15  C   UNL     1      -9.473  12.666  68.265  1.00  0.00    -0.203 C  
BRANCH  15  16
HETATM   16  N   UNL     1      -9.363  11.402  69.019  1.00  0.00    -0.407 N  
HETATM   17  C   UNL     1     -10.435  10.540  69.160  1.00  0.00    -0.228 C  
HETATM   18  O   UNL     1     -11.573  10.824  68.785  1.00  0.00    -0.282 OA 
HETATM   19  H   UNL     1      -8.470  11.156  69.449  1.00  0.00     0.000 HD 
BRANCH  17  20
HETATM   20  C   UNL     1     -10.120   9.218  69.891  1.00  0.00    -0.209 C  
BRANCH  20  21
HETATM   21  N   UNL     1      -9.711   8.215  68.911  1.00  0.00    -0.154 N  
HETATM   22  H   UNL     1      -8.870   8.394  68.362  1.00  0.00     0.000 HD 
HETATM   23  C   UNL     1     -10.394   7.045  68.689  1.00  0.00    -0.186 C  
HETATM   24  O   UNL     1     -11.368   6.701  69.355  1.00  0.00    -0.310 OA 
BRANCH  23  25
HETATM   25  C   UNL     1      -9.847   6.175  67.607  1.00  0.00    -0.120 A  
HETATM   26  N   UNL     1      -8.494   6.018  67.587  1.00  0.00    -0.108 NA 
HETATM   27  C   UNL     1      -7.971   5.285  66.590  1.00  0.00    -0.104 A  
HETATM   28  C   UNL     1      -8.769   4.670  65.600  1.00  0.00    -0.127 A  
HETATM   29  C   UNL     1     -10.160   4.821  65.679  1.00  0.00    -0.198 A  
HETATM   30  C   UNL     1      -8.174   3.933  64.563  1.00  0.00    -0.094 A  
HETATM   31  C   UNL     1     -10.711   5.590  66.695  1.00  0.00    -0.332 A  
HETATM   32  C   UNL     1      -6.788   3.808  64.497  1.00  0.00    -0.045 A  
HETATM   33  C   UNL     1      -5.996   4.402  65.474  1.00  0.00    -0.023 A  
HETATM   34  C   UNL     1      -6.593   5.128  66.510  1.00  0.00    -0.049 A  
ENDBRANCH  23  25
ENDBRANCH  20  21
BRANCH  20  35
HETATM   35  C   UNL     1      -9.134   9.388  71.045  1.00  0.00    -0.147 C  
BRANCH  35  36
HETATM   36  C   UNL     1      -7.690   9.231  70.636  1.00  0.00    -0.151 C  
HETATM   37  N   UNL     1      -6.851   8.722  71.577  1.00  0.00    -0.084 N  
HETATM   38  O   UNL     1      -7.271   9.574  69.536  1.00  0.00    -0.065 OA 
HETATM   39  H2  UNL     1      -7.178   8.460  72.507  1.00  0.00     0.000 HD 
HETATM   40  H1  UNL     1      -5.875   8.616  71.300  1.00  0.00     0.000 HD 
ENDBRANCH  35  36
ENDBRANCH  20  35
ENDBRANCH  17  20
ENDBRANCH  15  16
BRANCH  15  41
HETATM   41  C   UNL     1      -9.478  12.412  66.735  1.00  0.00    -0.228 C  
BRANCH  41  42
HETATM   42  C   UNL     1      -8.934  11.084  66.252  1.00  0.00    -0.195 A  
HETATM   43  C   UNL     1      -9.789  10.083  65.772  1.00  0.00    -0.345 A  
HETATM   44  C   UNL     1      -7.893   8.707  65.152  1.00  0.00    -0.110 A  
HETATM   45  C   UNL     1      -9.272   8.901  65.231  1.00  0.00    -0.158 A  
HETATM   46  C   UNL     1      -7.548  10.871  66.173  1.00  0.00    -0.119 A  
HETATM   47  C   UNL     1      -7.031   9.693  65.628  1.00  0.00    -0.096 A  
ENDBRANCH  41  42
ENDBRANCH  15  41
ENDBRANCH  12  15
ENDBRANCH  11  12
ENDBRANCH   8  11
BRANCH   9  48
HETATM   48  C   UNL     1      -7.551  16.160  68.520  1.00  0.00    -0.170 C  
HETATM   49  C   UNL     1      -5.137  18.010  68.036  1.00  0.00    -0.148 C  
HETATM   50  O   UNL     1      -6.629  15.347  68.527  1.00  0.00    -0.103 OA 
HETATM   51  C   UNL     1      -5.459  17.451  70.472  1.00  0.00    -0.224 C  
HETATM   52  C   UNL     1      -6.099  18.104  69.235  1.00  0.00    -0.245 C  
HETATM   53  N   UNL     1      -7.397  17.474  68.927  1.00  0.00    -0.260 N  
HETATM   54  C   UNL     1      -6.322  19.597  69.546  1.00  0.00    -0.363 C  
HETATM   55  H   UNL     1      -8.237  18.045  69.021  1.00  0.00     0.000 HD 
ENDBRANCH   9  48
TORSDOF 12
ENDMDL
MODEL       72
REMARK 921   NORMALIZED FREE ENERGY PREDICTED BY IDOCK:   -3.96 KCAL/MOL
REMARK 922        TOTAL FREE ENERGY PREDICTED BY IDOCK:  -10.84 KCAL/MOL
REMARK 923 INTER-LIGAND FREE ENERGY PREDICTED BY IDOCK:   -8.40 KCAL/MOL
REMARK 924 INTRA-LIGAND FREE ENERGY PREDICTED BY IDOCK:   -2.44 KCAL/MOL
REMARK 927      BINDING AFFINITY PREDICTED BY RF-SCORE:    0.00 PKD
ROOT
HETATM    1  C   UNL     1      -9.861  13.044  66.503  1.00  0.00    -0.263 C  
HETATM    2  C   UNL     1     -10.246  14.527  66.581  1.00  0.00    -0.276 C  
HETATM    3  C   UNL     1     -11.736  14.723  66.846  1.00  0.00    -0.316 C  
HETATM    4  C   UNL     1     -12.578  14.023  65.786  1.00  0.00    -0.512 C  
HETATM    5  C   UNL     1     -12.242  12.538  65.689  1.00  0.00    -0.403 C  
HETATM    6  C   UNL     1     -10.740  12.284  65.510  1.00  0.00    -0.314 C  
HETATM    7  C   UNL     1     -10.371  10.801  65.570  1.00  0.00    -0.241 C  
HETATM    8  N   UNL     1     -10.658  10.145  66.855  1.00  0.00    -0.225 NA 
HETATM    9  C   UNL     1     -10.334  10.959  68.056  1.00  0.00    -0.185 C  
HETATM   10  C   UNL     1      -9.807  12.400  67.894  1.00  0.00    -0.202 C  
ENDROOT
BRANCH   8  11
HETATM   11  C   UNL     1      -9.954   8.829  66.879  1.00  0.00    -0.257 C  
BRANCH  11  12
HETATM   12  C   UNL     1     -10.406   7.823  67.971  1.00  0.00    -0.209 C  
HETATM   13  H   UNL     1     -11.684   6.339  68.079  1.00  0.00     0.000 HD 
HETATM   14  O   UNL     1     -11.407   6.955  67.411  1.00  0.00    -0.227 OA 
BRANCH  12  15
HETATM   15  C   UNL     1      -9.251   6.936  68.516  1.00  0.00    -0.129 C  
BRANCH  15  16
HETATM   16  N   UNL     1      -8.804   7.446  69.827  1.00  0.00    -0.141 N  
HETATM   17  C   UNL     1      -7.590   7.079  70.377  1.00  0.00    -0.090 C  
HETATM   18  O   UNL     1      -6.868   6.212  69.882  1.00  0.00    -0.053 OA 
HETATM   19  H   UNL     1      -9.407   8.088  70.342  1.00  0.00     0.000 HD 
BRANCH  17  20
HETATM   20  C   UNL     1      -7.234   7.781  71.704  1.00  0.00    -0.065 C  
BRANCH  20  21
HETATM   21  N   UNL     1      -6.908   9.179  71.433  1.00  0.00    -0.067 N  
HETATM   22  H   UNL     1      -7.435   9.900  71.925  1.00  0.00     0.000 HD 
HETATM   23  C   UNL     1      -5.931   9.575  70.554  1.00  0.00    -0.060 C  
HETATM   24  O   UNL     1      -5.188   8.785  69.977  1.00  0.00    -0.028 OA 
BRANCH  23  25
HETATM   25  C   UNL     1      -5.786  11.050  70.374  1.00  0.00    -0.130 A  
HETATM   26  N   UNL     1      -5.515  11.770  71.498  1.00  0.00    -0.366 NA 
HETATM   27  C   UNL     1      -5.435  13.105  71.374  1.00  0.00    -0.132 A  
HETATM   28  C   UNL     1      -5.598  13.763  70.134  1.00  0.00    -0.123 A  
HETATM   29  C   UNL     1      -5.835  12.984  68.994  1.00  0.00    -0.079 A  
HETATM   30  C   UNL     1      -5.530  15.164  70.059  1.00  0.00    -0.118 A  
HETATM   31  C   UNL     1      -5.936  11.604  69.113  1.00  0.00    -0.064 A  
HETATM   32  C   UNL     1      -5.308  15.919  71.207  1.00  0.00     0.038 A  
HETATM   33  C   UNL     1      -5.136  15.277  72.430  1.00  0.00     0.011 A  
HETATM   34  C   UNL     1      -5.197  13.882  72.500  1.00  0.00    -0.209 A  
ENDBRANCH  23  25
ENDBRANCH  20  21
BRANCH  20  35
HETATM   35  C   UNL     1      -8.295   7.596  72.787  1.00  0.00    -0.167 C  
BRANCH  35  36
HETATM   36  C   UNL     1      -8.711   6.158  72.987  1.00  0.00    -0.121 C  
HETATM   37  N   UNL     1      -7.837   5.370  73.669  1.00  0.00    -0.102 N  
HETATM   38  O   UNL     1      -9.754   5.701  72.535  1.00  0.00    -0.152 OA 
HETATM   39  H2  UNL     1      -6.951   5.729  74.025  1.00  0.00     0.000 HD 
HETATM   40  H1  UNL     1      -8.118   4.399  73.804  1.00  0.00     0.000 HD 
ENDBRANCH  35  36
ENDBRANCH  20  35
ENDBRANCH  17  20
ENDBRANCH  15  16
BRANCH  15  41
HETATM   41  C   UNL     1      -9.608   5.429  68.588  1.00  0.00    -0.173 C  
BRANCH  41  42
HETATM   42  C   UNL     1      -9.302   4.585  67.368  1.00  0.00    -0.168 A  
HETATM   43  C   UNL     1      -8.834   5.169  66.183  1.00  0.00    -0.132 A  
HETATM   44  C   UNL     1      -8.530   2.984  65.181  1.00  0.00    -0.098 A  
HETATM   45  C   UNL     1      -8.455   4.374  65.096  1.00  0.00    -0.123 A  
HETATM   46  C   UNL     1      -9.379   3.185  67.435  1.00  0.00    -0.232 A  
HETATM   47  C   UNL     1      -8.996   2.391  66.352  1.00  0.00    -0.124 A  
ENDBRANCH  41  42
ENDBRANCH  15  41
ENDBRANCH  12  15
ENDBRANCH  11  12
ENDBRANCH   8  11
BRANCH   9  48
HETATM   48  C   UNL     1     -11.547  10.972  69.041  1.00  0.00    -0.323 C  
HETATM   49  C   UNL     1     -13.559   9.294  70.659  1.00  0.00     0.336 C  
HETATM   50  O   UNL     1     -12.605  11.519  68.737  1.00  0.00    -0.183 OA 
HETATM   51  C   UNL     1     -12.940  11.447  71.813  1.00  0.00    -0.519 C  
HETATM   52  C   UNL     1     -12.403  10.115  71.261  1.00  0.00    -0.400 C  
HETATM   53  N   UNL     1     -11.344  10.355  70.263  1.00  0.00    -0.307 N  
HETATM   54  C   UNL     1     -11.818   9.312  72.439  1.00  0.00     0.023 C  
HETATM   55  H   UNL     1     -10.399  10.045  70.489  1.00  0.00     0.000 HD 
ENDBRANCH   9  48
TORSDOF 12
ENDMDL
MODEL       73
REMARK 921   NORMALIZED FREE ENERGY PREDICTED BY IDOCK:   -3.93 KCAL/MOL
REMARK 922        TOTAL FREE ENERGY PREDICTED BY IDOCK:  -10.78 KCAL/MOL
REMARK 923 INTER-LIGAND FREE ENERGY PREDICTED BY IDOCK:   -8.82 KCAL/MOL
REMARK 924 INTRA-LIGAND FREE ENERGY PREDICTED BY IDOCK:   -1.96 KCAL/MOL
REMARK 927      BINDING AFFINITY PREDICTED BY RF-SCORE:    0.00 PKD
ROOT
HETATM    1  C   UNL     1     -12.317  14.003  70.559  1.00  0.00    -0.437 C  
HETATM    2  C   UNL     1     -12.446  12.574  71.102  1.00  0.00    -0.322 C  
HETATM    3  C   UNL     1     -11.617  11.575  70.298  1.00  0.00    -0.305 C  
HETATM    4  C   UNL     1     -12.001  11.607  68.823  1.00  0.00    -0.326 C  
HETATM    5  C   UNL     1     -11.868  13.009  68.236  1.00  0.00    -0.381 C  
HETATM    6  C   UNL     1     -12.612  14.066  69.060  1.00  0.00     0.315 C  
HETATM    7  C   UNL     1     -12.358  15.494  68.574  1.00  0.00     0.335 C  
HETATM    8  N   UNL     1     -10.959  15.938  68.669  1.00  0.00    -0.300 NA 
HETATM    9  C   UNL     1     -10.256  15.524  69.912  1.00  0.00    -0.295 C  
HETATM   10  C   UNL     1     -10.977  14.639  70.949  1.00  0.00     0.173 C  
ENDROOT
BRANCH   8  11
HETATM   11  C   UNL     1     -10.922  17.418  68.485  1.00  0.00    -0.072 C  
BRANCH  11  12
HETATM   12  C   UNL     1      -9.523  18.053  68.263  1.00  0.00    -0.302 C  
HETATM   13  H   UNL     1      -7.839  18.140  69.264  1.00  0.00     0.000 HD 
HETATM   14  O   UNL     1      -8.695  17.751  69.399  1.00  0.00     0.194 OA 
BRANCH  12  15
HETATM   15  C   UNL     1      -8.799  17.532  66.989  1.00  0.00    -0.240 C  
BRANCH  15  16
HETATM   16  N   UNL     1      -9.599  16.462  66.360  1.00  0.00    -0.270 N  
HETATM   17  C   UNL     1      -9.035  15.260  65.975  1.00  0.00    -0.116 C  
HETATM   18  O   UNL     1      -7.821  15.051  66.008  1.00  0.00     1.003 OA 
HETATM   19  H   UNL     1     -10.596  16.614  66.206  1.00  0.00     0.000 HD 
BRANCH  17  20
HETATM   20  C   UNL     1     -10.030  14.216  65.427  1.00  0.00    -0.291 C  
BRANCH  20  21
HETATM   21  N   UNL     1      -9.832  12.951  66.131  1.00  0.00    -0.272 N  
HETATM   22  H   UNL     1      -9.825  12.964  67.151  1.00  0.00     0.000 HD 
HETATM   23  C   UNL     1      -9.656  11.747  65.496  1.00  0.00    -0.201 C  
HETATM   24  O   UNL     1      -9.731  11.615  64.277  1.00  0.00    -0.230 OA 
BRANCH  23  25
HETATM   25  C   UNL     1      -9.415  10.576  66.391  1.00  0.00    -0.171 A  
HETATM   26  N   UNL     1      -8.976  10.860  67.649  1.00  0.00    -0.140 NA 
HETATM   27  C   UNL     1      -8.698   9.822  68.456  1.00  0.00    -0.120 A  
HETATM   28  C   UNL     1      -8.867   8.479  68.051  1.00  0.00    -0.142 A  
HETATM   29  C   UNL     1      -9.359   8.230  66.763  1.00  0.00    -0.232 A  
HETATM   30  C   UNL     1      -8.539   7.428  68.922  1.00  0.00    -0.129 A  
HETATM   31  C   UNL     1      -9.634   9.294  65.914  1.00  0.00    -0.345 A  
HETATM   32  C   UNL     1      -8.038   7.699  70.193  1.00  0.00    -0.118 A  
HETATM   33  C   UNL     1      -7.879   9.019  70.602  1.00  0.00    -0.147 A  
HETATM   34  C   UNL     1      -8.214  10.064  69.735  1.00  0.00    -0.191 A  
ENDBRANCH  23  25
ENDBRANCH  20  21
BRANCH  20  35
HETATM   35  C   UNL     1     -11.477  14.703  65.433  1.00  0.00    -0.352 C  
BRANCH  35  36
HETATM   36  C   UNL     1     -11.915  15.316  64.125  1.00  0.00    -0.130 C  
HETATM   37  N   UNL     1     -12.438  14.460  63.206  1.00  0.00    -0.963 N  
HETATM   38  O   UNL     1     -11.779  16.507  63.872  1.00  0.00    -1.148 OA 
HETATM   39  H2  UNL     1     -12.529  13.461  63.390  1.00  0.00     0.000 HD 
HETATM   40  H1  UNL     1     -12.733  14.874  62.322  1.00  0.00     0.000 HD 
ENDBRANCH  35  36
ENDBRANCH  20  35
ENDBRANCH  17  20
ENDBRANCH  15  16
BRANCH  15  41
HETATM   41  C   UNL     1      -8.452  18.650  65.971  1.00  0.00    -0.047 C  
BRANCH  41  42
HETATM   42  C   UNL     1      -7.250  19.518  66.279  1.00  0.00    -0.272 A  
HETATM   43  C   UNL     1      -6.571  20.201  65.261  1.00  0.00    -0.330 A  
HETATM   44  C   UNL     1      -5.155  21.301  66.891  1.00  0.00    -0.285 A  
HETATM   45  C   UNL     1      -5.528  21.082  65.565  1.00  0.00    -0.263 A  
HETATM   46  C   UNL     1      -6.858  19.743  67.608  1.00  0.00    -0.276 A  
HETATM   47  C   UNL     1      -5.820  20.626  67.913  1.00  0.00    -0.307 A  
ENDBRANCH  41  42
ENDBRANCH  15  41
ENDBRANCH  12  15
ENDBRANCH  11  12
ENDBRANCH   8  11
BRANCH   9  48
HETATM   48  C   UNL     1      -8.879  14.875  69.561  1.00  0.00     0.027 C  
HETATM   49  C   UNL     1      -6.034  15.317  68.469  1.00  0.00    -0.096 C  
HETATM   50  O   UNL     1      -8.799  13.961  68.743  1.00  0.00    -0.117 OA 
HETATM   51  C   UNL     1      -6.126  13.529  70.243  1.00  0.00    -0.110 C  
HETATM   52  C   UNL     1      -6.382  15.016  69.938  1.00  0.00    -0.162 C  
HETATM   53  N   UNL     1      -7.781  15.375  70.239  1.00  0.00     0.159 N  
HETATM   54  C   UNL     1      -5.442  15.853  70.827  1.00  0.00    -0.073 C  
HETATM   55  H   UNL     1      -7.950  16.036  70.997  1.00  0.00     0.000 HD 
ENDBRANCH   9  48
TORSDOF 12
ENDMDL
MODEL       74
REMARK 921   NORMALIZED FREE ENERGY PREDICTED BY IDOCK:   -3.88 KCAL/MOL
REMARK 922        TOTAL FREE ENERGY PREDICTED BY IDOCK:  -10.71 KCAL/MOL
REMARK 923 INTER-LIGAND FREE ENERGY PREDICTED BY IDOCK:   -9.92 KCAL/MOL
REMARK 924 INTRA-LIGAND FREE ENERGY PREDICTED BY IDOCK:   -0.79 KCAL/MOL
REMARK 927      BINDING AFFINITY PREDICTED BY RF-SCORE:    0.00 PKD
ROOT
HETATM    1  C   UNL     1      -9.257   7.811  71.934  1.00  0.00    -0.182 C  
HETATM    2  C   UNL     1      -8.934   7.371  73.368  1.00  0.00    -0.223 C  
HETATM    3  C   UNL     1      -9.621   6.058  73.736  1.00  0.00    -0.158 C  
HETATM    4  C   UNL     1     -11.131   6.159  73.550  1.00  0.00    -0.004 C  
HETATM    5  C   UNL     1     -11.498   6.575  72.129  1.00  0.00    -0.332 C  
HETATM    6  C   UNL     1     -10.763   7.844  71.678  1.00  0.00    -0.268 C  
HETATM    7  C   UNL     1     -11.000   8.184  70.206  1.00  0.00    -0.240 C  
HETATM    8  N   UNL     1     -10.512   7.174  69.255  1.00  0.00    -0.207 NA 
HETATM    9  C   UNL     1      -9.191   6.582  69.596  1.00  0.00    -0.143 C  
HETATM   10  C   UNL     1      -8.476   6.989  70.900  1.00  0.00    -0.134 C  
ENDROOT
BRANCH   8  11
HETATM   11  C   UNL     1     -10.505   7.778  67.890  1.00  0.00    -0.201 C  
BRANCH  11  12
HETATM   12  C   UNL     1      -9.571   7.114  66.844  1.00  0.00    -0.168 C  
HETATM   13  H   UNL     1      -9.636   5.516  65.709  1.00  0.00     0.000 HD 
HETATM   14  O   UNL     1     -10.207   5.923  66.349  1.00  0.00    -0.167 OA 
BRANCH  12  15
HETATM   15  C   UNL     1      -9.250   8.028  65.628  1.00  0.00     0.075 C  
BRANCH  15  16
HETATM   16  N   UNL     1     -10.262   9.097  65.523  1.00  0.00    -0.143 N  
HETATM   17  C   UNL     1     -10.072  10.340  66.097  1.00  0.00    -0.242 C  
HETATM   18  O   UNL     1      -9.119  10.597  66.834  1.00  0.00    -0.153 OA 
HETATM   19  H   UNL     1     -11.127   8.913  65.014  1.00  0.00     0.000 HD 
BRANCH  17  20
HETATM   20  C   UNL     1     -11.183  11.372  65.806  1.00  0.00    -0.090 C  
BRANCH  20  21
HETATM   21  N   UNL     1     -11.220  12.352  66.888  1.00  0.00    -0.287 N  
HETATM   22  H   UNL     1     -10.923  13.306  66.684  1.00  0.00     0.000 HD 
HETATM   23  C   UNL     1     -11.633  12.061  68.165  1.00  0.00    -0.340 C  
HETATM   24  O   UNL     1     -12.086  10.966  68.489  1.00  0.00    -0.545 OA 
BRANCH  23  25
HETATM   25  C   UNL     1     -11.547  13.186  69.143  1.00  0.00    -0.316 A  
HETATM   26  N   UNL     1     -12.292  13.058  70.275  1.00  0.00    -0.284 NA 
HETATM   27  C   UNL     1     -12.277  14.082  71.145  1.00  0.00    -0.338 A  
HETATM   28  C   UNL     1     -11.508  15.248  70.931  1.00  0.00    -0.377 A  
HETATM   29  C   UNL     1     -10.723  15.324  69.773  1.00  0.00    -0.295 A  
HETATM   30  C   UNL     1     -11.543  16.302  71.858  1.00  0.00    -0.430 A  
HETATM   31  C   UNL     1     -10.744  14.279  68.859  1.00  0.00    -0.268 A  
HETATM   32  C   UNL     1     -12.342  16.211  72.995  1.00  0.00    -0.625 A  
HETATM   33  C   UNL     1     -13.093  15.061  73.218  1.00  0.00    -0.607 A  
HETATM   34  C   UNL     1     -13.050  14.010  72.297  1.00  0.00    -0.516 A  
ENDBRANCH  23  25
ENDBRANCH  20  21
BRANCH  20  35
HETATM   35  C   UNL     1     -11.077  11.994  64.416  1.00  0.00    -0.399 C  
BRANCH  35  36
HETATM   36  C   UNL     1      -9.923  11.463  63.601  1.00  0.00    -0.364 C  
HETATM   37  N   UNL     1      -8.681  11.652  64.124  1.00  0.00    -0.044 N  
HETATM   38  O   UNL     1     -10.073  10.925  62.511  1.00  0.00    -0.065 OA 
HETATM   39  H2  UNL     1      -8.539  12.125  65.016  1.00  0.00     0.000 HD 
HETATM   40  H1  UNL     1      -7.902  11.293  63.574  1.00  0.00     0.000 HD 
ENDBRANCH  35  36
ENDBRANCH  20  35
ENDBRANCH  17  20
ENDBRANCH  15  16
BRANCH  15  41
HETATM   41  C   UNL     1      -7.813   8.611  65.652  1.00  0.00    -0.101 C  
BRANCH  41  42
HETATM   42  C   UNL     1      -6.838   8.012  66.644  1.00  0.00    -0.068 A  
HETATM   43  C   UNL     1      -6.259   8.793  67.653  1.00  0.00    -0.052 A  
HETATM   44  C   UNL     1      -5.200   6.837  68.614  1.00  0.00    -0.016 A  
HETATM   45  C   UNL     1      -5.442   8.211  68.627  1.00  0.00    -0.032 A  
HETATM   46  C   UNL     1      -6.579   6.632  66.639  1.00  0.00    -0.044 A  
HETATM   47  C   UNL     1      -5.767   6.049  67.615  1.00  0.00    -0.012 A  
ENDBRANCH  41  42
ENDBRANCH  15  41
ENDBRANCH  12  15
ENDBRANCH  11  12
ENDBRANCH   8  11
BRANCH   9  48
HETATM   48  C   UNL     1      -9.266   5.023  69.525  1.00  0.00    -0.119 C  
HETATM   49  C   UNL     1      -8.808   2.504  67.814  1.00  0.00    -0.161 C  
HETATM   50  O   UNL     1     -10.330   4.431  69.693  1.00  0.00    -0.010 OA 
HETATM   51  C   UNL     1      -8.366   2.108  70.263  1.00  0.00    -0.071 C  
HETATM   52  C   UNL     1      -7.952   2.921  69.024  1.00  0.00    -0.055 C  
HETATM   53  N   UNL     1      -8.071   4.367  69.288  1.00  0.00    -0.068 N  
HETATM   54  C   UNL     1      -6.483   2.583  68.702  1.00  0.00    -0.029 C  
HETATM   55  H   UNL     1      -7.214   4.921  69.296  1.00  0.00     0.000 HD 
ENDBRANCH   9  48
TORSDOF 12
ENDMDL
MODEL       75
REMARK 921   NORMALIZED FREE ENERGY PREDICTED BY IDOCK:   -3.77 KCAL/MOL
REMARK 922        TOTAL FREE ENERGY PREDICTED BY IDOCK:  -10.52 KCAL/MOL
REMARK 923 INTER-LIGAND FREE ENERGY PREDICTED BY IDOCK:   -9.32 KCAL/MOL
REMARK 924 INTRA-LIGAND FREE ENERGY PREDICTED BY IDOCK:   -1.20 KCAL/MOL
REMARK 927      BINDING AFFINITY PREDICTED BY RF-SCORE:    0.00 PKD
ROOT
HETATM    1  C   UNL     1      -9.294   7.943  72.254  1.00  0.00    -0.238 C  
HETATM    2  C   UNL     1      -8.970   7.565  73.706  1.00  0.00    -0.297 C  
HETATM    3  C   UNL     1      -9.510   6.186  74.076  1.00  0.00    -0.163 C  
HETATM    4  C   UNL     1     -11.014   6.106  73.841  1.00  0.00     0.164 C  
HETATM    5  C   UNL     1     -11.380   6.455  72.401  1.00  0.00    -0.324 C  
HETATM    6  C   UNL     1     -10.784   7.795  71.951  1.00  0.00    -0.272 C  
HETATM    7  C   UNL     1     -11.010   8.083  70.466  1.00  0.00    -0.247 C  
HETATM    8  N   UNL     1     -10.375   7.124  69.549  1.00  0.00    -0.209 NA 
HETATM    9  C   UNL     1      -9.006   6.696  69.943  1.00  0.00    -0.144 C  
HETATM   10  C   UNL     1      -8.388   7.204  71.261  1.00  0.00    -0.113 C  
ENDROOT
BRANCH   8  11
HETATM   11  C   UNL     1     -10.394   7.704  68.174  1.00  0.00    -0.204 C  
BRANCH  11  12
HETATM   12  C   UNL     1      -9.459   7.039  67.129  1.00  0.00    -0.145 C  
HETATM   13  H   UNL     1      -9.570   5.504  65.914  1.00  0.00     0.000 HD 
HETATM   14  O   UNL     1     -10.142   5.911  66.553  1.00  0.00    -0.172 OA 
BRANCH  12  15
HETATM   15  C   UNL     1      -9.042   7.990  65.973  1.00  0.00    -0.142 C  
BRANCH  15  16
HETATM   16  N   UNL     1     -10.000   9.109  65.874  1.00  0.00    -0.416 N  
HETATM   17  C   UNL     1      -9.831  10.280  66.590  1.00  0.00    -0.204 C  
HETATM   18  O   UNL     1      -8.955  10.419  67.445  1.00  0.00    -0.135 OA 
HETATM   19  H   UNL     1     -10.810   9.016  65.261  1.00  0.00     0.000 HD 
BRANCH  17  20
HETATM   20  C   UNL     1     -10.867  11.384  66.293  1.00  0.00    -0.263 C  
BRANCH  20  21
HETATM   21  N   UNL     1     -11.176  12.095  67.531  1.00  0.00    -0.277 N  
HETATM   22  H   UNL     1     -10.790  13.031  67.657  1.00  0.00     0.000 HD 
HETATM   23  C   UNL     1     -11.957  11.574  68.533  1.00  0.00    -0.224 C  
HETATM   24  O   UNL     1     -12.533  10.493  68.440  1.00  0.00     0.152 OA 
BRANCH  23  25
HETATM   25  C   UNL     1     -12.111  12.435  69.743  1.00  0.00    -0.223 A  
HETATM   26  N   UNL     1     -11.867  13.764  69.571  1.00  0.00    -0.318 NA 
HETATM   27  C   UNL     1     -11.944  14.553  70.657  1.00  0.00    -0.319 A  
HETATM   28  C   UNL     1     -12.285  14.055  71.934  1.00  0.00    -0.115 A  
HETATM   29  C   UNL     1     -12.568  12.688  72.061  1.00  0.00     0.044 A  
HETATM   30  C   UNL     1     -12.328  14.914  73.043  1.00  0.00    -0.448 A  
HETATM   31  C   UNL     1     -12.476  11.861  70.950  1.00  0.00    -0.397 A  
HETATM   32  C   UNL     1     -12.029  16.266  72.896  1.00  0.00    -0.615 A  
HETATM   33  C   UNL     1     -11.703  16.766  71.639  1.00  0.00     0.274 A  
HETATM   34  C   UNL     1     -11.668  15.908  70.535  1.00  0.00    -0.394 A  
ENDBRANCH  23  25
ENDBRANCH  20  21
BRANCH  20  35
HETATM   35  C   UNL     1     -10.457  12.301  65.143  1.00  0.00    -0.320 C  
BRANCH  35  36
HETATM   36  C   UNL     1     -11.319  12.150  63.912  1.00  0.00    -0.426 C  
HETATM   37  N   UNL     1     -10.876  11.271  62.973  1.00  0.00    -0.826 N  
HETATM   38  O   UNL     1     -12.341  12.803  63.734  1.00  0.00    -0.544 OA 
HETATM   39  H2  UNL     1     -10.012  10.743  63.093  1.00  0.00     0.000 HD 
HETATM   40  H1  UNL     1     -11.459  11.170  62.142  1.00  0.00     0.000 HD 
ENDBRANCH  35  36
ENDBRANCH  20  35
ENDBRANCH  17  20
ENDBRANCH  15  16
BRANCH  15  41
HETATM   41  C   UNL     1      -7.583   8.505  66.088  1.00  0.00    -0.089 C  
BRANCH  41  42
HETATM   42  C   UNL     1      -6.931   9.026  64.824  1.00  0.00    -0.084 A  
HETATM   43  C   UNL     1      -6.078   8.215  64.063  1.00  0.00    -0.066 A  
HETATM   44  C   UNL     1      -5.899   9.933  62.363  1.00  0.00    -0.096 A  
HETATM   45  C   UNL     1      -5.562   8.668  62.844  1.00  0.00    -0.070 A  
HETATM   46  C   UNL     1      -7.254  10.300  64.331  1.00  0.00    -0.065 A  
HETATM   47  C   UNL     1      -6.744  10.750  63.112  1.00  0.00     0.180 A  
ENDBRANCH  41  42
ENDBRANCH  15  41
ENDBRANCH  12  15
ENDBRANCH  11  12
ENDBRANCH   8  11
BRANCH   9  48
HETATM   48  C   UNL     1      -8.896   5.138  69.898  1.00  0.00    -0.103 C  
HETATM   49  C   UNL     1      -7.117   2.706  69.264  1.00  0.00    -0.044 C  
HETATM   50  O   UNL     1      -9.657   4.468  69.204  1.00  0.00    -0.154 OA 
HETATM   51  C   UNL     1      -8.707   2.275  71.171  1.00  0.00    -0.110 C  
HETATM   52  C   UNL     1      -7.541   3.149  70.677  1.00  0.00    -0.040 C  
HETATM   53  N   UNL     1      -7.916   4.576  70.697  1.00  0.00    -0.060 N  
HETATM   54  C   UNL     1      -6.345   2.925  71.621  1.00  0.00    -0.015 C  
HETATM   55  H   UNL     1      -7.419   5.188  71.344  1.00  0.00     0.000 HD 
ENDBRANCH   9  48
TORSDOF 12
ENDMDL
MODEL       76
REMARK 921   NORMALIZED FREE ENERGY PREDICTED BY IDOCK:   -3.77 KCAL/MOL
REMARK 922        TOTAL FREE ENERGY PREDICTED BY IDOCK:  -10.52 KCAL/MOL
REMARK 923 INTER-LIGAND FREE ENERGY PREDICTED BY IDOCK:   -9.38 KCAL/MOL
REMARK 924 INTRA-LIGAND FREE ENERGY PREDICTED BY IDOCK:   -1.14 KCAL/MOL
REMARK 927      BINDING AFFINITY PREDICTED BY RF-SCORE:    0.00 PKD
ROOT
HETATM    1  C   UNL     1      -9.308  16.434  68.680  1.00  0.00    -0.233 C  
HETATM    2  C   UNL     1     -10.093  17.749  68.782  1.00  0.00    -0.381 C  
HETATM    3  C   UNL     1     -10.738  18.139  67.454  1.00  0.00    -0.355 C  
HETATM    4  C   UNL     1      -9.695  18.239  66.347  1.00  0.00    -0.334 C  
HETATM    5  C   UNL     1      -8.903  16.944  66.198  1.00  0.00    -0.279 C  
HETATM    6  C   UNL     1      -8.307  16.461  67.526  1.00  0.00    -0.176 C  
HETATM    7  C   UNL     1      -7.646  15.086  67.423  1.00  0.00    -0.205 C  
HETATM    8  N   UNL     1      -8.558  13.990  67.061  1.00  0.00    -0.203 NA 
HETATM    9  C   UNL     1      -9.887  14.040  67.726  1.00  0.00    -0.232 C  
HETATM   10  C   UNL     1     -10.242  15.218  68.655  1.00  0.00    -0.223 C  
ENDROOT
BRANCH   8  11
HETATM   11  C   UNL     1      -7.863  12.695  67.323  1.00  0.00    -0.155 C  
BRANCH  11  12
HETATM   12  C   UNL     1      -8.505  11.768  68.389  1.00  0.00    -0.155 C  
HETATM   13  H   UNL     1      -9.820  11.975  69.829  1.00  0.00     0.000 HD 
HETATM   14  O   UNL     1      -9.427  12.542  69.176  1.00  0.00     0.312 OA 
BRANCH  12  15
HETATM   15  C   UNL     1      -9.283  10.567  67.781  1.00  0.00    -0.145 C  
BRANCH  15  16
HETATM   16  N   UNL     1      -8.560   9.310  68.059  1.00  0.00    -0.121 N  
HETATM   17  C   UNL     1      -7.976   8.565  67.051  1.00  0.00    -0.100 C  
HETATM   18  O   UNL     1      -8.127   8.824  65.856  1.00  0.00    -0.103 OA 
HETATM   19  H   UNL     1      -8.490   8.980  69.023  1.00  0.00     0.000 HD 
BRANCH  17  20
HETATM   20  C   UNL     1      -7.175   7.334  67.526  1.00  0.00    -0.090 C  
BRANCH  20  21
HETATM   21  N   UNL     1      -7.717   6.874  68.802  1.00  0.00    -0.108 N  
HETATM   22  H   UNL     1      -8.725   6.729  68.873  1.00  0.00     0.000 HD 
HETATM   23  C   UNL     1      -6.947   6.626  69.911  1.00  0.00    -0.063 C  
HETATM   24  O   UNL     1      -5.720   6.692  69.903  1.00  0.00    -0.018 OA 
BRANCH  23  25
HETATM   25  C   UNL     1      -7.694   6.215  71.136  1.00  0.00    -0.106 A  
HETATM   26  N   UNL     1      -8.402   5.055  71.048  1.00  0.00    -0.115 NA 
HETATM   27  C   UNL     1      -9.129   4.691  72.118  1.00  0.00    -0.127 A  
HETATM   28  C   UNL     1      -9.159   5.449  73.310  1.00  0.00    -0.126 A  
HETATM   29  C   UNL     1      -8.385   6.615  73.375  1.00  0.00    -0.127 A  
HETATM   30  C   UNL     1      -9.953   5.040  74.393  1.00  0.00    -0.236 A  
HETATM   31  C   UNL     1      -7.643   7.011  72.269  1.00  0.00    -0.090 A  
HETATM   32  C   UNL     1     -10.726   3.886  74.301  1.00  0.00    -0.233 A  
HETATM   33  C   UNL     1     -10.693   3.128  73.134  1.00  0.00    -0.261 A  
HETATM   34  C   UNL     1      -9.895   3.533  72.060  1.00  0.00    -0.238 A  
ENDBRANCH  23  25
ENDBRANCH  20  21
BRANCH  20  35
HETATM   35  C   UNL     1      -7.075   6.237  66.469  1.00  0.00    -0.068 C  
BRANCH  35  36
HETATM   36  C   UNL     1      -8.286   5.337  66.415  1.00  0.00    -0.109 C  
HETATM   37  N   UNL     1      -9.429   5.896  65.934  1.00  0.00    -0.344 N  
HETATM   38  O   UNL     1      -8.269   4.178  66.813  1.00  0.00    -0.101 OA 
HETATM   39  H2  UNL     1      -9.466   6.867  65.627  1.00  0.00     0.000 HD 
HETATM   40  H1  UNL     1     -10.247   5.287  65.898  1.00  0.00     0.000 HD 
ENDBRANCH  35  36
ENDBRANCH  20  35
ENDBRANCH  17  20
ENDBRANCH  15  16
BRANCH  15  41
HETATM   41  C   UNL     1     -10.760  10.483  68.247  1.00  0.00    -0.270 C  
BRANCH  41  42
HETATM   42  C   UNL     1     -11.070   9.557  69.404  1.00  0.00    -0.136 A  
HETATM   43  C   UNL     1     -11.017   8.165  69.251  1.00  0.00     0.030 A  
HETATM   44  C   UNL     1     -11.434   7.850  71.617  1.00  0.00    -0.304 A  
HETATM   45  C   UNL     1     -11.203   7.318  70.348  1.00  0.00    -0.302 A  
HETATM   46  C   UNL     1     -11.312  10.077  70.686  1.00  0.00    -0.425 A  
HETATM   47  C   UNL     1     -11.492   9.232  71.783  1.00  0.00    -0.448 A  
ENDBRANCH  41  42
ENDBRANCH  15  41
ENDBRANCH  12  15
ENDBRANCH  11  12
ENDBRANCH   8  11
BRANCH   9  48
HETATM   48  C   UNL     1     -11.024  13.869  66.667  1.00  0.00    -0.301 C  
HETATM   49  C   UNL     1     -11.957  14.431  63.787  1.00  0.00     0.006 C  
HETATM   50  O   UNL     1     -12.151  14.314  66.870  1.00  0.00    -0.431 OA 
HETATM   51  C   UNL     1     -12.818  12.235  64.676  1.00  0.00    -0.144 C  
HETATM   52  C   UNL     1     -11.556  13.048  64.335  1.00  0.00    -0.369 C  
HETATM   53  N   UNL     1     -10.685  13.177  65.518  1.00  0.00    -0.279 N  
HETATM   54  C   UNL     1     -10.795  12.302  63.222  1.00  0.00    -0.359 C  
HETATM   55  H   UNL     1      -9.771  12.724  65.486  1.00  0.00     0.000 HD 
ENDBRANCH   9  48
TORSDOF 12
ENDMDL
MODEL       77
REMARK 921   NORMALIZED FREE ENERGY PREDICTED BY IDOCK:   -3.60 KCAL/MOL
REMARK 922        TOTAL FREE ENERGY PREDICTED BY IDOCK:  -10.22 KCAL/MOL
REMARK 923 INTER-LIGAND FREE ENERGY PREDICTED BY IDOCK:   -7.04 KCAL/MOL
REMARK 924 INTRA-LIGAND FREE ENERGY PREDICTED BY IDOCK:   -3.18 KCAL/MOL
REMARK 927      BINDING AFFINITY PREDICTED BY RF-SCORE:    0.00 PKD
ROOT
HETATM    1  C   UNL     1     -11.808  12.748  66.246  1.00  0.00    -0.485 C  
HETATM    2  C   UNL     1     -13.010  12.632  65.299  1.00  0.00     0.232 C  
HETATM    3  C   UNL     1     -12.594  12.230  63.887  1.00  0.00    -0.544 C  
HETATM    4  C   UNL     1     -11.576  13.210  63.316  1.00  0.00    -0.155 C  
HETATM    5  C   UNL     1     -10.352  13.341  64.218  1.00  0.00    -0.315 C  
HETATM    6  C   UNL     1     -10.723  13.658  65.672  1.00  0.00    -0.283 C  
HETATM    7  C   UNL     1      -9.520  13.636  66.617  1.00  0.00    -0.277 C  
HETATM    8  N   UNL     1      -8.850  12.331  66.731  1.00  0.00    -0.206 NA 
HETATM    9  C   UNL     1      -9.767  11.163  66.797  1.00  0.00    -0.193 C  
HETATM   10  C   UNL     1     -11.291  11.369  66.676  1.00  0.00    -0.230 C  
ENDROOT
BRANCH   8  11
HETATM   11  C   UNL     1      -7.934  12.375  67.909  1.00  0.00    -0.155 C  
BRANCH  11  12
HETATM   12  C   UNL     1      -7.409  11.010  68.428  1.00  0.00    -0.096 C  
HETATM   13  H   UNL     1      -5.982   9.763  67.924  1.00  0.00     0.000 HD 
HETATM   14  O   UNL     1      -6.303  10.599  67.607  1.00  0.00    -0.055 OA 
BRANCH  12  15
HETATM   15  C   UNL     1      -6.922  11.052  69.904  1.00  0.00    -0.049 C  
BRANCH  15  16
HETATM   16  N   UNL     1      -7.091   9.723  70.525  1.00  0.00    -0.136 N  
HETATM   17  C   UNL     1      -8.338   9.157  70.712  1.00  0.00    -0.208 C  
HETATM   18  O   UNL     1      -9.387   9.767  70.497  1.00  0.00    -0.219 OA 
HETATM   19  H   UNL     1      -6.263   9.207  70.826  1.00  0.00     0.000 HD 
BRANCH  17  20
HETATM   20  C   UNL     1      -8.328   7.723  71.281  1.00  0.00    -0.104 C  
BRANCH  20  21
HETATM   21  N   UNL     1      -8.173   6.773  70.183  1.00  0.00    -0.131 N  
HETATM   22  H   UNL     1      -7.235   6.437  69.967  1.00  0.00     0.000 HD 
HETATM   23  C   UNL     1      -9.220   6.308  69.426  1.00  0.00    -0.138 C  
HETATM   24  O   UNL     1     -10.393   6.588  69.661  1.00  0.00    -0.178 OA 
BRANCH  23  25
HETATM   25  C   UNL     1      -8.850   5.383  68.314  1.00  0.00    -0.104 A  
HETATM   26  N   UNL     1      -9.161   5.800  67.055  1.00  0.00    -0.116 NA 
HETATM   27  C   UNL     1      -8.890   4.962  66.041  1.00  0.00    -0.126 A  
HETATM   28  C   UNL     1      -8.284   3.701  66.239  1.00  0.00    -0.100 A  
HETATM   29  C   UNL     1      -7.942   3.326  67.545  1.00  0.00    -0.077 A  
HETATM   30  C   UNL     1      -8.042   2.850  65.149  1.00  0.00    -0.083 A  
HETATM   31  C   UNL     1      -8.233   4.177  68.603  1.00  0.00    -0.088 A  
HETATM   32  C   UNL     1      -8.403   3.237  63.861  1.00  0.00    -0.090 A  
HETATM   33  C   UNL     1      -8.991   4.482  63.657  1.00  0.00    -0.130 A  
HETATM   34  C   UNL     1      -9.223   5.331  64.744  1.00  0.00     0.119 A  
ENDBRANCH  23  25
ENDBRANCH  20  21
BRANCH  20  35
HETATM   35  C   UNL     1      -7.316   7.531  72.409  1.00  0.00    -0.079 C  
BRANCH  35  36
HETATM   36  C   UNL     1      -7.576   6.306  73.252  1.00  0.00    -0.095 C  
HETATM   37  N   UNL     1      -7.123   6.353  74.535  1.00  0.00    -0.089 N  
HETATM   38  O   UNL     1      -8.125   5.303  72.814  1.00  0.00    -0.107 OA 
HETATM   39  H2  UNL     1      -6.637   7.169  74.905  1.00  0.00     0.000 HD 
HETATM   40  H1  UNL     1      -7.298   5.526  75.104  1.00  0.00     0.000 HD 
ENDBRANCH  35  36
ENDBRANCH  20  35
ENDBRANCH  17  20
ENDBRANCH  15  16
BRANCH  15  41
HETATM   41  C   UNL     1      -5.469  11.569  70.064  1.00  0.00    -0.094 C  
BRANCH  41  42
HETATM   42  C   UNL     1      -5.289  13.035  70.400  1.00  0.00    -0.128 A  
HETATM   43  C   UNL     1      -5.195  14.003  69.390  1.00  0.00    -0.082 A  
HETATM   44  C   UNL     1      -5.174  15.777  71.040  1.00  0.00    -0.118 A  
HETATM   45  C   UNL     1      -5.133  15.363  69.709  1.00  0.00    -0.097 A  
HETATM   46  C   UNL     1      -5.321  13.467  71.735  1.00  0.00    -0.143 A  
HETATM   47  C   UNL     1      -5.264  14.826  72.054  1.00  0.00    -0.113 A  
ENDBRANCH  41  42
ENDBRANCH  15  41
ENDBRANCH  12  15
ENDBRANCH  11  12
ENDBRANCH   8  11
BRANCH   9  48
HETATM   48  C   UNL     1      -9.321  10.071  65.772  1.00  0.00    -0.189 C  
HETATM   49  C   UNL     1      -8.907   9.346  62.808  1.00  0.00    -0.224 C  
HETATM   50  O   UNL     1      -9.891   8.983  65.716  1.00  0.00    -0.262 OA 
HETATM   51  C   UNL     1      -7.231   8.231  64.323  1.00  0.00    -0.089 C  
HETATM   52  C   UNL     1      -7.778   9.582  63.829  1.00  0.00    -0.126 C  
HETATM   53  N   UNL     1      -8.248  10.400  64.963  1.00  0.00    -0.161 N  
HETATM   54  C   UNL     1      -6.636  10.323  63.107  1.00  0.00    -0.120 C  
HETATM   55  H   UNL     1      -7.747  11.265  65.164  1.00  0.00     0.000 HD 
ENDBRANCH   9  48
TORSDOF 12
ENDMDL
MODEL       78
REMARK 921   NORMALIZED FREE ENERGY PREDICTED BY IDOCK:   -3.49 KCAL/MOL
REMARK 922        TOTAL FREE ENERGY PREDICTED BY IDOCK:  -10.04 KCAL/MOL
REMARK 923 INTER-LIGAND FREE ENERGY PREDICTED BY IDOCK:  -10.21 KCAL/MOL
REMARK 924 INTRA-LIGAND FREE ENERGY PREDICTED BY IDOCK:    0.17 KCAL/MOL
REMARK 927      BINDING AFFINITY PREDICTED BY RF-SCORE:    0.00 PKD
ROOT
HETATM    1  C   UNL     1     -10.409  17.886  67.049  1.00  0.00    -0.366 C  
HETATM    2  C   UNL     1      -9.816  18.815  65.981  1.00  0.00    -0.224 C  
HETATM    3  C   UNL     1      -8.437  19.339  66.374  1.00  0.00    -0.342 C  
HETATM    4  C   UNL     1      -8.486  20.056  67.718  1.00  0.00    -0.338 C  
HETATM    5  C   UNL     1      -9.051  19.160  68.816  1.00  0.00    -0.397 C  
HETATM    6  C   UNL     1     -10.400  18.537  68.432  1.00  0.00    -0.359 C  
HETATM    7  C   UNL     1     -10.901  17.515  69.454  1.00  0.00     0.406 C  
HETATM    8  N   UNL     1     -10.037  16.337  69.622  1.00  0.00    -0.218 NA 
HETATM    9  C   UNL     1      -9.473  15.791  68.359  1.00  0.00    -0.196 C  
HETATM   10  C   UNL     1      -9.756  16.498  67.018  1.00  0.00    -0.255 C  
ENDROOT
BRANCH   8  11
HETATM   11  C   UNL     1     -10.800  15.298  70.376  1.00  0.00    -0.266 C  
BRANCH  11  12
HETATM   12  C   UNL     1     -12.213  14.950  69.836  1.00  0.00    -0.309 C  
HETATM   13  H   UNL     1     -13.379  15.615  68.407  1.00  0.00     0.000 HD 
HETATM   14  O   UNL     1     -12.515  15.828  68.737  1.00  0.00     0.074 OA 
BRANCH  12  15
HETATM   15  C   UNL     1     -12.342  13.485  69.331  1.00  0.00    -0.114 C  
BRANCH  15  16
HETATM   16  N   UNL     1     -11.203  13.156  68.452  1.00  0.00    -0.254 N  
HETATM   17  C   UNL     1     -11.386  12.715  67.154  1.00  0.00    -0.319 C  
HETATM   18  O   UNL     1     -12.496  12.445  66.691  1.00  0.00    -0.329 OA 
HETATM   19  H   UNL     1     -10.253  13.256  68.811  1.00  0.00     0.000 HD 
BRANCH  17  20
HETATM   20  C   UNL     1     -10.090  12.513  66.342  1.00  0.00    -0.243 C  
BRANCH  20  21
HETATM   21  N   UNL     1      -9.694  11.109  66.415  1.00  0.00    -0.199 N  
HETATM   22  H   UNL     1     -10.428  10.404  66.471  1.00  0.00     0.000 HD 
HETATM   23  C   UNL     1      -8.387  10.686  66.411  1.00  0.00    -0.151 C  
HETATM   24  O   UNL     1      -7.437  11.450  66.264  1.00  0.00    -0.078 OA 
BRANCH  23  25
HETATM   25  C   UNL     1      -8.187   9.213  66.547  1.00  0.00    -0.111 A  
HETATM   26  N   UNL     1      -9.305   8.441  66.448  1.00  0.00    -0.199 NA 
HETATM   27  C   UNL     1      -9.160   7.117  66.623  1.00  0.00    -0.149 A  
HETATM   28  C   UNL     1      -7.906   6.518  66.878  1.00  0.00    -0.107 A  
HETATM   29  C   UNL     1      -6.774   7.341  66.932  1.00  0.00    -0.064 A  
HETATM   30  C   UNL     1      -7.809   5.131  67.078  1.00  0.00    -0.096 A  
HETATM   31  C   UNL     1      -6.914   8.713  66.770  1.00  0.00    -0.077 A  
HETATM   32  C   UNL     1      -8.950   4.334  67.034  1.00  0.00    -0.130 A  
HETATM   33  C   UNL     1     -10.186   4.916  66.773  1.00  0.00    -0.274 A  
HETATM   34  C   UNL     1     -10.278   6.296  66.566  1.00  0.00    -0.163 A  
ENDBRANCH  23  25
ENDBRANCH  20  21
BRANCH  20  35
HETATM   35  C   UNL     1     -10.183  13.053  64.917  1.00  0.00    -0.304 C  
BRANCH  35  36
HETATM   36  C   UNL     1     -10.329  11.975  63.870  1.00  0.00    -0.402 C  
HETATM   37  N   UNL     1     -11.564  11.840  63.315  1.00  0.00    -0.788 N  
HETATM   38  O   UNL     1      -9.410  11.229  63.553  1.00  0.00    -0.230 OA 
HETATM   39  H2  UNL     1     -12.346  12.433  63.590  1.00  0.00     0.000 HD 
HETATM   40  H1  UNL     1     -11.662  11.112  62.608  1.00  0.00     0.000 HD 
ENDBRANCH  35  36
ENDBRANCH  20  35
ENDBRANCH  17  20
ENDBRANCH  15  16
BRANCH  15  41
HETATM   41  C   UNL     1     -12.493  12.446  70.473  1.00  0.00    -0.270 C  
BRANCH  41  42
HETATM   42  C   UNL     1     -11.644  11.195  70.386  1.00  0.00    -0.355 A  
HETATM   43  C   UNL     1     -12.028  10.014  71.038  1.00  0.00    -0.469 A  
HETATM   44  C   UNL     1     -10.174   8.816  70.038  1.00  0.00    -0.208 A  
HETATM   45  C   UNL     1     -11.294   8.835  70.869  1.00  0.00    -0.322 A  
HETATM   46  C   UNL     1     -10.509  11.161  69.560  1.00  0.00    -0.080 A  
HETATM   47  C   UNL     1      -9.780   9.983  69.387  1.00  0.00    -0.240 A  
ENDBRANCH  41  42
ENDBRANCH  15  41
ENDBRANCH  12  15
ENDBRANCH  11  12
ENDBRANCH   8  11
BRANCH   9  48
HETATM   48  C   UNL     1      -7.932  15.579  68.506  1.00  0.00    -0.137 C  
HETATM   49  C   UNL     1      -5.640  14.522  70.270  1.00  0.00    -0.122 C  
HETATM   50  O   UNL     1      -7.156  16.532  68.474  1.00  0.00    -0.150 OA 
HETATM   51  C   UNL     1      -5.178  14.246  67.808  1.00  0.00     0.007 C  
HETATM   52  C   UNL     1      -6.125  13.870  68.961  1.00  0.00    -0.089 C  
HETATM   53  N   UNL     1      -7.510  14.269  68.648  1.00  0.00    -0.122 N  
HETATM   54  C   UNL     1      -6.067  12.341  69.146  1.00  0.00    -0.083 C  
HETATM   55  H   UNL     1      -8.202  13.530  68.528  1.00  0.00     0.000 HD 
ENDBRANCH   9  48
TORSDOF 12
ENDMDL
MODEL       79
REMARK 921   NORMALIZED FREE ENERGY PREDICTED BY IDOCK:   -3.48 KCAL/MOL
REMARK 922        TOTAL FREE ENERGY PREDICTED BY IDOCK:  -10.01 KCAL/MOL
REMARK 923 INTER-LIGAND FREE ENERGY PREDICTED BY IDOCK:   -7.58 KCAL/MOL
REMARK 924 INTRA-LIGAND FREE ENERGY PREDICTED BY IDOCK:   -2.44 KCAL/MOL
REMARK 927      BINDING AFFINITY PREDICTED BY RF-SCORE:    0.00 PKD
ROOT
HETATM    1  C   UNL     1     -11.974  13.542  71.414  1.00  0.00     0.273 C  
HETATM    2  C   UNL     1     -13.441  13.242  71.748  1.00  0.00    -0.438 C  
HETATM    3  C   UNL     1     -14.405  14.100  70.933  1.00  0.00     0.645 C  
HETATM    4  C   UNL     1     -14.119  15.584  71.132  1.00  0.00    -0.222 C  
HETATM    5  C   UNL     1     -12.673  15.931  70.790  1.00  0.00    -0.206 C  
HETATM    6  C   UNL     1     -11.664  15.034  71.519  1.00  0.00    -0.426 C  
HETATM    7  C   UNL     1     -10.221  15.265  71.068  1.00  0.00     0.707 C  
HETATM    8  N   UNL     1      -9.962  14.959  69.652  1.00  0.00    -0.087 NA 
HETATM    9  C   UNL     1     -10.627  13.728  69.148  1.00  0.00    -0.072 C  
HETATM   10  C   UNL     1     -11.561  12.921  70.073  1.00  0.00    -0.189 C  
ENDROOT
BRANCH   8  11
HETATM   11  C   UNL     1      -8.484  14.907  69.446  1.00  0.00    -0.064 C  
BRANCH  11  12
HETATM   12  C   UNL     1      -7.904  15.850  68.358  1.00  0.00    -0.145 C  
HETATM   13  H   UNL     1      -7.840  17.787  68.060  1.00  0.00     0.000 HD 
HETATM   14  O   UNL     1      -8.195  17.210  68.726  1.00  0.00    -0.259 OA 
BRANCH  12  15
HETATM   15  C   UNL     1      -6.366  15.719  68.178  1.00  0.00    -0.124 C  
BRANCH  15  16
HETATM   16  N   UNL     1      -5.968  14.301  68.274  1.00  0.00    -0.109 N  
HETATM   17  C   UNL     1      -6.540  13.327  67.476  1.00  0.00    -0.143 C  
HETATM   18  O   UNL     1      -7.498  13.550  66.734  1.00  0.00     0.327 OA 
HETATM   19  H   UNL     1      -5.252  14.031  68.949  1.00  0.00     0.000 HD 
BRANCH  17  20
HETATM   20  C   UNL     1      -5.939  11.915  67.635  1.00  0.00    -0.084 C  
BRANCH  20  21
HETATM   21  N   UNL     1      -6.997  10.985  68.024  1.00  0.00    -0.068 N  
HETATM   22  H   UNL     1      -7.762  10.826  67.369  1.00  0.00     0.000 HD 
HETATM   23  C   UNL     1      -7.017  10.314  69.222  1.00  0.00    -0.073 C  
HETATM   24  O   UNL     1      -6.102  10.375  70.039  1.00  0.00    -0.059 OA 
BRANCH  23  25
HETATM   25  C   UNL     1      -8.212   9.451  69.456  1.00  0.00    -0.124 A  
HETATM   26  N   UNL     1      -9.083   9.874  70.413  1.00  0.00    -0.085 NA 
HETATM   27  C   UNL     1     -10.137   9.086  70.683  1.00  0.00    -0.229 A  
HETATM   28  C   UNL     1     -10.372   7.871  70.000  1.00  0.00    -0.221 A  
HETATM   29  C   UNL     1      -9.474   7.491  68.994  1.00  0.00    -0.145 A  
HETATM   30  C   UNL     1     -11.475   7.069  70.334  1.00  0.00    -0.355 A  
HETATM   31  C   UNL     1      -8.372   8.289  68.717  1.00  0.00    -0.124 A  
HETATM   32  C   UNL     1     -12.346   7.460  71.348  1.00  0.00    -0.394 A  
HETATM   33  C   UNL     1     -12.127   8.660  72.018  1.00  0.00    -0.442 A  
HETATM   34  C   UNL     1     -11.032   9.460  71.677  1.00  0.00    -0.382 A  
ENDBRANCH  23  25
ENDBRANCH  20  21
BRANCH  20  35
HETATM   35  C   UNL     1      -5.140  11.461  66.415  1.00  0.00    -0.107 C  
BRANCH  35  36
HETATM   36  C   UNL     1      -5.863  10.449  65.559  1.00  0.00    -0.119 C  
HETATM   37  N   UNL     1      -6.837  10.939  64.744  1.00  0.00    -0.278 N  
HETATM   38  O   UNL     1      -5.629   9.248  65.611  1.00  0.00    -0.044 OA 
HETATM   39  H2  UNL     1      -7.064  11.933  64.713  1.00  0.00     0.000 HD 
HETATM   40  H1  UNL     1      -7.325  10.256  64.166  1.00  0.00     0.000 HD 
ENDBRANCH  35  36
ENDBRANCH  20  35
ENDBRANCH  17  20
ENDBRANCH  15  16
BRANCH  15  41
HETATM   41  C   UNL     1      -5.837  16.366  66.871  1.00  0.00     0.007 C  
BRANCH  41  42
HETATM   42  C   UNL     1      -5.994  17.865  66.727  1.00  0.00    -0.187 A  
HETATM   43  C   UNL     1      -6.770  18.416  65.697  1.00  0.00    -0.304 A  
HETATM   44  C   UNL     1      -6.457  20.642  66.601  1.00  0.00    -0.311 A  
HETATM   45  C   UNL     1      -6.995  19.795  65.633  1.00  0.00    -0.329 A  
HETATM   46  C   UNL     1      -5.453  18.732  67.690  1.00  0.00    -0.167 A  
HETATM   47  C   UNL     1      -5.682  20.108  67.628  1.00  0.00    -0.211 A  
ENDBRANCH  41  42
ENDBRANCH  15  41
ENDBRANCH  12  15
ENDBRANCH  11  12
ENDBRANCH   8  11
BRANCH   9  48
HETATM   48  C   UNL     1     -11.376  14.031  67.811  1.00  0.00    -0.303 C  
HETATM   49  C   UNL     1     -11.166  15.126  64.941  1.00  0.00    -0.424 C  
HETATM   50  O   UNL     1     -12.338  14.794  67.782  1.00  0.00    -0.105 OA 
HETATM   51  C   UNL     1     -12.839  13.252  65.145  1.00  0.00    -0.376 C  
HETATM   52  C   UNL     1     -11.360  13.644  65.312  1.00  0.00    -0.296 C  
HETATM   53  N   UNL     1     -10.902  13.375  66.688  1.00  0.00    -0.281 N  
HETATM   54  C   UNL     1     -10.530  12.798  64.327  1.00  0.00    -0.423 C  
HETATM   55  H   UNL     1     -10.190  12.658  66.820  1.00  0.00     0.000 HD 
ENDBRANCH   9  48
TORSDOF 12
ENDMDL
MODEL       80
REMARK 921   NORMALIZED FREE ENERGY PREDICTED BY IDOCK:   -3.34 KCAL/MOL
REMARK 922        TOTAL FREE ENERGY PREDICTED BY IDOCK:   -9.78 KCAL/MOL
REMARK 923 INTER-LIGAND FREE ENERGY PREDICTED BY IDOCK:   -6.93 KCAL/MOL
REMARK 924 INTRA-LIGAND FREE ENERGY PREDICTED BY IDOCK:   -2.85 KCAL/MOL
REMARK 927      BINDING AFFINITY PREDICTED BY RF-SCORE:    0.00 PKD
ROOT
HETATM    1  C   UNL     1      -7.330  10.943  69.214  1.00  0.00    -0.125 C  
HETATM    2  C   UNL     1      -6.330  12.102  69.105  1.00  0.00    -0.094 C  
HETATM    3  C   UNL     1      -6.356  12.758  67.727  1.00  0.00    -0.137 C  
HETATM    4  C   UNL     1      -6.088  11.735  66.628  1.00  0.00    -0.033 C  
HETATM    5  C   UNL     1      -7.075  10.573  66.687  1.00  0.00    -0.118 C  
HETATM    6  C   UNL     1      -7.151   9.934  68.080  1.00  0.00    -0.082 C  
HETATM    7  C   UNL     1      -8.247   8.873  68.194  1.00  0.00    -0.114 C  
HETATM    8  N   UNL     1      -9.614   9.377  67.995  1.00  0.00    -0.137 NA 
HETATM    9  C   UNL     1      -9.894  10.692  68.629  1.00  0.00    -0.179 C  
HETATM   10  C   UNL     1      -8.770  11.450  69.365  1.00  0.00     0.509 C  
ENDROOT
BRANCH   8  11
HETATM   11  C   UNL     1     -10.573   8.330  68.458  1.00  0.00    -0.100 C  
BRANCH  11  12
HETATM   12  C   UNL     1     -10.319   7.736  69.870  1.00  0.00    -0.223 C  
HETATM   13  H   UNL     1     -11.428   6.997  71.308  1.00  0.00     0.000 HD 
HETATM   14  O   UNL     1     -11.583   7.361  70.444  1.00  0.00    -0.264 OA 
BRANCH  12  15
HETATM   15  C   UNL     1      -9.404   6.480  69.860  1.00  0.00    -0.152 C  
BRANCH  15  16
HETATM   16  N   UNL     1      -9.277   5.962  68.484  1.00  0.00    -0.117 N  
HETATM   17  C   UNL     1      -9.575   4.649  68.168  1.00  0.00    -0.148 C  
HETATM   18  O   UNL     1      -9.836   3.800  69.021  1.00  0.00    -0.096 OA 
HETATM   19  H   UNL     1      -8.961   6.590  67.744  1.00  0.00     0.000 HD 
BRANCH  17  20
HETATM   20  C   UNL     1      -9.486   4.301  66.667  1.00  0.00    -0.187 C  
BRANCH  20  21
HETATM   21  N   UNL     1      -9.071   5.488  65.924  1.00  0.00    -0.157 N  
HETATM   22  H   UNL     1      -9.759   5.947  65.327  1.00  0.00     0.000 HD 
HETATM   23  C   UNL     1      -7.806   6.020  65.985  1.00  0.00    -0.105 C  
HETATM   24  O   UNL     1      -6.934   5.589  66.736  1.00  0.00    -0.062 OA 
BRANCH  23  25
HETATM   25  C   UNL     1      -7.563   7.204  65.109  1.00  0.00    -0.102 A  
HETATM   26  N   UNL     1      -8.610   8.059  64.948  1.00  0.00    -0.045 NA 
HETATM   27  C   UNL     1      -8.435   9.103  64.120  1.00  0.00    -0.185 A  
HETATM   28  C   UNL     1      -7.216   9.342  63.448  1.00  0.00    -0.102 A  
HETATM   29  C   UNL     1      -6.149   8.462  63.673  1.00  0.00    -0.072 A  
HETATM   30  C   UNL     1      -7.089  10.434  62.574  1.00  0.00    -0.152 A  
HETATM   31  C   UNL     1      -6.323   7.371  64.513  1.00  0.00    -0.040 A  
HETATM   32  C   UNL     1      -8.167  11.287  62.354  1.00  0.00    -0.118 A  
HETATM   33  C   UNL     1      -9.368  11.063  63.021  1.00  0.00    -0.363 A  
HETATM   34  C   UNL     1      -9.488   9.980  63.897  1.00  0.00    -0.280 A  
ENDBRANCH  23  25
ENDBRANCH  20  21
BRANCH  20  35
HETATM   35  C   UNL     1      -8.630   3.068  66.385  1.00  0.00    -0.118 C  
BRANCH  35  36
HETATM   36  C   UNL     1      -8.795   2.524  64.987  1.00  0.00    -0.121 C  
HETATM   37  N   UNL     1      -9.874   1.722  64.777  1.00  0.00    -0.335 N  
HETATM   38  O   UNL     1      -7.991   2.748  64.089  1.00  0.00    -0.080 OA 
HETATM   39  H2  UNL     1     -10.534   1.502  65.522  1.00  0.00     0.000 HD 
HETATM   40  H1  UNL     1      -9.984   1.355  63.832  1.00  0.00     0.000 HD 
ENDBRANCH  35  36
ENDBRANCH  20  35
ENDBRANCH  17  20
ENDBRANCH  15  16
BRANCH  15  41
HETATM   41  C   UNL     1      -8.012   6.721  70.502  1.00  0.00    -0.114 C  
BRANCH  41  42
HETATM   42  C   UNL     1      -7.986   7.255  71.919  1.00  0.00    -0.091 A  
HETATM   43  C   UNL     1      -7.341   8.460  72.227  1.00  0.00    -0.126 A  
HETATM   44  C   UNL     1      -8.133   8.344  74.514  1.00  0.00    -0.151 A  
HETATM   45  C   UNL     1      -7.410   8.998  73.517  1.00  0.00     0.476 A  
HETATM   46  C   UNL     1      -8.704   6.604  72.936  1.00  0.00    -0.129 A  
HETATM   47  C   UNL     1      -8.777   7.144  74.222  1.00  0.00    -0.242 A  
ENDBRANCH  41  42
ENDBRANCH  15  41
ENDBRANCH  12  15
ENDBRANCH  11  12
ENDBRANCH   8  11
BRANCH   9  48
HETATM   48  C   UNL     1     -10.563  11.656  67.597  1.00  0.00    -0.203 C  
HETATM   49  C   UNL     1     -11.652  14.485  67.055  1.00  0.00    -0.402 C  
HETATM   50  O   UNL     1     -11.656  11.393  67.101  1.00  0.00    -0.519 OA 
HETATM   51  C   UNL     1     -10.628  13.429  65.008  1.00  0.00    -0.370 C  
HETATM   52  C   UNL     1     -10.362  13.900  66.449  1.00  0.00    -0.289 C  
HETATM   53  N   UNL     1      -9.842  12.791  67.271  1.00  0.00    -0.204 N  
HETATM   54  C   UNL     1      -9.313  15.027  66.395  1.00  0.00    -0.334 C  
HETATM   55  H   UNL     1      -8.888  12.867  67.622  1.00  0.00     0.000 HD 
ENDBRANCH   9  48
TORSDOF 12
ENDMDL
MODEL       81
REMARK 921   NORMALIZED FREE ENERGY PREDICTED BY IDOCK:   -2.64 KCAL/MOL
REMARK 922        TOTAL FREE ENERGY PREDICTED BY IDOCK:   -8.60 KCAL/MOL
REMARK 923 INTER-LIGAND FREE ENERGY PREDICTED BY IDOCK:   -9.43 KCAL/MOL
REMARK 924 INTRA-LIGAND FREE ENERGY PREDICTED BY IDOCK:    0.83 KCAL/MOL
REMARK 927      BINDING AFFINITY PREDICTED BY RF-SCORE:    0.00 PKD
ROOT
HETATM    1  C   UNL     1      -9.567   3.769  67.551  1.00  0.00    -0.205 C  
HETATM    2  C   UNL     1      -9.581   2.242  67.408  1.00  0.00     0.101 C  
HETATM    3  C   UNL     1      -9.111   1.787  66.029  1.00  0.00    -0.046 C  
HETATM    4  C   UNL     1      -9.953   2.421  64.927  1.00  0.00     0.308 C  
HETATM    5  C   UNL     1      -9.950   3.944  65.019  1.00  0.00    -0.186 C  
HETATM    6  C   UNL     1     -10.331   4.450  66.416  1.00  0.00    -0.094 C  
HETATM    7  C   UNL     1     -10.180   5.965  66.567  1.00  0.00    -0.162 C  
HETATM    8  N   UNL     1      -8.807   6.466  66.406  1.00  0.00    -0.137 NA 
HETATM    9  C   UNL     1      -7.757   5.626  67.043  1.00  0.00    -0.101 C  
HETATM   10  C   UNL     1      -8.143   4.307  67.742  1.00  0.00    -0.094 C  
ENDROOT
BRANCH   8  11
HETATM   11  C   UNL     1      -8.758   7.873  66.901  1.00  0.00    -0.131 C  
BRANCH  11  12
HETATM   12  C   UNL     1      -9.441   8.149  68.267  1.00  0.00    -0.141 C  
HETATM   13  H   UNL     1      -9.713   7.154  69.935  1.00  0.00     0.000 HD 
HETATM   14  O   UNL     1      -9.295   6.985  69.099  1.00  0.00    -0.142 OA 
BRANCH  12  15
HETATM   15  C   UNL     1      -8.838   9.363  69.030  1.00  0.00    -0.141 C  
BRANCH  15  16
HETATM   16  N   UNL     1      -9.259  10.621  68.382  1.00  0.00    -0.152 N  
HETATM   17  C   UNL     1     -10.406  10.698  67.614  1.00  0.00    -0.209 C  
HETATM   18  O   UNL     1     -11.076   9.709  67.314  1.00  0.00    -0.151 OA 
HETATM   19  H   UNL     1      -8.687  11.457  68.504  1.00  0.00     0.000 HD 
BRANCH  17  20
HETATM   20  C   UNL     1     -10.752  12.110  67.095  1.00  0.00    -0.232 C  
BRANCH  20  21
HETATM   21  N   UNL     1     -10.852  13.025  68.229  1.00  0.00    -0.237 N  
HETATM   22  H   UNL     1     -10.201  12.903  69.005  1.00  0.00     0.000 HD 
HETATM   23  C   UNL     1     -11.772  14.041  68.308  1.00  0.00    -0.357 C  
HETATM   24  O   UNL     1     -12.541  14.321  67.391  1.00  0.00    -0.054 OA 
BRANCH  23  25
HETATM   25  C   UNL     1     -11.749  14.834  69.572  1.00  0.00    -0.321 A  
HETATM   26  N   UNL     1     -12.115  14.173  70.705  1.00  0.00    -0.340 NA 
HETATM   27  C   UNL     1     -12.157  14.878  71.848  1.00  0.00    -0.362 A  
HETATM   28  C   UNL     1     -11.818  16.248  71.907  1.00  0.00    -0.538 A  
HETATM   29  C   UNL     1     -11.409  16.883  70.727  1.00  0.00     0.553 A  
HETATM   30  C   UNL     1     -11.901  16.949  73.120  1.00  0.00     0.001 A  
HETATM   31  C   UNL     1     -11.377  16.169  69.536  1.00  0.00    -0.321 A  
HETATM   32  C   UNL     1     -12.325  16.302  74.278  1.00  0.00    -0.628 A  
HETATM   33  C   UNL     1     -12.650  14.949  74.230  1.00  0.00    -0.149 A  
HETATM   34  C   UNL     1     -12.558  14.252  73.021  1.00  0.00    -0.298 A  
ENDBRANCH  23  25
ENDBRANCH  20  21
BRANCH  20  35
HETATM   35  C   UNL     1      -9.811  12.593  65.995  1.00  0.00    -0.260 C  
BRANCH  35  36
HETATM   36  C   UNL     1     -10.429  13.621  65.078  1.00  0.00    -0.391 C  
HETATM   37  N   UNL     1     -11.113  13.136  64.006  1.00  0.00    -0.488 N  
HETATM   38  O   UNL     1     -10.300  14.827  65.250  1.00  0.00    -0.350 OA 
HETATM   39  H2  UNL     1     -11.203  12.135  63.832  1.00  0.00     0.000 HD 
HETATM   40  H1  UNL     1     -11.530  13.830  63.387  1.00  0.00     0.000 HD 
ENDBRANCH  35  36
ENDBRANCH  20  35
ENDBRANCH  17  20
ENDBRANCH  15  16
BRANCH  15  41
HETATM   41  C   UNL     1      -9.169   9.370  70.545  1.00  0.00    -0.314 C  
BRANCH  41  42
HETATM   42  C   UNL     1     -10.629   9.276  70.936  1.00  0.00    -0.366 A  
HETATM   43  C   UNL     1     -11.081   8.278  71.810  1.00  0.00    -0.342 A  
HETATM   44  C   UNL     1     -13.303   9.246  71.826  1.00  0.00    -0.477 A  
HETATM   45  C   UNL     1     -12.410   8.261  72.248  1.00  0.00    -0.410 A  
HETATM   46  C   UNL     1     -11.542  10.256  70.514  1.00  0.00    -0.424 A  
HETATM   47  C   UNL     1     -12.867  10.242  70.955  1.00  0.00    -0.463 A  
ENDBRANCH  41  42
ENDBRANCH  15  41
ENDBRANCH  12  15
ENDBRANCH  11  12
ENDBRANCH   8  11
BRANCH   9  48
HETATM   48  C   UNL     1      -6.605   5.343  66.028  1.00  0.00    -0.048 C  
HETATM   49  C   UNL     1      -5.193   3.254  64.260  1.00  0.00    -0.009 C  
HETATM   50  O   UNL     1      -5.429   5.536  66.333  1.00  0.00    -0.012 OA 
HETATM   51  C   UNL     1      -5.160   5.562  63.249  1.00  0.00    -0.010 C  
HETATM   52  C   UNL     1      -6.061   4.415  63.739  1.00  0.00    -0.018 C  
HETATM   53  N   UNL     1      -6.993   4.892  64.778  1.00  0.00    -0.049 N  
HETATM   54  C   UNL     1      -6.869   3.896  62.534  1.00  0.00    -0.031 C  
HETATM   55  H   UNL     1      -7.989   4.888  64.561  1.00  0.00     0.000 HD 
ENDBRANCH   9  48
TORSDOF 12
ENDMDL
MODEL       82
REMARK 921   NORMALIZED FREE ENERGY PREDICTED BY IDOCK:   -2.61 KCAL/MOL
REMARK 922        TOTAL FREE ENERGY PREDICTED BY IDOCK:   -8.54 KCAL/MOL
REMARK 923 INTER-LIGAND FREE ENERGY PREDICTED BY IDOCK:   -5.86 KCAL/MOL
REMARK 924 INTRA-LIGAND FREE ENERGY PREDICTED BY IDOCK:   -2.68 KCAL/MOL
REMARK 927      BINDING AFFINITY PREDICTED BY RF-SCORE:    0.00 PKD
ROOT
HETATM    1  C   UNL     1      -9.615   8.604  72.001  1.00  0.00    -0.385 C  
HETATM    2  C   UNL     1     -10.528   7.680  72.818  1.00  0.00    -0.368 C  
HETATM    3  C   UNL     1     -11.275   6.682  71.936  1.00  0.00    -0.302 C  
HETATM    4  C   UNL     1     -12.085   7.399  70.863  1.00  0.00    -0.290 C  
HETATM    5  C   UNL     1     -11.211   8.315  70.012  1.00  0.00    -0.081 C  
HETATM    6  C   UNL     1     -10.371   9.281  70.859  1.00  0.00    -0.367 C  
HETATM    7  C   UNL     1      -9.375  10.094  70.030  1.00  0.00    -0.013 C  
HETATM    8  N   UNL     1      -8.351   9.296  69.340  1.00  0.00    -0.120 NA 
HETATM    9  C   UNL     1      -7.790   8.174  70.139  1.00  0.00    -0.098 C  
HETATM   10  C   UNL     1      -8.337   7.883  71.551  1.00  0.00    -0.130 C  
ENDROOT
BRANCH   8  11
HETATM   11  C   UNL     1      -7.279  10.218  68.862  1.00  0.00    -0.086 C  
BRANCH  11  12
HETATM   12  C   UNL     1      -7.235  11.625  69.516  1.00  0.00     0.116 C  
HETATM   13  H   UNL     1      -5.858  12.761  70.327  1.00  0.00     0.000 HD 
HETATM   14  O   UNL     1      -5.885  11.900  69.927  1.00  0.00    -0.106 OA 
BRANCH  12  15
HETATM   15  C   UNL     1      -7.689  12.768  68.564  1.00  0.00    -0.113 C  
BRANCH  15  16
HETATM   16  N   UNL     1      -8.559  12.220  67.504  1.00  0.00    -0.164 N  
HETATM   17  C   UNL     1      -8.755  12.883  66.306  1.00  0.00     0.275 C  
HETATM   18  O   UNL     1      -8.330  14.020  66.095  1.00  0.00     0.666 OA 
HETATM   19  H   UNL     1      -9.029  11.328  67.659  1.00  0.00     0.000 HD 
BRANCH  17  20
HETATM   20  C   UNL     1      -9.611  12.124  65.271  1.00  0.00    -0.061 C  
BRANCH  20  21
HETATM   21  N   UNL     1      -8.961  10.857  64.949  1.00  0.00    -0.277 N  
HETATM   22  H   UNL     1      -8.576  10.305  65.716  1.00  0.00     0.000 HD 
HETATM   23  C   UNL     1      -8.841  10.366  63.672  1.00  0.00    -0.214 C  
HETATM   24  O   UNL     1      -9.344  10.914  62.694  1.00  0.00    -0.293 OA 
BRANCH  23  25
HETATM   25  C   UNL     1      -8.096   9.079  63.545  1.00  0.00    -0.164 A  
HETATM   26  N   UNL     1      -8.656   7.995  64.151  1.00  0.00     0.134 NA 
HETATM   27  C   UNL     1      -7.977   6.837  64.099  1.00  0.00    -0.085 A  
HETATM   28  C   UNL     1      -6.740   6.712  63.429  1.00  0.00    -0.048 A  
HETATM   29  C   UNL     1      -6.216   7.840  62.783  1.00  0.00    -0.072 A  
HETATM   30  C   UNL     1      -6.056   5.485  63.423  1.00  0.00    -0.021 A  
HETATM   31  C   UNL     1      -6.901   9.047  62.844  1.00  0.00    -0.093 A  
HETATM   32  C   UNL     1      -6.588   4.381  64.084  1.00  0.00    -0.043 A  
HETATM   33  C   UNL     1      -7.812   4.495  64.737  1.00  0.00    -0.086 A  
HETATM   34  C   UNL     1      -8.494   5.715  64.734  1.00  0.00    -0.102 A  
ENDBRANCH  23  25
ENDBRANCH  20  21
BRANCH  20  35
HETATM   35  C   UNL     1     -11.072  11.977  65.691  1.00  0.00    -0.361 C  
BRANCH  35  36
HETATM   36  C   UNL     1     -11.987  13.005  65.069  1.00  0.00    -0.397 C  
HETATM   37  N   UNL     1     -11.383  14.099  64.531  1.00  0.00    -0.497 N  
HETATM   38  O   UNL     1     -13.207  12.896  65.074  1.00  0.00    -0.765 OA 
HETATM   39  H2  UNL     1     -10.371  14.218  64.546  1.00  0.00     0.000 HD 
HETATM   40  H1  UNL     1     -12.002  14.793  64.111  1.00  0.00     0.000 HD 
ENDBRANCH  35  36
ENDBRANCH  20  35
ENDBRANCH  17  20
ENDBRANCH  15  16
BRANCH  15  41
HETATM   41  C   UNL     1      -8.370  13.953  69.296  1.00  0.00     0.443 C  
BRANCH  41  42
HETATM   42  C   UNL     1      -9.765  14.335  68.849  1.00  0.00    -0.118 A  
HETATM   43  C   UNL     1     -10.862  13.501  69.107  1.00  0.00    -0.173 A  
HETATM   44  C   UNL     1     -12.383  15.158  68.205  1.00  0.00     0.268 A  
HETATM   45  C   UNL     1     -12.160  13.908  68.783  1.00  0.00    -0.344 A  
HETATM   46  C   UNL     1     -10.005  15.587  68.260  1.00  0.00    -0.213 A  
HETATM   47  C   UNL     1     -11.302  15.995  67.941  1.00  0.00    -0.218 A  
ENDBRANCH  41  42
ENDBRANCH  15  41
ENDBRANCH  12  15
ENDBRANCH  11  12
ENDBRANCH   8  11
BRANCH   9  48
HETATM   48  C   UNL     1      -7.815   6.854  69.304  1.00  0.00    -0.114 C  
HETATM   49  C   UNL     1      -6.158   4.631  67.964  1.00  0.00    -0.031 C  
HETATM   50  O   UNL     1      -8.331   6.818  68.190  1.00  0.00    -0.117 OA 
HETATM   51  C   UNL     1      -8.362   3.796  68.857  1.00  0.00    -0.088 C  
HETATM   52  C   UNL     1      -7.021   4.454  69.228  1.00  0.00    -0.050 C  
HETATM   53  N   UNL     1      -7.245   5.745  69.905  1.00  0.00    -0.067 N  
HETATM   54  C   UNL     1      -6.272   3.504  70.182  1.00  0.00    -0.027 C  
HETATM   55  H   UNL     1      -6.961   5.825  70.881  1.00  0.00     0.000 HD 
ENDBRANCH   9  48
TORSDOF 12
ENDMDL
MODEL       83
REMARK 921   NORMALIZED FREE ENERGY PREDICTED BY IDOCK:   -2.31 KCAL/MOL
REMARK 922        TOTAL FREE ENERGY PREDICTED BY IDOCK:   -8.03 KCAL/MOL
REMARK 923 INTER-LIGAND FREE ENERGY PREDICTED BY IDOCK:   -8.56 KCAL/MOL
REMARK 924 INTRA-LIGAND FREE ENERGY PREDICTED BY IDOCK:    0.53 KCAL/MOL
REMARK 927      BINDING AFFINITY PREDICTED BY RF-SCORE:    0.00 PKD
ROOT
HETATM    1  C   UNL     1      -9.316  16.564  69.257  1.00  0.00    -0.135 C  
HETATM    2  C   UNL     1     -10.037  17.917  69.317  1.00  0.00    -0.115 C  
HETATM    3  C   UNL     1     -10.581  18.341  67.954  1.00  0.00    -0.392 C  
HETATM    4  C   UNL     1      -9.470  18.389  66.912  1.00  0.00    -0.291 C  
HETATM    5  C   UNL     1      -8.738  17.054  66.805  1.00  0.00    -0.272 C  
HETATM    6  C   UNL     1      -8.248  16.541  68.165  1.00  0.00    -0.181 C  
HETATM    7  C   UNL     1      -7.653  15.133  68.096  1.00  0.00    -0.112 C  
HETATM    8  N   UNL     1      -8.597  14.086  67.677  1.00  0.00    -0.175 NA 
HETATM    9  C   UNL     1      -9.959  14.203  68.260  1.00  0.00    -0.241 C  
HETATM   10  C   UNL     1     -10.309  15.397  69.172  1.00  0.00    -0.240 C  
ENDROOT
BRANCH   8  11
HETATM   11  C   UNL     1      -7.986  12.756  67.975  1.00  0.00    -0.160 C  
BRANCH  11  12
HETATM   12  C   UNL     1      -8.951  11.649  68.476  1.00  0.00    -0.138 C  
HETATM   13  H   UNL     1     -10.720  11.596  69.320  1.00  0.00     0.000 HD 
HETATM   14  O   UNL     1     -10.129  12.274  69.013  1.00  0.00    -0.041 OA 
BRANCH  12  15
HETATM   15  C   UNL     1      -9.396  10.661  67.361  1.00  0.00    -0.143 C  
BRANCH  15  16
HETATM   16  N   UNL     1      -8.298   9.722  67.055  1.00  0.00    -0.117 N  
HETATM   17  C   UNL     1      -7.445   9.253  68.037  1.00  0.00    -0.083 C  
HETATM   18  O   UNL     1      -7.457   9.680  69.192  1.00  0.00    -0.073 OA 
HETATM   19  H   UNL     1      -8.166   9.410  66.093  1.00  0.00     0.000 HD 
BRANCH  17  20
HETATM   20  C   UNL     1      -6.418   8.203  67.564  1.00  0.00    -0.057 C  
BRANCH  20  21
HETATM   21  N   UNL     1      -7.127   7.085  66.946  1.00  0.00    -0.073 N  
HETATM   22  H   UNL     1      -8.085   7.238  66.632  1.00  0.00     0.000 HD 
HETATM   23  C   UNL     1      -6.576   5.841  66.766  1.00  0.00    -0.056 C  
HETATM   24  O   UNL     1      -5.405   5.582  67.034  1.00  0.00    -0.007 OA 
BRANCH  23  25
HETATM   25  C   UNL     1      -7.480   4.816  66.165  1.00  0.00    -0.086 A  
HETATM   26  N   UNL     1      -7.923   5.070  64.903  1.00  0.00    -0.094 NA 
HETATM   27  C   UNL     1      -8.783   4.192  64.360  1.00  0.00    -0.130 A  
HETATM   28  C   UNL     1      -9.210   3.029  65.040  1.00  0.00    -0.149 A  
HETATM   29  C   UNL     1      -8.700   2.783  66.321  1.00  0.00    -0.131 A  
HETATM   30  C   UNL     1     -10.130   2.153  64.440  1.00  0.00     0.146 A  
HETATM   31  C   UNL     1      -7.823   3.692  66.899  1.00  0.00    -0.080 A  
HETATM   32  C   UNL     1     -10.635   2.426  63.172  1.00  0.00    -0.193 A  
HETATM   33  C   UNL     1     -10.211   3.564  62.492  1.00  0.00    -0.152 A  
HETATM   34  C   UNL     1      -9.289   4.429  63.089  1.00  0.00    -0.106 A  
ENDBRANCH  23  25
ENDBRANCH  20  21
BRANCH  20  35
HETATM   35  C   UNL     1      -5.315   8.792  66.686  1.00  0.00    -0.039 C  
BRANCH  35  36
HETATM   36  C   UNL     1      -5.824   9.393  65.398  1.00  0.00    -0.058 C  
HETATM   37  N   UNL     1      -5.612  10.728  65.234  1.00  0.00    -0.258 N  
HETATM   38  O   UNL     1      -6.428   8.742  64.555  1.00  0.00    -0.066 OA 
HETATM   39  H2  UNL     1      -5.138  11.289  65.941  1.00  0.00     0.000 HD 
HETATM   40  H1  UNL     1      -5.956  11.134  64.364  1.00  0.00     0.000 HD 
ENDBRANCH  35  36
ENDBRANCH  20  35
ENDBRANCH  17  20
ENDBRANCH  15  16
BRANCH  15  41
HETATM   41  C   UNL     1     -10.710   9.905  67.691  1.00  0.00    -0.339 C  
BRANCH  41  42
HETATM   42  C   UNL     1     -10.597   8.430  68.016  1.00  0.00    -0.191 A  
HETATM   43  C   UNL     1     -10.421   7.991  69.335  1.00  0.00    -0.223 A  
HETATM   44  C   UNL     1     -10.610   5.680  68.633  1.00  0.00    -0.268 A  
HETATM   45  C   UNL     1     -10.422   6.626  69.640  1.00  0.00    -0.249 A  
HETATM   46  C   UNL     1     -10.777   7.465  67.012  1.00  0.00    -0.389 A  
HETATM   47  C   UNL     1     -10.784   6.102  67.317  1.00  0.00    -0.414 A  
ENDBRANCH  41  42
ENDBRANCH  15  41
ENDBRANCH  12  15
ENDBRANCH  11  12
ENDBRANCH   8  11
BRANCH   9  48
HETATM   48  C   UNL     1     -11.038  14.092  67.135  1.00  0.00    -0.307 C  
HETATM   49  C   UNL     1     -11.856  14.885  64.274  1.00  0.00    -0.312 C  
HETATM   50  O   UNL     1     -12.190  14.478  67.321  1.00  0.00    -0.347 OA 
HETATM   51  C   UNL     1     -12.672  12.589  64.917  1.00  0.00    -0.371 C  
HETATM   52  C   UNL     1     -11.428  13.472  64.715  1.00  0.00    -0.346 C  
HETATM   53  N   UNL     1     -10.619  13.521  65.947  1.00  0.00    -0.280 N  
HETATM   54  C   UNL     1     -10.587  12.858  63.579  1.00  0.00    -0.028 C  
HETATM   55  H   UNL     1      -9.688  13.105  65.920  1.00  0.00     0.000 HD 
ENDBRANCH   9  48
TORSDOF 12
ENDMDL
MODEL       84
REMARK 921   NORMALIZED FREE ENERGY PREDICTED BY IDOCK:   -2.28 KCAL/MOL
REMARK 922        TOTAL FREE ENERGY PREDICTED BY IDOCK:   -7.98 KCAL/MOL
REMARK 923 INTER-LIGAND FREE ENERGY PREDICTED BY IDOCK:   -4.95 KCAL/MOL
REMARK 924 INTRA-LIGAND FREE ENERGY PREDICTED BY IDOCK:   -3.03 KCAL/MOL
REMARK 927      BINDING AFFINITY PREDICTED BY RF-SCORE:    0.00 PKD
ROOT
HETATM    1  C   UNL     1     -12.803  14.896  69.296  1.00  0.00     0.459 C  
HETATM    2  C   UNL     1     -13.620  15.545  70.422  1.00  0.00     0.330 C  
HETATM    3  C   UNL     1     -12.733  16.076  71.545  1.00  0.00    -0.255 C  
HETATM    4  C   UNL     1     -11.849  14.971  72.114  1.00  0.00    -0.448 C  
HETATM    5  C   UNL     1     -11.003  14.311  71.029  1.00  0.00     0.885 C  
HETATM    6  C   UNL     1     -11.840  13.838  69.834  1.00  0.00    -0.394 C  
HETATM    7  C   UNL     1     -10.990  13.319  68.674  1.00  0.00    -0.264 C  
HETATM    8  N   UNL     1     -10.098  14.319  68.067  1.00  0.00    -0.223 NA 
HETATM    9  C   UNL     1     -10.698  15.669  67.899  1.00  0.00    -0.294 C  
HETATM   10  C   UNL     1     -12.127  15.949  68.408  1.00  0.00     0.202 C  
ENDROOT
BRANCH   8  11
HETATM   11  C   UNL     1      -9.597  13.776  66.770  1.00  0.00    -0.279 C  
BRANCH  11  12
HETATM   12  C   UNL     1      -8.121  13.298  66.745  1.00  0.00     0.245 C  
HETATM   13  H   UNL     1      -6.466  13.781  67.680  1.00  0.00     0.000 HD 
HETATM   14  O   UNL     1      -7.369  14.074  67.695  1.00  0.00    -0.149 OA 
BRANCH  12  15
HETATM   15  C   UNL     1      -7.947  11.796  67.107  1.00  0.00    -0.166 C  
BRANCH  15  16
HETATM   16  N   UNL     1      -7.754  11.651  68.564  1.00  0.00    -0.129 N  
HETATM   17  C   UNL     1      -6.841  10.758  69.093  1.00  0.00    -0.084 C  
HETATM   18  O   UNL     1      -6.229   9.941  68.404  1.00  0.00    -0.049 OA 
HETATM   19  H   UNL     1      -8.310  12.225  69.198  1.00  0.00     0.000 HD 
BRANCH  17  20
HETATM   20  C   UNL     1      -6.694  10.806  70.629  1.00  0.00     0.383 C  
BRANCH  20  21
HETATM   21  N   UNL     1      -6.831   9.454  71.164  1.00  0.00    -0.067 N  
HETATM   22  H   UNL     1      -5.988   8.972  71.478  1.00  0.00     0.000 HD 
HETATM   23  C   UNL     1      -8.031   8.795  71.270  1.00  0.00    -0.139 C  
HETATM   24  O   UNL     1      -9.109   9.319  70.998  1.00  0.00    -0.239 OA 
BRANCH  23  25
HETATM   25  C   UNL     1      -7.957   7.399  71.793  1.00  0.00    -0.091 A  
HETATM   26  N   UNL     1      -7.406   6.473  70.961  1.00  0.00    -0.082 NA 
HETATM   27  C   UNL     1      -7.378   5.198  71.385  1.00  0.00    -0.085 A  
HETATM   28  C   UNL     1      -7.871   4.808  72.650  1.00  0.00    -0.093 A  
HETATM   29  C   UNL     1      -8.393   5.798  73.494  1.00  0.00    -0.111 A  
HETATM   30  C   UNL     1      -7.842   3.460  73.039  1.00  0.00    -0.065 A  
HETATM   31  C   UNL     1      -8.442   7.116  73.060  1.00  0.00    -0.142 A  
HETATM   32  C   UNL     1      -7.333   2.491  72.179  1.00  0.00    -0.043 A  
HETATM   33  C   UNL     1      -6.835   2.869  70.935  1.00  0.00    -0.033 A  
HETATM   34  C   UNL     1      -6.858   4.214  70.554  1.00  0.00    -0.033 A  
ENDBRANCH  23  25
ENDBRANCH  20  21
BRANCH  20  35
HETATM   35  C   UNL     1      -5.428  11.524  71.090  1.00  0.00    -0.008 C  
BRANCH  35  36
HETATM   36  C   UNL     1      -5.593  13.020  71.219  1.00  0.00    -0.071 C  
HETATM   37  N   UNL     1      -5.280  13.755  70.118  1.00  0.00    -0.092 N  
HETATM   38  O   UNL     1      -5.950  13.560  72.259  1.00  0.00    -0.285 OA 
HETATM   39  H2  UNL     1      -4.953  13.322  69.255  1.00  0.00     0.000 HD 
HETATM   40  H1  UNL     1      -5.393  14.765  70.205  1.00  0.00     0.000 HD 
ENDBRANCH  35  36
ENDBRANCH  20  35
ENDBRANCH  17  20
ENDBRANCH  15  16
BRANCH  15  41
HETATM   41  C   UNL     1      -9.105  10.898  66.599  1.00  0.00    -0.175 C  
BRANCH  41  42
HETATM   42  C   UNL     1      -9.222  10.700  65.102  1.00  0.00    -0.241 A  
HETATM   43  C   UNL     1      -8.449   9.739  64.436  1.00  0.00    -0.185 A  
HETATM   44  C   UNL     1      -9.609  10.192  62.357  1.00  0.00    -0.145 A  
HETATM   45  C   UNL     1      -8.638   9.491  63.072  1.00  0.00    -0.217 A  
HETATM   46  C   UNL     1     -10.190  11.403  64.367  1.00  0.00    -0.361 A  
HETATM   47  C   UNL     1     -10.382  11.151  63.006  1.00  0.00    -0.217 A  
ENDBRANCH  41  42
ENDBRANCH  15  41
ENDBRANCH  12  15
ENDBRANCH  11  12
ENDBRANCH   8  11
BRANCH   9  48
HETATM   48  C   UNL     1      -9.735  16.760  68.467  1.00  0.00    -0.248 C  
HETATM   49  C   UNL     1      -6.884  17.425  69.420  1.00  0.00    -0.147 C  
HETATM   50  O   UNL     1      -9.972  17.321  69.535  1.00  0.00    -0.091 OA 
HETATM   51  C   UNL     1      -8.016  19.382  68.307  1.00  0.00    -0.366 C  
HETATM   52  C   UNL     1      -7.524  17.936  68.116  1.00  0.00    -0.250 C  
HETATM   53  N   UNL     1      -8.632  17.062  67.688  1.00  0.00    -0.208 N  
HETATM   54  C   UNL     1      -6.434  17.944  67.027  1.00  0.00    -0.194 C  
HETATM   55  H   UNL     1      -8.581  16.652  66.756  1.00  0.00     0.000 HD 
ENDBRANCH   9  48
TORSDOF 12
ENDMDL
MODEL       85
REMARK 921   NORMALIZED FREE ENERGY PREDICTED BY IDOCK:   -2.28 KCAL/MOL
REMARK 922        TOTAL FREE ENERGY PREDICTED BY IDOCK:   -7.97 KCAL/MOL
REMARK 923 INTER-LIGAND FREE ENERGY PREDICTED BY IDOCK:   -5.65 KCAL/MOL
REMARK 924 INTRA-LIGAND FREE ENERGY PREDICTED BY IDOCK:   -2.32 KCAL/MOL
REMARK 927      BINDING AFFINITY PREDICTED BY RF-SCORE:    0.00 PKD
ROOT
HETATM    1  C   UNL     1     -10.382  12.701  66.547  1.00  0.00    -0.256 C  
HETATM    2  C   UNL     1      -9.765  14.106  66.575  1.00  0.00    -0.307 C  
HETATM    3  C   UNL     1      -8.343  14.100  67.129  1.00  0.00    -0.189 C  
HETATM    4  C   UNL     1      -8.300  13.484  68.523  1.00  0.00    -0.097 C  
HETATM    5  C   UNL     1      -8.887  12.076  68.537  1.00  0.00    -0.095 C  
HETATM    6  C   UNL     1     -10.285  12.013  67.908  1.00  0.00    -0.203 C  
HETATM    7  C   UNL     1     -10.818  10.586  67.771  1.00  0.00    -0.294 C  
HETATM    8  N   UNL     1     -10.028   9.715  66.888  1.00  0.00    -0.198 NA 
HETATM    9  C   UNL     1      -9.543  10.365  65.642  1.00  0.00    -0.226 C  
HETATM   10  C   UNL     1      -9.822  11.861  65.391  1.00  0.00    -0.258 C  
ENDROOT
BRANCH   8  11
HETATM   11  C   UNL     1     -10.832   8.493  66.591  1.00  0.00     0.364 C  
BRANCH  11  12
HETATM   12  C   UNL     1     -10.885   7.413  67.705  1.00  0.00    -0.149 C  
HETATM   13  H   UNL     1     -11.008   5.457  67.767  1.00  0.00     0.000 HD 
HETATM   14  O   UNL     1     -10.975   6.118  67.086  1.00  0.00    -0.335 OA 
BRANCH  12  15
HETATM   15  C   UNL     1      -9.640   7.416  68.635  1.00  0.00    -0.146 C  
BRANCH  15  16
HETATM   16  N   UNL     1     -10.058   7.205  70.034  1.00  0.00    -0.186 N  
HETATM   17  C   UNL     1     -11.391   7.132  70.394  1.00  0.00    -0.289 C  
HETATM   18  O   UNL     1     -12.309   7.364  69.606  1.00  0.00     0.774 OA 
HETATM   19  H   UNL     1      -9.345   7.111  70.757  1.00  0.00     0.000 HD 
BRANCH  17  20
HETATM   20  C   UNL     1     -11.652   6.807  71.880  1.00  0.00    -0.292 C  
BRANCH  20  21
HETATM   21  N   UNL     1     -10.627   5.880  72.354  1.00  0.00    -0.207 N  
HETATM   22  H   UNL     1      -9.652   6.178  72.311  1.00  0.00     0.000 HD 
HETATM   23  C   UNL     1     -10.903   4.632  72.854  1.00  0.00    -0.221 C  
HETATM   24  O   UNL     1     -12.046   4.216  73.023  1.00  0.00     0.178 OA 
BRANCH  23  25
HETATM   25  C   UNL     1      -9.714   3.814  73.236  1.00  0.00    -0.114 A  
HETATM   26  N   UNL     1      -8.606   4.505  73.622  1.00  0.00    -0.104 NA 
HETATM   27  C   UNL     1      -7.504   3.794  73.917  1.00  0.00    -0.069 A  
HETATM   28  C   UNL     1      -7.474   2.383  73.861  1.00  0.00    -0.041 A  
HETATM   29  C   UNL     1      -8.646   1.707  73.499  1.00  0.00    -0.054 A  
HETATM   30  C   UNL     1      -6.291   1.686  74.155  1.00  0.00    -0.008 A  
HETATM   31  C   UNL     1      -9.786   2.431  73.175  1.00  0.00    -0.167 A  
HETATM   32  C   UNL     1      -5.134   2.379  74.499  1.00  0.00     0.000 A  
HETATM   33  C   UNL     1      -5.159   3.769  74.566  1.00  0.00    -0.003 A  
HETATM   34  C   UNL     1      -6.341   4.460  74.280  1.00  0.00    -0.051 A  
ENDBRANCH  23  25
ENDBRANCH  20  21
BRANCH  20  35
HETATM   35  C   UNL     1     -11.804   8.053  72.750  1.00  0.00    -0.303 C  
BRANCH  35  36
HETATM   36  C   UNL     1     -12.886   8.993  72.276  1.00  0.00    -0.406 C  
HETATM   37  N   UNL     1     -12.473  10.218  71.851  1.00  0.00    -0.325 N  
HETATM   38  O   UNL     1     -14.076   8.702  72.303  1.00  0.00    -0.427 OA 
HETATM   39  H2  UNL     1     -11.490  10.485  71.852  1.00  0.00     0.000 HD 
HETATM   40  H1  UNL     1     -13.205  10.853  71.531  1.00  0.00     0.000 HD 
ENDBRANCH  35  36
ENDBRANCH  20  35
ENDBRANCH  17  20
ENDBRANCH  15  16
BRANCH  15  41
HETATM   41  C   UNL     1      -8.548   6.398  68.213  1.00  0.00    -0.114 C  
BRANCH  41  42
HETATM   42  C   UNL     1      -7.458   6.095  69.219  1.00  0.00    -0.089 A  
HETATM   43  C   UNL     1      -7.250   4.791  69.690  1.00  0.00    -0.055 A  
HETATM   44  C   UNL     1      -5.289   5.507  70.921  1.00  0.00    -0.009 A  
HETATM   45  C   UNL     1      -6.176   4.501  70.539  1.00  0.00    -0.022 A  
HETATM   46  C   UNL     1      -6.561   7.098  69.620  1.00  0.00    -0.044 A  
HETATM   47  C   UNL     1      -5.486   6.808  70.463  1.00  0.00    -0.023 A  
ENDBRANCH  41  42
ENDBRANCH  15  41
ENDBRANCH  12  15
ENDBRANCH  11  12
ENDBRANCH   8  11
BRANCH   9  48
HETATM   48  C   UNL     1      -8.015  10.097  65.455  1.00  0.00    -0.146 C  
HETATM   49  C   UNL     1      -5.154  11.173  65.828  1.00  0.00    -0.087 C  
HETATM   50  O   UNL     1      -7.539   9.886  64.341  1.00  0.00    -0.133 OA 
HETATM   51  C   UNL     1      -5.291   8.671  66.088  1.00  0.00    -0.034 C  
HETATM   52  C   UNL     1      -5.780  10.022  66.637  1.00  0.00    -0.050 C  
HETATM   53  N   UNL     1      -7.253  10.092  66.611  1.00  0.00    -0.101 N  
HETATM   54  C   UNL     1      -5.292  10.149  68.094  1.00  0.00    -0.035 C  
HETATM   55  H   UNL     1      -7.743  10.141  67.504  1.00  0.00     0.000 HD 
ENDBRANCH   9  48
TORSDOF 12
ENDMDL
MODEL       86
REMARK 921   NORMALIZED FREE ENERGY PREDICTED BY IDOCK:   -2.25 KCAL/MOL
REMARK 922        TOTAL FREE ENERGY PREDICTED BY IDOCK:   -7.93 KCAL/MOL
REMARK 923 INTER-LIGAND FREE ENERGY PREDICTED BY IDOCK:   -7.09 KCAL/MOL
REMARK 924 INTRA-LIGAND FREE ENERGY PREDICTED BY IDOCK:   -0.84 KCAL/MOL
REMARK 927      BINDING AFFINITY PREDICTED BY RF-SCORE:    0.00 PKD
ROOT
HETATM    1  C   UNL     1     -12.489  15.928  71.079  1.00  0.00    -0.387 C  
HETATM    2  C   UNL     1     -12.618  15.326  72.485  1.00  0.00    -0.446 C  
HETATM    3  C   UNL     1     -11.976  13.944  72.581  1.00  0.00     0.850 C  
HETATM    4  C   UNL     1     -12.569  12.991  71.551  1.00  0.00    -0.279 C  
HETATM    5  C   UNL     1     -12.443  13.542  70.134  1.00  0.00    -0.276 C  
HETATM    6  C   UNL     1     -12.996  14.967  70.004  1.00  0.00    -0.022 C  
HETATM    7  C   UNL     1     -12.734  15.590  68.632  1.00  0.00     0.996 C  
HETATM    8  N   UNL     1     -11.313  15.764  68.295  1.00  0.00    -0.358 NA 
HETATM    9  C   UNL     1     -10.460  16.242  69.416  1.00  0.00    -0.292 C  
HETATM   10  C   UNL     1     -11.071  16.451  70.816  1.00  0.00    -0.128 C  
ENDROOT
BRANCH   8  11
HETATM   11  C   UNL     1     -11.218  16.666  67.110  1.00  0.00     0.239 C  
BRANCH  11  12
HETATM   12  C   UNL     1      -9.866  17.401  66.907  1.00  0.00    -0.289 C  
HETATM   13  H   UNL     1      -8.654  18.458  68.029  1.00  0.00     0.000 HD 
HETATM   14  O   UNL     1      -9.481  18.008  68.153  1.00  0.00    -0.271 OA 
BRANCH  12  15
HETATM   15  C   UNL     1      -8.711  16.465  66.451  1.00  0.00    -0.319 C  
BRANCH  15  16
HETATM   16  N   UNL     1      -9.255  15.354  65.646  1.00  0.00    -0.366 N  
HETATM   17  C   UNL     1      -9.070  14.032  66.006  1.00  0.00     0.195 C  
HETATM   18  O   UNL     1      -8.338  13.690  66.936  1.00  0.00    -0.129 OA 
HETATM   19  H   UNL     1      -9.783  15.567  64.799  1.00  0.00     0.000 HD 
BRANCH  17  20
HETATM   20  C   UNL     1      -9.789  13.002  65.109  1.00  0.00    -0.059 C  
BRANCH  20  21
HETATM   21  N   UNL     1     -10.149  11.837  65.913  1.00  0.00    -0.226 N  
HETATM   22  H   UNL     1     -11.028  11.862  66.429  1.00  0.00     0.000 HD 
HETATM   23  C   UNL     1      -9.369  10.711  66.012  1.00  0.00    -0.186 C  
HETATM   24  O   UNL     1      -8.337  10.552  65.365  1.00  0.00    -0.162 OA 
BRANCH  23  25
HETATM   25  C   UNL     1      -9.884   9.650  66.927  1.00  0.00    -0.200 A  
HETATM   26  N   UNL     1     -10.450  10.078  68.089  1.00  0.00    -0.198 NA 
HETATM   27  C   UNL     1     -10.871   9.141  68.955  1.00  0.00    -0.090 A  
HETATM   28  C   UNL     1     -10.765   7.758  68.688  1.00  0.00    -0.084 A  
HETATM   29  C   UNL     1     -10.213   7.358  67.464  1.00  0.00    -0.289 A  
HETATM   30  C   UNL     1     -11.196   6.816  69.636  1.00  0.00    -0.345 A  
HETATM   31  C   UNL     1      -9.760   8.317  66.567  1.00  0.00    -0.323 A  
HETATM   32  C   UNL     1     -11.728   7.237  70.852  1.00  0.00    -0.348 A  
HETATM   33  C   UNL     1     -11.845   8.598  71.118  1.00  0.00    -0.331 A  
HETATM   34  C   UNL     1     -11.422   9.533  70.169  1.00  0.00    -0.205 A  
ENDBRANCH  23  25
ENDBRANCH  20  21
BRANCH  20  35
HETATM   35  C   UNL     1     -10.960  13.597  64.330  1.00  0.00    -0.379 C  
BRANCH  35  36
HETATM   36  C   UNL     1     -12.310  13.264  64.918  1.00  0.00    -0.425 C  
HETATM   37  N   UNL     1     -13.015  14.308  65.433  1.00  0.00    -0.646 N  
HETATM   38  O   UNL     1     -12.745  12.120  64.973  1.00  0.00    -0.498 OA 
HETATM   39  H2  UNL     1     -12.653  15.261  65.422  1.00  0.00     0.000 HD 
HETATM   40  H1  UNL     1     -13.927  14.082  65.830  1.00  0.00     0.000 HD 
ENDBRANCH  35  36
ENDBRANCH  20  35
ENDBRANCH  17  20
ENDBRANCH  15  16
BRANCH  15  41
HETATM   41  C   UNL     1      -7.574  17.203  65.699  1.00  0.00     0.621 C  
BRANCH  41  42
HETATM   42  C   UNL     1      -7.061  18.491  66.311  1.00  0.00    -0.284 A  
HETATM   43  C   UNL     1      -6.351  18.486  67.519  1.00  0.00    -0.194 A  
HETATM   44  C   UNL     1      -5.925  20.863  67.322  1.00  0.00    -0.318 A  
HETATM   45  C   UNL     1      -5.791  19.664  68.023  1.00  0.00    -0.230 A  
HETATM   46  C   UNL     1      -7.194  19.707  65.621  1.00  0.00    -0.301 A  
HETATM   47  C   UNL     1      -6.631  20.883  66.122  1.00  0.00    -0.230 A  
ENDBRANCH  41  42
ENDBRANCH  15  41
ENDBRANCH  12  15
ENDBRANCH  11  12
ENDBRANCH   8  11
BRANCH   9  48
HETATM   48  C   UNL     1      -9.190  15.342  69.546  1.00  0.00    -0.194 C  
HETATM   49  C   UNL     1      -6.401  14.658  68.434  1.00  0.00    -0.100 C  
HETATM   50  O   UNL     1      -9.268  14.118  69.459  1.00  0.00     0.371 OA 
HETATM   51  C   UNL     1      -6.554  14.347  70.930  1.00  0.00     0.279 C  
HETATM   52  C   UNL     1      -6.671  15.360  69.778  1.00  0.00    -0.170 C  
HETATM   53  N   UNL     1      -7.998  16.004  69.785  1.00  0.00     0.126 N  
HETATM   54  C   UNL     1      -5.585  16.434  69.976  1.00  0.00    -0.191 C  
HETATM   55  H   UNL     1      -8.040  17.005  69.978  1.00  0.00     0.000 HD 
ENDBRANCH   9  48
TORSDOF 12
ENDMDL
MODEL       87
REMARK 921   NORMALIZED FREE ENERGY PREDICTED BY IDOCK:   -1.66 KCAL/MOL
REMARK 922        TOTAL FREE ENERGY PREDICTED BY IDOCK:   -6.93 KCAL/MOL
REMARK 923 INTER-LIGAND FREE ENERGY PREDICTED BY IDOCK:   -7.64 KCAL/MOL
REMARK 924 INTRA-LIGAND FREE ENERGY PREDICTED BY IDOCK:    0.71 KCAL/MOL
REMARK 927      BINDING AFFINITY PREDICTED BY RF-SCORE:    0.00 PKD
ROOT
HETATM    1  C   UNL     1     -10.821  16.810  66.074  1.00  0.00    -0.026 C  
HETATM    2  C   UNL     1     -10.652  18.241  65.547  1.00  0.00     0.031 C  
HETATM    3  C   UNL     1      -9.749  19.083  66.445  1.00  0.00    -0.405 C  
HETATM    4  C   UNL     1     -10.274  19.114  67.876  1.00  0.00    -0.494 C  
HETATM    5  C   UNL     1     -10.438  17.709  68.447  1.00  0.00    -0.360 C  
HETATM    6  C   UNL     1     -11.267  16.795  67.535  1.00  0.00     0.081 C  
HETATM    7  C   UNL     1     -11.307  15.343  68.017  1.00  0.00    -0.341 C  
HETATM    8  N   UNL     1     -10.000  14.669  68.048  1.00  0.00    -0.217 NA 
HETATM    9  C   UNL     1      -9.120  14.959  66.886  1.00  0.00    -0.250 C  
HETATM   10  C   UNL     1      -9.576  15.956  65.801  1.00  0.00    -0.339 C  
ENDROOT
BRANCH   8  11
HETATM   11  C   UNL     1     -10.232  13.203  68.208  1.00  0.00    -0.250 C  
BRANCH  11  12
HETATM   12  C   UNL     1      -9.637  12.284  67.107  1.00  0.00    -0.200 C  
HETATM   13  H   UNL     1      -9.539  12.313  65.149  1.00  0.00     0.000 HD 
HETATM   14  O   UNL     1      -9.903  12.874  65.822  1.00  0.00    -0.264 OA 
BRANCH  12  15
HETATM   15  C   UNL     1      -8.102  12.078  67.232  1.00  0.00    -0.174 C  
BRANCH  15  16
HETATM   16  N   UNL     1      -7.797  11.317  68.460  1.00  0.00    -0.131 N  
HETATM   17  C   UNL     1      -8.547  10.222  68.845  1.00  0.00    -0.150 C  
HETATM   18  O   UNL     1      -9.585   9.888  68.271  1.00  0.00    -0.139 OA 
HETATM   19  H   UNL     1      -7.010  11.608  69.042  1.00  0.00     0.000 HD 
BRANCH  17  20
HETATM   20  C   UNL     1      -8.031   9.483  70.098  1.00  0.00    -0.160 C  
BRANCH  20  21
HETATM   21  N   UNL     1      -8.238   8.047  69.925  1.00  0.00    -0.117 N  
HETATM   22  H   UNL     1      -7.641   7.552  69.263  1.00  0.00     0.000 HD 
HETATM   23  C   UNL     1      -9.190   7.328  70.604  1.00  0.00    -0.157 C  
HETATM   24  O   UNL     1      -9.900   7.817  71.480  1.00  0.00    -0.165 OA 
BRANCH  23  25
HETATM   25  C   UNL     1      -9.280   5.881  70.248  1.00  0.00    -0.154 A  
HETATM   26  N   UNL     1      -8.980   5.558  68.960  1.00  0.00    -0.107 NA 
HETATM   27  C   UNL     1      -9.107   4.270  68.599  1.00  0.00    -0.129 A  
HETATM   28  C   UNL     1      -9.512   3.264  69.505  1.00  0.00    -0.205 A  
HETATM   29  C   UNL     1      -9.773   3.631  70.832  1.00  0.00    -0.229 A  
HETATM   30  C   UNL     1      -9.655   1.935  69.074  1.00  0.00    -0.094 A  
HETATM   31  C   UNL     1      -9.661   4.962  71.212  1.00  0.00    -0.229 A  
HETATM   32  C   UNL     1      -9.404   1.597  67.747  1.00  0.00    -0.165 A  
HETATM   33  C   UNL     1      -8.995   2.580  66.852  1.00  0.00    -0.155 A  
HETATM   34  C   UNL     1      -8.846   3.901  67.286  1.00  0.00    -0.135 A  
ENDBRANCH  23  25
ENDBRANCH  20  21
BRANCH  20  35
HETATM   35  C   UNL     1      -6.599   9.858  70.470  1.00  0.00    -0.120 C  
BRANCH  35  36
HETATM   36  C   UNL     1      -6.133   9.252  71.773  1.00  0.00    -0.021 C  
HETATM   37  N   UNL     1      -5.252   9.993  72.498  1.00  0.00    -0.006 N  
HETATM   38  O   UNL     1      -6.488   8.142  72.152  1.00  0.00    -0.052 OA 
HETATM   39  H2  UNL     1      -4.925  10.904  72.181  1.00  0.00     0.000 HD 
HETATM   40  H1  UNL     1      -4.939   9.583  73.378  1.00  0.00     0.000 HD 
ENDBRANCH  35  36
ENDBRANCH  20  35
ENDBRANCH  17  20
ENDBRANCH  15  16
BRANCH  15  41
HETATM   41  C   UNL     1      -7.460  11.416  65.985  1.00  0.00     0.206 C  
BRANCH  41  42
HETATM   42  C   UNL     1      -7.573   9.911  65.864  1.00  0.00    -0.108 A  
HETATM   43  C   UNL     1      -6.662   9.063  66.509  1.00  0.00    -0.075 A  
HETATM   44  C   UNL     1      -7.924   7.115  65.812  1.00  0.00    -0.123 A  
HETATM   45  C   UNL     1      -6.834   7.675  66.478  1.00  0.00    -0.062 A  
HETATM   46  C   UNL     1      -8.661   9.331  65.190  1.00  0.00    -0.194 A  
HETATM   47  C   UNL     1      -8.835   7.946  65.164  1.00  0.00     0.100 A  
ENDBRANCH  41  42
ENDBRANCH  15  41
ENDBRANCH  12  15
ENDBRANCH  11  12
ENDBRANCH   8  11
BRANCH   9  48
HETATM   48  C   UNL     1      -7.694  15.364  67.379  1.00  0.00    -0.196 C  
HETATM   49  C   UNL     1      -5.295  17.262  67.022  1.00  0.00    -0.183 C  
HETATM   50  O   UNL     1      -6.763  14.561  67.356  1.00  0.00    -0.258 OA 
HETATM   51  C   UNL     1      -5.642  16.575  69.422  1.00  0.00    -0.148 C  
HETATM   52  C   UNL     1      -6.274  17.284  68.212  1.00  0.00    -0.149 C  
HETATM   53  N   UNL     1      -7.560  16.657  67.855  1.00  0.00    -0.157 N  
HETATM   54  C   UNL     1      -6.517  18.757  68.595  1.00  0.00    -0.258 C  
HETATM   55  H   UNL     1      -8.407  17.214  67.966  1.00  0.00     0.000 HD 
ENDBRANCH   9  48
TORSDOF 12
ENDMDL
MODEL       88
REMARK 921   NORMALIZED FREE ENERGY PREDICTED BY IDOCK:   -1.66 KCAL/MOL
REMARK 922        TOTAL FREE ENERGY PREDICTED BY IDOCK:   -6.92 KCAL/MOL
REMARK 923 INTER-LIGAND FREE ENERGY PREDICTED BY IDOCK:   -4.35 KCAL/MOL
REMARK 924 INTRA-LIGAND FREE ENERGY PREDICTED BY IDOCK:   -2.57 KCAL/MOL
REMARK 927      BINDING AFFINITY PREDICTED BY RF-SCORE:    0.00 PKD
ROOT
HETATM    1  C   UNL     1      -8.322   7.384  69.723  1.00  0.00    -0.134 C  
HETATM    2  C   UNL     1      -7.663   6.005  69.578  1.00  0.00    -0.098 C  
HETATM    3  C   UNL     1      -7.657   5.519  68.131  1.00  0.00    -0.081 C  
HETATM    4  C   UNL     1      -9.070   5.482  67.560  1.00  0.00    -0.107 C  
HETATM    5  C   UNL     1      -9.756   6.841  67.664  1.00  0.00    -0.146 C  
HETATM    6  C   UNL     1      -9.711   7.416  69.086  1.00  0.00    -0.165 C  
HETATM    7  C   UNL     1     -10.254   8.843  69.174  1.00  0.00    -0.206 C  
HETATM    8  N   UNL     1      -9.498   9.838  68.399  1.00  0.00    -0.139 NA 
HETATM    9  C   UNL     1      -8.020   9.685  68.461  1.00  0.00    -0.089 C  
HETATM   10  C   UNL     1      -7.397   8.507  69.237  1.00  0.00    -0.071 C  
ENDROOT
BRANCH   8  11
HETATM   11  C   UNL     1      -9.926  11.199  68.838  1.00  0.00    -0.175 C  
BRANCH  11  12
HETATM   12  C   UNL     1     -10.799  12.006  67.840  1.00  0.00    -0.215 C  
HETATM   13  H   UNL     1     -12.167  11.580  66.501  1.00  0.00     0.000 HD 
HETATM   14  O   UNL     1     -11.633  11.087  67.112  1.00  0.00    -0.469 OA 
BRANCH  12  15
HETATM   15  C   UNL     1     -11.721  13.053  68.525  1.00  0.00    -0.342 C  
BRANCH  15  16
HETATM   16  N   UNL     1     -11.979  12.655  69.923  1.00  0.00    -0.341 N  
HETATM   17  C   UNL     1     -12.869  11.647  70.242  1.00  0.00     0.167 C  
HETATM   18  O   UNL     1     -13.594  11.107  69.406  1.00  0.00     1.360 OA 
HETATM   19  H   UNL     1     -11.487  13.139  70.675  1.00  0.00     0.000 HD 
BRANCH  17  20
HETATM   20  C   UNL     1     -12.943  11.290  71.742  1.00  0.00    -0.414 C  
BRANCH  20  21
HETATM   21  N   UNL     1     -12.206  10.051  71.977  1.00  0.00    -0.193 N  
HETATM   22  H   UNL     1     -11.283  10.115  72.405  1.00  0.00     0.000 HD 
HETATM   23  C   UNL     1     -12.688   8.807  71.654  1.00  0.00    -0.348 C  
HETATM   24  O   UNL     1     -13.819   8.620  71.213  1.00  0.00    -0.281 OA 
BRANCH  23  25
HETATM   25  C   UNL     1     -11.761   7.668  71.923  1.00  0.00    -0.289 A  
HETATM   26  N   UNL     1     -10.614   7.970  72.592  1.00  0.00    -0.325 NA 
HETATM   27  C   UNL     1      -9.736   6.973  72.797  1.00  0.00    -0.153 A  
HETATM   28  C   UNL     1      -9.978   5.649  72.369  1.00  0.00    -0.198 A  
HETATM   29  C   UNL     1     -11.188   5.370  71.720  1.00  0.00    -0.088 A  
HETATM   30  C   UNL     1      -9.020   4.646  72.585  1.00  0.00    -0.133 A  
HETATM   31  C   UNL     1     -12.096   6.396  71.487  1.00  0.00    -0.289 A  
HETATM   32  C   UNL     1      -7.817   4.949  73.219  1.00  0.00    -0.097 A  
HETATM   33  C   UNL     1      -7.577   6.249  73.653  1.00  0.00    -0.094 A  
HETATM   34  C   UNL     1      -8.537   7.243  73.443  1.00  0.00    -0.175 A  
ENDBRANCH  23  25
ENDBRANCH  20  21
BRANCH  20  35
HETATM   35  C   UNL     1     -12.522  12.440  72.655  1.00  0.00     1.938 C  
BRANCH  35  36
HETATM   36  C   UNL     1     -13.372  13.677  72.502  1.00  0.00    -0.534 C  
HETATM   37  N   UNL     1     -13.016  14.748  73.262  1.00  0.00    -0.521 N  
HETATM   38  O   UNL     1     -14.355  13.721  71.771  1.00  0.00    -0.293 OA 
HETATM   39  H2  UNL     1     -12.219  14.717  73.898  1.00  0.00     0.000 HD 
HETATM   40  H1  UNL     1     -13.591  15.584  73.159  1.00  0.00     0.000 HD 
ENDBRANCH  35  36
ENDBRANCH  20  35
ENDBRANCH  17  20
ENDBRANCH  15  16
BRANCH  15  41
HETATM   41  C   UNL     1     -11.180  14.505  68.441  1.00  0.00    -0.290 C  
BRANCH  41  42
HETATM   42  C   UNL     1     -10.672  14.978  67.096  1.00  0.00    -0.303 A  
HETATM   43  C   UNL     1     -11.181  14.449  65.902  1.00  0.00    -0.324 A  
HETATM   44  C   UNL     1      -9.875  16.022  64.602  1.00  0.00     1.537 A  
HETATM   45  C   UNL     1     -10.782  14.965  64.665  1.00  0.00    -0.259 A  
HETATM   46  C   UNL     1      -9.753  16.037  67.016  1.00  0.00    -0.235 A  
HETATM   47  C   UNL     1      -9.358  16.556  65.781  1.00  0.00    -0.110 A  
ENDBRANCH  41  42
ENDBRANCH  15  41
ENDBRANCH  12  15
ENDBRANCH  11  12
ENDBRANCH   8  11
BRANCH   9  48
HETATM   48  C   UNL     1      -7.416   9.718  67.020  1.00  0.00    -0.091 C  
HETATM   49  C   UNL     1      -5.592   8.326  64.967  1.00  0.00    -0.044 C  
HETATM   50  O   UNL     1      -6.726  10.663  66.643  1.00  0.00    -0.090 OA 
HETATM   51  C   UNL     1      -7.541   9.505  63.891  1.00  0.00    -0.122 C  
HETATM   52  C   UNL     1      -7.128   8.402  64.880  1.00  0.00    -0.079 C  
HETATM   53  N   UNL     1      -7.725   8.642  66.207  1.00  0.00    -0.096 N  
HETATM   54  C   UNL     1      -7.636   7.055  64.331  1.00  0.00    -0.108 C  
HETATM   55  H   UNL     1      -8.412   7.969  66.547  1.00  0.00     0.000 HD 
ENDBRANCH   9  48
TORSDOF 12
ENDMDL
MODEL       89
REMARK 921   NORMALIZED FREE ENERGY PREDICTED BY IDOCK:   -1.65 KCAL/MOL
REMARK 922        TOTAL FREE ENERGY PREDICTED BY IDOCK:   -6.91 KCAL/MOL
REMARK 923 INTER-LIGAND FREE ENERGY PREDICTED BY IDOCK:   -5.86 KCAL/MOL
REMARK 924 INTRA-LIGAND FREE ENERGY PREDICTED BY IDOCK:   -1.05 KCAL/MOL
REMARK 927      BINDING AFFINITY PREDICTED BY RF-SCORE:    0.00 PKD
ROOT
HETATM    1  C   UNL     1     -12.035  13.292  66.969  1.00  0.00    -0.419 C  
HETATM    2  C   UNL     1     -12.859  13.854  65.802  1.00  0.00    -0.437 C  
HETATM    3  C   UNL     1     -12.108  13.773  64.475  1.00  0.00    -0.463 C  
HETATM    4  C   UNL     1     -10.767  14.493  64.560  1.00  0.00    -0.198 C  
HETATM    5  C   UNL     1      -9.906  13.950  65.696  1.00  0.00    -0.231 C  
HETATM    6  C   UNL     1     -10.647  13.928  67.039  1.00  0.00    -0.279 C  
HETATM    7  C   UNL     1      -9.853  13.242  68.151  1.00  0.00    -0.231 C  
HETATM    8  N   UNL     1      -9.567  11.818  67.916  1.00  0.00    -0.181 NA 
HETATM    9  C   UNL     1     -10.693  11.044  67.330  1.00  0.00    -0.265 C  
HETATM   10  C   UNL     1     -12.008  11.758  66.955  1.00  0.00     0.094 C  
ENDROOT
BRANCH   8  11
HETATM   11  C   UNL     1      -9.097  11.215  69.198  1.00  0.00     0.066 C  
BRANCH  11  12
HETATM   12  C   UNL     1      -8.948   9.670  69.223  1.00  0.00    -0.172 C  
HETATM   13  H   UNL     1      -8.287   8.298  67.988  1.00  0.00     0.000 HD 
HETATM   14  O   UNL     1      -8.378   9.243  67.973  1.00  0.00    -0.118 OA 
BRANCH  12  15
HETATM   15  C   UNL     1      -8.035   9.152  70.369  1.00  0.00    -0.145 C  
BRANCH  15  16
HETATM   16  N   UNL     1      -8.427   7.778  70.740  1.00  0.00    -0.120 N  
HETATM   17  C   UNL     1      -9.461   7.528  71.623  1.00  0.00    -0.149 C  
HETATM   18  O   UNL     1     -10.032   8.420  72.253  1.00  0.00    -0.261 OA 
HETATM   19  H   UNL     1      -7.922   6.990  70.334  1.00  0.00     0.000 HD 
BRANCH  17  20
HETATM   20  C   UNL     1      -9.805   6.037  71.822  1.00  0.00    -0.165 C  
BRANCH  20  21
HETATM   21  N   UNL     1      -9.442   5.297  70.617  1.00  0.00    -0.161 N  
HETATM   22  H   UNL     1      -9.021   5.812  69.844  1.00  0.00     0.000 HD 
HETATM   23  C   UNL     1      -9.636   3.946  70.466  1.00  0.00    -0.193 C  
HETATM   24  O   UNL     1     -10.058   3.225  71.367  1.00  0.00    -0.114 OA 
BRANCH  23  25
HETATM   25  C   UNL     1      -9.248   3.383  69.138  1.00  0.00    -0.160 A  
HETATM   26  N   UNL     1      -8.776   4.274  68.222  1.00  0.00    -0.095 NA 
HETATM   27  C   UNL     1      -8.473   3.803  67.001  1.00  0.00    -0.104 A  
HETATM   28  C   UNL     1      -8.605   2.438  66.659  1.00  0.00    -0.113 A  
HETATM   29  C   UNL     1      -9.056   1.547  67.642  1.00  0.00    -0.174 A  
HETATM   30  C   UNL     1      -8.299   1.998  65.361  1.00  0.00    -0.091 A  
HETATM   31  C   UNL     1      -9.388   2.025  68.903  1.00  0.00    -0.209 A  
HETATM   32  C   UNL     1      -7.867   2.903  64.396  1.00  0.00    -0.078 A  
HETATM   33  C   UNL     1      -7.724   4.247  64.728  1.00  0.00    -0.078 A  
HETATM   34  C   UNL     1      -8.022   4.681  66.024  1.00  0.00    -0.103 A  
ENDBRANCH  23  25
ENDBRANCH  20  21
BRANCH  20  35
HETATM   35  C   UNL     1      -9.219   5.450  73.105  1.00  0.00    -0.133 C  
BRANCH  35  36
HETATM   36  C   UNL     1      -7.728   5.646  73.233  1.00  0.00    -0.099 C  
HETATM   37  N   UNL     1      -7.324   6.761  73.900  1.00  0.00    -0.082 N  
HETATM   38  O   UNL     1      -6.912   4.877  72.738  1.00  0.00    -0.071 OA 
HETATM   39  H2  UNL     1      -7.991   7.426  74.291  1.00  0.00     0.000 HD 
HETATM   40  H1  UNL     1      -6.317   6.894  73.987  1.00  0.00     0.000 HD 
ENDBRANCH  35  36
ENDBRANCH  20  35
ENDBRANCH  17  20
ENDBRANCH  15  16
BRANCH  15  41
HETATM   41  C   UNL     1      -6.521   9.238  70.044  1.00  0.00    -0.049 C  
BRANCH  41  42
HETATM   42  C   UNL     1      -5.985  10.579  69.587  1.00  0.00    -0.051 A  
HETATM   43  C   UNL     1      -5.542  10.771  68.271  1.00  0.00    -0.043 A  
HETATM   44  C   UNL     1      -5.198  13.132  68.691  1.00  0.00    -0.069 A  
HETATM   45  C   UNL     1      -5.146  12.038  67.829  1.00  0.00    -0.067 A  
HETATM   46  C   UNL     1      -6.024  11.689  70.445  1.00  0.00    -0.131 A  
HETATM   47  C   UNL     1      -5.635  12.955  70.002  1.00  0.00    -0.126 A  
ENDBRANCH  41  42
ENDBRANCH  15  41
ENDBRANCH  12  15
ENDBRANCH  11  12
ENDBRANCH   8  11
BRANCH   9  48
HETATM   48  C   UNL     1     -10.196  10.219  66.100  1.00  0.00    -0.217 C  
HETATM   49  C   UNL     1      -9.873  10.112  63.039  1.00  0.00     0.063 C  
HETATM   50  O   UNL     1     -10.655   9.105  65.856  1.00  0.00     0.227 OA 
HETATM   51  C   UNL     1      -8.013   8.923  64.255  1.00  0.00    -0.146 C  
HETATM   52  C   UNL     1      -8.719  10.274  64.047  1.00  0.00    -0.202 C  
HETATM   53  N   UNL     1      -9.207  10.808  65.333  1.00  0.00    -0.197 N  
HETATM   54  C   UNL     1      -7.699  11.257  63.443  1.00  0.00     0.881 C  
HETATM   55  H   UNL     1      -8.785  11.670  65.679  1.00  0.00     0.000 HD 
ENDBRANCH   9  48
TORSDOF 12
ENDMDL
MODEL       90
REMARK 921   NORMALIZED FREE ENERGY PREDICTED BY IDOCK:   -1.52 KCAL/MOL
REMARK 922        TOTAL FREE ENERGY PREDICTED BY IDOCK:   -6.68 KCAL/MOL
REMARK 923 INTER-LIGAND FREE ENERGY PREDICTED BY IDOCK:   -6.65 KCAL/MOL
REMARK 924 INTRA-LIGAND FREE ENERGY PREDICTED BY IDOCK:   -0.02 KCAL/MOL
REMARK 927      BINDING AFFINITY PREDICTED BY RF-SCORE:    0.00 PKD
ROOT
HETATM    1  C   UNL     1     -10.748   5.353  67.624  1.00  0.00    -0.125 C  
HETATM    2  C   UNL     1     -10.440   4.173  66.693  1.00  0.00     0.499 C  
HETATM    3  C   UNL     1      -9.010   4.215  66.162  1.00  0.00    -0.126 C  
HETATM    4  C   UNL     1      -8.731   5.531  65.444  1.00  0.00    -0.148 C  
HETATM    5  C   UNL     1      -9.004   6.733  66.342  1.00  0.00    -0.165 C  
HETATM    6  C   UNL     1     -10.402   6.692  66.973  1.00  0.00    -0.330 C  
HETATM    7  C   UNL     1     -10.632   7.805  67.996  1.00  0.00    -0.139 C  
HETATM    8  N   UNL     1      -9.748   7.754  69.170  1.00  0.00    -0.160 NA 
HETATM    9  C   UNL     1      -9.508   6.391  69.714  1.00  0.00    -0.152 C  
HETATM   10  C   UNL     1     -10.115   5.161  69.008  1.00  0.00    -0.257 C  
ENDROOT
BRANCH   8  11
HETATM   11  C   UNL     1     -10.297   8.671  70.212  1.00  0.00    -0.198 C  
BRANCH  11  12
HETATM   12  C   UNL     1      -9.787  10.137  70.182  1.00  0.00    -0.053 C  
HETATM   13  H   UNL     1      -8.095  11.049  70.568  1.00  0.00     0.000 HD 
HETATM   14  O   UNL     1      -8.407  10.153  70.586  1.00  0.00     0.047 OA 
BRANCH  12  15
HETATM   15  C   UNL     1      -9.885  10.801  68.780  1.00  0.00    -0.194 C  
BRANCH  15  16
HETATM   16  N   UNL     1     -10.204  12.235  68.926  1.00  0.00    -0.421 N  
HETATM   17  C   UNL     1      -9.231  13.212  68.828  1.00  0.00     0.151 C  
HETATM   18  O   UNL     1      -8.030  12.953  68.745  1.00  0.00    -0.063 OA 
HETATM   19  H   UNL     1     -11.170  12.513  69.104  1.00  0.00     0.000 HD 
BRANCH  17  20
HETATM   20  C   UNL     1      -9.751  14.663  68.904  1.00  0.00    -0.196 C  
BRANCH  20  21
HETATM   21  N   UNL     1      -8.827  15.541  68.190  1.00  0.00    -0.168 N  
HETATM   22  H   UNL     1      -7.829  15.334  68.243  1.00  0.00     0.000 HD 
HETATM   23  C   UNL     1      -9.226  16.627  67.452  1.00  0.00    -0.213 C  
HETATM   24  O   UNL     1     -10.407  16.909  67.259  1.00  0.00    -0.299 OA 
BRANCH  23  25
HETATM   25  C   UNL     1      -8.126  17.431  66.841  1.00  0.00    -0.227 A  
HETATM   26  N   UNL     1      -8.482  18.633  66.309  1.00  0.00    -0.425 NA 
HETATM   27  C   UNL     1      -7.521  19.350  65.703  1.00  0.00    -0.144 A  
HETATM   28  C   UNL     1      -6.180  18.912  65.628  1.00  0.00    -0.279 A  
HETATM   29  C   UNL     1      -5.846  17.689  66.224  1.00  0.00    -0.252 A  
HETATM   30  C   UNL     1      -5.216  19.687  64.963  1.00  0.00    -0.185 A  
HETATM   31  C   UNL     1      -6.834  16.931  66.838  1.00  0.00    -0.250 A  
HETATM   32  C   UNL     1      -5.574  20.893  64.365  1.00  0.00    -0.273 A  
HETATM   33  C   UNL     1      -6.891  21.336  64.445  1.00  0.00     0.310 A  
HETATM   34  C   UNL     1      -7.847  20.566  65.115  1.00  0.00     0.609 A  
ENDBRANCH  23  25
ENDBRANCH  20  21
BRANCH  20  35
HETATM   35  C   UNL     1     -11.204  14.806  68.457  1.00  0.00    -0.291 C  
BRANCH  35  36
HETATM   36  C   UNL     1     -12.205  14.510  69.548  1.00  0.00    -0.265 C  
HETATM   37  N   UNL     1     -12.469  15.526  70.413  1.00  0.00    -0.445 N  
HETATM   38  O   UNL     1     -12.730  13.412  69.685  1.00  0.00     0.014 OA 
HETATM   39  H2  UNL     1     -12.016  16.436  70.329  1.00  0.00     0.000 HD 
HETATM   40  H1  UNL     1     -13.145  15.326  71.149  1.00  0.00     0.000 HD 
ENDBRANCH  35  36
ENDBRANCH  20  35
ENDBRANCH  17  20
ENDBRANCH  15  16
BRANCH  15  41
HETATM   41  C   UNL     1      -8.623  10.589  67.903  1.00  0.00    -0.123 C  
BRANCH  41  42
HETATM   42  C   UNL     1      -8.839  10.359  66.422  1.00  0.00    -0.159 A  
HETATM   43  C   UNL     1      -9.762  11.125  65.698  1.00  0.00    -0.267 A  
HETATM   44  C   UNL     1      -9.072  10.069  63.629  1.00  0.00    -0.301 A  
HETATM   45  C   UNL     1      -9.881  10.977  64.311  1.00  0.00    -0.355 A  
HETATM   46  C   UNL     1      -8.038   9.444  65.721  1.00  0.00    -0.114 A  
HETATM   47  C   UNL     1      -8.152   9.300  64.337  1.00  0.00    -0.142 A  
ENDBRANCH  41  42
ENDBRANCH  15  41
ENDBRANCH  12  15
ENDBRANCH  11  12
ENDBRANCH   8  11
BRANCH   9  48
HETATM   48  C   UNL     1      -7.978   6.154  69.917  1.00  0.00    -0.114 C  
HETATM   49  C   UNL     1      -5.250   7.415  70.592  1.00  0.00    -0.023 C  
HETATM   50  O   UNL     1      -7.281   5.699  69.013  1.00  0.00    -0.069 OA 
HETATM   51  C   UNL     1      -5.459   5.048  71.430  1.00  0.00    -0.005 C  
HETATM   52  C   UNL     1      -6.042   6.469  71.515  1.00  0.00    -0.037 C  
HETATM   53  N   UNL     1      -7.476   6.465  71.169  1.00  0.00    -0.084 N  
HETATM   54  C   UNL     1      -5.870   6.969  72.962  1.00  0.00    -0.045 C  
HETATM   55  H   UNL     1      -8.142   6.708  71.902  1.00  0.00     0.000 HD 
ENDBRANCH   9  48
TORSDOF 12
ENDMDL
MODEL       91
REMARK 921   NORMALIZED FREE ENERGY PREDICTED BY IDOCK:   -1.35 KCAL/MOL
REMARK 922        TOTAL FREE ENERGY PREDICTED BY IDOCK:   -6.40 KCAL/MOL
REMARK 923 INTER-LIGAND FREE ENERGY PREDICTED BY IDOCK:   -7.86 KCAL/MOL
REMARK 924 INTRA-LIGAND FREE ENERGY PREDICTED BY IDOCK:    1.46 KCAL/MOL
REMARK 927      BINDING AFFINITY PREDICTED BY RF-SCORE:    0.00 PKD
ROOT
HETATM    1  C   UNL     1      -9.866   4.313  67.493  1.00  0.00    -0.162 C  
HETATM    2  C   UNL     1      -9.655   2.795  67.422  1.00  0.00     0.022 C  
HETATM    3  C   UNL     1      -9.100   2.353  66.070  1.00  0.00    -0.079 C  
HETATM    4  C   UNL     1     -10.006   2.806  64.931  1.00  0.00     0.192 C  
HETATM    5  C   UNL     1     -10.226   4.315  64.951  1.00  0.00    -0.193 C  
HETATM    6  C   UNL     1     -10.701   4.823  66.319  1.00  0.00    -0.120 C  
HETATM    7  C   UNL     1     -10.774   6.349  66.400  1.00  0.00     0.101 C  
HETATM    8  N   UNL     1      -9.485   7.037  66.230  1.00  0.00    -0.123 NA 
HETATM    9  C   UNL     1      -8.337   6.390  66.918  1.00  0.00    -0.110 C  
HETATM   10  C   UNL     1      -8.538   5.061  67.674  1.00  0.00    -0.104 C  
ENDROOT
BRANCH   8  11
HETATM   11  C   UNL     1      -9.651   8.457  66.660  1.00  0.00    -0.229 C  
BRANCH  11  12
HETATM   12  C   UNL     1     -10.692   8.725  67.779  1.00  0.00    -0.125 C  
HETATM   13  H   UNL     1     -11.528   7.673  69.207  1.00  0.00     0.000 HD 
HETATM   14  O   UNL     1     -10.891   7.510  68.522  1.00  0.00    -0.117 OA 
BRANCH  12  15
HETATM   15  C   UNL     1     -10.259   9.834  68.779  1.00  0.00    -0.194 C  
BRANCH  15  16
HETATM   16  N   UNL     1      -9.319  10.763  68.121  1.00  0.00    -0.150 N  
HETATM   17  C   UNL     1      -9.578  11.301  66.874  1.00  0.00    -0.191 C  
HETATM   18  O   UNL     1     -10.532  10.949  66.179  1.00  0.00    -0.247 OA 
HETATM   19  H   UNL     1      -8.453  11.014  68.599  1.00  0.00     0.000 HD 
BRANCH  17  20
HETATM   20  C   UNL     1      -8.541  12.330  66.377  1.00  0.00     0.041 C  
BRANCH  20  21
HETATM   21  N   UNL     1      -8.969  13.670  66.771  1.00  0.00    -0.382 N  
HETATM   22  H   UNL     1      -9.807  14.054  66.335  1.00  0.00     0.000 HD 
HETATM   23  C   UNL     1      -8.306  14.440  67.694  1.00  0.00    -0.179 C  
HETATM   24  O   UNL     1      -7.338  14.035  68.333  1.00  0.00    -0.096 OA 
BRANCH  23  25
HETATM   25  C   UNL     1      -8.871  15.803  67.921  1.00  0.00    -0.175 A  
HETATM   26  N   UNL     1      -8.557  16.747  66.990  1.00  0.00    -0.199 NA 
HETATM   27  C   UNL     1      -9.006  17.996  67.200  1.00  0.00    -0.255 A  
HETATM   28  C   UNL     1      -9.795  18.341  68.320  1.00  0.00    -0.366 A  
HETATM   29  C   UNL     1     -10.131  17.333  69.233  1.00  0.00    -0.179 A  
HETATM   30  C   UNL     1     -10.221  19.666  68.509  1.00  0.00    -0.529 A  
HETATM   31  C   UNL     1      -9.658  16.042  69.036  1.00  0.00    -0.247 A  
HETATM   32  C   UNL     1      -9.863  20.655  67.596  1.00  0.00    -0.425 A  
HETATM   33  C   UNL     1      -9.095  20.321  66.485  1.00  0.00    -0.354 A  
HETATM   34  C   UNL     1      -8.680  18.999  66.296  1.00  0.00    -0.281 A  
ENDBRANCH  23  25
ENDBRANCH  20  21
BRANCH  20  35
HETATM   35  C   UNL     1      -7.111  11.994  66.797  1.00  0.00     0.041 C  
BRANCH  35  36
HETATM   36  C   UNL     1      -6.562  10.754  66.133  1.00  0.00    -0.127 C  
HETATM   37  N   UNL     1      -6.098   9.783  66.966  1.00  0.00    -0.062 N  
HETATM   38  O   UNL     1      -6.494  10.627  64.916  1.00  0.00    -0.056 OA 
HETATM   39  H2  UNL     1      -6.119   9.887  67.980  1.00  0.00     0.000 HD 
HETATM   40  H1  UNL     1      -5.727   8.945  66.517  1.00  0.00     0.000 HD 
ENDBRANCH  35  36
ENDBRANCH  20  35
ENDBRANCH  17  20
ENDBRANCH  15  16
BRANCH  15  41
HETATM   41  C   UNL     1     -11.451  10.595  69.415  1.00  0.00    -0.356 C  
BRANCH  41  42
HETATM   42  C   UNL     1     -12.049  10.013  70.680  1.00  0.00    -0.381 A  
HETATM   43  C   UNL     1     -13.428  10.069  70.920  1.00  0.00    -0.179 A  
HETATM   44  C   UNL     1     -13.171   8.735  72.927  1.00  0.00    -0.014 A  
HETATM   45  C   UNL     1     -13.984   9.438  72.038  1.00  0.00    -0.334 A  
HETATM   46  C   UNL     1     -11.242   9.309  71.588  1.00  0.00    -0.449 A  
HETATM   47  C   UNL     1     -11.798   8.675  72.701  1.00  0.00    -0.235 A  
ENDBRANCH  41  42
ENDBRANCH  15  41
ENDBRANCH  12  15
ENDBRANCH  11  12
ENDBRANCH   8  11
BRANCH   9  48
HETATM   48  C   UNL     1      -7.137   6.233  65.929  1.00  0.00    -0.066 C  
HETATM   49  C   UNL     1      -5.127   4.306  64.614  1.00  0.00    -0.009 C  
HETATM   50  O   UNL     1      -6.083   6.837  66.110  1.00  0.00    -0.035 OA 
HETATM   51  C   UNL     1      -5.788   6.205  63.095  1.00  0.00    -0.022 C  
HETATM   52  C   UNL     1      -6.301   4.991  63.890  1.00  0.00    -0.022 C  
HETATM   53  N   UNL     1      -7.349   5.400  64.844  1.00  0.00    -0.066 N  
HETATM   54  C   UNL     1      -6.893   3.981  62.889  1.00  0.00    -0.035 C  
HETATM   55  H   UNL     1      -8.293   5.045  64.693  1.00  0.00     0.000 HD 
ENDBRANCH   9  48
TORSDOF 12
ENDMDL
MODEL       92
REMARK 921   NORMALIZED FREE ENERGY PREDICTED BY IDOCK:   -1.35 KCAL/MOL
REMARK 922        TOTAL FREE ENERGY PREDICTED BY IDOCK:   -6.39 KCAL/MOL
REMARK 923 INTER-LIGAND FREE ENERGY PREDICTED BY IDOCK:   -4.26 KCAL/MOL
REMARK 924 INTRA-LIGAND FREE ENERGY PREDICTED BY IDOCK:   -2.13 KCAL/MOL
REMARK 927      BINDING AFFINITY PREDICTED BY RF-SCORE:    0.00 PKD
ROOT
HETATM    1  C   UNL     1     -12.055  13.721  71.496  1.00  0.00    -0.016 C  
HETATM    2  C   UNL     1     -13.539  13.817  71.875  1.00  0.00    -0.514 C  
HETATM    3  C   UNL     1     -14.380  14.432  70.759  1.00  0.00     0.629 C  
HETATM    4  C   UNL     1     -13.852  15.808  70.371  1.00  0.00     1.174 C  
HETATM    5  C   UNL     1     -12.382  15.756  69.967  1.00  0.00    -0.248 C  
HETATM    6  C   UNL     1     -11.506  15.064  71.019  1.00  0.00    -0.344 C  
HETATM    7  C   UNL     1     -10.061  14.864  70.559  1.00  0.00     0.534 C  
HETATM    8  N   UNL     1      -9.904  13.992  69.385  1.00  0.00     0.256 NA 
HETATM    9  C   UNL     1     -10.775  12.787  69.382  1.00  0.00     0.197 C  
HETATM   10  C   UNL     1     -11.794  12.567  70.518  1.00  0.00    -0.145 C  
ENDROOT
BRANCH   8  11
HETATM   11  C   UNL     1      -8.462  13.625  69.262  1.00  0.00     0.620 C  
BRANCH  11  12
HETATM   12  C   UNL     1      -7.458  14.801  69.127  1.00  0.00    -0.153 C  
HETATM   13  H   UNL     1      -5.971  15.513  70.188  1.00  0.00     0.000 HD 
HETATM   14  O   UNL     1      -6.585  14.794  70.270  1.00  0.00    -0.182 OA 
BRANCH  12  15
HETATM   15  C   UNL     1      -6.577  14.723  67.848  1.00  0.00    -0.161 C  
BRANCH  15  16
HETATM   16  N   UNL     1      -6.192  13.321  67.590  1.00  0.00    -0.159 N  
HETATM   17  C   UNL     1      -7.053  12.429  66.978  1.00  0.00    -0.006 C  
HETATM   18  O   UNL     1      -8.229  12.700  66.729  1.00  0.00    -0.100 OA 
HETATM   19  H   UNL     1      -5.265  13.002  67.870  1.00  0.00     0.000 HD 
BRANCH  17  20
HETATM   20  C   UNL     1      -6.456  11.035  66.693  1.00  0.00    -0.129 C  
BRANCH  20  21
HETATM   21  N   UNL     1      -7.069  10.060  67.591  1.00  0.00    -0.086 N  
HETATM   22  H   UNL     1      -7.747   9.405  67.201  1.00  0.00     0.000 HD 
HETATM   23  C   UNL     1      -6.782   9.974  68.931  1.00  0.00    -0.053 C  
HETATM   24  O   UNL     1      -5.921  10.660  69.477  1.00  0.00    -0.042 OA 
BRANCH  23  25
HETATM   25  C   UNL     1      -7.553   8.946  69.691  1.00  0.00    -0.072 A  
HETATM   26  N   UNL     1      -7.591   9.099  71.043  1.00  0.00    -0.209 NA 
HETATM   27  C   UNL     1      -8.231   8.156  71.755  1.00  0.00    -0.130 A  
HETATM   28  C   UNL     1      -8.869   7.050  71.150  1.00  0.00    -0.141 A  
HETATM   29  C   UNL     1      -8.842   6.950  69.753  1.00  0.00    -0.141 A  
HETATM   30  C   UNL     1      -9.504   6.077  71.938  1.00  0.00    -0.163 A  
HETATM   31  C   UNL     1      -8.169   7.910  69.007  1.00  0.00    -0.126 A  
HETATM   32  C   UNL     1      -9.506   6.190  73.326  1.00  0.00    -0.143 A  
HETATM   33  C   UNL     1      -8.889   7.282  73.929  1.00  0.00    -0.245 A  
HETATM   34  C   UNL     1      -8.264   8.253  73.140  1.00  0.00    -0.233 A  
ENDBRANCH  23  25
ENDBRANCH  20  21
BRANCH  20  35
HETATM   35  C   UNL     1      -6.525  10.642  65.219  1.00  0.00    -0.008 C  
BRANCH  35  36
HETATM   36  C   UNL     1      -7.903  10.220  64.768  1.00  0.00    -0.130 C  
HETATM   37  N   UNL     1      -8.448  10.939  63.750  1.00  0.00    -0.370 N  
HETATM   38  O   UNL     1      -8.526   9.311  65.303  1.00  0.00    -0.136 OA 
HETATM   39  H2  UNL     1      -7.954  11.718  63.316  1.00  0.00     0.000 HD 
HETATM   40  H1  UNL     1      -9.378  10.654  63.446  1.00  0.00     0.000 HD 
ENDBRANCH  35  36
ENDBRANCH  20  35
ENDBRANCH  17  20
ENDBRANCH  15  16
BRANCH  15  41
HETATM   41  C   UNL     1      -7.236  15.367  66.601  1.00  0.00     0.593 C  
BRANCH  41  42
HETATM   42  C   UNL     1      -8.031  16.638  66.815  1.00  0.00    -0.284 A  
HETATM   43  C   UNL     1      -9.431  16.634  66.755  1.00  0.00    -0.260 A  
HETATM   44  C   UNL     1      -9.504  18.960  67.432  1.00  0.00    -0.334 A  
HETATM   45  C   UNL     1     -10.162  17.788  67.057  1.00  0.00    -0.346 A  
HETATM   46  C   UNL     1      -7.383  17.827  67.186  1.00  0.00    -0.208 A  
HETATM   47  C   UNL     1      -8.113  18.978  67.492  1.00  0.00    -0.292 A  
ENDBRANCH  41  42
ENDBRANCH  15  41
ENDBRANCH  12  15
ENDBRANCH  11  12
ENDBRANCH   8  11
BRANCH   9  48
HETATM   48  C   UNL     1     -11.512  12.660  68.010  1.00  0.00    -0.318 C  
HETATM   49  C   UNL     1     -13.127  14.100  65.818  1.00  0.00    -0.053 C  
HETATM   50  O   UNL     1     -12.452  11.882  67.864  1.00  0.00    -0.123 OA 
HETATM   51  C   UNL     1     -11.657  12.271  64.898  1.00  0.00    -0.395 C  
HETATM   52  C   UNL     1     -11.677  13.603  65.669  1.00  0.00    -0.342 C  
HETATM   53  N   UNL     1     -11.027  13.453  66.984  1.00  0.00    -0.283 N  
HETATM   54  C   UNL     1     -10.904  14.646  64.838  1.00  0.00    -0.436 C  
HETATM   55  H   UNL     1     -10.162  13.968  67.149  1.00  0.00     0.000 HD 
ENDBRANCH   9  48
TORSDOF 12
ENDMDL
MODEL       93
REMARK 921   NORMALIZED FREE ENERGY PREDICTED BY IDOCK:   -1.31 KCAL/MOL
REMARK 922        TOTAL FREE ENERGY PREDICTED BY IDOCK:   -6.33 KCAL/MOL
REMARK 923 INTER-LIGAND FREE ENERGY PREDICTED BY IDOCK:   -5.63 KCAL/MOL
REMARK 924 INTRA-LIGAND FREE ENERGY PREDICTED BY IDOCK:   -0.70 KCAL/MOL
REMARK 927      BINDING AFFINITY PREDICTED BY RF-SCORE:    0.00 PKD
ROOT
HETATM    1  C   UNL     1      -8.525  20.033  67.889  1.00  0.00    -0.301 C  
HETATM    2  C   UNL     1      -7.457  21.126  68.032  1.00  0.00     0.306 C  
HETATM    3  C   UNL     1      -6.359  20.732  69.017  1.00  0.00    -0.115 C  
HETATM    4  C   UNL     1      -6.944  20.395  70.384  1.00  0.00     0.526 C  
HETATM    5  C   UNL     1      -7.998  19.296  70.291  1.00  0.00     1.333 C  
HETATM    6  C   UNL     1      -9.080  19.604  69.247  1.00  0.00    -0.007 C  
HETATM    7  C   UNL     1     -10.053  18.444  69.031  1.00  0.00    -0.244 C  
HETATM    8  N   UNL     1      -9.439  17.215  68.506  1.00  0.00    -0.274 NA 
HETATM    9  C   UNL     1      -8.417  17.431  67.448  1.00  0.00    -0.206 C  
HETATM   10  C   UNL     1      -8.027  18.863  67.031  1.00  0.00    -0.262 C  
ENDROOT
BRANCH   8  11
HETATM   11  C   UNL     1     -10.528  16.308  68.038  1.00  0.00    -0.293 C  
BRANCH  11  12
HETATM   12  C   UNL     1     -10.675  14.958  68.790  1.00  0.00    -0.252 C  
HETATM   13  H   UNL     1     -12.126  13.999  69.697  1.00  0.00     0.000 HD 
HETATM   14  O   UNL     1     -12.036  14.825  69.237  1.00  0.00    -0.303 OA 
BRANCH  12  15
HETATM   15  C   UNL     1     -10.333  13.719  67.916  1.00  0.00    -0.244 C  
BRANCH  15  16
HETATM   16  N   UNL     1      -9.410  12.828  68.647  1.00  0.00    -0.405 N  
HETATM   17  C   UNL     1      -9.190  11.522  68.251  1.00  0.00    -0.186 C  
HETATM   18  O   UNL     1      -9.836  10.978  67.355  1.00  0.00    -0.171 OA 
HETATM   19  H   UNL     1      -8.921  13.186  69.468  1.00  0.00     0.000 HD 
BRANCH  17  20
HETATM   20  C   UNL     1      -8.121  10.763  69.065  1.00  0.00    -0.140 C  
BRANCH  20  21
HETATM   21  N   UNL     1      -8.707   9.535  69.596  1.00  0.00    -0.165 N  
HETATM   22  H   UNL     1      -9.716   9.412  69.522  1.00  0.00     0.000 HD 
HETATM   23  C   UNL     1      -7.973   8.537  70.190  1.00  0.00    -0.105 C  
HETATM   24  O   UNL     1      -6.746   8.554  70.252  1.00  0.00    -0.038 OA 
BRANCH  23  25
HETATM   25  C   UNL     1      -8.762   7.385  70.718  1.00  0.00    -0.145 A  
HETATM   26  N   UNL     1      -8.921   7.333  72.070  1.00  0.00    -0.129 NA 
HETATM   27  C   UNL     1      -9.579   6.276  72.575  1.00  0.00    -0.142 A  
HETATM   28  C   UNL     1     -10.117   5.255  71.759  1.00  0.00    -0.257 A  
HETATM   29  C   UNL     1      -9.967   5.366  70.371  1.00  0.00    -0.291 A  
HETATM   30  C   UNL     1     -10.775   4.158  72.336  1.00  0.00    -0.050 A  
HETATM   31  C   UNL     1      -9.275   6.446  69.838  1.00  0.00    -0.154 A  
HETATM   32  C   UNL     1     -10.899   4.061  73.720  1.00  0.00    -0.333 A  
HETATM   33  C   UNL     1     -10.382   5.068  74.529  1.00  0.00    -0.315 A  
HETATM   34  C   UNL     1      -9.733   6.163  73.951  1.00  0.00    -0.195 A  
ENDBRANCH  23  25
ENDBRANCH  20  21
BRANCH  20  35
HETATM   35  C   UNL     1      -6.822  10.541  68.293  1.00  0.00    -0.068 C  
BRANCH  35  36
HETATM   36  C   UNL     1      -6.971  10.706  66.799  1.00  0.00    -0.110 C  
HETATM   37  N   UNL     1      -7.180   9.565  66.088  1.00  0.00    -0.092 N  
HETATM   38  O   UNL     1      -6.872  11.790  66.239  1.00  0.00     0.113 OA 
HETATM   39  H2  UNL     1      -7.234   8.652  66.537  1.00  0.00     0.000 HD 
HETATM   40  H1  UNL     1      -7.280   9.677  65.079  1.00  0.00     0.000 HD 
ENDBRANCH  35  36
ENDBRANCH  20  35
ENDBRANCH  17  20
ENDBRANCH  15  16
BRANCH  15  41
HETATM   41  C   UNL     1     -11.583  12.948  67.415  1.00  0.00    -0.414 C  
BRANCH  41  42
HETATM   42  C   UNL     1     -11.995  13.158  65.973  1.00  0.00    -0.488 A  
HETATM   43  C   UNL     1     -12.729  14.288  65.587  1.00  0.00    -0.395 A  
HETATM   44  C   UNL     1     -12.564  13.645  63.256  1.00  0.00     0.257 A  
HETATM   45  C   UNL     1     -13.015  14.526  64.238  1.00  0.00     0.618 A  
HETATM   46  C   UNL     1     -11.555  12.276  64.973  1.00  0.00    -0.394 A  
HETATM   47  C   UNL     1     -11.836  12.516  63.627  1.00  0.00    -0.610 A  
ENDBRANCH  41  42
ENDBRANCH  15  41
ENDBRANCH  12  15
ENDBRANCH  11  12
ENDBRANCH   8  11
BRANCH   9  48
HETATM   48  C   UNL     1      -7.118  16.630  67.783  1.00  0.00    -0.135 C  
HETATM   49  C   UNL     1      -5.130  15.758  69.967  1.00  0.00    -0.123 C  
HETATM   50  O   UNL     1      -6.047  16.905  67.247  1.00  0.00    -0.132 OA 
HETATM   51  C   UNL     1      -5.421  14.017  68.169  1.00  0.00    -0.121 C  
HETATM   52  C   UNL     1      -6.136  14.829  69.263  1.00  0.00    -0.106 C  
HETATM   53  N   UNL     1      -7.259  15.596  68.692  1.00  0.00    -0.123 N  
HETATM   54  C   UNL     1      -6.679  13.839  70.312  1.00  0.00     0.252 C  
HETATM   55  H   UNL     1      -8.203  15.346  68.987  1.00  0.00     0.000 HD 
ENDBRANCH   9  48
TORSDOF 12
ENDMDL
MODEL       94
REMARK 921   NORMALIZED FREE ENERGY PREDICTED BY IDOCK:   -1.19 KCAL/MOL
REMARK 922        TOTAL FREE ENERGY PREDICTED BY IDOCK:   -6.12 KCAL/MOL
REMARK 923 INTER-LIGAND FREE ENERGY PREDICTED BY IDOCK:   -5.03 KCAL/MOL
REMARK 924 INTRA-LIGAND FREE ENERGY PREDICTED BY IDOCK:   -1.09 KCAL/MOL
REMARK 927      BINDING AFFINITY PREDICTED BY RF-SCORE:    0.00 PKD
ROOT
HETATM    1  C   UNL     1      -9.610  12.976  66.096  1.00  0.00    -0.209 C  
HETATM    2  C   UNL     1      -9.684  14.508  66.028  1.00  0.00    -0.331 C  
HETATM    3  C   UNL     1     -11.097  15.028  66.280  1.00  0.00    -0.334 C  
HETATM    4  C   UNL     1     -12.089  14.416  65.298  1.00  0.00    -0.380 C  
HETATM    5  C   UNL     1     -12.064  12.891  65.346  1.00  0.00    -0.501 C  
HETATM    6  C   UNL     1     -10.649  12.320  65.186  1.00  0.00    -0.320 C  
HETATM    7  C   UNL     1     -10.587  10.805  65.390  1.00  0.00    -0.154 C  
HETATM    8  N   UNL     1     -10.969  10.349  66.735  1.00  0.00    -0.116 NA 
HETATM    9  C   UNL     1     -10.457  11.191  67.849  1.00  0.00    -0.190 C  
HETATM   10  C   UNL     1      -9.653  12.471  67.544  1.00  0.00    -0.187 C  
ENDROOT
BRANCH   8  11
HETATM   11  C   UNL     1     -10.547   8.925  66.886  1.00  0.00    -0.184 C  
BRANCH  11  12
HETATM   12  C   UNL     1     -10.301   8.426  68.335  1.00  0.00    -0.200 C  
HETATM   13  H   UNL     1     -11.042   7.022  69.487  1.00  0.00     0.000 HD 
HETATM   14  O   UNL     1     -11.192   7.327  68.600  1.00  0.00     0.040 OA 
BRANCH  12  15
HETATM   15  C   UNL     1      -8.847   7.937  68.586  1.00  0.00    -0.134 C  
BRANCH  15  16
HETATM   16  N   UNL     1      -8.372   8.429  69.895  1.00  0.00    -0.122 N  
HETATM   17  C   UNL     1      -7.546   7.670  70.703  1.00  0.00    -0.080 C  
HETATM   18  O   UNL     1      -7.259   6.498  70.453  1.00  0.00    -0.075 OA 
HETATM   19  H   UNL     1      -8.662   9.354  70.212  1.00  0.00     0.000 HD 
BRANCH  17  20
HETATM   20  C   UNL     1      -7.063   8.374  71.989  1.00  0.00    -0.093 C  
BRANCH  20  21
HETATM   21  N   UNL     1      -6.800   9.780  71.695  1.00  0.00     0.453 N  
HETATM   22  H   UNL     1      -7.163  10.482  72.339  1.00  0.00     0.000 HD 
HETATM   23  C   UNL     1      -6.090  10.208  70.600  1.00  0.00    -0.106 C  
HETATM   24  O   UNL     1      -5.543   9.439  69.813  1.00  0.00    -0.032 OA 
BRANCH  23  25
HETATM   25  C   UNL     1      -5.975  11.689  70.446  1.00  0.00    -0.131 A  
HETATM   26  N   UNL     1      -6.092  12.173  69.178  1.00  0.00    -0.074 NA 
HETATM   27  C   UNL     1      -5.936  13.496  69.004  1.00  0.00    -0.082 A  
HETATM   28  C   UNL     1      -5.684  14.378  70.079  1.00  0.00    -0.121 A  
HETATM   29  C   UNL     1      -5.611  13.846  71.373  1.00  0.00    -0.231 A  
HETATM   30  C   UNL     1      -5.504  15.751  69.844  1.00  0.00    -0.126 A  
HETATM   31  C   UNL     1      -5.754  12.478  71.563  1.00  0.00     0.433 A  
HETATM   32  C   UNL     1      -5.566  16.256  68.548  1.00  0.00    -0.105 A  
HETATM   33  C   UNL     1      -5.825  15.394  67.486  1.00  0.00    -0.048 A  
HETATM   34  C   UNL     1      -6.012  14.029  67.724  1.00  0.00    -0.115 A  
ENDBRANCH  23  25
ENDBRANCH  20  21
BRANCH  20  35
HETATM   35  C   UNL     1      -7.996   8.158  73.179  1.00  0.00    -0.223 C  
BRANCH  35  36
HETATM   36  C   UNL     1      -8.733   6.842  73.140  1.00  0.00    -0.122 C  
HETATM   37  N   UNL     1     -10.085   6.906  73.285  1.00  0.00    -0.206 N  
HETATM   38  O   UNL     1      -8.162   5.764  73.023  1.00  0.00    -0.117 OA 
HETATM   39  H2  UNL     1     -10.571   7.793  73.413  1.00  0.00     0.000 HD 
HETATM   40  H1  UNL     1     -10.583   6.017  73.259  1.00  0.00     0.000 HD 
ENDBRANCH  35  36
ENDBRANCH  20  35
ENDBRANCH  17  20
ENDBRANCH  15  16
BRANCH  15  41
HETATM   41  C   UNL     1      -8.679   6.400  68.466  1.00  0.00    -0.121 C  
BRANCH  41  42
HETATM   42  C   UNL     1      -8.291   5.849  67.110  1.00  0.00    -0.105 A  
HETATM   43  C   UNL     1      -9.252   5.301  66.249  1.00  0.00    -0.152 A  
HETATM   44  C   UNL     1      -7.591   5.030  64.506  1.00  0.00    -0.078 A  
HETATM   45  C   UNL     1      -8.902   4.890  64.958  1.00  0.00    -0.154 A  
HETATM   46  C   UNL     1      -6.973   5.976  66.643  1.00  0.00    -0.067 A  
HETATM   47  C   UNL     1      -6.625   5.570  65.352  1.00  0.00    -0.040 A  
ENDBRANCH  41  42
ENDBRANCH  15  41
ENDBRANCH  12  15
ENDBRANCH  11  12
ENDBRANCH   8  11
BRANCH   9  48
HETATM   48  C   UNL     1     -11.618  11.544  68.833  1.00  0.00    -0.320 C  
HETATM   49  C   UNL     1     -12.488  11.870  71.769  1.00  0.00     0.007 C  
HETATM   50  O   UNL     1     -12.663  10.897  68.839  1.00  0.00    -0.200 OA 
HETATM   51  C   UNL     1     -13.661  13.479  70.225  1.00  0.00     1.306 C  
HETATM   52  C   UNL     1     -12.295  13.025  70.769  1.00  0.00    -0.310 C  
HETATM   53  N   UNL     1     -11.401  12.629  69.664  1.00  0.00    -0.479 N  
HETATM   54  C   UNL     1     -11.668  14.209  71.530  1.00  0.00     0.207 C  
HETATM   55  H   UNL     1     -10.567  13.194  69.503  1.00  0.00     0.000 HD 
ENDBRANCH   9  48
TORSDOF 12
ENDMDL
MODEL       95
REMARK 921   NORMALIZED FREE ENERGY PREDICTED BY IDOCK:   -0.95 KCAL/MOL
REMARK 922        TOTAL FREE ENERGY PREDICTED BY IDOCK:   -5.72 KCAL/MOL
REMARK 923 INTER-LIGAND FREE ENERGY PREDICTED BY IDOCK:   -4.35 KCAL/MOL
REMARK 924 INTRA-LIGAND FREE ENERGY PREDICTED BY IDOCK:   -1.37 KCAL/MOL
REMARK 927      BINDING AFFINITY PREDICTED BY RF-SCORE:    0.00 PKD
ROOT
HETATM    1  C   UNL     1      -5.582  17.093  69.429  1.00  0.00    -0.182 C  
HETATM    2  C   UNL     1      -5.349  18.562  69.806  1.00  0.00    -0.204 C  
HETATM    3  C   UNL     1      -6.495  19.462  69.353  1.00  0.00    -0.357 C  
HETATM    4  C   UNL     1      -6.726  19.341  67.851  1.00  0.00    -0.254 C  
HETATM    5  C   UNL     1      -6.983  17.896  67.434  1.00  0.00    -0.200 C  
HETATM    6  C   UNL     1      -5.901  16.935  67.943  1.00  0.00    -0.135 C  
HETATM    7  C   UNL     1      -6.227  15.466  67.669  1.00  0.00    -0.142 C  
HETATM    8  N   UNL     1      -7.440  14.969  68.336  1.00  0.00    -0.108 NA 
HETATM    9  C   UNL     1      -7.620  15.439  69.735  1.00  0.00    -0.091 C  
HETATM   10  C   UNL     1      -6.611  16.428  70.353  1.00  0.00     0.683 C  
ENDROOT
BRANCH   8  11
HETATM   11  C   UNL     1      -7.444  13.478  68.254  1.00  0.00    -0.122 C  
BRANCH  11  12
HETATM   12  C   UNL     1      -7.601  12.863  66.838  1.00  0.00     0.214 C  
HETATM   13  H   UNL     1      -7.780  11.056  66.097  1.00  0.00     0.000 HD 
HETATM   14  O   UNL     1      -7.684  11.433  66.964  1.00  0.00    -0.140 OA 
BRANCH  12  15
HETATM   15  C   UNL     1      -8.869  13.354  66.084  1.00  0.00     0.395 C  
BRANCH  15  16
HETATM   16  N   UNL     1      -9.615  12.196  65.553  1.00  0.00    -0.390 N  
HETATM   17  C   UNL     1      -9.912  12.074  64.208  1.00  0.00    -0.240 C  
HETATM   18  O   UNL     1      -9.694  12.970  63.392  1.00  0.00     0.378 OA 
HETATM   19  H   UNL     1      -9.921  11.465  66.196  1.00  0.00     0.000 HD 
BRANCH  17  20
HETATM   20  C   UNL     1     -10.608  10.755  63.809  1.00  0.00    -0.046 C  
BRANCH  20  21
HETATM   21  N   UNL     1     -10.636   9.860  64.963  1.00  0.00     0.145 N  
HETATM   22  H   UNL     1     -11.495   9.807  65.510  1.00  0.00     0.000 HD 
HETATM   23  C   UNL     1      -9.570   9.087  65.352  1.00  0.00    -0.014 C  
HETATM   24  O   UNL     1      -8.523   9.019  64.712  1.00  0.00    -0.164 OA 
BRANCH  23  25
HETATM   25  C   UNL     1      -9.778   8.279  66.589  1.00  0.00    -0.251 A  
HETATM   26  N   UNL     1      -9.414   6.968  66.521  1.00  0.00    -0.167 NA 
HETATM   27  C   UNL     1      -9.643   6.205  67.603  1.00  0.00    -0.111 A  
HETATM   28  C   UNL     1     -10.216   6.720  68.788  1.00  0.00    -0.184 A  
HETATM   29  C   UNL     1     -10.539   8.083  68.832  1.00  0.00    -0.160 A  
HETATM   30  C   UNL     1     -10.458   5.877  69.884  1.00  0.00    -0.337 A  
HETATM   31  C   UNL     1     -10.323   8.877  67.714  1.00  0.00    -0.301 A  
HETATM   32  C   UNL     1     -10.142   4.523  69.813  1.00  0.00    -0.177 A  
HETATM   33  C   UNL     1      -9.568   4.011  68.653  1.00  0.00    -0.190 A  
HETATM   34  C   UNL     1      -9.320   4.855  67.566  1.00  0.00    -0.148 A  
ENDBRANCH  23  25
ENDBRANCH  20  21
BRANCH  20  35
HETATM   35  C   UNL     1     -11.975  10.969  63.163  1.00  0.00     1.174 C  
BRANCH  35  36
HETATM   36  C   UNL     1     -12.648  12.255  63.580  1.00  0.00    -0.476 C  
HETATM   37  N   UNL     1     -13.246  12.251  64.801  1.00  0.00    -0.080 N  
HETATM   38  O   UNL     1     -12.695  13.243  62.856  1.00  0.00    -0.473 OA 
HETATM   39  H2  UNL     1     -13.241  11.427  65.401  1.00  0.00     0.000 HD 
HETATM   40  H1  UNL     1     -13.700  13.120  65.082  1.00  0.00     0.000 HD 
ENDBRANCH  35  36
ENDBRANCH  20  35
ENDBRANCH  17  20
ENDBRANCH  15  16
BRANCH  15  41
HETATM   41  C   UNL     1      -9.783  14.270  66.938  1.00  0.00    -0.268 C  
BRANCH  41  42
HETATM   42  C   UNL     1     -10.274  15.551  66.296  1.00  0.00    -0.308 A  
HETATM   43  C   UNL     1      -9.869  16.804  66.778  1.00  0.00    -0.282 A  
HETATM   44  C   UNL     1     -11.017  17.918  64.958  1.00  0.00     0.886 A  
HETATM   45  C   UNL     1     -10.243  17.978  66.116  1.00  0.00    -0.364 A  
HETATM   46  C   UNL     1     -11.060  15.507  65.133  1.00  0.00    -0.382 A  
HETATM   47  C   UNL     1     -11.428  16.680  64.470  1.00  0.00     0.197 A  
ENDBRANCH  41  42
ENDBRANCH  15  41
ENDBRANCH  12  15
ENDBRANCH  11  12
ENDBRANCH   8  11
BRANCH   9  48
HETATM   48  C   UNL     1      -9.065  16.000  69.932  1.00  0.00     0.391 C  
HETATM   49  C   UNL     1     -12.021  15.839  69.084  1.00  0.00    -0.312 C  
HETATM   50  O   UNL     1      -9.316  17.187  69.738  1.00  0.00     0.432 OA 
HETATM   51  C   UNL     1     -11.739  16.443  71.514  1.00  0.00    -0.337 C  
HETATM   52  C   UNL     1     -11.462  15.375  70.443  1.00  0.00    -0.330 C  
HETATM   53  N   UNL     1     -10.017  15.089  70.355  1.00  0.00    -0.383 N  
HETATM   54  C   UNL     1     -12.209  14.089  70.847  1.00  0.00    -0.436 C  
HETATM   55  H   UNL     1      -9.700  14.158  70.623  1.00  0.00     0.000 HD 
ENDBRANCH   9  48
TORSDOF 12
ENDMDL
MODEL       96
REMARK 921   NORMALIZED FREE ENERGY PREDICTED BY IDOCK:   -0.59 KCAL/MOL
REMARK 922        TOTAL FREE ENERGY PREDICTED BY IDOCK:   -5.11 KCAL/MOL
REMARK 923 INTER-LIGAND FREE ENERGY PREDICTED BY IDOCK:   -5.64 KCAL/MOL
REMARK 924 INTRA-LIGAND FREE ENERGY PREDICTED BY IDOCK:    0.53 KCAL/MOL
REMARK 927      BINDING AFFINITY PREDICTED BY RF-SCORE:    0.00 PKD
ROOT
HETATM    1  C   UNL     1     -10.469  13.032  66.698  1.00  0.00    -0.271 C  
HETATM    2  C   UNL     1      -9.928  14.460  66.852  1.00  0.00    -0.261 C  
HETATM    3  C   UNL     1      -8.588  14.493  67.583  1.00  0.00    -0.184 C  
HETATM    4  C   UNL     1      -8.695  13.827  68.950  1.00  0.00     0.146 C  
HETATM    5  C   UNL     1      -9.211  12.395  68.842  1.00  0.00     0.273 C  
HETATM    6  C   UNL     1     -10.513  12.297  68.038  1.00  0.00    -0.231 C  
HETATM    7  C   UNL     1     -10.957  10.855  67.787  1.00  0.00    -0.283 C  
HETATM    8  N   UNL     1     -10.021  10.053  66.985  1.00  0.00    -0.195 NA 
HETATM    9  C   UNL     1      -9.413  10.770  65.833  1.00  0.00    -0.197 C  
HETATM   10  C   UNL     1      -9.728  12.261  65.598  1.00  0.00    -0.205 C  
ENDROOT
BRANCH   8  11
HETATM   11  C   UNL     1     -10.723   8.810  66.548  1.00  0.00     0.240 C  
BRANCH  11  12
HETATM   12  C   UNL     1     -10.752   7.638  67.565  1.00  0.00    -0.209 C  
HETATM   13  H   UNL     1     -10.852   5.683  67.460  1.00  0.00     0.000 HD 
HETATM   14  O   UNL     1     -10.834   6.400  66.838  1.00  0.00    -0.333 OA 
BRANCH  12  15
HETATM   15  C   UNL     1      -9.497   7.577  68.480  1.00  0.00    -0.146 C  
BRANCH  15  16
HETATM   16  N   UNL     1      -9.907   7.352  69.880  1.00  0.00    -0.178 N  
HETATM   17  C   UNL     1     -11.231   7.422  70.272  1.00  0.00    -0.247 C  
HETATM   18  O   UNL     1     -12.131   7.800  69.521  1.00  0.00     0.887 OA 
HETATM   19  H   UNL     1      -9.194   7.139  70.578  1.00  0.00     0.000 HD 
BRANCH  17  20
HETATM   20  C   UNL     1     -11.496   7.062  71.749  1.00  0.00    -0.267 C  
BRANCH  20  21
HETATM   21  N   UNL     1     -10.480   6.114  72.200  1.00  0.00    -0.198 N  
HETATM   22  H   UNL     1      -9.502   6.330  72.009  1.00  0.00     0.000 HD 
HETATM   23  C   UNL     1     -10.769   4.948  72.866  1.00  0.00    -0.235 C  
HETATM   24  O   UNL     1     -11.906   4.641  73.215  1.00  0.00    -0.249 OA 
BRANCH  23  25
HETATM   25  C   UNL     1      -9.595   4.086  73.195  1.00  0.00    -0.117 A  
HETATM   26  N   UNL     1      -8.489   4.254  72.419  1.00  0.00    -0.103 NA 
HETATM   27  C   UNL     1      -7.438   3.451  72.657  1.00  0.00    -0.051 A  
HETATM   28  C   UNL     1      -7.444   2.478  73.682  1.00  0.00    -0.045 A  
HETATM   29  C   UNL     1      -8.586   2.364  74.485  1.00  0.00    -0.070 A  
HETATM   30  C   UNL     1      -6.330   1.645  73.877  1.00  0.00    -0.012 A  
HETATM   31  C   UNL     1      -9.685   3.177  74.237  1.00  0.00    -0.138 A  
HETATM   32  C   UNL     1      -5.211   1.766  73.057  1.00  0.00     0.000 A  
HETATM   33  C   UNL     1      -5.194   2.729  72.053  1.00  0.00     0.000 A  
HETATM   34  C   UNL     1      -6.302   3.562  71.867  1.00  0.00    -0.015 A  
ENDBRANCH  23  25
ENDBRANCH  20  21
BRANCH  20  35
HETATM   35  C   UNL     1     -11.638   8.286  72.651  1.00  0.00    -0.419 C  
BRANCH  35  36
HETATM   36  C   UNL     1     -12.122   9.519  71.926  1.00  0.00    -0.337 C  
HETATM   37  N   UNL     1     -11.164  10.276  71.325  1.00  0.00    -0.188 N  
HETATM   38  O   UNL     1     -13.299   9.855  71.903  1.00  0.00    -0.407 OA 
HETATM   39  H2  UNL     1     -10.177  10.026  71.362  1.00  0.00     0.000 HD 
HETATM   40  H1  UNL     1     -11.491  11.109  70.836  1.00  0.00     0.000 HD 
ENDBRANCH  35  36
ENDBRANCH  20  35
ENDBRANCH  17  20
ENDBRANCH  15  16
BRANCH  15  41
HETATM   41  C   UNL     1      -8.447   6.529  68.024  1.00  0.00    -0.119 C  
BRANCH  41  42
HETATM   42  C   UNL     1      -8.418   6.173  66.552  1.00  0.00    -0.119 A  
HETATM   43  C   UNL     1      -8.005   7.105  65.590  1.00  0.00    -0.126 A  
HETATM   44  C   UNL     1      -8.159   5.430  63.846  1.00  0.00    -0.119 A  
HETATM   45  C   UNL     1      -7.881   6.737  64.246  1.00  0.00    -0.109 A  
HETATM   46  C   UNL     1      -8.702   4.864  66.132  1.00  0.00    -0.117 A  
HETATM   47  C   UNL     1      -8.573   4.494  64.792  1.00  0.00    -0.137 A  
ENDBRANCH  41  42
ENDBRANCH  15  41
ENDBRANCH  12  15
ENDBRANCH  11  12
ENDBRANCH   8  11
BRANCH   9  48
HETATM   48  C   UNL     1      -7.863  10.575  65.836  1.00  0.00    -0.151 C  
HETATM   49  C   UNL     1      -5.142  11.634  66.814  1.00  0.00    -0.106 C  
HETATM   50  O   UNL     1      -7.222  10.574  64.787  1.00  0.00    -0.078 OA 
HETATM   51  C   UNL     1      -5.193   9.122  66.619  1.00  0.00    -0.038 C  
HETATM   52  C   UNL     1      -5.821  10.344  67.311  1.00  0.00    -0.052 C  
HETATM   53  N   UNL     1      -7.277  10.384  67.075  1.00  0.00    -0.090 N  
HETATM   54  C   UNL     1      -5.556  10.223  68.824  1.00  0.00    -0.037 C  
HETATM   55  H   UNL     1      -7.892  10.263  67.879  1.00  0.00     0.000 HD 
ENDBRANCH   9  48
TORSDOF 12
ENDMDL
MODEL       97
REMARK 921   NORMALIZED FREE ENERGY PREDICTED BY IDOCK:    0.13 KCAL/MOL
REMARK 922        TOTAL FREE ENERGY PREDICTED BY IDOCK:   -3.87 KCAL/MOL
REMARK 923 INTER-LIGAND FREE ENERGY PREDICTED BY IDOCK:   -3.03 KCAL/MOL
REMARK 924 INTRA-LIGAND FREE ENERGY PREDICTED BY IDOCK:   -0.84 KCAL/MOL
REMARK 927      BINDING AFFINITY PREDICTED BY RF-SCORE:    0.00 PKD
ROOT
HETATM    1  C   UNL     1     -11.895  12.327  65.435  1.00  0.00    -0.418 C  
HETATM    2  C   UNL     1     -12.137  12.246  63.922  1.00  0.00    -0.598 C  
HETATM    3  C   UNL     1     -10.930  11.686  63.174  1.00  0.00    -0.247 C  
HETATM    4  C   UNL     1      -9.679  12.509  63.457  1.00  0.00     0.352 C  
HETATM    5  C   UNL     1      -9.389  12.598  64.953  1.00  0.00     0.486 C  
HETATM    6  C   UNL     1     -10.602  13.074  65.761  1.00  0.00    -0.291 C  
HETATM    7  C   UNL     1     -10.376  13.018  67.273  1.00  0.00    -0.238 C  
HETATM    8  N   UNL     1     -10.139  11.669  67.810  1.00  0.00    -0.184 NA 
HETATM    9  C   UNL     1     -10.998  10.605  67.227  1.00  0.00    -0.284 C  
HETATM   10  C   UNL     1     -11.992  10.947  66.098  1.00  0.00     1.887 C  
ENDROOT
BRANCH   8  11
HETATM   11  C   UNL     1     -10.269  11.726  69.296  1.00  0.00     0.185 C  
BRANCH  11  12
HETATM   12  C   UNL     1     -10.072  10.389  70.059  1.00  0.00    -0.025 C  
HETATM   13  H   UNL     1     -10.805   8.574  69.936  1.00  0.00     0.000 HD 
HETATM   14  O   UNL     1     -10.925   9.392  69.469  1.00  0.00    -0.234 OA 
BRANCH  12  15
HETATM   15  C   UNL     1      -8.612   9.858  70.017  1.00  0.00    -0.167 C  
BRANCH  15  16
HETATM   16  N   UNL     1      -8.613   8.382  70.064  1.00  0.00    -0.129 N  
HETATM   17  C   UNL     1      -7.645   7.673  70.749  1.00  0.00    -0.080 C  
HETATM   18  O   UNL     1      -6.655   8.208  71.251  1.00  0.00    -0.041 OA 
HETATM   19  H   UNL     1      -9.350   7.871  69.576  1.00  0.00     0.000 HD 
BRANCH  17  20
HETATM   20  C   UNL     1      -7.853   6.144  70.781  1.00  0.00    -0.103 C  
BRANCH  20  21
HETATM   21  N   UNL     1      -7.756   5.620  69.421  1.00  0.00    -0.086 N  
HETATM   22  H   UNL     1      -7.006   5.968  68.823  1.00  0.00     0.000 HD 
HETATM   23  C   UNL     1      -8.617   4.685  68.902  1.00  0.00    -0.084 C  
HETATM   24  O   UNL     1      -9.498   4.145  69.566  1.00  0.00    -0.153 OA 
BRANCH  23  25
HETATM   25  C   UNL     1      -8.385   4.317  67.474  1.00  0.00    -0.099 A  
HETATM   26  N   UNL     1      -9.472   4.364  66.655  1.00  0.00    -0.164 NA 
HETATM   27  C   UNL     1      -9.302   3.983  65.378  1.00  0.00    -0.162 A  
HETATM   28  C   UNL     1      -8.051   3.568  64.870  1.00  0.00    -0.090 A  
HETATM   29  C   UNL     1      -6.948   3.572  65.734  1.00  0.00    -0.058 A  
HETATM   30  C   UNL     1      -7.929   3.156  63.533  1.00  0.00    -0.080 A  
HETATM   31  C   UNL     1      -7.115   3.948  67.060  1.00  0.00    -0.063 A  
HETATM   32  C   UNL     1      -9.041   3.146  62.696  1.00  0.00    -0.091 A  
HETATM   33  C   UNL     1     -10.275   3.564  63.187  1.00  0.00    -0.183 A  
HETATM   34  C   UNL     1     -10.392   3.981  64.517  1.00  0.00    -0.221 A  
ENDBRANCH  23  25
ENDBRANCH  20  21
BRANCH  20  35
HETATM   35  C   UNL     1      -6.942   5.433  71.780  1.00  0.00    -0.071 C  
BRANCH  35  36
HETATM   36  C   UNL     1      -7.474   4.097  72.239  1.00  0.00    -0.067 C  
HETATM   37  N   UNL     1      -6.993   3.004  71.587  1.00  0.00    -0.030 N  
HETATM   38  O   UNL     1      -8.319   3.986  73.119  1.00  0.00    -0.088 OA 
HETATM   39  H2  UNL     1      -6.312   3.082  70.832  1.00  0.00     0.000 HD 
HETATM   40  H1  UNL     1      -7.352   2.101  71.897  1.00  0.00     0.000 HD 
ENDBRANCH  35  36
ENDBRANCH  20  35
ENDBRANCH  17  20
ENDBRANCH  15  16
BRANCH  15  41
HETATM   41  C   UNL     1      -7.795  10.384  68.808  1.00  0.00    -0.108 C  
BRANCH  41  42
HETATM   42  C   UNL     1      -6.807  11.501  69.073  1.00  0.00    -0.107 A  
HETATM   43  C   UNL     1      -6.474  12.425  68.073  1.00  0.00    -0.081 A  
HETATM   44  C   UNL     1      -5.139  13.700  69.642  1.00  0.00    -0.084 A  
HETATM   45  C   UNL     1      -5.642  13.513  68.354  1.00  0.00    -0.094 A  
HETATM   46  C   UNL     1      -6.285  11.697  70.361  1.00  0.00     0.009 A  
HETATM   47  C   UNL     1      -5.459  12.787  70.644  1.00  0.00    -0.170 A  
ENDBRANCH  41  42
ENDBRANCH  15  41
ENDBRANCH  12  15
ENDBRANCH  11  12
ENDBRANCH   8  11
BRANCH   9  48
HETATM   48  C   UNL     1     -10.122   9.391  66.781  1.00  0.00    -0.256 C  
HETATM   49  C   UNL     1      -8.811   7.895  64.430  1.00  0.00     0.533 C  
HETATM   50  O   UNL     1     -10.473   8.236  67.015  1.00  0.00    -0.310 OA 
HETATM   51  C   UNL     1      -7.450   7.760  66.547  1.00  0.00    -0.088 C  
HETATM   52  C   UNL     1      -8.053   8.709  65.496  1.00  0.00    -0.114 C  
HETATM   53  N   UNL     1      -8.937   9.701  66.137  1.00  0.00    -0.148 N  
HETATM   54  C   UNL     1      -6.894   9.441  64.794  1.00  0.00    -0.094 C  
HETATM   55  H   UNL     1      -8.656  10.680  66.103  1.00  0.00     0.000 HD 
ENDBRANCH   9  48
TORSDOF 12
ENDMDL
MODEL       98
REMARK 921   NORMALIZED FREE ENERGY PREDICTED BY IDOCK:    0.22 KCAL/MOL
REMARK 922        TOTAL FREE ENERGY PREDICTED BY IDOCK:   -3.73 KCAL/MOL
REMARK 923 INTER-LIGAND FREE ENERGY PREDICTED BY IDOCK:   -5.81 KCAL/MOL
REMARK 924 INTRA-LIGAND FREE ENERGY PREDICTED BY IDOCK:    2.08 KCAL/MOL
REMARK 927      BINDING AFFINITY PREDICTED BY RF-SCORE:    0.00 PKD
ROOT
HETATM    1  C   UNL     1      -9.990  13.451  64.704  1.00  0.00    -0.132 C  
HETATM    2  C   UNL     1     -10.547  14.879  64.779  1.00  0.00    -0.336 C  
HETATM    3  C   UNL     1     -12.001  14.906  65.243  1.00  0.00    -0.168 C  
HETATM    4  C   UNL     1     -12.881  14.051  64.338  1.00  0.00     0.156 C  
HETATM    5  C   UNL     1     -12.374  12.615  64.251  1.00  0.00    -0.517 C  
HETATM    6  C   UNL     1     -10.889  12.537  63.873  1.00  0.00    -0.472 C  
HETATM    7  C   UNL     1     -10.328  11.115  63.935  1.00  0.00    -0.380 C  
HETATM    8  N   UNL     1     -10.353  10.501  65.272  1.00  0.00    -0.267 NA 
HETATM    9  C   UNL     1      -9.978  11.413  66.385  1.00  0.00    -0.214 C  
HETATM   10  C   UNL     1      -9.667  12.896  66.097  1.00  0.00    -0.250 C  
ENDROOT
BRANCH   8  11
HETATM   11  C   UNL     1      -9.490   9.284  65.246  1.00  0.00    -0.164 C  
BRANCH  11  12
HETATM   12  C   UNL     1      -8.466   9.137  66.403  1.00  0.00    -0.123 C  
HETATM   13  H   UNL     1      -7.156   7.790  66.964  1.00  0.00     0.000 HD 
HETATM   14  O   UNL     1      -7.783   7.880  66.256  1.00  0.00    -0.088 OA 
BRANCH  12  15
HETATM   15  C   UNL     1      -7.397  10.265  66.434  1.00  0.00    -0.114 C  
BRANCH  15  16
HETATM   16  N   UNL     1      -7.155  10.688  67.827  1.00  0.00    -0.082 N  
HETATM   17  C   UNL     1      -6.512   9.870  68.737  1.00  0.00    -0.045 C  
HETATM   18  O   UNL     1      -6.217   8.699  68.491  1.00  0.00    -0.051 OA 
HETATM   19  H   UNL     1      -7.472  11.610  68.128  1.00  0.00     0.000 HD 
BRANCH  17  20
HETATM   20  C   UNL     1      -6.252  10.505  70.119  1.00  0.00    -0.117 C  
BRANCH  20  21
HETATM   21  N   UNL     1      -6.409  11.954  70.017  1.00  0.00    -0.308 N  
HETATM   22  H   UNL     1      -6.944  12.432  70.742  1.00  0.00     0.000 HD 
HETATM   23  C   UNL     1      -5.876  12.707  69.000  1.00  0.00    -0.075 C  
HETATM   24  O   UNL     1      -5.148  12.237  68.129  1.00  0.00    -0.053 OA 
BRANCH  23  25
HETATM   25  C   UNL     1      -6.193  14.165  69.044  1.00  0.00    -0.094 A  
HETATM   26  N   UNL     1      -7.256  14.573  68.296  1.00  0.00    -0.109 NA 
HETATM   27  C   UNL     1      -7.529  15.888  68.274  1.00  0.00    -0.127 A  
HETATM   28  C   UNL     1      -6.774  16.832  69.005  1.00  0.00    -0.209 A  
HETATM   29  C   UNL     1      -5.714  16.368  69.795  1.00  0.00    -0.179 A  
HETATM   30  C   UNL     1      -7.083  18.200  68.931  1.00  0.00    -0.282 A  
HETATM   31  C   UNL     1      -5.412  15.013  69.813  1.00  0.00    -0.099 A  
HETATM   32  C   UNL     1      -8.133  18.640  68.128  1.00  0.00    -0.318 A  
HETATM   33  C   UNL     1      -8.887  17.715  67.413  1.00  0.00    -0.235 A  
HETATM   34  C   UNL     1      -8.582  16.353  67.496  1.00  0.00    -0.185 A  
ENDBRANCH  23  25
ENDBRANCH  20  21
BRANCH  20  35
HETATM   35  C   UNL     1      -7.079   9.874  71.237  1.00  0.00     0.539 C  
BRANCH  35  36
HETATM   36  C   UNL     1      -6.629   8.482  71.611  1.00  0.00    -0.073 C  
HETATM   37  N   UNL     1      -5.307   8.212  71.440  1.00  0.00    -0.033 N  
HETATM   38  O   UNL     1      -7.403   7.620  72.010  1.00  0.00    -0.066 OA 
HETATM   39  H2  UNL     1      -4.657   8.910  71.080  1.00  0.00     0.000 HD 
HETATM   40  H1  UNL     1      -5.004   7.272  71.693  1.00  0.00     0.000 HD 
ENDBRANCH  35  36
ENDBRANCH  20  35
ENDBRANCH  17  20
ENDBRANCH  15  16
BRANCH  15  41
HETATM   41  C   UNL     1      -6.072   9.884  65.722  1.00  0.00    -0.076 C  
BRANCH  41  42
HETATM   42  C   UNL     1      -6.173   8.993  64.501  1.00  0.00    -0.070 A  
HETATM   43  C   UNL     1      -5.295   7.917  64.315  1.00  0.00    -0.036 A  
HETATM   44  C   UNL     1      -6.511   7.216  62.340  1.00  0.00    -0.053 A  
HETATM   45  C   UNL     1      -5.460   7.038  63.240  1.00  0.00    -0.033 A  
HETATM   46  C   UNL     1      -7.222   9.164  63.582  1.00  0.00    -0.093 A  
HETATM   47  C   UNL     1      -7.390   8.283  62.512  1.00  0.00    -0.098 A  
ENDBRANCH  41  42
ENDBRANCH  15  41
ENDBRANCH  12  15
ENDBRANCH  11  12
ENDBRANCH   8  11
BRANCH   9  48
HETATM   48  C   UNL     1     -11.039  11.331  67.528  1.00  0.00    -0.286 C  
HETATM   49  C   UNL     1     -12.667   9.502  69.396  1.00  0.00     2.049 C  
HETATM   50  O   UNL     1     -12.169  11.792  67.379  1.00  0.00    -0.501 OA 
HETATM   51  C   UNL     1     -12.066  11.700  70.471  1.00  0.00    -0.458 C  
HETATM   52  C   UNL     1     -11.507  10.414  69.838  1.00  0.00    -0.297 C  
HETATM   53  N   UNL     1     -10.620  10.735  68.705  1.00  0.00    -0.186 N  
HETATM   54  C   UNL     1     -10.701   9.664  70.917  1.00  0.00    -0.402 C  
HETATM   55  H   UNL     1      -9.631  10.502  68.795  1.00  0.00     0.000 HD 
ENDBRANCH   9  48
TORSDOF 12
ENDMDL
MODEL       99
REMARK 921   NORMALIZED FREE ENERGY PREDICTED BY IDOCK:    1.08 KCAL/MOL
REMARK 922        TOTAL FREE ENERGY PREDICTED BY IDOCK:   -2.25 KCAL/MOL
REMARK 923 INTER-LIGAND FREE ENERGY PREDICTED BY IDOCK:   -2.68 KCAL/MOL
REMARK 924 INTRA-LIGAND FREE ENERGY PREDICTED BY IDOCK:    0.42 KCAL/MOL
REMARK 927      BINDING AFFINITY PREDICTED BY RF-SCORE:    0.00 PKD
ROOT
HETATM    1  C   UNL     1     -12.749   8.160  71.353  1.00  0.00    -0.283 C  
HETATM    2  C   UNL     1     -13.521   7.293  72.356  1.00  0.00     0.272 C  
HETATM    3  C   UNL     1     -12.711   6.085  72.817  1.00  0.00     0.577 C  
HETATM    4  C   UNL     1     -12.268   5.237  71.630  1.00  0.00     1.555 C  
HETATM    5  C   UNL     1     -11.477   6.057  70.615  1.00  0.00    -0.228 C  
HETATM    6  C   UNL     1     -12.213   7.332  70.185  1.00  0.00     0.212 C  
HETATM    7  C   UNL     1     -11.367   8.241  69.292  1.00  0.00     0.455 C  
HETATM    8  N   UNL     1     -10.150   8.769  69.927  1.00  0.00    -0.186 NA 
HETATM    9  C   UNL     1     -10.319   9.198  71.340  1.00  0.00    -0.338 C  
HETATM   10  C   UNL     1     -11.677   9.010  72.048  1.00  0.00    -0.417 C  
ENDROOT
BRANCH   8  11
HETATM   11  C   UNL     1      -9.620   9.876  69.077  1.00  0.00    -0.186 C  
BRANCH  11  12
HETATM   12  C   UNL     1      -8.137  10.274  69.306  1.00  0.00    -0.155 C  
HETATM   13  H   UNL     1      -6.903  10.297  70.830  1.00  0.00     0.000 HD 
HETATM   14  O   UNL     1      -7.810  10.053  70.689  1.00  0.00    -0.236 OA 
BRANCH  12  15
HETATM   15  C   UNL     1      -7.134   9.463  68.439  1.00  0.00    -0.072 C  
BRANCH  15  16
HETATM   16  N   UNL     1      -7.594   9.433  67.037  1.00  0.00    -0.091 N  
HETATM   17  C   UNL     1      -7.494  10.539  66.213  1.00  0.00    -0.133 C  
HETATM   18  O   UNL     1      -7.142  11.646  66.621  1.00  0.00    -0.115 OA 
HETATM   19  H   UNL     1      -7.997   8.573  66.665  1.00  0.00     0.000 HD 
BRANCH  17  20
HETATM   20  C   UNL     1      -7.928  10.306  64.750  1.00  0.00    -0.141 C  
BRANCH  20  21
HETATM   21  N   UNL     1      -8.247   8.893  64.565  1.00  0.00    -0.158 N  
HETATM   22  H   UNL     1      -8.951   8.475  65.172  1.00  0.00     0.000 HD 
HETATM   23  C   UNL     1      -7.651   8.096  63.618  1.00  0.00    -0.132 C  
HETATM   24  O   UNL     1      -6.854   8.525  62.787  1.00  0.00    -0.091 OA 
BRANCH  23  25
HETATM   25  C   UNL     1      -8.075   6.664  63.622  1.00  0.00    -0.001 A  
HETATM   26  N   UNL     1      -8.264   6.096  64.845  1.00  0.00    -0.138 NA 
HETATM   27  C   UNL     1      -8.590   4.793  64.879  1.00  0.00    -0.145 A  
HETATM   28  C   UNL     1      -8.760   4.023  63.706  1.00  0.00    -0.110 A  
HETATM   29  C   UNL     1      -8.596   4.655  62.467  1.00  0.00    -0.109 A  
HETATM   30  C   UNL     1      -9.078   2.658  63.793  1.00  0.00    -0.099 A  
HETATM   31  C   UNL     1      -8.242   5.997  62.420  1.00  0.00    -0.094 A  
HETATM   32  C   UNL     1      -9.222   2.048  65.036  1.00  0.00    -0.101 A  
HETATM   33  C   UNL     1      -9.067   2.803  66.195  1.00  0.00    -0.124 A  
HETATM   34  C   UNL     1      -8.758   4.164  66.105  1.00  0.00    -0.115 A  
ENDBRANCH  23  25
ENDBRANCH  20  21
BRANCH  20  35
HETATM   35  C   UNL     1      -9.036  11.252  64.293  1.00  0.00     0.024 C  
BRANCH  35  36
HETATM   36  C   UNL     1     -10.404  10.876  64.811  1.00  0.00    -0.323 C  
HETATM   37  N   UNL     1     -11.461  11.253  64.042  1.00  0.00    -0.347 N  
HETATM   38  O   UNL     1     -10.573  10.300  65.879  1.00  0.00    -0.141 OA 
HETATM   39  H2  UNL     1     -11.337  11.760  63.166  1.00  0.00     0.000 HD 
HETATM   40  H1  UNL     1     -12.385  10.999  64.392  1.00  0.00     0.000 HD 
ENDBRANCH  35  36
ENDBRANCH  20  35
ENDBRANCH  17  20
ENDBRANCH  15  16
BRANCH  15  41
HETATM   41  C   UNL     1      -5.672   9.970  68.543  1.00  0.00    -0.041 C  
BRANCH  41  42
HETATM   42  C   UNL     1      -5.406  11.131  69.479  1.00  0.00    -0.045 A  
HETATM   43  C   UNL     1      -5.299  12.441  68.995  1.00  0.00    -0.062 A  
HETATM   44  C   UNL     1      -5.131  13.303  71.253  1.00  0.00    -0.164 A  
HETATM   45  C   UNL     1      -5.158  13.519  69.876  1.00  0.00    -0.083 A  
HETATM   46  C   UNL     1      -5.369  10.929  70.868  1.00  0.00    -0.113 A  
HETATM   47  C   UNL     1      -5.233  12.005  71.748  1.00  0.00     0.124 A  
ENDBRANCH  41  42
ENDBRANCH  15  41
ENDBRANCH  12  15
ENDBRANCH  11  12
ENDBRANCH   8  11
BRANCH   9  48
HETATM   48  C   UNL     1      -9.194   8.577  72.229  1.00  0.00    -0.272 C  
HETATM   49  C   UNL     1      -8.138   6.056  73.646  1.00  0.00    -0.105 C  
HETATM   50  O   UNL     1      -8.952   9.024  73.348  1.00  0.00     0.130 OA 
HETATM   51  C   UNL     1      -6.287   7.545  72.807  1.00  0.00    -0.059 C  
HETATM   52  C   UNL     1      -7.507   6.701  72.398  1.00  0.00    -0.093 C  
HETATM   53  N   UNL     1      -8.490   7.526  71.670  1.00  0.00    -0.110 N  
HETATM   54  C   UNL     1      -7.015   5.567  71.478  1.00  0.00    -0.067 C  
HETATM   55  H   UNL     1      -8.661   7.305  70.689  1.00  0.00     0.000 HD 
ENDBRANCH   9  48
TORSDOF 12
ENDMDL
MODEL      100
REMARK 921   NORMALIZED FREE ENERGY PREDICTED BY IDOCK:    1.35 KCAL/MOL
REMARK 922        TOTAL FREE ENERGY PREDICTED BY IDOCK:   -1.80 KCAL/MOL
REMARK 923 INTER-LIGAND FREE ENERGY PREDICTED BY IDOCK:   -5.87 KCAL/MOL
REMARK 924 INTRA-LIGAND FREE ENERGY PREDICTED BY IDOCK:    4.07 KCAL/MOL
REMARK 927      BINDING AFFINITY PREDICTED BY RF-SCORE:    0.00 PKD
ROOT
HETATM    1  C   UNL     1      -9.862  13.826  64.907  1.00  0.00    -0.032 C  
HETATM    2  C   UNL     1     -10.157  15.324  65.061  1.00  0.00    -0.250 C  
HETATM    3  C   UNL     1     -11.590  15.586  65.515  1.00  0.00     0.107 C  
HETATM    4  C   UNL     1     -12.593  14.954  64.557  1.00  0.00    -0.065 C  
HETATM    5  C   UNL     1     -12.349  13.457  64.390  1.00  0.00    -0.399 C  
HETATM    6  C   UNL     1     -10.896  13.135  64.019  1.00  0.00    -0.348 C  
HETATM    7  C   UNL     1     -10.599  11.634  64.003  1.00  0.00    -0.373 C  
HETATM    8  N   UNL     1     -10.757  10.962  65.302  1.00  0.00    -0.181 NA 
HETATM    9  C   UNL     1     -10.244  11.729  66.468  1.00  0.00    -0.208 C  
HETATM   10  C   UNL     1      -9.667  13.145  66.268  1.00  0.00    -0.269 C  
ENDROOT
BRANCH   8  11
HETATM   11  C   UNL     1     -10.125   9.613  65.212  1.00  0.00     0.063 C  
BRANCH  11  12
HETATM   12  C   UNL     1      -9.193   9.206  66.385  1.00  0.00    -0.183 C  
HETATM   13  H   UNL     1      -8.067   7.660  66.820  1.00  0.00     0.000 HD 
HETATM   14  O   UNL     1      -8.637   7.910  66.103  1.00  0.00    -0.134 OA 
BRANCH  12  15
HETATM   15  C   UNL     1      -8.014  10.194  66.614  1.00  0.00    -0.116 C  
BRANCH  15  16
HETATM   16  N   UNL     1      -7.803  10.395  68.061  1.00  0.00    -0.103 N  
HETATM   17  C   UNL     1      -7.352   9.377  68.881  1.00  0.00    -0.073 C  
HETATM   18  O   UNL     1      -7.223   8.214  68.493  1.00  0.00    -0.084 OA 
HETATM   19  H   UNL     1      -7.995  11.310  68.469  1.00  0.00     0.000 HD 
BRANCH  17  20
HETATM   20  C   UNL     1      -7.090   9.784  70.346  1.00  0.00    -0.141 C  
BRANCH  20  21
HETATM   21  N   UNL     1      -7.552   8.716  71.229  1.00  0.00    -0.101 N  
HETATM   22  H   UNL     1      -7.042   8.556  72.098  1.00  0.00     0.000 HD 
HETATM   23  C   UNL     1      -8.634   7.917  70.956  1.00  0.00    -0.131 C  
HETATM   24  O   UNL     1      -9.360   8.085  69.979  1.00  0.00    -0.156 OA 
BRANCH  23  25
HETATM   25  C   UNL     1      -8.914   6.846  71.957  1.00  0.00    -0.133 A  
HETATM   26  N   UNL     1      -8.685   5.567  71.551  1.00  0.00    -0.134 NA 
HETATM   27  C   UNL     1      -8.983   4.581  72.414  1.00  0.00    -0.124 A  
HETATM   28  C   UNL     1      -9.492   4.832  73.708  1.00  0.00    -0.128 A  
HETATM   29  C   UNL     1      -9.676   6.164  74.103  1.00  0.00    -0.222 A  
HETATM   30  C   UNL     1      -9.811   3.767  74.565  1.00  0.00    -0.179 A  
HETATM   31  C   UNL     1      -9.387   7.191  73.213  1.00  0.00    -0.205 A  
HETATM   32  C   UNL     1      -9.635   2.451  74.147  1.00  0.00    -0.113 A  
HETATM   33  C   UNL     1      -9.123   2.196  72.878  1.00  0.00    -0.090 A  
HETATM   34  C   UNL     1      -8.799   3.259  72.029  1.00  0.00    -0.123 A  
ENDBRANCH  23  25
ENDBRANCH  20  21
BRANCH  20  35
HETATM   35  C   UNL     1      -5.646  10.212  70.602  1.00  0.00    -0.078 C  
BRANCH  35  36
HETATM   36  C   UNL     1      -5.501  11.675  70.948  1.00  0.00    -0.104 C  
HETATM   37  N   UNL     1      -5.372  12.530  69.898  1.00  0.00    -0.083 N  
HETATM   38  O   UNL     1      -5.461  12.082  72.103  1.00  0.00    -0.248 OA 
HETATM   39  H2  UNL     1      -5.374  12.203  68.933  1.00  0.00     0.000 HD 
HETATM   40  H1  UNL     1      -5.275  13.518  70.132  1.00  0.00     0.000 HD 
ENDBRANCH  35  36
ENDBRANCH  20  35
ENDBRANCH  17  20
ENDBRANCH  15  16
BRANCH  15  41
HETATM   41  C   UNL     1      -6.702   9.769  65.906  1.00  0.00    -0.091 C  
BRANCH  41  42
HETATM   42  C   UNL     1      -6.794   8.652  64.888  1.00  0.00    -0.072 A  
HETATM   43  C   UNL     1      -7.395   8.858  63.639  1.00  0.00    -0.102 A  
HETATM   44  C   UNL     1      -6.763   6.631  62.924  1.00  0.00    -0.042 A  
HETATM   45  C   UNL     1      -7.384   7.853  62.666  1.00  0.00    -0.101 A  
HETATM   46  C   UNL     1      -6.181   7.413  65.135  1.00  0.00    -0.038 A  
HETATM   47  C   UNL     1      -6.165   6.411  64.162  1.00  0.00    -0.030 A  
ENDBRANCH  41  42
ENDBRANCH  15  41
ENDBRANCH  12  15
ENDBRANCH  11  12
ENDBRANCH   8  11
BRANCH   9  48
HETATM   48  C   UNL     1     -11.322  11.775  67.598  1.00  0.00    -0.302 C  
HETATM   49  C   UNL     1     -13.167  10.156  69.457  1.00  0.00     1.621 C  
HETATM   50  O   UNL     1     -12.391  12.358  67.430  1.00  0.00    -0.343 OA 
HETATM   51  C   UNL     1     -12.339  12.283  70.524  1.00  0.00    -0.349 C  
HETATM   52  C   UNL     1     -11.919  10.937  69.908  1.00  0.00    -0.353 C  
HETATM   53  N   UNL     1     -10.987  11.147  68.784  1.00  0.00    -0.201 N  
HETATM   54  C   UNL     1     -11.215  10.111  71.003  1.00  0.00    -0.322 C  
HETATM   55  H   UNL     1     -10.031  10.806  68.889  1.00  0.00     0.000 HD 
ENDBRANCH   9  48
TORSDOF 12
ENDMDL
MODEL      101
REMARK 921   NORMALIZED FREE ENERGY PREDICTED BY IDOCK:    2.21 KCAL/MOL
REMARK 922        TOTAL FREE ENERGY PREDICTED BY IDOCK:   -0.34 KCAL/MOL
REMARK 923 INTER-LIGAND FREE ENERGY PREDICTED BY IDOCK:   -1.72 KCAL/MOL
REMARK 924 INTRA-LIGAND FREE ENERGY PREDICTED BY IDOCK:    1.38 KCAL/MOL
REMARK 927      BINDING AFFINITY PREDICTED BY RF-SCORE:    0.00 PKD
ROOT
HETATM    1  C   UNL     1     -10.264  13.611  66.096  1.00  0.00    -0.306 C  
HETATM    2  C   UNL     1     -10.324  15.144  66.042  1.00  0.00    -0.326 C  
HETATM    3  C   UNL     1     -11.684  15.683  66.477  1.00  0.00     0.427 C  
HETATM    4  C   UNL     1     -12.805  15.089  65.632  1.00  0.00     0.596 C  
HETATM    5  C   UNL     1     -12.796  13.564  65.674  1.00  0.00    -0.380 C  
HETATM    6  C   UNL     1     -11.422  12.973  65.329  1.00  0.00    -0.340 C  
HETATM    7  C   UNL     1     -11.356  11.457  65.521  1.00  0.00     0.003 C  
HETATM    8  N   UNL     1     -11.566  11.001  66.903  1.00  0.00    -0.311 NA 
HETATM    9  C   UNL     1     -10.900  11.831  67.942  1.00  0.00    -0.211 C  
HETATM   10  C   UNL     1     -10.125  13.101  67.536  1.00  0.00    -0.222 C  
ENDROOT
BRANCH   8  11
HETATM   11  C   UNL     1     -11.148   9.571  66.995  1.00  0.00     0.289 C  
BRANCH  11  12
HETATM   12  C   UNL     1     -10.128   9.218  68.110  1.00  0.00    -0.187 C  
HETATM   13  H   UNL     1      -9.232   7.590  68.737  1.00  0.00     0.000 HD 
HETATM   14  O   UNL     1      -9.856   7.806  68.055  1.00  0.00    -0.153 OA 
BRANCH  12  15
HETATM   15  C   UNL     1      -8.776   9.973  67.977  1.00  0.00    -0.125 C  
BRANCH  15  16
HETATM   16  N   UNL     1      -8.127  10.077  69.299  1.00  0.00    -0.127 N  
HETATM   17  C   UNL     1      -7.421   9.024  69.850  1.00  0.00    -0.065 C  
HETATM   18  O   UNL     1      -7.393   7.901  69.344  1.00  0.00    -0.077 OA 
HETATM   19  H   UNL     1      -8.203  10.950  69.822  1.00  0.00     0.000 HD 
BRANCH  17  20
HETATM   20  C   UNL     1      -6.723   9.334  71.191  1.00  0.00    -0.072 C  
BRANCH  20  21
HETATM   21  N   UNL     1      -6.518  10.776  71.301  1.00  0.00     0.546 N  
HETATM   22  H   UNL     1      -6.926  11.260  72.101  1.00  0.00     0.000 HD 
HETATM   23  C   UNL     1      -5.808  11.516  70.389  1.00  0.00    -0.155 C  
HETATM   24  O   UNL     1      -5.210  11.014  69.440  1.00  0.00    -0.041 OA 
BRANCH  23  25
HETATM   25  C   UNL     1      -5.758  12.985  70.650  1.00  0.00    -0.165 A  
HETATM   26  N   UNL     1      -5.916  13.794  69.566  1.00  0.00    -0.100 NA 
HETATM   27  C   UNL     1      -5.819  15.120  69.765  1.00  0.00    -0.126 A  
HETATM   28  C   UNL     1      -5.586  15.681  71.040  1.00  0.00     0.076 A  
HETATM   29  C   UNL     1      -5.468  14.816  72.136  1.00  0.00     0.043 A  
HETATM   30  C   UNL     1      -5.468  17.072  71.193  1.00  0.00     0.128 A  
HETATM   31  C   UNL     1      -5.550  13.444  71.941  1.00  0.00     0.034 A  
HETATM   32  C   UNL     1      -5.573  17.912  70.088  1.00  0.00    -0.243 A  
HETATM   33  C   UNL     1      -5.814  17.367  68.830  1.00  0.00    -0.175 A  
HETATM   34  C   UNL     1      -5.939  15.982  68.682  1.00  0.00    -0.104 A  
ENDBRANCH  23  25
ENDBRANCH  20  21
BRANCH  20  35
HETATM   35  C   UNL     1      -7.433   8.719  72.395  1.00  0.00     0.066 C  
BRANCH  35  36
HETATM   36  C   UNL     1      -8.889   8.407  72.144  1.00  0.00    -0.217 C  
HETATM   37  N   UNL     1      -9.748   8.695  73.159  1.00  0.00     0.119 N  
HETATM   38  O   UNL     1      -9.287   7.887  71.109  1.00  0.00    -0.148 OA 
HETATM   39  H2  UNL     1      -9.428   9.099  74.038  1.00  0.00     0.000 HD 
HETATM   40  H1  UNL     1     -10.731   8.484  72.989  1.00  0.00     0.000 HD 
ENDBRANCH  35  36
ENDBRANCH  20  35
ENDBRANCH  17  20
ENDBRANCH  15  16
BRANCH  15  41
HETATM   41  C   UNL     1      -7.818   9.352  66.926  1.00  0.00    -0.105 C  
BRANCH  41  42
HETATM   42  C   UNL     1      -8.287   9.336  65.486  1.00  0.00    -0.139 A  
HETATM   43  C   UNL     1      -8.429   8.131  64.785  1.00  0.00    -0.064 A  
HETATM   44  C   UNL     1      -9.368   9.305  62.883  1.00  0.00     0.407 A  
HETATM   45  C   UNL     1      -8.961   8.117  63.491  1.00  0.00     0.881 A  
HETATM   46  C   UNL     1      -8.693  10.525  64.858  1.00  0.00    -0.192 A  
HETATM   47  C   UNL     1      -9.229  10.510  63.568  1.00  0.00    -0.300 A  
ENDBRANCH  41  42
ENDBRANCH  15  41
ENDBRANCH  12  15
ENDBRANCH  11  12
ENDBRANCH   8  11
BRANCH   9  48
HETATM   48  C   UNL     1     -11.917  12.198  69.070  1.00  0.00    -0.247 C  
HETATM   49  C   UNL     1     -12.389  12.529  72.095  1.00  0.00     0.778 C  
HETATM   50  O   UNL     1     -12.961  11.564  69.214  1.00  0.00     0.316 OA 
HETATM   51  C   UNL     1     -13.734  14.156  70.719  1.00  0.00     0.185 C  
HETATM   52  C   UNL     1     -12.314  13.683  71.078  1.00  0.00    -0.354 C  
HETATM   53  N   UNL     1     -11.578  13.278  69.866  1.00  0.00    -0.489 N  
HETATM   54  C   UNL     1     -11.577  14.858  71.751  1.00  0.00    -0.344 C  
HETATM   55  H   UNL     1     -10.765  13.832  69.596  1.00  0.00     0.000 HD 
ENDBRANCH   9  48
TORSDOF 12
ENDMDL
MODEL      102
REMARK 921   NORMALIZED FREE ENERGY PREDICTED BY IDOCK:    2.80 KCAL/MOL
REMARK 922        TOTAL FREE ENERGY PREDICTED BY IDOCK:    0.66 KCAL/MOL
REMARK 923 INTER-LIGAND FREE ENERGY PREDICTED BY IDOCK:   -1.54 KCAL/MOL
REMARK 924 INTRA-LIGAND FREE ENERGY PREDICTED BY IDOCK:    2.21 KCAL/MOL
REMARK 927      BINDING AFFINITY PREDICTED BY RF-SCORE:    0.00 PKD
ROOT
HETATM    1  C   UNL     1      -7.638   9.218  68.685  1.00  0.00    -0.081 C  
HETATM    2  C   UNL     1      -7.562   8.767  70.150  1.00  0.00    -0.072 C  
HETATM    3  C   UNL     1      -6.496   9.529  70.933  1.00  0.00    -0.094 C  
HETATM    4  C   UNL     1      -5.129   9.391  70.274  1.00  0.00    -0.027 C  
HETATM    5  C   UNL     1      -5.154   9.849  68.818  1.00  0.00    -0.036 C  
HETATM    6  C   UNL     1      -6.269   9.175  68.008  1.00  0.00    -0.051 C  
HETATM    7  C   UNL     1      -6.407   9.739  66.593  1.00  0.00    -0.066 C  
HETATM    8  N   UNL     1      -6.777  11.162  66.531  1.00  0.00    -0.138 NA 
HETATM    9  C   UNL     1      -7.807  11.582  67.517  1.00  0.00    -0.133 C  
HETATM   10  C   UNL     1      -8.351  10.570  68.546  1.00  0.00    -0.129 C  
ENDROOT
BRANCH   8  11
HETATM   11  C   UNL     1      -7.196  11.477  65.133  1.00  0.00     1.450 C  
BRANCH  11  12
HETATM   12  C   UNL     1      -7.867  10.328  64.335  1.00  0.00    -0.117 C  
HETATM   13  H   UNL     1      -7.940   8.373  64.471  1.00  0.00     0.000 HD 
HETATM   14  O   UNL     1      -7.529   9.077  64.959  1.00  0.00    -0.094 OA 
BRANCH  12  15
HETATM   15  C   UNL     1      -9.417  10.433  64.278  1.00  0.00    -0.294 C  
BRANCH  15  16
HETATM   16  N   UNL     1      -9.940  10.848  65.595  1.00  0.00    -0.239 N  
HETATM   17  C   UNL     1     -11.024  10.221  66.180  1.00  0.00     0.256 C  
HETATM   18  O   UNL     1     -11.700   9.372  65.596  1.00  0.00     3.995 OA 
HETATM   19  H   UNL     1      -9.490  11.620  66.087  1.00  0.00     0.000 HD 
BRANCH  17  20
HETATM   20  C   UNL     1     -11.376  10.712  67.600  1.00  0.00    -0.207 C  
BRANCH  20  21
HETATM   21  N   UNL     1     -11.072   9.655  68.561  1.00  0.00    -0.474 N  
HETATM   22  H   UNL     1     -10.916   8.712  68.206  1.00  0.00     0.000 HD 
HETATM   23  C   UNL     1     -10.985   9.861  69.916  1.00  0.00    -0.281 C  
HETATM   24  O   UNL     1     -11.075  10.973  70.432  1.00  0.00    -0.165 OA 
BRANCH  23  25
HETATM   25  C   UNL     1     -10.718   8.643  70.737  1.00  0.00    -0.216 A  
HETATM   26  N   UNL     1      -9.932   8.818  71.836  1.00  0.00    -0.317 NA 
HETATM   27  C   UNL     1      -9.630   7.727  72.560  1.00  0.00    -0.192 A  
HETATM   28  C   UNL     1     -10.114   6.441  72.233  1.00  0.00    -0.193 A  
HETATM   29  C   UNL     1     -10.952   6.309  71.118  1.00  0.00    -0.336 A  
HETATM   30  C   UNL     1      -9.751   5.327  73.007  1.00  0.00    -0.164 A  
HETATM   31  C   UNL     1     -11.258   7.427  70.352  1.00  0.00    -0.284 A  
HETATM   32  C   UNL     1      -8.904   5.479  74.102  1.00  0.00    -0.119 A  
HETATM   33  C   UNL     1      -8.433   6.744  74.437  1.00  0.00    -0.174 A  
HETATM   34  C   UNL     1      -8.803   7.853  73.668  1.00  0.00    -0.336 A  
ENDBRANCH  23  25
ENDBRANCH  20  21
BRANCH  20  35
HETATM   35  C   UNL     1     -10.743  12.058  67.945  1.00  0.00    -0.243 C  
BRANCH  35  36
HETATM   36  C   UNL     1     -11.750  13.131  68.288  1.00  0.00    -0.349 C  
HETATM   37  N   UNL     1     -11.295  14.412  68.259  1.00  0.00    -0.273 N  
HETATM   38  O   UNL     1     -12.903  12.877  68.613  1.00  0.00     0.864 OA 
HETATM   39  H2  UNL     1     -10.329  14.636  68.019  1.00  0.00     0.000 HD 
HETATM   40  H1  UNL     1     -11.975  15.136  68.490  1.00  0.00     0.000 HD 
ENDBRANCH  35  36
ENDBRANCH  20  35
ENDBRANCH  17  20
ENDBRANCH  15  16
BRANCH  15  41
HETATM   41  C   UNL     1      -9.935  11.360  63.147  1.00  0.00    -0.402 C  
BRANCH  41  42
HETATM   42  C   UNL     1     -10.809  12.528  63.555  1.00  0.00    -0.443 A  
HETATM   43  C   UNL     1     -12.206  12.437  63.508  1.00  0.00    -0.661 A  
HETATM   44  C   UNL     1     -12.421  14.628  64.522  1.00  0.00    -0.312 A  
HETATM   45  C   UNL     1     -13.006  13.482  63.983  1.00  0.00     0.476 A  
HETATM   46  C   UNL     1     -10.234  13.692  64.092  1.00  0.00     0.342 A  
HETATM   47  C   UNL     1     -11.033  14.732  64.571  1.00  0.00    -0.227 A  
ENDBRANCH  41  42
ENDBRANCH  15  41
ENDBRANCH  12  15
ENDBRANCH  11  12
ENDBRANCH   8  11
BRANCH   9  48
HETATM   48  C   UNL     1      -7.336  12.867  68.271  1.00  0.00    -0.118 C  
HETATM   49  C   UNL     1      -5.272  15.148  68.419  1.00  0.00    -0.108 C  
HETATM   50  O   UNL     1      -7.031  12.828  69.461  1.00  0.00     0.025 OA 
HETATM   51  C   UNL     1      -7.566  15.863  69.178  1.00  0.00    -0.213 C  
HETATM   52  C   UNL     1      -6.745  15.311  68.000  1.00  0.00    -0.144 C  
HETATM   53  N   UNL     1      -7.309  14.033  67.526  1.00  0.00    -0.199 N  
HETATM   54  C   UNL     1      -6.798  16.344  66.857  1.00  0.00    -0.231 C  
HETATM   55  H   UNL     1      -7.706  14.008  66.587  1.00  0.00     0.000 HD 
ENDBRANCH   9  48
TORSDOF 12
ENDMDL
MODEL      103
REMARK 921   NORMALIZED FREE ENERGY PREDICTED BY IDOCK:    3.63 KCAL/MOL
REMARK 922        TOTAL FREE ENERGY PREDICTED BY IDOCK:    2.08 KCAL/MOL
REMARK 923 INTER-LIGAND FREE ENERGY PREDICTED BY IDOCK:    0.67 KCAL/MOL
REMARK 924 INTRA-LIGAND FREE ENERGY PREDICTED BY IDOCK:    1.40 KCAL/MOL
REMARK 927      BINDING AFFINITY PREDICTED BY RF-SCORE:    0.00 PKD
ROOT
HETATM    1  C   UNL     1     -13.234   8.110  71.619  1.00  0.00    -0.357 C  
HETATM    2  C   UNL     1     -14.289   7.322  72.407  1.00  0.00    -0.024 C  
HETATM    3  C   UNL     1     -13.762   5.972  72.885  1.00  0.00     1.539 C  
HETATM    4  C   UNL     1     -13.254   5.136  71.716  1.00  0.00     3.435 C  
HETATM    5  C   UNL     1     -12.186   5.875  70.916  1.00  0.00     0.902 C  
HETATM    6  C   UNL     1     -12.636   7.277  70.486  1.00  0.00     0.069 C  
HETATM    7  C   UNL     1     -11.522   8.087  69.821  1.00  0.00     0.247 C  
HETATM    8  N   UNL     1     -10.367   8.371  70.686  1.00  0.00    -0.194 NA 
HETATM    9  C   UNL     1     -10.710   8.737  72.086  1.00  0.00    -0.313 C  
HETATM   10  C   UNL     1     -12.182   8.730  72.548  1.00  0.00    -0.347 C  
ENDROOT
BRANCH   8  11
HETATM   11  C   UNL     1      -9.537   9.426  70.032  1.00  0.00    -0.226 C  
BRANCH  11  12
HETATM   12  C   UNL     1      -8.063   9.538  70.504  1.00  0.00    -0.166 C  
HETATM   13  H   UNL     1      -7.084   9.185  72.166  1.00  0.00     0.000 HD 
HETATM   14  O   UNL     1      -7.986   9.117  71.877  1.00  0.00    -0.334 OA 
BRANCH  12  15
HETATM   15  C   UNL     1      -7.078   8.665  69.677  1.00  0.00    -0.055 C  
BRANCH  15  16
HETATM   16  N   UNL     1      -7.184   9.008  68.245  1.00  0.00    -0.078 N  
HETATM   17  C   UNL     1      -7.941   8.255  67.368  1.00  0.00    -0.106 C  
HETATM   18  O   UNL     1      -8.467   7.187  67.687  1.00  0.00    -0.119 OA 
HETATM   19  H   UNL     1      -6.683   9.825  67.893  1.00  0.00     0.000 HD 
BRANCH  17  20
HETATM   20  C   UNL     1      -8.025   8.811  65.931  1.00  0.00    -0.104 C  
BRANCH  20  21
HETATM   21  N   UNL     1      -8.254  10.252  65.988  1.00  0.00    -0.135 N  
HETATM   22  H   UNL     1      -7.500  10.846  66.334  1.00  0.00     0.000 HD 
HETATM   23  C   UNL     1      -9.427  10.852  65.602  1.00  0.00    -0.215 C  
HETATM   24  O   UNL     1     -10.361  10.233  65.097  1.00  0.00    -0.286 OA 
BRANCH  23  25
HETATM   25  C   UNL     1      -9.486  12.332  65.787  1.00  0.00    -0.121 A  
HETATM   26  N   UNL     1      -8.851  12.827  66.886  1.00  0.00    -0.212 NA 
HETATM   27  C   UNL     1      -8.936  14.150  67.106  1.00  0.00    -0.225 A  
HETATM   28  C   UNL     1      -9.630  15.021  66.237  1.00  0.00    -0.335 A  
HETATM   29  C   UNL     1     -10.235  14.478  65.096  1.00  0.00    -0.420 A  
HETATM   30  C   UNL     1      -9.711  16.393  66.522  1.00  0.00    -0.287 A  
HETATM   31  C   UNL     1     -10.168  13.110  64.866  1.00  0.00    -0.306 A  
HETATM   32  C   UNL     1      -9.114  16.909  67.670  1.00  0.00    -0.223 A  
HETATM   33  C   UNL     1      -8.421  16.058  68.525  1.00  0.00    -0.189 A  
HETATM   34  C   UNL     1      -8.334  14.693  68.234  1.00  0.00    -0.148 A  
ENDBRANCH  23  25
ENDBRANCH  20  21
BRANCH  20  35
HETATM   35  C   UNL     1      -6.834   8.411  65.062  1.00  0.00    -0.067 C  
BRANCH  35  36
HETATM   36  C   UNL     1      -7.193   7.465  63.941  1.00  0.00    -0.078 C  
HETATM   37  N   UNL     1      -6.409   6.361  63.814  1.00  0.00    -0.029 N  
HETATM   38  O   UNL     1      -8.110   7.682  63.158  1.00  0.00    -0.133 OA 
HETATM   39  H2  UNL     1      -5.623   6.182  64.439  1.00  0.00     0.000 HD 
HETATM   40  H1  UNL     1      -6.652   5.722  63.057  1.00  0.00     0.000 HD 
ENDBRANCH  35  36
ENDBRANCH  20  35
ENDBRANCH  17  20
ENDBRANCH  15  16
BRANCH  15  41
HETATM   41  C   UNL     1      -5.610   8.749  70.171  1.00  0.00    -0.027 C  
BRANCH  41  42
HETATM   42  C   UNL     1      -5.371   9.367  71.533  1.00  0.00    -0.062 A  
HETATM   43  C   UNL     1      -5.264  10.755  71.689  1.00  0.00     0.023 A  
HETATM   44  C   UNL     1      -5.147  10.514  74.097  1.00  0.00     0.109 A  
HETATM   45  C   UNL     1      -5.148  11.324  72.962  1.00  0.00     0.451 A  
HETATM   46  C   UNL     1      -5.360   8.564  72.685  1.00  0.00    -0.048 A  
HETATM   47  C   UNL     1      -5.250   9.132  73.956  1.00  0.00    -0.113 A  
ENDBRANCH  41  42
ENDBRANCH  15  41
ENDBRANCH  12  15
ENDBRANCH  11  12
ENDBRANCH   8  11
BRANCH   9  48
HETATM   48  C   UNL     1      -9.862   7.888  73.087  1.00  0.00    -0.290 C  
HETATM   49  C   UNL     1      -9.161   5.072  74.116  1.00  0.00    -0.117 C  
HETATM   50  O   UNL     1      -9.962   8.052  74.301  1.00  0.00     0.817 OA 
HETATM   51  C   UNL     1      -7.202   6.654  74.208  1.00  0.00    -0.094 C  
HETATM   52  C   UNL     1      -8.226   5.970  73.285  1.00  0.00    -0.115 C  
HETATM   53  N   UNL     1      -8.990   6.974  72.522  1.00  0.00    -0.128 N  
HETATM   54  C   UNL     1      -7.453   5.067  72.304  1.00  0.00    -0.093 C  
HETATM   55  H   UNL     1      -8.869   6.994  71.509  1.00  0.00     0.000 HD 
ENDBRANCH   9  48
TORSDOF 12
ENDMDL
MODEL      104
REMARK 921   NORMALIZED FREE ENERGY PREDICTED BY IDOCK:    3.76 KCAL/MOL
REMARK 922        TOTAL FREE ENERGY PREDICTED BY IDOCK:    2.30 KCAL/MOL
REMARK 923 INTER-LIGAND FREE ENERGY PREDICTED BY IDOCK:   -2.04 KCAL/MOL
REMARK 924 INTRA-LIGAND FREE ENERGY PREDICTED BY IDOCK:    4.34 KCAL/MOL
REMARK 927      BINDING AFFINITY PREDICTED BY RF-SCORE:    0.00 PKD
ROOT
HETATM    1  C   UNL     1      -8.154  14.268  69.916  1.00  0.00     0.796 C  
HETATM    2  C   UNL     1      -8.691  15.702  70.017  1.00  0.00     0.451 C  
HETATM    3  C   UNL     1      -8.866  16.350  68.645  1.00  0.00    -0.234 C  
HETATM    4  C   UNL     1      -7.558  16.338  67.863  1.00  0.00    -0.148 C  
HETATM    5  C   UNL     1      -6.998  14.926  67.721  1.00  0.00    -0.193 C  
HETATM    6  C   UNL     1      -6.885  14.198  69.067  1.00  0.00    -0.110 C  
HETATM    7  C   UNL     1      -6.476  12.732  68.923  1.00  0.00    -0.091 C  
HETATM    8  N   UNL     1      -7.432  11.895  68.183  1.00  0.00    -0.092 NA 
HETATM    9  C   UNL     1      -8.862  12.158  68.492  1.00  0.00    -0.079 C  
HETATM   10  C   UNL     1      -9.246  13.285  69.472  1.00  0.00     1.403 C  
ENDROOT
BRANCH   8  11
HETATM   11  C   UNL     1      -7.077  10.463  68.409  1.00  0.00    -0.078 C  
BRANCH  11  12
HETATM   12  C   UNL     1      -8.254   9.452  68.424  1.00  0.00    -0.117 C  
HETATM   13  H   UNL     1      -9.991   9.325  69.325  1.00  0.00     0.000 HD 
HETATM   14  O   UNL     1      -9.271   9.943  69.315  1.00  0.00    -0.174 OA 
BRANCH  12  15
HETATM   15  C   UNL     1      -8.903   9.232  67.029  1.00  0.00    -0.123 C  
BRANCH  15  16
HETATM   16  N   UNL     1      -7.947   8.552  66.133  1.00  0.00    -0.100 N  
HETATM   17  C   UNL     1      -6.648   8.282  66.522  1.00  0.00    -0.056 C  
HETATM   18  O   UNL     1      -6.166   8.700  67.576  1.00  0.00    -0.051 OA 
HETATM   19  H   UNL     1      -8.253   8.273  65.200  1.00  0.00     0.000 HD 
BRANCH  17  20
HETATM   20  C   UNL     1      -5.814   7.477  65.503  1.00  0.00    -0.037 C  
BRANCH  20  21
HETATM   21  N   UNL     1      -6.644   6.416  64.937  1.00  0.00    -0.038 N  
HETATM   22  H   UNL     1      -7.533   6.207  65.392  1.00  0.00     0.000 HD 
HETATM   23  C   UNL     1      -6.294   5.686  63.828  1.00  0.00    -0.025 C  
HETATM   24  O   UNL     1      -5.286   5.919  63.165  1.00  0.00    -0.016 OA 
BRANCH  23  25
HETATM   25  C   UNL     1      -7.251   4.610  63.437  1.00  0.00    -0.049 A  
HETATM   26  N   UNL     1      -8.546   4.991  63.256  1.00  0.00    -0.130 NA 
HETATM   27  C   UNL     1      -9.438   4.031  62.959  1.00  0.00    -0.135 A  
HETATM   28  C   UNL     1      -9.072   2.675  62.811  1.00  0.00    -0.087 A  
HETATM   29  C   UNL     1      -7.723   2.329  62.965  1.00  0.00    -0.058 A  
HETATM   30  C   UNL     1     -10.045   1.704  62.524  1.00  0.00    -0.095 A  
HETATM   31  C   UNL     1      -6.795   3.310  63.289  1.00  0.00    -0.035 A  
HETATM   32  C   UNL     1     -11.383   2.068  62.389  1.00  0.00    -0.206 A  
HETATM   33  C   UNL     1     -11.748   3.404  62.523  1.00  0.00     0.939 A  
HETATM   34  C   UNL     1     -10.776   4.370  62.801  1.00  0.00     0.179 A  
ENDBRANCH  23  25
ENDBRANCH  20  21
BRANCH  20  35
HETATM   35  C   UNL     1      -5.137   8.354  64.453  1.00  0.00    -0.036 C  
BRANCH  35  36
HETATM   36  C   UNL     1      -6.049   9.399  63.857  1.00  0.00    -0.091 C  
HETATM   37  N   UNL     1      -5.785  10.690  64.194  1.00  0.00    -0.344 N  
HETATM   38  O   UNL     1      -7.002   9.116  63.140  1.00  0.00    -0.090 OA 
HETATM   39  H2  UNL     1      -5.015  10.939  64.814  1.00  0.00     0.000 HD 
HETATM   40  H1  UNL     1      -6.402  11.396  63.792  1.00  0.00     0.000 HD 
ENDBRANCH  35  36
ENDBRANCH  20  35
ENDBRANCH  17  20
ENDBRANCH  15  16
BRANCH  15  41
HETATM   41  C   UNL     1     -10.257   8.478  67.086  1.00  0.00    -0.355 C  
BRANCH  41  42
HETATM   42  C   UNL     1     -10.207   6.964  67.100  1.00  0.00    -0.308 A  
HETATM   43  C   UNL     1     -10.677   6.215  66.013  1.00  0.00     0.540 A  
HETATM   44  C   UNL     1      -9.907   4.162  67.046  1.00  0.00    -0.190 A  
HETATM   45  C   UNL     1     -10.532   4.823  65.989  1.00  0.00    -0.332 A  
HETATM   46  C   UNL     1      -9.587   6.283  68.160  1.00  0.00    -0.115 A  
HETATM   47  C   UNL     1      -9.438   4.895  68.134  1.00  0.00    -0.178 A  
ENDBRANCH  41  42
ENDBRANCH  15  41
ENDBRANCH  12  15
ENDBRANCH  11  12
ENDBRANCH   8  11
BRANCH   9  48
HETATM   48  C   UNL     1      -9.675  12.338  67.170  1.00  0.00    -0.201 C  
HETATM   49  C   UNL     1     -11.986  13.799  65.754  1.00  0.00    -0.423 C  
HETATM   50  O   UNL     1     -10.269  11.392  66.657  1.00  0.00    -0.210 OA 
HETATM   51  C   UNL     1     -10.078  13.262  64.197  1.00  0.00     0.070 C  
HETATM   52  C   UNL     1     -10.489  14.024  65.469  1.00  0.00    -0.327 C  
HETATM   53  N   UNL     1      -9.660  13.606  66.616  1.00  0.00    -0.276 N  
HETATM   54  C   UNL     1     -10.278  15.528  65.213  1.00  0.00    -0.380 C  
HETATM   55  H   UNL     1      -9.036  14.299  67.028  1.00  0.00     0.000 HD 
ENDBRANCH   9  48
TORSDOF 12
ENDMDL
MODEL      105
REMARK 921   NORMALIZED FREE ENERGY PREDICTED BY IDOCK:    4.45 KCAL/MOL
REMARK 922        TOTAL FREE ENERGY PREDICTED BY IDOCK:    3.48 KCAL/MOL
REMARK 923 INTER-LIGAND FREE ENERGY PREDICTED BY IDOCK:    2.68 KCAL/MOL
REMARK 924 INTRA-LIGAND FREE ENERGY PREDICTED BY IDOCK:    0.80 KCAL/MOL
REMARK 927      BINDING AFFINITY PREDICTED BY RF-SCORE:    0.00 PKD
ROOT
HETATM    1  C   UNL     1      -9.827  14.002  67.029  1.00  0.00    -0.260 C  
HETATM    2  C   UNL     1      -9.083  15.273  67.460  1.00  0.00    -0.189 C  
HETATM    3  C   UNL     1      -7.876  14.965  68.342  1.00  0.00    -0.121 C  
HETATM    4  C   UNL     1      -8.287  14.161  69.570  1.00  0.00     0.560 C  
HETATM    5  C   UNL     1      -9.013  12.875  69.187  1.00  0.00     0.713 C  
HETATM    6  C   UNL     1     -10.184  13.123  68.227  1.00  0.00    -0.250 C  
HETATM    7  C   UNL     1     -10.821  11.832  67.711  1.00  0.00    -0.213 C  
HETATM    8  N   UNL     1      -9.926  10.979  66.914  1.00  0.00    -0.191 NA 
HETATM    9  C   UNL     1      -9.048  11.713  65.964  1.00  0.00    -0.182 C  
HETATM   10  C   UNL     1      -9.074  13.254  65.921  1.00  0.00     0.312 C  
ENDROOT
BRANCH   8  11
HETATM   11  C   UNL     1     -10.754   9.953  66.214  1.00  0.00     0.083 C  
BRANCH  11  12
HETATM   12  C   UNL     1     -11.278   8.778  67.082  1.00  0.00     0.869 C  
HETATM   13  H   UNL     1     -12.027   6.998  66.740  1.00  0.00     0.000 HD 
HETATM   14  O   UNL     1     -11.706   7.717  66.209  1.00  0.00     3.160 OA 
BRANCH  12  15
HETATM   15  C   UNL     1     -10.212   8.200  68.055  1.00  0.00    -0.212 C  
BRANCH  15  16
HETATM   16  N   UNL     1     -10.616   8.457  69.451  1.00  0.00    -0.276 N  
HETATM   17  C   UNL     1     -11.731   9.214  69.760  1.00  0.00     0.352 C  
HETATM   18  O   UNL     1     -12.379   9.826  68.910  1.00  0.00     0.817 OA 
HETATM   19  H   UNL     1     -10.057   8.066  70.209  1.00  0.00     0.000 HD 
BRANCH  17  20
HETATM   20  C   UNL     1     -12.067   9.301  71.264  1.00  0.00    -0.337 C  
BRANCH  20  21
HETATM   21  N   UNL     1     -11.338   8.255  71.978  1.00  0.00    -0.301 N  
HETATM   22  H   UNL     1     -10.638   8.539  72.663  1.00  0.00     0.000 HD 
HETATM   23  C   UNL     1     -11.543   6.912  71.778  1.00  0.00    -0.286 C  
HETATM   24  O   UNL     1     -12.419   6.472  71.037  1.00  0.00    -0.252 OA 
BRANCH  23  25
HETATM   25  C   UNL     1     -10.660   6.002  72.565  1.00  0.00    -0.216 A  
HETATM   26  N   UNL     1      -9.319   6.186  72.417  1.00  0.00    -0.146 NA 
HETATM   27  C   UNL     1      -8.503   5.343  73.070  1.00  0.00    -0.118 A  
HETATM   28  C   UNL     1      -8.987   4.311  73.905  1.00  0.00    -0.095 A  
HETATM   29  C   UNL     1     -10.373   4.180  74.064  1.00  0.00    -0.259 A  
HETATM   30  C   UNL     1      -8.094   3.439  74.549  1.00  0.00    -0.069 A  
HETATM   31  C   UNL     1     -11.227   5.035  73.380  1.00  0.00    -0.391 A  
HETATM   32  C   UNL     1      -6.721   3.579  74.365  1.00  0.00    -0.044 A  
HETATM   33  C   UNL     1      -6.236   4.600  73.553  1.00  0.00    -0.037 A  
HETATM   34  C   UNL     1      -7.128   5.471  72.920  1.00  0.00    -0.089 A  
ENDBRANCH  23  25
ENDBRANCH  20  21
BRANCH  20  35
HETATM   35  C   UNL     1     -11.865  10.698  71.846  1.00  0.00     0.774 C  
BRANCH  35  36
HETATM   36  C   UNL     1     -13.024  11.632  71.592  1.00  0.00    -0.378 C  
HETATM   37  N   UNL     1     -12.733  12.782  70.925  1.00  0.00    -0.248 N  
HETATM   38  O   UNL     1     -14.160  11.404  71.990  1.00  0.00     0.373 OA 
HETATM   39  H2  UNL     1     -11.786  13.000  70.614  1.00  0.00     0.000 HD 
HETATM   40  H1  UNL     1     -13.515  13.413  70.753  1.00  0.00     0.000 HD 
ENDBRANCH  35  36
ENDBRANCH  20  35
ENDBRANCH  17  20
ENDBRANCH  15  16
BRANCH  15  41
HETATM   41  C   UNL     1      -9.911   6.696  67.823  1.00  0.00    -0.158 C  
BRANCH  41  42
HETATM   42  C   UNL     1      -8.681   6.123  68.496  1.00  0.00    -0.111 A  
HETATM   43  C   UNL     1      -7.908   6.899  69.370  1.00  0.00    -0.113 A  
HETATM   44  C   UNL     1      -6.526   4.983  69.910  1.00  0.00    -0.035 A  
HETATM   45  C   UNL     1      -6.835   6.334  70.068  1.00  0.00    -0.058 A  
HETATM   46  C   UNL     1      -8.353   4.767  68.341  1.00  0.00    -0.090 A  
HETATM   47  C   UNL     1      -7.285   4.201  69.041  1.00  0.00    -0.054 A  
ENDBRANCH  41  42
ENDBRANCH  15  41
ENDBRANCH  12  15
ENDBRANCH  11  12
ENDBRANCH   8  11
BRANCH   9  48
HETATM   48  C   UNL     1      -7.568  11.236  66.122  1.00  0.00     0.032 C  
HETATM   49  C   UNL     1      -5.442  10.037  67.999  1.00  0.00    -0.038 C  
HETATM   50  O   UNL     1      -6.630  12.006  65.933  1.00  0.00     0.696 OA 
HETATM   51  C   UNL     1      -5.142   9.312  65.605  1.00  0.00    -0.032 C  
HETATM   52  C   UNL     1      -6.093   9.301  66.814  1.00  0.00    -0.064 C  
HETATM   53  N   UNL     1      -7.392   9.905  66.460  1.00  0.00    -0.097 N  
HETATM   54  C   UNL     1      -6.314   7.834  67.233  1.00  0.00    -0.055 C  
HETATM   55  H   UNL     1      -8.214   9.302  66.466  1.00  0.00     0.000 HD 
ENDBRANCH   9  48
TORSDOF 12
ENDMDL
MODEL      106
REMARK 921   NORMALIZED FREE ENERGY PREDICTED BY IDOCK:    7.08 KCAL/MOL
REMARK 922        TOTAL FREE ENERGY PREDICTED BY IDOCK:    7.95 KCAL/MOL
REMARK 923 INTER-LIGAND FREE ENERGY PREDICTED BY IDOCK:    4.20 KCAL/MOL
REMARK 924 INTRA-LIGAND FREE ENERGY PREDICTED BY IDOCK:    3.75 KCAL/MOL
REMARK 927      BINDING AFFINITY PREDICTED BY RF-SCORE:    0.00 PKD
ROOT
HETATM    1  C   UNL     1      -6.462  13.033  71.049  1.00  0.00     1.325 C  
HETATM    2  C   UNL     1      -6.958  14.464  71.296  1.00  0.00     1.422 C  
HETATM    3  C   UNL     1      -7.530  15.102  70.033  1.00  0.00     0.076 C  
HETATM    4  C   UNL     1      -6.505  15.094  68.904  1.00  0.00    -0.098 C  
HETATM    5  C   UNL     1      -5.999  13.685  68.611  1.00  0.00    -0.086 C  
HETATM    6  C   UNL     1      -5.494  12.967  69.868  1.00  0.00    -0.102 C  
HETATM    7  C   UNL     1      -5.132  11.502  69.618  1.00  0.00    -0.057 C  
HETATM    8  N   UNL     1      -6.255  10.654  69.191  1.00  0.00    -0.041 NA 
HETATM    9  C   UNL     1      -7.536  10.909  69.903  1.00  0.00     0.172 C  
HETATM   10  C   UNL     1      -7.627  12.040  70.947  1.00  0.00     5.421 C  
ENDROOT
BRANCH   8  11
HETATM   11  C   UNL     1      -5.838   9.225  69.310  1.00  0.00    -0.035 C  
BRANCH  11  12
HETATM   12  C   UNL     1      -6.971   8.189  69.531  1.00  0.00    -0.050 C  
HETATM   13  H   UNL     1      -8.391   7.913  70.856  1.00  0.00     0.000 HD 
HETATM   14  O   UNL     1      -7.697   8.547  70.720  1.00  0.00    -0.071 OA 
BRANCH  12  15
HETATM   15  C   UNL     1      -7.985   8.115  68.354  1.00  0.00    -0.123 C  
BRANCH  15  16
HETATM   16  N   UNL     1      -7.272   7.815  67.097  1.00  0.00    -0.088 N  
HETATM   17  C   UNL     1      -5.893   7.726  67.044  1.00  0.00    -0.044 C  
HETATM   18  O   UNL     1      -5.168   8.015  67.996  1.00  0.00    -0.030 OA 
HETATM   19  H   UNL     1      -7.811   7.669  66.243  1.00  0.00     0.000 HD 
BRANCH  17  20
HETATM   20  C   UNL     1      -5.317   7.305  65.675  1.00  0.00    -0.028 C  
BRANCH  20  21
HETATM   21  N   UNL     1      -6.130   6.224  65.125  1.00  0.00    -0.029 N  
HETATM   22  H   UNL     1      -6.664   5.645  65.774  1.00  0.00     0.000 HD 
HETATM   23  C   UNL     1      -6.217   5.943  63.784  1.00  0.00    -0.025 C  
HETATM   24  O   UNL     1      -5.680   6.632  62.920  1.00  0.00    -0.033 OA 
BRANCH  23  25
HETATM   25  C   UNL     1      -7.059   4.763  63.426  1.00  0.00    -0.048 A  
HETATM   26  N   UNL     1      -8.367   5.019  63.147  1.00  0.00    -0.114 NA 
HETATM   27  C   UNL     1      -9.159   3.968  62.877  1.00  0.00    -0.115 A  
HETATM   28  C   UNL     1      -8.677   2.641  62.852  1.00  0.00    -0.085 A  
HETATM   29  C   UNL     1      -7.316   2.423  63.104  1.00  0.00    -0.045 A  
HETATM   30  C   UNL     1      -9.549   1.573  62.588  1.00  0.00    -0.088 A  
HETATM   31  C   UNL     1      -6.491   3.500  63.402  1.00  0.00    -0.029 A  
HETATM   32  C   UNL     1     -10.901   1.811  62.355  1.00  0.00    -0.138 A  
HETATM   33  C   UNL     1     -11.381   3.117  62.367  1.00  0.00     0.158 A  
HETATM   34  C   UNL     1     -10.508   4.179  62.622  1.00  0.00    -0.118 A  
ENDBRANCH  23  25
ENDBRANCH  20  21
BRANCH  20  35
HETATM   35  C   UNL     1      -5.125   8.479  64.717  1.00  0.00    -0.035 C  
BRANCH  35  36
HETATM   36  C   UNL     1      -6.222   9.513  64.799  1.00  0.00    -0.081 C  
HETATM   37  N   UNL     1      -5.836  10.772  65.143  1.00  0.00    -0.328 N  
HETATM   38  O   UNL     1      -7.402   9.244  64.609  1.00  0.00    -0.097 OA 
HETATM   39  H2  UNL     1      -4.862  11.003  65.334  1.00  0.00     0.000 HD 
HETATM   40  H1  UNL     1      -6.578  11.470  65.198  1.00  0.00     0.000 HD 
ENDBRANCH  35  36
ENDBRANCH  20  35
ENDBRANCH  17  20
ENDBRANCH  15  16
BRANCH  15  41
HETATM   41  C   UNL     1      -9.146   7.116  68.597  1.00  0.00    -0.133 C  
BRANCH  41  42
HETATM   42  C   UNL     1      -8.883   5.658  68.282  1.00  0.00    -0.108 A  
HETATM   43  C   UNL     1      -9.498   5.031  67.190  1.00  0.00    -0.146 A  
HETATM   44  C   UNL     1      -8.217   3.012  67.580  1.00  0.00    -0.087 A  
HETATM   45  C   UNL     1      -9.171   3.716  66.845  1.00  0.00    -0.204 A  
HETATM   46  C   UNL     1      -7.931   4.934  69.017  1.00  0.00    -0.076 A  
HETATM   47  C   UNL     1      -7.600   3.622  68.670  1.00  0.00    -0.053 A  
ENDBRANCH  41  42
ENDBRANCH  15  41
ENDBRANCH  12  15
ENDBRANCH  11  12
ENDBRANCH   8  11
BRANCH   9  48
HETATM   48  C   UNL     1      -8.699  11.075  68.873  1.00  0.00    -0.117 C  
HETATM   49  C   UNL     1     -11.165   9.787  67.554  1.00  0.00     0.080 C  
HETATM   50  O   UNL     1      -8.469  11.294  67.686  1.00  0.00    -0.120 OA 
HETATM   51  C   UNL     1     -11.399  12.282  67.821  1.00  0.00    -0.362 C  
HETATM   52  C   UNL     1     -11.206  10.949  68.564  1.00  0.00    -0.274 C  
HETATM   53  N   UNL     1      -9.981  10.983  69.385  1.00  0.00    -0.429 N  
HETATM   54  C   UNL     1     -12.426  10.734  69.481  1.00  0.00    -0.090 C  
HETATM   55  H   UNL     1     -10.087  10.937  70.399  1.00  0.00     0.000 HD 
ENDBRANCH   9  48
TORSDOF 12
ENDMDL
MODEL      107
REMARK 921   NORMALIZED FREE ENERGY PREDICTED BY IDOCK:    7.68 KCAL/MOL
REMARK 922        TOTAL FREE ENERGY PREDICTED BY IDOCK:    8.98 KCAL/MOL
REMARK 923 INTER-LIGAND FREE ENERGY PREDICTED BY IDOCK:    3.06 KCAL/MOL
REMARK 924 INTRA-LIGAND FREE ENERGY PREDICTED BY IDOCK:    5.92 KCAL/MOL
REMARK 927      BINDING AFFINITY PREDICTED BY RF-SCORE:    0.00 PKD
ROOT
HETATM    1  C   UNL     1     -11.160   6.407  68.645  1.00  0.00    -0.393 C  
HETATM    2  C   UNL     1     -11.714   5.244  67.810  1.00  0.00     3.573 C  
HETATM    3  C   UNL     1     -10.856   4.958  66.580  1.00  0.00     0.124 C  
HETATM    4  C   UNL     1     -10.713   6.202  65.711  1.00  0.00     1.137 C  
HETATM    5  C   UNL     1     -10.145   7.379  66.498  1.00  0.00    -0.176 C  
HETATM    6  C   UNL     1     -10.922   7.652  67.792  1.00  0.00    -0.021 C  
HETATM    7  C   UNL     1     -10.272   8.725  68.668  1.00  0.00    -0.194 C  
HETATM    8  N   UNL     1      -8.929   8.385  69.162  1.00  0.00    -0.146 NA 
HETATM    9  C   UNL     1      -8.766   6.975  69.607  1.00  0.00    -0.141 C  
HETATM   10  C   UNL     1      -9.936   5.981  69.466  1.00  0.00    -0.225 C  
ENDROOT
BRANCH   8  11
HETATM   11  C   UNL     1      -8.570   9.346  70.246  1.00  0.00    -0.221 C  
BRANCH  11  12
HETATM   12  C   UNL     1      -9.198  10.762  70.151  1.00  0.00     1.123 C  
HETATM   13  H   UNL     1      -8.524  12.603  70.101  1.00  0.00     0.000 HD 
HETATM   14  O   UNL     1      -8.140  11.737  70.160  1.00  0.00     1.607 OA 
BRANCH  12  15
HETATM   15  C   UNL     1     -10.043  10.982  68.865  1.00  0.00    -0.199 C  
BRANCH  15  16
HETATM   16  N   UNL     1     -10.395  12.410  68.734  1.00  0.00    -0.378 N  
HETATM   17  C   UNL     1      -9.428  13.392  68.620  1.00  0.00    -0.036 C  
HETATM   18  O   UNL     1      -8.224  13.162  68.750  1.00  0.00    -0.048 OA 
HETATM   19  H   UNL     1     -11.378  12.681  68.728  1.00  0.00     0.000 HD 
BRANCH  17  20
HETATM   20  C   UNL     1      -9.968  14.819  68.391  1.00  0.00    -0.223 C  
BRANCH  20  21
HETATM   21  N   UNL     1      -9.036  15.553  67.539  1.00  0.00    -0.186 N  
HETATM   22  H   UNL     1      -8.423  15.017  66.923  1.00  0.00     0.000 HD 
HETATM   23  C   UNL     1      -8.938  16.922  67.520  1.00  0.00    -0.206 C  
HETATM   24  O   UNL     1      -9.686  17.656  68.161  1.00  0.00    -0.284 OA 
BRANCH  23  25
HETATM   25  C   UNL     1      -7.886  17.481  66.620  1.00  0.00    -0.250 A  
HETATM   26  N   UNL     1      -8.107  18.736  66.141  1.00  0.00    -0.429 NA 
HETATM   27  C   UNL     1      -7.203  19.240  65.284  1.00  0.00     0.143 A  
HETATM   28  C   UNL     1      -6.047  18.528  64.896  1.00  0.00    -0.154 A  
HETATM   29  C   UNL     1      -5.834  17.256  65.442  1.00  0.00     0.999 A  
HETATM   30  C   UNL     1      -5.143  19.088  63.978  1.00  0.00    -0.254 A  
HETATM   31  C   UNL     1      -6.770  16.717  66.315  1.00  0.00     0.097 A  
HETATM   32  C   UNL     1      -5.382  20.348  63.437  1.00  0.00    -0.253 A  
HETATM   33  C   UNL     1      -6.513  21.060  63.823  1.00  0.00    -0.230 A  
HETATM   34  C   UNL     1      -7.407  20.503  64.743  1.00  0.00     0.376 A  
ENDBRANCH  23  25
ENDBRANCH  20  21
BRANCH  20  35
HETATM   35  C   UNL     1     -11.410  14.843  67.888  1.00  0.00    -0.340 C  
BRANCH  35  36
HETATM   36  C   UNL     1     -12.346  15.635  68.769  1.00  0.00     0.231 C  
HETATM   37  N   UNL     1     -12.878  14.969  69.830  1.00  0.00    -0.600 N  
HETATM   38  O   UNL     1     -12.650  16.798  68.536  1.00  0.00     1.245 OA 
HETATM   39  H2  UNL     1     -12.658  13.992  70.019  1.00  0.00     0.000 HD 
HETATM   40  H1  UNL     1     -13.510  15.505  70.425  1.00  0.00     0.000 HD 
ENDBRANCH  35  36
ENDBRANCH  20  35
ENDBRANCH  17  20
ENDBRANCH  15  16
BRANCH  15  41
HETATM   41  C   UNL     1      -9.364  10.448  67.577  1.00  0.00    -0.163 C  
BRANCH  41  42
HETATM   42  C   UNL     1      -9.789  11.068  66.261  1.00  0.00    -0.257 A  
HETATM   43  C   UNL     1      -8.915  11.111  65.166  1.00  0.00    -0.106 A  
HETATM   44  C   UNL     1     -10.664  12.023  63.759  1.00  0.00    -0.478 A  
HETATM   45  C   UNL     1      -9.349  11.590  63.925  1.00  0.00    -0.048 A  
HETATM   46  C   UNL     1     -11.107  11.515  66.080  1.00  0.00    -0.289 A  
HETATM   47  C   UNL     1     -11.542  11.988  64.840  1.00  0.00    -0.332 A  
ENDBRANCH  41  42
ENDBRANCH  15  41
ENDBRANCH  12  15
ENDBRANCH  11  12
ENDBRANCH   8  11
BRANCH   9  48
HETATM   48  C   UNL     1      -7.489   6.351  68.959  1.00  0.00    -0.095 C  
HETATM   49  C   UNL     1      -5.555   3.956  68.884  1.00  0.00    -0.017 C  
HETATM   50  O   UNL     1      -6.404   6.926  69.013  1.00  0.00    -0.026 OA 
HETATM   51  C   UNL     1      -5.853   5.034  66.626  1.00  0.00    -0.022 C  
HETATM   52  C   UNL     1      -6.569   4.311  67.780  1.00  0.00    -0.043 C  
HETATM   53  N   UNL     1      -7.667   5.140  68.312  1.00  0.00    -0.083 N  
HETATM   54  C   UNL     1      -7.149   2.993  67.230  1.00  0.00    -0.054 C  
HETATM   55  H   UNL     1      -8.620   4.798  68.195  1.00  0.00     0.000 HD 
ENDBRANCH   9  48
TORSDOF 12
ENDMDL
MODEL      108
REMARK 921   NORMALIZED FREE ENERGY PREDICTED BY IDOCK:    8.17 KCAL/MOL
REMARK 922        TOTAL FREE ENERGY PREDICTED BY IDOCK:    9.81 KCAL/MOL
REMARK 923 INTER-LIGAND FREE ENERGY PREDICTED BY IDOCK:    9.85 KCAL/MOL
REMARK 924 INTRA-LIGAND FREE ENERGY PREDICTED BY IDOCK:   -0.04 KCAL/MOL
REMARK 927      BINDING AFFINITY PREDICTED BY RF-SCORE:    0.00 PKD
ROOT
HETATM    1  C   UNL     1     -11.642  14.458  71.696  1.00  0.00     0.164 C  
HETATM    2  C   UNL     1     -13.144  14.264  71.944  1.00  0.00    -0.445 C  
HETATM    3  C   UNL     1     -13.973  14.513  70.687  1.00  0.00     0.420 C  
HETATM    4  C   UNL     1     -13.714  15.907  70.127  1.00  0.00     1.782 C  
HETATM    5  C   UNL     1     -12.232  16.136  69.846  1.00  0.00     0.129 C  
HETATM    6  C   UNL     1     -11.346  15.814  71.056  1.00  0.00    -0.437 C  
HETATM    7  C   UNL     1      -9.851  15.887  70.741  1.00  0.00     1.290 C  
HETATM    8  N   UNL     1      -9.386  14.922  69.733  1.00  0.00     0.082 NA 
HETATM    9  C   UNL     1      -9.973  13.561  69.854  1.00  0.00     1.650 C  
HETATM   10  C   UNL     1     -11.037  13.272  70.933  1.00  0.00     2.042 C  
ENDROOT
BRANCH   8  11
HETATM   11  C   UNL     1      -7.894  14.881  69.776  1.00  0.00     0.045 C  
BRANCH  11  12
HETATM   12  C   UNL     1      -7.149  16.030  69.045  1.00  0.00    -0.171 C  
HETATM   13  H   UNL     1      -5.450  16.981  69.278  1.00  0.00     0.000 HD 
HETATM   14  O   UNL     1      -5.906  16.277  69.725  1.00  0.00    -0.161 OA 
BRANCH  12  15
HETATM   15  C   UNL     1      -6.829  15.716  67.557  1.00  0.00    -0.191 C  
BRANCH  15  16
HETATM   16  N   UNL     1      -7.035  14.278  67.292  1.00  0.00    -0.228 N  
HETATM   17  C   UNL     1      -7.806  13.834  66.234  1.00  0.00     1.825 C  
HETATM   18  O   UNL     1      -8.472  14.593  65.528  1.00  0.00     1.586 OA 
HETATM   19  H   UNL     1      -6.596  13.592  67.907  1.00  0.00     0.000 HD 
BRANCH  17  20
HETATM   20  C   UNL     1      -7.834  12.303  66.042  1.00  0.00     1.038 C  
BRANCH  20  21
HETATM   21  N   UNL     1      -7.415  11.657  67.283  1.00  0.00    -0.135 N  
HETATM   22  H   UNL     1      -8.134  11.250  67.881  1.00  0.00     0.000 HD 
HETATM   23  C   UNL     1      -6.106  11.569  67.690  1.00  0.00    -0.062 C  
HETATM   24  O   UNL     1      -5.164  11.954  67.003  1.00  0.00    -0.104 OA 
BRANCH  23  25
HETATM   25  C   UNL     1      -5.886  10.918  69.016  1.00  0.00    -0.040 A  
HETATM   26  N   UNL     1      -5.695   9.570  69.001  1.00  0.00    -0.036 NA 
HETATM   27  C   UNL     1      -5.551   8.952  70.185  1.00  0.00    -0.027 A  
HETATM   28  C   UNL     1      -5.569   9.650  71.413  1.00  0.00    -0.074 A  
HETATM   29  C   UNL     1      -5.728  11.042  71.384  1.00  0.00     0.248 A  
HETATM   30  C   UNL     1      -5.439   8.957  72.627  1.00  0.00    -0.071 A  
HETATM   31  C   UNL     1      -5.895  11.690  70.167  1.00  0.00    -0.153 A  
HETATM   32  C   UNL     1      -5.297   7.572  72.633  1.00  0.00    -0.037 A  
HETATM   33  C   UNL     1      -5.267   6.878  71.427  1.00  0.00    -0.027 A  
HETATM   34  C   UNL     1      -5.389   7.573  70.219  1.00  0.00    -0.023 A  
ENDBRANCH  23  25
ENDBRANCH  20  21
BRANCH  20  35
HETATM   35  C   UNL     1      -9.167  11.789  65.502  1.00  0.00    -0.067 C  
BRANCH  35  36
HETATM   36  C   UNL     1      -9.048  10.500  64.724  1.00  0.00    -0.211 C  
HETATM   37  N   UNL     1     -10.073   9.617  64.865  1.00  0.00    -0.261 N  
HETATM   38  O   UNL     1      -8.073  10.231  64.032  1.00  0.00    -0.156 OA 
HETATM   39  H2  UNL     1     -10.876   9.814  65.461  1.00  0.00     0.000 HD 
HETATM   40  H1  UNL     1      -9.992   8.747  64.340  1.00  0.00     0.000 HD 
ENDBRANCH  35  36
ENDBRANCH  20  35
ENDBRANCH  17  20
ENDBRANCH  15  16
BRANCH  15  41
HETATM   41  C   UNL     1      -7.621  16.593  66.553  1.00  0.00    -0.327 C  
BRANCH  41  42
HETATM   42  C   UNL     1      -8.493  17.689  67.129  1.00  0.00    -0.239 A  
HETATM   43  C   UNL     1      -8.022  19.004  67.245  1.00  0.00    -0.273 A  
HETATM   44  C   UNL     1     -10.199  19.758  67.996  1.00  0.00    -0.581 A  
HETATM   45  C   UNL     1      -8.868  20.030  67.680  1.00  0.00    -0.407 A  
HETATM   46  C   UNL     1      -9.834  17.430  67.459  1.00  0.00    -0.277 A  
HETATM   47  C   UNL     1     -10.679  18.455  67.888  1.00  0.00    -0.334 A  
ENDBRANCH  41  42
ENDBRANCH  15  41
ENDBRANCH  12  15
ENDBRANCH  11  12
ENDBRANCH   8  11
BRANCH   9  48
HETATM   48  C   UNL     1     -10.514  13.084  68.469  1.00  0.00    -0.249 C  
HETATM   49  C   UNL     1     -12.987  12.320  66.801  1.00  0.00     3.216 C  
HETATM   50  O   UNL     1     -10.143  12.021  67.975  1.00  0.00    -0.186 OA 
HETATM   51  C   UNL     1     -11.189  13.423  65.422  1.00  0.00    -0.303 C  
HETATM   52  C   UNL     1     -12.150  13.599  66.611  1.00  0.00    -0.411 C  
HETATM   53  N   UNL     1     -11.404  13.935  67.838  1.00  0.00    -0.278 N  
HETATM   54  C   UNL     1     -13.118  14.750  66.274  1.00  0.00     1.314 C  
HETATM   55  H   UNL     1     -11.555  14.856  68.248  1.00  0.00     0.000 HD 
ENDBRANCH   9  48
TORSDOF 12
ENDMDL
MODEL      109
REMARK 921   NORMALIZED FREE ENERGY PREDICTED BY IDOCK:    8.61 KCAL/MOL
REMARK 922        TOTAL FREE ENERGY PREDICTED BY IDOCK:   10.56 KCAL/MOL
REMARK 923 INTER-LIGAND FREE ENERGY PREDICTED BY IDOCK:   -2.10 KCAL/MOL
REMARK 924 INTRA-LIGAND FREE ENERGY PREDICTED BY IDOCK:   12.65 KCAL/MOL
REMARK 927      BINDING AFFINITY PREDICTED BY RF-SCORE:    0.00 PKD
ROOT
HETATM    1  C   UNL     1      -8.779   7.571  69.243  1.00  0.00    -0.136 C  
HETATM    2  C   UNL     1      -8.218   6.171  69.525  1.00  0.00    -0.116 C  
HETATM    3  C   UNL     1      -8.089   5.335  68.254  1.00  0.00    -0.094 C  
HETATM    4  C   UNL     1      -9.427   5.223  67.534  1.00  0.00    -0.136 C  
HETATM    5  C   UNL     1     -10.013   6.595  67.215  1.00  0.00    -0.199 C  
HETATM    6  C   UNL     1     -10.082   7.507  68.447  1.00  0.00    -0.200 C  
HETATM    7  C   UNL     1     -10.519   8.935  68.113  1.00  0.00    -0.202 C  
HETATM    8  N   UNL     1      -9.606   9.666  67.221  1.00  0.00    -0.159 NA 
HETATM    9  C   UNL     1      -8.160   9.462  67.505  1.00  0.00    -0.110 C  
HETATM   10  C   UNL     1      -7.721   8.490  68.619  1.00  0.00    -0.103 C  
ENDROOT
BRANCH   8  11
HETATM   11  C   UNL     1      -9.973  11.112  67.255  1.00  0.00    -0.184 C  
BRANCH  11  12
HETATM   12  C   UNL     1     -10.735  11.662  66.021  1.00  0.00    -0.280 C  
HETATM   13  H   UNL     1     -12.130  10.996  64.814  1.00  0.00     0.000 HD 
HETATM   14  O   UNL     1     -11.663  10.660  65.569  1.00  0.00     0.795 OA 
BRANCH  12  15
HETATM   15  C   UNL     1     -11.536  12.962  66.312  1.00  0.00    -0.348 C  
BRANCH  15  16
HETATM   16  N   UNL     1     -12.066  12.926  67.690  1.00  0.00    -0.278 N  
HETATM   17  C   UNL     1     -12.010  11.781  68.463  1.00  0.00    -0.215 C  
HETATM   18  O   UNL     1     -11.640  10.693  68.019  1.00  0.00    -0.464 OA 
HETATM   19  H   UNL     1     -12.485  13.769  68.082  1.00  0.00     0.000 HD 
BRANCH  17  20
HETATM   20  C   UNL     1     -12.517  11.945  69.911  1.00  0.00     0.021 C  
BRANCH  20  21
HETATM   21  N   UNL     1     -11.683  11.143  70.803  1.00  0.00    -0.385 N  
HETATM   22  H   UNL     1     -10.917  11.607  71.292  1.00  0.00     0.000 HD 
HETATM   23  C   UNL     1     -11.873   9.801  71.021  1.00  0.00    -0.356 C  
HETATM   24  O   UNL     1     -12.815   9.172  70.545  1.00  0.00     0.169 OA 
BRANCH  23  25
HETATM   25  C   UNL     1     -10.881   9.148  71.926  1.00  0.00    -0.283 A  
HETATM   26  N   UNL     1      -9.568   9.381  71.649  1.00  0.00    -0.196 NA 
HETATM   27  C   UNL     1      -8.655   8.760  72.414  1.00  0.00     0.058 A  
HETATM   28  C   UNL     1      -9.013   7.912  73.486  1.00  0.00    -0.343 A  
HETATM   29  C   UNL     1     -10.374   7.730  73.764  1.00  0.00     0.169 A  
HETATM   30  C   UNL     1      -8.021   7.266  74.242  1.00  0.00    -0.174 A  
HETATM   31  C   UNL     1     -11.327   8.353  72.970  1.00  0.00     0.176 A  
HETATM   32  C   UNL     1      -6.675   7.450  73.938  1.00  0.00    -0.081 A  
HETATM   33  C   UNL     1      -6.315   8.292  72.891  1.00  0.00    -0.091 A  
HETATM   34  C   UNL     1      -7.304   8.941  72.145  1.00  0.00     0.093 A  
ENDBRANCH  23  25
ENDBRANCH  20  21
BRANCH  20  35
HETATM   35  C   UNL     1     -12.651  13.404  70.341  1.00  0.00    -0.237 C  
BRANCH  35  36
HETATM   36  C   UNL     1     -13.144  14.316  69.242  1.00  0.00     1.406 C  
HETATM   37  N   UNL     1     -13.466  15.584  69.614  1.00  0.00     0.246 N  
HETATM   38  O   UNL     1     -13.290  13.941  68.085  1.00  0.00     2.482 OA 
HETATM   39  H2  UNL     1     -13.379  15.902  70.579  1.00  0.00     0.000 HD 
HETATM   40  H1  UNL     1     -13.799  16.199  68.872  1.00  0.00     0.000 HD 
ENDBRANCH  35  36
ENDBRANCH  20  35
ENDBRANCH  17  20
ENDBRANCH  15  16
BRANCH  15  41
HETATM   41  C   UNL     1     -10.727  14.260  66.053  1.00  0.00    -0.304 C  
BRANCH  41  42
HETATM   42  C   UNL     1     -10.554  15.213  67.217  1.00  0.00    -0.286 A  
HETATM   43  C   UNL     1     -10.050  14.769  68.447  1.00  0.00    -0.225 A  
HETATM   44  C   UNL     1     -10.032  17.036  69.302  1.00  0.00    -0.169 A  
HETATM   45  C   UNL     1      -9.796  15.674  69.484  1.00  0.00    -0.289 A  
HETATM   46  C   UNL     1     -10.794  16.587  67.053  1.00  0.00    -0.113 A  
HETATM   47  C   UNL     1     -10.535  17.491  68.085  1.00  0.00    -0.386 A  
ENDBRANCH  41  42
ENDBRANCH  15  41
ENDBRANCH  12  15
ENDBRANCH  11  12
ENDBRANCH   8  11
BRANCH   9  48
HETATM   48  C   UNL     1      -7.399   9.102  66.189  1.00  0.00    -0.095 C  
HETATM   49  C   UNL     1      -5.620   7.057  64.729  1.00  0.00    -0.032 C  
HETATM   50  O   UNL     1      -6.518   9.835  65.746  1.00  0.00    -0.075 OA 
HETATM   51  C   UNL     1      -7.201   8.254  63.174  1.00  0.00    -0.094 C  
HETATM   52  C   UNL     1      -7.099   7.336  64.404  1.00  0.00    -0.062 C  
HETATM   53  N   UNL     1      -7.794   7.935  65.559  1.00  0.00    -0.105 N  
HETATM   54  C   UNL     1      -7.767   5.992  64.052  1.00  0.00    -0.105 C  
HETATM   55  H   UNL     1      -8.621   7.457  65.917  1.00  0.00     0.000 HD 
ENDBRANCH   9  48
TORSDOF 12
ENDMDL
MODEL      110
REMARK 921   NORMALIZED FREE ENERGY PREDICTED BY IDOCK:    9.57 KCAL/MOL
REMARK 922        TOTAL FREE ENERGY PREDICTED BY IDOCK:   12.19 KCAL/MOL
REMARK 923 INTER-LIGAND FREE ENERGY PREDICTED BY IDOCK:    4.86 KCAL/MOL
REMARK 924 INTRA-LIGAND FREE ENERGY PREDICTED BY IDOCK:    7.33 KCAL/MOL
REMARK 927      BINDING AFFINITY PREDICTED BY RF-SCORE:    0.00 PKD
ROOT
HETATM    1  C   UNL     1     -11.455  16.973  65.310  1.00  0.00     0.812 C  
HETATM    2  C   UNL     1     -11.064  18.448  65.478  1.00  0.00     0.576 C  
HETATM    3  C   UNL     1     -10.577  18.758  66.891  1.00  0.00    -0.472 C  
HETATM    4  C   UNL     1     -11.628  18.378  67.928  1.00  0.00     1.372 C  
HETATM    5  C   UNL     1     -12.032  16.911  67.811  1.00  0.00     1.288 C  
HETATM    6  C   UNL     1     -12.446  16.526  66.384  1.00  0.00     3.610 C  
HETATM    7  C   UNL     1     -12.702  15.028  66.218  1.00  0.00     0.907 C  
HETATM    8  N   UNL     1     -11.529  14.173  66.455  1.00  0.00    -0.341 NA 
HETATM    9  C   UNL     1     -10.253  14.695  65.897  1.00  0.00    -0.326 C  
HETATM   10  C   UNL     1     -10.221  16.069  65.198  1.00  0.00    -0.149 C  
ENDROOT
BRANCH   8  11
HETATM   11  C   UNL     1     -11.832  12.805  65.940  1.00  0.00    -0.437 C  
BRANCH  11  12
HETATM   12  C   UNL     1     -10.686  12.079  65.185  1.00  0.00    -0.288 C  
HETATM   13  H   UNL     1      -9.953  12.112  63.367  1.00  0.00     0.000 HD 
HETATM   14  O   UNL     1     -10.654  12.556  63.829  1.00  0.00    -0.414 OA 
BRANCH  12  15
HETATM   15  C   UNL     1      -9.283  12.316  65.811  1.00  0.00     0.032 C  
BRANCH  15  16
HETATM   16  N   UNL     1      -9.208  11.663  67.133  1.00  0.00    -0.173 N  
HETATM   17  C   UNL     1      -8.915  10.319  67.268  1.00  0.00    -0.132 C  
HETATM   18  O   UNL     1      -8.828   9.554  66.305  1.00  0.00    -0.141 OA 
HETATM   19  H   UNL     1      -9.376  12.220  67.972  1.00  0.00     0.000 HD 
BRANCH  17  20
HETATM   20  C   UNL     1      -8.777   9.821  68.722  1.00  0.00    -0.128 C  
BRANCH  20  21
HETATM   21  N   UNL     1      -8.633   8.368  68.719  1.00  0.00    -0.134 N  
HETATM   22  H   UNL     1      -7.826   7.965  68.243  1.00  0.00     0.000 HD 
HETATM   23  C   UNL     1      -9.524   7.514  69.321  1.00  0.00    -0.154 C  
HETATM   24  O   UNL     1     -10.479   7.904  69.988  1.00  0.00    -0.220 OA 
BRANCH  23  25
HETATM   25  C   UNL     1      -9.230   6.059  69.161  1.00  0.00    -0.126 A  
HETATM   26  N   UNL     1      -7.924   5.725  68.971  1.00  0.00    -0.097 NA 
HETATM   27  C   UNL     1      -7.639   4.428  68.768  1.00  0.00    -0.063 A  
HETATM   28  C   UNL     1      -8.633   3.424  68.769  1.00  0.00    -0.118 A  
HETATM   29  C   UNL     1      -9.961   3.803  69.008  1.00  0.00     0.217 A  
HETATM   30  C   UNL     1      -8.290   2.084  68.527  1.00  0.00    -0.078 A  
HETATM   31  C   UNL     1     -10.269   5.143  69.203  1.00  0.00    -0.259 A  
HETATM   32  C   UNL     1      -6.966   1.732  68.277  1.00  0.00    -0.039 A  
HETATM   33  C   UNL     1      -5.980   2.714  68.285  1.00  0.00    -0.024 A  
HETATM   34  C   UNL     1      -6.325   4.047  68.534  1.00  0.00    -0.036 A  
ENDBRANCH  23  25
ENDBRANCH  20  21
BRANCH  20  35
HETATM   35  C   UNL     1      -7.683  10.546  69.504  1.00  0.00    -0.141 C  
BRANCH  35  36
HETATM   36  C   UNL     1      -6.433   9.722  69.702  1.00  0.00    -0.049 C  
HETATM   37  N   UNL     1      -5.314  10.406  70.061  1.00  0.00    -0.039 N  
HETATM   38  O   UNL     1      -6.401   8.511  69.515  1.00  0.00    -0.039 OA 
HETATM   39  H2  UNL     1      -5.318  11.418  70.189  1.00  0.00     0.000 HD 
HETATM   40  H1  UNL     1      -4.470   9.850  70.194  1.00  0.00     0.000 HD 
ENDBRANCH  35  36
ENDBRANCH  20  35
ENDBRANCH  17  20
ENDBRANCH  15  16
BRANCH  15  41
HETATM   41  C   UNL     1      -8.112  11.872  64.895  1.00  0.00     1.790 C  
BRANCH  41  42
HETATM   42  C   UNL     1      -8.161  10.463  64.342  1.00  0.00    -0.125 A  
HETATM   43  C   UNL     1      -8.886  10.167  63.180  1.00  0.00    -0.232 A  
HETATM   44  C   UNL     1      -8.065   7.887  63.203  1.00  0.00    -0.098 A  
HETATM   45  C   UNL     1      -8.842   8.886  62.618  1.00  0.00    -0.066 A  
HETATM   46  C   UNL     1      -7.390   9.444  64.924  1.00  0.00    -0.106 A  
HETATM   47  C   UNL     1      -7.342   8.167  64.360  1.00  0.00    -0.093 A  
ENDBRANCH  41  42
ENDBRANCH  15  41
ENDBRANCH  12  15
ENDBRANCH  11  12
ENDBRANCH   8  11
BRANCH   9  48
HETATM   48  C   UNL     1      -9.134  14.655  66.987  1.00  0.00    -0.238 C  
HETATM   49  C   UNL     1      -6.278  13.753  67.704  1.00  0.00    -0.119 C  
HETATM   50  O   UNL     1      -9.326  14.114  68.074  1.00  0.00    -0.190 OA 
HETATM   51  C   UNL     1      -6.924  15.916  68.825  1.00  0.00    -0.132 C  
HETATM   52  C   UNL     1      -6.715  15.212  67.472  1.00  0.00    -0.160 C  
HETATM   53  N   UNL     1      -7.943  15.277  66.657  1.00  0.00    -0.320 N  
HETATM   54  C   UNL     1      -5.574  15.934  66.730  1.00  0.00     0.746 C  
HETATM   55  H   UNL     1      -7.910  15.817  65.793  1.00  0.00     0.000 HD 
ENDBRANCH   9  48
TORSDOF 12
ENDMDL
MODEL      111
REMARK 921   NORMALIZED FREE ENERGY PREDICTED BY IDOCK:   10.10 KCAL/MOL
REMARK 922        TOTAL FREE ENERGY PREDICTED BY IDOCK:   13.09 KCAL/MOL
REMARK 923 INTER-LIGAND FREE ENERGY PREDICTED BY IDOCK:    4.88 KCAL/MOL
REMARK 924 INTRA-LIGAND FREE ENERGY PREDICTED BY IDOCK:    8.21 KCAL/MOL
REMARK 927      BINDING AFFINITY PREDICTED BY RF-SCORE:    0.00 PKD
ROOT
HETATM    1  C   UNL     1      -7.462  20.456  69.381  1.00  0.00     0.444 C  
HETATM    2  C   UNL     1      -6.479  21.316  70.187  1.00  0.00     2.606 C  
HETATM    3  C   UNL     1      -5.992  20.606  71.448  1.00  0.00     0.011 C  
HETATM    4  C   UNL     1      -7.164  20.190  72.329  1.00  0.00     1.595 C  
HETATM    5  C   UNL     1      -8.158  19.314  71.571  1.00  0.00     4.652 C  
HETATM    6  C   UNL     1      -8.611  19.946  70.249  1.00  0.00     1.349 C  
HETATM    7  C   UNL     1      -9.482  19.013  69.406  1.00  0.00     0.066 C  
HETATM    8  N   UNL     1      -8.814  17.781  68.962  1.00  0.00    -0.093 NA 
HETATM    9  C   UNL     1      -7.407  17.960  68.516  1.00  0.00    -0.268 C  
HETATM   10  C   UNL     1      -6.738  19.347  68.605  1.00  0.00    -0.329 C  
ENDROOT
BRANCH   8  11
HETATM   11  C   UNL     1      -9.650  17.149  67.898  1.00  0.00    -0.266 C  
BRANCH  11  12
HETATM   12  C   UNL     1     -10.481  15.908  68.318  1.00  0.00    -0.257 C  
HETATM   13  H   UNL     1     -12.375  15.528  68.656  1.00  0.00     0.000 HD 
HETATM   14  O   UNL     1     -11.866  16.288  68.400  1.00  0.00    -0.202 OA 
BRANCH  12  15
HETATM   15  C   UNL     1     -10.367  14.718  67.323  1.00  0.00    -0.247 C  
BRANCH  15  16
HETATM   16  N   UNL     1      -9.408  13.722  67.841  1.00  0.00    -0.203 N  
HETATM   17  C   UNL     1      -9.486  12.386  67.496  1.00  0.00    -0.187 C  
HETATM   18  O   UNL     1     -10.424  11.917  66.848  1.00  0.00    -0.214 OA 
HETATM   19  H   UNL     1      -8.667  14.028  68.472  1.00  0.00     0.000 HD 
BRANCH  17  20
HETATM   20  C   UNL     1      -8.348  11.501  68.044  1.00  0.00    -0.146 C  
BRANCH  20  21
HETATM   21  N   UNL     1      -8.878  10.635  69.094  1.00  0.00    -0.279 N  
HETATM   22  H   UNL     1      -8.295  10.460  69.913  1.00  0.00     0.000 HD 
HETATM   23  C   UNL     1     -10.116  10.045  69.041  1.00  0.00    -0.200 C  
HETATM   24  O   UNL     1     -10.922  10.260  68.139  1.00  0.00    -0.250 OA 
BRANCH  23  25
HETATM   25  C   UNL     1     -10.454   9.152  70.189  1.00  0.00    -0.218 A  
HETATM   26  N   UNL     1     -10.095   7.844  70.060  1.00  0.00    -0.196 NA 
HETATM   27  C   UNL     1     -10.438   7.008  71.054  1.00  0.00    -0.212 A  
HETATM   28  C   UNL     1     -11.123   7.443  72.210  1.00  0.00    -0.308 A  
HETATM   29  C   UNL     1     -11.438   8.803  72.323  1.00  0.00    -0.376 A  
HETATM   30  C   UNL     1     -11.481   6.526  73.211  1.00  0.00     0.248 A  
HETATM   31  C   UNL     1     -11.104   9.675  71.295  1.00  0.00    -0.426 A  
HETATM   32  C   UNL     1     -11.170   5.176  73.071  1.00  0.00    -0.390 A  
HETATM   33  C   UNL     1     -10.486   4.742  71.940  1.00  0.00    -0.201 A  
HETATM   34  C   UNL     1     -10.124   5.659  70.948  1.00  0.00    -0.263 A  
ENDBRANCH  23  25
ENDBRANCH  20  21
BRANCH  20  35
HETATM   35  C   UNL     1      -7.591  10.749  66.951  1.00  0.00    -0.123 C  
BRANCH  35  36
HETATM   36  C   UNL     1      -8.291  10.759  65.613  1.00  0.00    -0.144 C  
HETATM   37  N   UNL     1      -9.598  11.139  65.623  1.00  0.00    -0.215 N  
HETATM   38  O   UNL     1      -7.742  10.412  64.575  1.00  0.00    -0.135 OA 
HETATM   39  H2  UNL     1     -10.077  11.401  66.483  1.00  0.00     0.000 HD 
HETATM   40  H1  UNL     1     -10.070  11.146  64.719  1.00  0.00     0.000 HD 
ENDBRANCH  35  36
ENDBRANCH  20  35
ENDBRANCH  17  20
ENDBRANCH  15  16
BRANCH  15  41
HETATM   41  C   UNL     1     -11.730  14.064  66.980  1.00  0.00    -0.425 C  
BRANCH  41  42
HETATM   42  C   UNL     1     -11.898  13.505  65.582  1.00  0.00    -0.397 A  
HETATM   43  C   UNL     1     -10.893  13.655  64.617  1.00  0.00    -0.416 A  
HETATM   44  C   UNL     1     -12.130  12.273  63.058  1.00  0.00    -0.122 A  
HETATM   45  C   UNL     1     -11.011  13.047  63.363  1.00  0.00     0.055 A  
HETATM   46  C   UNL     1     -13.023  12.729  65.257  1.00  0.00     0.095 A  
HETATM   47  C   UNL     1     -13.138  12.118  64.007  1.00  0.00    -0.167 A  
ENDBRANCH  41  42
ENDBRANCH  15  41
ENDBRANCH  12  15
ENDBRANCH  11  12
ENDBRANCH   8  11
BRANCH   9  48
HETATM   48  C   UNL     1      -6.484  16.907  69.210  1.00  0.00    -0.228 C  
HETATM   49  C   UNL     1      -6.063  15.069  71.645  1.00  0.00     0.567 C  
HETATM   50  O   UNL     1      -5.324  17.181  69.511  1.00  0.00    -0.153 OA 
HETATM   51  C   UNL     1      -5.131  14.092  69.518  1.00  0.00    -0.083 C  
HETATM   52  C   UNL     1      -6.405  14.590  70.222  1.00  0.00    -0.170 C  
HETATM   53  N   UNL     1      -7.046  15.663  69.438  1.00  0.00    -0.187 N  
HETATM   54  C   UNL     1      -7.377  13.402  70.345  1.00  0.00     1.889 C  
HETATM   55  H   UNL     1      -7.965  15.475  69.038  1.00  0.00     0.000 HD 
ENDBRANCH   9  48
TORSDOF 12
ENDMDL
MODEL      112
REMARK 921   NORMALIZED FREE ENERGY PREDICTED BY IDOCK:   12.84 KCAL/MOL
REMARK 922        TOTAL FREE ENERGY PREDICTED BY IDOCK:   17.75 KCAL/MOL
REMARK 923 INTER-LIGAND FREE ENERGY PREDICTED BY IDOCK:   18.06 KCAL/MOL
REMARK 924 INTRA-LIGAND FREE ENERGY PREDICTED BY IDOCK:   -0.31 KCAL/MOL
REMARK 927      BINDING AFFINITY PREDICTED BY RF-SCORE:    0.00 PKD
ROOT
HETATM    1  C   UNL     1     -11.008  14.155  68.768  1.00  0.00    -0.275 C  
HETATM    2  C   UNL     1     -12.431  13.750  68.362  1.00  0.00     0.273 C  
HETATM    3  C   UNL     1     -13.158  13.001  69.476  1.00  0.00     1.513 C  
HETATM    4  C   UNL     1     -12.371  11.770  69.911  1.00  0.00    -0.200 C  
HETATM    5  C   UNL     1     -10.953  12.129  70.344  1.00  0.00     1.309 C  
HETATM    6  C   UNL     1     -10.209  12.961  69.292  1.00  0.00     0.384 C  
HETATM    7  C   UNL     1      -8.847  13.462  69.776  1.00  0.00     2.117 C  
HETATM    8  N   UNL     1      -8.900  14.373  70.929  1.00  0.00     3.094 NA 
HETATM    9  C   UNL     1      -9.998  15.375  70.883  1.00  0.00     0.954 C  
HETATM   10  C   UNL     1     -11.011  15.358  69.721  1.00  0.00    -0.294 C  
ENDROOT
BRANCH   8  11
HETATM   11  C   UNL     1      -7.567  15.028  71.072  1.00  0.00     1.958 C  
BRANCH  11  12
HETATM   12  C   UNL     1      -7.122  15.953  69.909  1.00  0.00     0.085 C  
HETATM   13  H   UNL     1      -5.562  17.076  69.518  1.00  0.00     0.000 HD 
HETATM   14  O   UNL     1      -5.834  16.509  70.230  1.00  0.00    -0.195 OA 
BRANCH  12  15
HETATM   15  C   UNL     1      -7.002  15.221  68.543  1.00  0.00    -0.113 C  
BRANCH  15  16
HETATM   16  N   UNL     1      -7.550  16.072  67.468  1.00  0.00    -0.141 N  
HETATM   17  C   UNL     1      -6.817  17.103  66.909  1.00  0.00    -0.207 C  
HETATM   18  O   UNL     1      -5.725  17.462  67.350  1.00  0.00    -0.122 OA 
HETATM   19  H   UNL     1      -8.495  15.895  67.128  1.00  0.00     0.000 HD 
BRANCH  17  20
HETATM   20  C   UNL     1      -7.501  17.827  65.730  1.00  0.00    -0.051 C  
BRANCH  20  21
HETATM   21  N   UNL     1      -8.541  16.963  65.176  1.00  0.00     2.007 N  
HETATM   22  H   UNL     1      -8.454  16.670  64.203  1.00  0.00     0.000 HD 
HETATM   23  C   UNL     1      -9.627  16.524  65.893  1.00  0.00    -0.248 C  
HETATM   24  O   UNL     1      -9.776  16.754  67.090  1.00  0.00    -0.242 OA 
BRANCH  23  25
HETATM   25  C   UNL     1     -10.606  15.693  65.133  1.00  0.00    -0.424 A  
HETATM   26  N   UNL     1     -10.630  14.365  65.433  1.00  0.00    -0.341 NA 
HETATM   27  C   UNL     1     -11.463  13.585  64.723  1.00  0.00    -0.346 A  
HETATM   28  C   UNL     1     -12.310  14.098  63.716  1.00  0.00    -0.121 A  
HETATM   29  C   UNL     1     -12.286  15.476  63.465  1.00  0.00     1.062 A  
HETATM   30  C   UNL     1     -13.146  13.239  62.985  1.00  0.00     1.445 A  
HETATM   31  C   UNL     1     -11.417  16.290  64.180  1.00  0.00     0.163 A  
HETATM   32  C   UNL     1     -13.144  11.870  63.241  1.00  0.00     0.005 A  
HETATM   33  C   UNL     1     -12.320  11.359  64.239  1.00  0.00     0.423 A  
HETATM   34  C   UNL     1     -11.494  12.218  64.971  1.00  0.00    -0.386 A  
ENDBRANCH  23  25
ENDBRANCH  20  21
BRANCH  20  35
HETATM   35  C   UNL     1      -7.992  19.228  66.088  1.00  0.00    -0.306 C  
BRANCH  35  36
HETATM   36  C   UNL     1      -7.055  20.328  65.649  1.00  0.00    -0.259 C  
HETATM   37  N   UNL     1      -6.611  21.164  66.626  1.00  0.00    -0.457 N  
HETATM   38  O   UNL     1      -6.733  20.497  64.479  1.00  0.00    -0.286 OA 
HETATM   39  H2  UNL     1      -6.895  21.055  67.599  1.00  0.00     0.000 HD 
HETATM   40  H1  UNL     1      -5.979  21.907  66.330  1.00  0.00     0.000 HD 
ENDBRANCH  35  36
ENDBRANCH  20  35
ENDBRANCH  17  20
ENDBRANCH  15  16
BRANCH  15  41
HETATM   41  C   UNL     1      -5.560  14.754  68.213  1.00  0.00    -0.117 C  
BRANCH  41  42
HETATM   42  C   UNL     1      -5.335  13.266  68.045  1.00  0.00    -0.109 A  
HETATM   43  C   UNL     1      -5.315  12.407  69.153  1.00  0.00    -0.068 A  
HETATM   44  C   UNL     1      -5.135  10.476  67.701  1.00  0.00    -0.036 A  
HETATM   45  C   UNL     1      -5.211  11.023  68.982  1.00  0.00    -0.041 A  
HETATM   46  C   UNL     1      -5.250  12.700  66.763  1.00  0.00     0.591 A  
HETATM   47  C   UNL     1      -5.151  11.318  66.591  1.00  0.00    -0.105 A  
ENDBRANCH  41  42
ENDBRANCH  15  41
ENDBRANCH  12  15
ENDBRANCH  11  12
ENDBRANCH   8  11
BRANCH   9  48
HETATM   48  C   UNL     1     -10.780  15.379  72.236  1.00  0.00     0.978 C  
HETATM   49  C   UNL     1     -12.184  17.077  74.387  1.00  0.00    -0.068 C  
HETATM   50  O   UNL     1     -10.277  14.920  73.260  1.00  0.00     3.152 OA 
HETATM   51  C   UNL     1     -13.262  14.821  74.075  1.00  0.00     1.112 C  
HETATM   52  C   UNL     1     -12.897  16.148  73.387  1.00  0.00    -0.517 C  
HETATM   53  N   UNL     1     -12.060  15.903  72.197  1.00  0.00    -0.459 N  
HETATM   54  C   UNL     1     -14.206  16.835  72.953  1.00  0.00     1.965 C  
HETATM   55  H   UNL     1     -12.451  16.137  71.284  1.00  0.00     0.000 HD 
ENDBRANCH   9  48
TORSDOF 12
ENDMDL
MODEL      113
REMARK 921   NORMALIZED FREE ENERGY PREDICTED BY IDOCK:   13.96 KCAL/MOL
REMARK 922        TOTAL FREE ENERGY PREDICTED BY IDOCK:   19.65 KCAL/MOL
REMARK 923 INTER-LIGAND FREE ENERGY PREDICTED BY IDOCK:    3.88 KCAL/MOL
REMARK 924 INTRA-LIGAND FREE ENERGY PREDICTED BY IDOCK:   15.77 KCAL/MOL
REMARK 927      BINDING AFFINITY PREDICTED BY RF-SCORE:    0.00 PKD
ROOT
HETATM    1  C   UNL     1     -11.057  15.829  64.252  1.00  0.00     0.002 C  
HETATM    2  C   UNL     1     -10.649  17.302  64.378  1.00  0.00     2.324 C  
HETATM    3  C   UNL     1     -10.403  17.711  65.828  1.00  0.00    -0.194 C  
HETATM    4  C   UNL     1     -11.629  17.435  66.691  1.00  0.00     1.629 C  
HETATM    5  C   UNL     1     -12.058  15.973  66.611  1.00  0.00     1.435 C  
HETATM    6  C   UNL     1     -12.233  15.488  65.166  1.00  0.00     0.478 C  
HETATM    7  C   UNL     1     -12.508  13.987  65.067  1.00  0.00    -0.425 C  
HETATM    8  N   UNL     1     -11.424  13.127  65.566  1.00  0.00    -0.308 NA 
HETATM    9  C   UNL     1     -10.054  13.577  65.204  1.00  0.00    -0.256 C  
HETATM   10  C   UNL     1      -9.854  14.892  64.423  1.00  0.00     1.590 C  
ENDROOT
BRANCH   8  11
HETATM   11  C   UNL     1     -11.682  11.731  65.107  1.00  0.00    -0.087 C  
BRANCH  11  12
HETATM   12  C   UNL     1     -10.435  10.877  64.753  1.00  0.00    -0.303 C  
HETATM   13  H   UNL     1      -9.291  10.638  63.178  1.00  0.00     0.000 HD 
HETATM   14  O   UNL     1     -10.054  11.160  63.395  1.00  0.00    -0.326 OA 
BRANCH  12  15
HETATM   15  C   UNL     1      -9.208  11.161  65.665  1.00  0.00    -0.218 C  
BRANCH  15  16
HETATM   16  N   UNL     1      -9.521  10.783  67.057  1.00  0.00    -0.163 N  
HETATM   17  C   UNL     1      -9.320   9.498  67.527  1.00  0.00    -0.126 C  
HETATM   18  O   UNL     1      -8.996   8.562  66.794  1.00  0.00    -0.136 OA 
HETATM   19  H   UNL     1      -9.896  11.489  67.691  1.00  0.00     0.000 HD 
BRANCH  17  20
HETATM   20  C   UNL     1      -9.603   9.299  69.031  1.00  0.00    -0.159 C  
BRANCH  20  21
HETATM   21  N   UNL     1      -9.567   7.872  69.340  1.00  0.00    -0.160 N  
HETATM   22  H   UNL     1      -9.234   7.588  70.261  1.00  0.00     0.000 HD 
HETATM   23  C   UNL     1      -9.955   6.892  68.459  1.00  0.00    -0.148 C  
HETATM   24  O   UNL     1     -10.446   7.137  67.360  1.00  0.00    -0.222 OA 
BRANCH  23  25
HETATM   25  C   UNL     1      -9.792   5.490  68.943  1.00  0.00    -0.157 A  
HETATM   26  N   UNL     1      -9.838   5.309  70.292  1.00  0.00    -0.197 NA 
HETATM   27  C   UNL     1      -9.638   4.064  70.757  1.00  0.00    -0.193 A  
HETATM   28  C   UNL     1      -9.409   2.962  69.903  1.00  0.00    -0.213 A  
HETATM   29  C   UNL     1      -9.409   3.183  68.519  1.00  0.00    -0.240 A  
HETATM   30  C   UNL     1      -9.181   1.684  70.437  1.00  0.00    -0.158 A  
HETATM   31  C   UNL     1      -9.599   4.468  68.028  1.00  0.00    -0.209 A  
HETATM   32  C   UNL     1      -9.171   1.491  71.816  1.00  0.00    -0.140 A  
HETATM   33  C   UNL     1      -9.406   2.570  72.663  1.00  0.00    -0.132 A  
HETATM   34  C   UNL     1      -9.640   3.840  72.128  1.00  0.00    -0.212 A  
ENDBRANCH  23  25
ENDBRANCH  20  21
BRANCH  20  35
HETATM   35  C   UNL     1      -8.705  10.146  69.929  1.00  0.00    -0.091 C  
BRANCH  35  36
HETATM   36  C   UNL     1      -7.620   9.355  70.619  1.00  0.00    -0.144 C  
HETATM   37  N   UNL     1      -7.550   8.033  70.306  1.00  0.00    -0.079 N  
HETATM   38  O   UNL     1      -6.862   9.849  71.446  1.00  0.00    -0.310 OA 
HETATM   39  H2  UNL     1      -8.193   7.601  69.644  1.00  0.00     0.000 HD 
HETATM   40  H1  UNL     1      -6.817   7.498  70.773  1.00  0.00     0.000 HD 
ENDBRANCH  35  36
ENDBRANCH  20  35
ENDBRANCH  17  20
ENDBRANCH  15  16
BRANCH  15  41
HETATM   41  C   UNL     1      -7.902  10.484  65.176  1.00  0.00    -0.076 C  
BRANCH  41  42
HETATM   42  C   UNL     1      -7.240   9.496  66.114  1.00  0.00    -0.093 A  
HETATM   43  C   UNL     1      -7.134   8.139  65.779  1.00  0.00    -0.064 A  
HETATM   44  C   UNL     1      -5.816   7.712  67.767  1.00  0.00    -0.036 A  
HETATM   45  C   UNL     1      -6.431   7.253  66.602  1.00  0.00    -0.052 A  
HETATM   46  C   UNL     1      -6.622   9.941  67.294  1.00  0.00    -0.070 A  
HETATM   47  C   UNL     1      -5.916   9.058  68.113  1.00  0.00    -0.046 A  
ENDBRANCH  41  42
ENDBRANCH  15  41
ENDBRANCH  12  15
ENDBRANCH  11  12
ENDBRANCH   8  11
BRANCH   9  48
HETATM   48  C   UNL     1      -9.142  13.597  66.472  1.00  0.00    -0.119 C  
HETATM   49  C   UNL     1      -6.511  12.646  67.759  1.00  0.00    -0.128 C  
HETATM   50  O   UNL     1      -9.549  13.178  67.553  1.00  0.00    -0.198 OA 
HETATM   51  C   UNL     1      -7.204  14.937  68.546  1.00  0.00    -0.113 C  
HETATM   52  C   UNL     1      -6.811  14.092  67.322  1.00  0.00     0.197 C  
HETATM   53  N   UNL     1      -7.876  14.129  66.301  1.00  0.00     0.836 N  
HETATM   54  C   UNL     1      -5.519  14.684  66.729  1.00  0.00     2.087 C  
HETATM   55  H   UNL     1      -7.664  14.578  65.410  1.00  0.00     0.000 HD 
ENDBRANCH   9  48
TORSDOF 12
ENDMDL
MODEL      114
REMARK 921   NORMALIZED FREE ENERGY PREDICTED BY IDOCK:   14.59 KCAL/MOL
REMARK 922        TOTAL FREE ENERGY PREDICTED BY IDOCK:   20.73 KCAL/MOL
REMARK 923 INTER-LIGAND FREE ENERGY PREDICTED BY IDOCK:   10.71 KCAL/MOL
REMARK 924 INTRA-LIGAND FREE ENERGY PREDICTED BY IDOCK:   10.02 KCAL/MOL
REMARK 927      BINDING AFFINITY PREDICTED BY RF-SCORE:    0.00 PKD
ROOT
HETATM    1  C   UNL     1     -12.027  16.212  72.371  1.00  0.00    -0.649 C  
HETATM    2  C   UNL     1     -12.040  15.155  73.483  1.00  0.00    -0.558 C  
HETATM    3  C   UNL     1     -11.900  13.738  72.933  1.00  0.00     1.610 C  
HETATM    4  C   UNL     1     -12.992  13.435  71.914  1.00  0.00    -0.422 C  
HETATM    5  C   UNL     1     -13.002  14.452  70.777  1.00  0.00    -0.388 C  
HETATM    6  C   UNL     1     -13.053  15.900  71.282  1.00  0.00    -0.164 C  
HETATM    7  C   UNL     1     -12.904  16.931  70.162  1.00  0.00     4.998 C  
HETATM    8  N   UNL     1     -11.619  16.884  69.448  1.00  0.00     0.482 NA 
HETATM    9  C   UNL     1     -10.431  16.669  70.315  1.00  0.00     0.244 C  
HETATM   10  C   UNL     1     -10.610  16.448  71.831  1.00  0.00     2.191 C  
ENDROOT
BRANCH   8  11
HETATM   11  C   UNL     1     -11.487  18.130  68.636  1.00  0.00     1.802 C  
BRANCH  11  12
HETATM   12  C   UNL     1     -10.077  18.776  68.586  1.00  0.00    -0.380 C  
HETATM   13  H   UNL     1      -9.024  19.956  69.746  1.00  0.00     0.000 HD 
HETATM   14  O   UNL     1      -9.887  19.560  69.777  1.00  0.00    -0.129 OA 
BRANCH  12  15
HETATM   15  C   UNL     1      -8.920  17.740  68.503  1.00  0.00    -0.287 C  
BRANCH  15  16
HETATM   16  N   UNL     1      -8.856  17.168  67.144  1.00  0.00    -0.215 N  
HETATM   17  C   UNL     1      -9.720  16.171  66.730  1.00  0.00    -0.242 C  
HETATM   18  O   UNL     1     -10.504  15.607  67.495  1.00  0.00    -0.272 OA 
HETATM   19  H   UNL     1      -8.155  17.518  66.491  1.00  0.00     0.000 HD 
BRANCH  17  20
HETATM   20  C   UNL     1      -9.583  15.758  65.250  1.00  0.00     0.133 C  
BRANCH  20  21
HETATM   21  N   UNL     1      -9.451  14.306  65.168  1.00  0.00    -0.303 N  
HETATM   22  H   UNL     1     -10.001  13.812  64.465  1.00  0.00     0.000 HD 
HETATM   23  C   UNL     1      -8.629  13.569  65.984  1.00  0.00     0.985 C  
HETATM   24  O   UNL     1      -7.868  14.078  66.803  1.00  0.00     0.153 OA 
BRANCH  23  25
HETATM   25  C   UNL     1      -8.675  12.091  65.780  1.00  0.00     0.289 A  
HETATM   26  N   UNL     1      -9.675  11.425  66.422  1.00  0.00    -0.199 NA 
HETATM   27  C   UNL     1      -9.705  10.088  66.301  1.00  0.00    -0.214 A  
HETATM   28  C   UNL     1      -8.764   9.374  65.525  1.00  0.00    -0.190 A  
HETATM   29  C   UNL     1      -7.775  10.099  64.848  1.00  0.00    -0.143 A  
HETATM   30  C   UNL     1      -8.822   7.973  65.448  1.00  0.00    -0.056 A  
HETATM   31  C   UNL     1      -7.723  11.481  64.979  1.00  0.00     1.242 A  
HETATM   32  C   UNL     1      -9.805   7.272  66.142  1.00  0.00     0.095 A  
HETATM   33  C   UNL     1     -10.742   7.969  66.899  1.00  0.00    -0.201 A  
HETATM   34  C   UNL     1     -10.686   9.365  66.967  1.00  0.00    -0.207 A  
ENDBRANCH  23  25
ENDBRANCH  20  21
BRANCH  20  35
HETATM   35  C   UNL     1     -10.688  16.327  64.362  1.00  0.00     0.546 C  
BRANCH  35  36
HETATM   36  C   UNL     1     -11.828  15.366  64.125  1.00  0.00    -0.104 C  
HETATM   37  N   UNL     1     -13.036  15.926  63.845  1.00  0.00     0.610 N  
HETATM   38  O   UNL     1     -11.701  14.151  64.214  1.00  0.00    -0.389 OA 
HETATM   39  H2  UNL     1     -13.164  16.936  63.798  1.00  0.00     0.000 HD 
HETATM   40  H1  UNL     1     -13.806  15.277  63.685  1.00  0.00     0.000 HD 
ENDBRANCH  35  36
ENDBRANCH  20  35
ENDBRANCH  17  20
ENDBRANCH  15  16
BRANCH  15  41
HETATM   41  C   UNL     1      -7.546  18.308  68.942  1.00  0.00    -0.239 C  
BRANCH  41  42
HETATM   42  C   UNL     1      -6.760  19.093  67.912  1.00  0.00    -0.247 A  
HETATM   43  C   UNL     1      -5.889  18.450  67.022  1.00  0.00    -0.165 A  
HETATM   44  C   UNL     1      -5.474  20.537  65.861  1.00  0.00    -0.218 A  
HETATM   45  C   UNL     1      -5.247  19.168  66.007  1.00  0.00    -0.171 A  
HETATM   46  C   UNL     1      -6.972  20.473  67.757  1.00  0.00    -0.355 A  
HETATM   47  C   UNL     1      -6.335  21.189  66.741  1.00  0.00    -0.385 A  
ENDBRANCH  41  42
ENDBRANCH  15  41
ENDBRANCH  12  15
ENDBRANCH  11  12
ENDBRANCH   8  11
BRANCH   9  48
HETATM   48  C   UNL     1      -9.545  15.519  69.738  1.00  0.00    -0.200 C  
HETATM   49  C   UNL     1      -6.746  14.669  68.775  1.00  0.00    -0.088 C  
HETATM   50  O   UNL     1      -9.820  14.984  68.666  1.00  0.00    -0.208 OA 
HETATM   51  C   UNL     1      -8.008  12.786  69.876  1.00  0.00     2.122 C  
HETATM   52  C   UNL     1      -7.418  14.193  70.076  1.00  0.00     0.567 C  
HETATM   53  N   UNL     1      -8.464  15.137  70.513  1.00  0.00     0.465 N  
HETATM   54  C   UNL     1      -6.330  14.102  71.164  1.00  0.00     0.167 C  
HETATM   55  H   UNL     1      -8.384  15.536  71.448  1.00  0.00     0.000 HD 
ENDBRANCH   9  48
TORSDOF 12
ENDMDL
MODEL      115
REMARK 921   NORMALIZED FREE ENERGY PREDICTED BY IDOCK:   15.37 KCAL/MOL
REMARK 922        TOTAL FREE ENERGY PREDICTED BY IDOCK:   22.06 KCAL/MOL
REMARK 923 INTER-LIGAND FREE ENERGY PREDICTED BY IDOCK:   12.94 KCAL/MOL
REMARK 924 INTRA-LIGAND FREE ENERGY PREDICTED BY IDOCK:    9.11 KCAL/MOL
REMARK 927      BINDING AFFINITY PREDICTED BY RF-SCORE:    0.00 PKD
ROOT
HETATM    1  C   UNL     1      -9.105   9.924  64.068  1.00  0.00    -0.300 C  
HETATM    2  C   UNL     1     -10.247   9.683  63.072  1.00  0.00     2.069 C  
HETATM    3  C   UNL     1     -10.713   8.229  63.072  1.00  0.00    10.560 C  
HETATM    4  C   UNL     1      -9.555   7.283  62.775  1.00  0.00     3.120 C  
HETATM    5  C   UNL     1      -8.403   7.476  63.756  1.00  0.00     0.159 C  
HETATM    6  C   UNL     1      -7.955   8.939  63.859  1.00  0.00    -0.154 C  
HETATM    7  C   UNL     1      -6.911   9.172  64.952  1.00  0.00    -0.081 C  
HETATM    8  N   UNL     1      -7.372   8.878  66.318  1.00  0.00    -0.086 NA 
HETATM    9  C   UNL     1      -8.758   9.325  66.618  1.00  0.00    -0.127 C  
HETATM   10  C   UNL     1      -9.616   9.976  65.514  1.00  0.00    -0.328 C  
ENDROOT
BRANCH   8  11
HETATM   11  C   UNL     1      -6.389   9.457  67.280  1.00  0.00    -0.062 C  
BRANCH  11  12
HETATM   12  C   UNL     1      -6.144   8.655  68.586  1.00  0.00    -0.045 C  
HETATM   13  H   UNL     1      -6.621   8.859  70.477  1.00  0.00     0.000 HD 
HETATM   14  O   UNL     1      -6.771   9.350  69.678  1.00  0.00    -0.044 OA 
BRANCH  12  15
HETATM   15  C   UNL     1      -6.717   7.210  68.544  1.00  0.00    -0.060 C  
BRANCH  15  16
HETATM   16  N   UNL     1      -7.904   7.116  69.417  1.00  0.00    -0.111 N  
HETATM   17  C   UNL     1      -8.041   7.898  70.549  1.00  0.00    -0.109 C  
HETATM   18  O   UNL     1      -7.139   8.622  70.974  1.00  0.00    -0.060 OA 
HETATM   19  H   UNL     1      -8.643   6.455  69.179  1.00  0.00     0.000 HD 
BRANCH  17  20
HETATM   20  C   UNL     1      -9.385   7.746  71.291  1.00  0.00    -0.152 C  
BRANCH  20  21
HETATM   21  N   UNL     1     -10.089   9.025  71.272  1.00  0.00    -0.287 N  
HETATM   22  H   UNL     1      -9.650   9.823  71.733  1.00  0.00     0.000 HD 
HETATM   23  C   UNL     1     -11.308   9.215  70.670  1.00  0.00    -0.273 C  
HETATM   24  O   UNL     1     -11.877   8.340  70.020  1.00  0.00     0.175 OA 
BRANCH  23  25
HETATM   25  C   UNL     1     -11.889  10.583  70.807  1.00  0.00    -0.365 A  
HETATM   26  N   UNL     1     -11.195  11.594  70.216  1.00  0.00     0.107 NA 
HETATM   27  C   UNL     1     -11.666  12.843  70.372  1.00  0.00    -0.026 A  
HETATM   28  C   UNL     1     -12.847  13.123  71.095  1.00  0.00    -0.349 A  
HETATM   29  C   UNL     1     -13.555  12.051  71.654  1.00  0.00     0.136 A  
HETATM   30  C   UNL     1     -13.286  14.447  71.252  1.00  0.00    -0.409 A  
HETATM   31  C   UNL     1     -13.068  10.758  71.514  1.00  0.00    -0.517 A  
HETATM   32  C   UNL     1     -12.559  15.499  70.700  1.00  0.00    -0.493 A  
HETATM   33  C   UNL     1     -11.401  15.229  69.977  1.00  0.00    -0.311 A  
HETATM   34  C   UNL     1     -10.970  13.908  69.817  1.00  0.00     0.020 A  
ENDBRANCH  23  25
ENDBRANCH  20  21
BRANCH  20  35
HETATM   35  C   UNL     1     -10.224   6.575  70.782  1.00  0.00    -0.218 C  
BRANCH  35  36
HETATM   36  C   UNL     1     -10.759   5.691  71.883  1.00  0.00    -0.241 C  
HETATM   37  N   UNL     1      -9.871   5.329  72.848  1.00  0.00    -0.154 N  
HETATM   38  O   UNL     1     -11.913   5.281  71.902  1.00  0.00     0.395 OA 
HETATM   39  H2  UNL     1      -8.899   5.638  72.830  1.00  0.00     0.000 HD 
HETATM   40  H1  UNL     1     -10.233   4.732  73.592  1.00  0.00     0.000 HD 
ENDBRANCH  35  36
ENDBRANCH  20  35
ENDBRANCH  17  20
ENDBRANCH  15  16
BRANCH  15  41
HETATM   41  C   UNL     1      -7.030   6.707  67.110  1.00  0.00    -0.071 C  
BRANCH  41  42
HETATM   42  C   UNL     1      -6.303   5.466  66.637  1.00  0.00    -0.036 A  
HETATM   43  C   UNL     1      -5.844   4.505  67.548  1.00  0.00    -0.023 A  
HETATM   44  C   UNL     1      -5.149   3.059  65.732  1.00  0.00    -0.008 A  
HETATM   45  C   UNL     1      -5.266   3.313  67.098  1.00  0.00    -0.008 A  
HETATM   46  C   UNL     1      -6.170   5.200  65.265  1.00  0.00    -0.034 A  
HETATM   47  C   UNL     1      -5.598   4.008  64.816  1.00  0.00    -0.014 A  
ENDBRANCH  41  42
ENDBRANCH  15  41
ENDBRANCH  12  15
ENDBRANCH  11  12
ENDBRANCH   8  11
BRANCH   9  48
HETATM   48  C   UNL     1      -9.570   8.160  67.269  1.00  0.00    -0.163 C  
HETATM   49  C   UNL     1     -12.137   6.462  67.192  1.00  0.00     2.987 C  
HETATM   50  O   UNL     1      -9.918   8.210  68.447  1.00  0.00    -0.178 OA 
HETATM   51  C   UNL     1     -10.134   5.157  67.987  1.00  0.00    -0.189 C  
HETATM   52  C   UNL     1     -10.731   5.959  66.817  1.00  0.00    -0.299 C  
HETATM   53  N   UNL     1      -9.845   7.079  66.449  1.00  0.00    -0.401 N  
HETATM   54  C   UNL     1     -10.875   5.009  65.613  1.00  0.00    -0.003 C  
HETATM   55  H   UNL     1      -9.407   7.056  65.529  1.00  0.00     0.000 HD 
ENDBRANCH   9  48
TORSDOF 12
ENDMDL
MODEL      116
REMARK 921   NORMALIZED FREE ENERGY PREDICTED BY IDOCK:   16.32 KCAL/MOL
REMARK 922        TOTAL FREE ENERGY PREDICTED BY IDOCK:   23.67 KCAL/MOL
REMARK 923 INTER-LIGAND FREE ENERGY PREDICTED BY IDOCK:   21.83 KCAL/MOL
REMARK 924 INTRA-LIGAND FREE ENERGY PREDICTED BY IDOCK:    1.83 KCAL/MOL
REMARK 927      BINDING AFFINITY PREDICTED BY RF-SCORE:    0.00 PKD
ROOT
HETATM    1  C   UNL     1      -9.657  14.779  66.289  1.00  0.00    -0.339 C  
HETATM    2  C   UNL     1      -8.847  15.930  66.900  1.00  0.00    -0.264 C  
HETATM    3  C   UNL     1      -7.698  15.428  67.770  1.00  0.00    -0.160 C  
HETATM    4  C   UNL     1      -8.208  14.508  68.873  1.00  0.00    -0.114 C  
HETATM    5  C   UNL     1      -9.003  13.335  68.308  1.00  0.00    -0.176 C  
HETATM    6  C   UNL     1     -10.118  13.784  67.354  1.00  0.00    -0.244 C  
HETATM    7  C   UNL     1     -10.819  12.617  66.658  1.00  0.00    -0.258 C  
HETATM    8  N   UNL     1      -9.953  11.809  65.786  1.00  0.00    -0.231 NA 
HETATM    9  C   UNL     1      -8.992  12.592  64.963  1.00  0.00     1.020 C  
HETATM   10  C   UNL     1      -8.914  14.125  65.117  1.00  0.00     1.979 C  
ENDROOT
BRANCH   8  11
HETATM   11  C   UNL     1     -10.820  10.941  64.936  1.00  0.00    -0.080 C  
BRANCH  11  12
HETATM   12  C   UNL     1     -11.475   9.721  65.637  1.00  0.00     3.215 C  
HETATM   13  H   UNL     1     -12.483   8.139  65.063  1.00  0.00     0.000 HD 
HETATM   14  O   UNL     1     -12.082   8.886  64.635  1.00  0.00    12.275 OA 
BRANCH  12  15
HETATM   15  C   UNL     1     -10.469   8.852  66.442  1.00  0.00    -0.001 C  
BRANCH  15  16
HETATM   16  N   UNL     1     -10.698   9.030  67.889  1.00  0.00    -0.438 N  
HETATM   17  C   UNL     1     -11.366  10.132  68.392  1.00  0.00    -0.113 C  
HETATM   18  O   UNL     1     -11.695  11.090  67.691  1.00  0.00    -0.576 OA 
HETATM   19  H   UNL     1     -10.355   8.321  68.537  1.00  0.00     0.000 HD 
BRANCH  17  20
HETATM   20  C   UNL     1     -11.608  10.111  69.916  1.00  0.00    -0.223 C  
BRANCH  20  21
HETATM   21  N   UNL     1     -11.023   8.896  70.477  1.00  0.00    -0.235 N  
HETATM   22  H   UNL     1     -10.056   8.932  70.799  1.00  0.00     0.000 HD 
HETATM   23  C   UNL     1     -11.703   7.709  70.594  1.00  0.00    -0.193 C  
HETATM   24  O   UNL     1     -12.892   7.588  70.312  1.00  0.00     0.438 OA 
BRANCH  23  25
HETATM   25  C   UNL     1     -10.914   6.567  71.144  1.00  0.00    -0.266 A  
HETATM   26  N   UNL     1     -10.797   5.474  70.340  1.00  0.00    -0.252 NA 
HETATM   27  C   UNL     1     -10.140   4.410  70.833  1.00  0.00    -0.129 A  
HETATM   28  C   UNL     1      -9.562   4.406  72.122  1.00  0.00    -0.206 A  
HETATM   29  C   UNL     1      -9.669   5.565  72.902  1.00  0.00    -0.170 A  
HETATM   30  C   UNL     1      -8.905   3.261  72.602  1.00  0.00    -0.101 A  
HETATM   31  C   UNL     1     -10.360   6.664  72.410  1.00  0.00    -0.217 A  
HETATM   32  C   UNL     1      -8.824   2.116  71.815  1.00  0.00    -0.115 A  
HETATM   33  C   UNL     1      -9.381   2.117  70.540  1.00  0.00    -0.192 A  
HETATM   34  C   UNL     1     -10.027   3.261  70.061  1.00  0.00     0.328 A  
ENDBRANCH  23  25
ENDBRANCH  20  21
BRANCH  20  35
HETATM   35  C   UNL     1     -11.154  11.392  70.614  1.00  0.00     0.895 C  
BRANCH  35  36
HETATM   36  C   UNL     1     -12.282  12.165  71.253  1.00  0.00     0.111 C  
HETATM   37  N   UNL     1     -12.102  13.510  71.362  1.00  0.00    -0.295 N  
HETATM   38  O   UNL     1     -13.292  11.627  71.689  1.00  0.00    -0.343 OA 
HETATM   39  H2  UNL     1     -11.254  13.968  71.031  1.00  0.00     0.000 HD 
HETATM   40  H1  UNL     1     -12.864  14.032  71.793  1.00  0.00     0.000 HD 
ENDBRANCH  35  36
ENDBRANCH  20  35
ENDBRANCH  17  20
ENDBRANCH  15  16
BRANCH  15  41
HETATM   41  C   UNL     1     -10.490   7.352  66.048  1.00  0.00     1.135 C  
BRANCH  41  42
HETATM   42  C   UNL     1      -9.272   6.524  66.404  1.00  0.00    -0.178 A  
HETATM   43  C   UNL     1      -8.982   6.201  67.736  1.00  0.00    -0.115 A  
HETATM   44  C   UNL     1      -7.131   4.804  67.033  1.00  0.00    -0.072 A  
HETATM   45  C   UNL     1      -7.915   5.351  68.048  1.00  0.00    -0.096 A  
HETATM   46  C   UNL     1      -8.468   5.973  65.394  1.00  0.00    -0.145 A  
HETATM   47  C   UNL     1      -7.407   5.120  65.704  1.00  0.00    -0.073 A  
ENDBRANCH  41  42
ENDBRANCH  15  41
ENDBRANCH  12  15
ENDBRANCH  11  12
ENDBRANCH   8  11
BRANCH   9  48
HETATM   48  C   UNL     1      -7.555  11.995  65.102  1.00  0.00     2.622 C  
HETATM   49  C   UNL     1      -5.707  10.080  66.652  1.00  0.00    -0.050 C  
HETATM   50  O   UNL     1      -6.584  12.721  65.303  1.00  0.00     5.095 OA 
HETATM   51  C   UNL     1      -5.126  10.221  64.204  1.00  0.00    -0.120 C  
HETATM   52  C   UNL     1      -6.221   9.849  65.218  1.00  0.00    -0.093 C  
HETATM   53  N   UNL     1      -7.452  10.622  64.963  1.00  0.00    -0.350 N  
HETATM   54  C   UNL     1      -6.525   8.346  65.062  1.00  0.00    -0.060 C  
HETATM   55  H   UNL     1      -8.281  10.109  64.663  1.00  0.00     0.000 HD 
ENDBRANCH   9  48
TORSDOF 12
ENDMDL
MODEL      117
REMARK 921   NORMALIZED FREE ENERGY PREDICTED BY IDOCK:   16.82 KCAL/MOL
REMARK 922        TOTAL FREE ENERGY PREDICTED BY IDOCK:   24.53 KCAL/MOL
REMARK 923 INTER-LIGAND FREE ENERGY PREDICTED BY IDOCK:    8.44 KCAL/MOL
REMARK 924 INTRA-LIGAND FREE ENERGY PREDICTED BY IDOCK:   16.09 KCAL/MOL
REMARK 927      BINDING AFFINITY PREDICTED BY RF-SCORE:    0.00 PKD
ROOT
HETATM    1  C   UNL     1      -8.633   9.919  63.152  1.00  0.00    -0.199 C  
HETATM    2  C   UNL     1      -9.987   9.877  62.431  1.00  0.00     0.689 C  
HETATM    3  C   UNL     1     -10.750   8.585  62.712  1.00  0.00     9.011 C  
HETATM    4  C   UNL     1      -9.919   7.365  62.330  1.00  0.00     4.264 C  
HETATM    5  C   UNL     1      -8.569   7.356  63.042  1.00  0.00     0.393 C  
HETATM    6  C   UNL     1      -7.800   8.671  62.863  1.00  0.00    -0.137 C  
HETATM    7  C   UNL     1      -6.520   8.736  63.698  1.00  0.00    -0.088 C  
HETATM    8  N   UNL     1      -6.731   8.680  65.153  1.00  0.00    -0.064 NA 
HETATM    9  C   UNL     1      -7.887   9.473  65.647  1.00  0.00    -0.101 C  
HETATM   10  C   UNL     1      -8.798  10.216  64.648  1.00  0.00    -0.220 C  
ENDROOT
BRANCH   8  11
HETATM   11  C   UNL     1      -5.461   9.084  65.827  1.00  0.00    -0.041 C  
BRANCH  11  12
HETATM   12  C   UNL     1      -5.224   8.516  67.252  1.00  0.00    -0.033 C  
HETATM   13  H   UNL     1      -5.226   9.237  69.075  1.00  0.00     0.000 HD 
HETATM   14  O   UNL     1      -5.371   9.584  68.203  1.00  0.00    -0.037 OA 
BRANCH  12  15
HETATM   15  C   UNL     1      -6.215   7.384  67.643  1.00  0.00    -0.047 C  
BRANCH  15  16
HETATM   16  N   UNL     1      -7.283   7.928  68.504  1.00  0.00    -0.083 N  
HETATM   17  C   UNL     1      -7.079   9.034  69.309  1.00  0.00    -0.058 C  
HETATM   18  O   UNL     1      -5.973   9.554  69.461  1.00  0.00    -0.033 OA 
HETATM   19  H   UNL     1      -8.198   7.476  68.506  1.00  0.00     0.000 HD 
BRANCH  17  20
HETATM   20  C   UNL     1      -8.328   9.531  70.067  1.00  0.00    -0.179 C  
BRANCH  20  21
HETATM   21  N   UNL     1      -8.602  10.913  69.682  1.00  0.00    -0.325 N  
HETATM   22  H   UNL     1      -7.944  11.634  69.977  1.00  0.00     0.000 HD 
HETATM   23  C   UNL     1      -9.697  11.295  68.946  1.00  0.00    -0.127 C  
HETATM   24  O   UNL     1     -10.500  10.493  68.476  1.00  0.00    -0.169 OA 
BRANCH  23  25
HETATM   25  C   UNL     1      -9.829  12.762  68.702  1.00  0.00    -0.063 A  
HETATM   26  N   UNL     1      -8.813  13.351  68.011  1.00  0.00    -0.175 NA 
HETATM   27  C   UNL     1      -8.880  14.680  67.827  1.00  0.00    -0.177 A  
HETATM   28  C   UNL     1      -9.961  15.459  68.298  1.00  0.00    -0.214 A  
HETATM   29  C   UNL     1     -11.005  14.809  68.969  1.00  0.00    -0.257 A  
HETATM   30  C   UNL     1      -9.974  16.849  68.102  1.00  0.00    -0.285 A  
HETATM   31  C   UNL     1     -10.939  13.438  69.180  1.00  0.00    -0.213 A  
HETATM   32  C   UNL     1      -8.917  17.476  67.446  1.00  0.00    -0.230 A  
HETATM   33  C   UNL     1      -7.855  16.714  66.969  1.00  0.00    -0.233 A  
HETATM   34  C   UNL     1      -7.849  15.329  67.159  1.00  0.00    -0.249 A  
ENDBRANCH  23  25
ENDBRANCH  20  21
BRANCH  20  35
HETATM   35  C   UNL     1      -9.530   8.601  69.920  1.00  0.00    -0.168 C  
BRANCH  35  36
HETATM   36  C   UNL     1     -10.233   8.310  71.224  1.00  0.00    -0.202 C  
HETATM   37  N   UNL     1     -11.517   7.869  71.129  1.00  0.00    -0.270 N  
HETATM   38  O   UNL     1      -9.707   8.492  72.316  1.00  0.00    -0.280 OA 
HETATM   39  H2  UNL     1     -11.978   7.742  70.229  1.00  0.00     0.000 HD 
HETATM   40  H1  UNL     1     -11.991   7.672  72.010  1.00  0.00     0.000 HD 
ENDBRANCH  35  36
ENDBRANCH  20  35
ENDBRANCH  17  20
ENDBRANCH  15  16
BRANCH  15  41
HETATM   41  C   UNL     1      -6.803   6.625  66.425  1.00  0.00    -0.061 C  
BRANCH  41  42
HETATM   42  C   UNL     1      -6.542   5.136  66.343  1.00  0.00    -0.049 A  
HETATM   43  C   UNL     1      -6.314   4.377  67.499  1.00  0.00    -0.037 A  
HETATM   44  C   UNL     1      -6.275   2.334  66.196  1.00  0.00    -0.024 A  
HETATM   45  C   UNL     1      -6.176   2.987  67.425  1.00  0.00    -0.032 A  
HETATM   46  C   UNL     1      -6.631   4.465  65.113  1.00  0.00    -0.047 A  
HETATM   47  C   UNL     1      -6.499   3.077  65.039  1.00  0.00    -0.035 A  
ENDBRANCH  41  42
ENDBRANCH  15  41
ENDBRANCH  12  15
ENDBRANCH  11  12
ENDBRANCH   8  11
BRANCH   9  48
HETATM   48  C   UNL     1      -8.776   8.599  66.589  1.00  0.00    -0.123 C  
HETATM   49  C   UNL     1     -11.403   7.026  66.911  1.00  0.00     0.337 C  
HETATM   50  O   UNL     1      -9.177   9.034  67.666  1.00  0.00    -0.135 OA 
HETATM   51  C   UNL     1      -9.494   6.001  68.198  1.00  0.00    -0.115 C  
HETATM   52  C   UNL     1     -10.002   6.397  66.800  1.00  0.00    -0.171 C  
HETATM   53  N   UNL     1      -9.055   7.318  66.145  1.00  0.00    -0.277 N  
HETATM   54  C   UNL     1     -10.126   5.113  65.958  1.00  0.00    -0.197 C  
HETATM   55  H   UNL     1      -8.574   6.989  65.308  1.00  0.00     0.000 HD 
ENDBRANCH   9  48
TORSDOF 12
ENDMDL
MODEL      118
REMARK 921   NORMALIZED FREE ENERGY PREDICTED BY IDOCK:   18.63 KCAL/MOL
REMARK 922        TOTAL FREE ENERGY PREDICTED BY IDOCK:   27.61 KCAL/MOL
REMARK 923 INTER-LIGAND FREE ENERGY PREDICTED BY IDOCK:   20.71 KCAL/MOL
REMARK 924 INTRA-LIGAND FREE ENERGY PREDICTED BY IDOCK:    6.89 KCAL/MOL
REMARK 927      BINDING AFFINITY PREDICTED BY RF-SCORE:    0.00 PKD
ROOT
HETATM    1  C   UNL     1      -6.452  13.496  72.007  1.00  0.00     2.172 C  
HETATM    2  C   UNL     1      -7.031  14.884  72.315  1.00  0.00     2.713 C  
HETATM    3  C   UNL     1      -7.774  15.477  71.121  1.00  0.00     2.967 C  
HETATM    4  C   UNL     1      -6.870  15.551  69.895  1.00  0.00    -0.093 C  
HETATM    5  C   UNL     1      -6.288  14.186  69.540  1.00  0.00    -0.120 C  
HETATM    6  C   UNL     1      -5.605  13.507  70.734  1.00  0.00    -0.186 C  
HETATM    7  C   UNL     1      -5.157  12.076  70.436  1.00  0.00    -0.102 C  
HETATM    8  N   UNL     1      -6.248  11.143  70.115  1.00  0.00    -0.141 NA 
HETATM    9  C   UNL     1      -7.467  11.296  70.953  1.00  0.00     3.532 C  
HETATM   10  C   UNL     1      -7.541  12.415  72.011  1.00  0.00    11.861 C  
ENDROOT
BRANCH   8  11
HETATM   11  C   UNL     1      -5.711   9.752  70.178  1.00  0.00    -0.044 C  
BRANCH  11  12
HETATM   12  C   UNL     1      -6.737   8.627  70.482  1.00  0.00    -0.040 C  
HETATM   13  H   UNL     1      -7.978   8.208  71.942  1.00  0.00     0.000 HD 
HETATM   14  O   UNL     1      -7.350   8.896  71.755  1.00  0.00    -0.256 OA 
BRANCH  12  15
HETATM   15  C   UNL     1      -7.866   8.512  69.420  1.00  0.00    -0.098 C  
BRANCH  15  16
HETATM   16  N   UNL     1      -7.276   8.378  68.074  1.00  0.00    -0.089 N  
HETATM   17  C   UNL     1      -5.918   8.522  67.855  1.00  0.00    -0.047 C  
HETATM   18  O   UNL     1      -5.136   8.895  68.730  1.00  0.00    -0.033 OA 
HETATM   19  H   UNL     1      -7.886   8.173  67.282  1.00  0.00     0.000 HD 
BRANCH  17  20
HETATM   20  C   UNL     1      -5.456   8.251  66.407  1.00  0.00    -0.028 C  
BRANCH  20  21
HETATM   21  N   UNL     1      -6.109   7.040  65.916  1.00  0.00    -0.035 N  
HETATM   22  H   UNL     1      -6.603   6.453  66.588  1.00  0.00     0.000 HD 
HETATM   23  C   UNL     1      -6.093   6.648  64.600  1.00  0.00    -0.035 C  
HETATM   24  O   UNL     1      -5.597   7.327  63.705  1.00  0.00    -0.036 OA 
BRANCH  23  25
HETATM   25  C   UNL     1      -6.772   5.351  64.306  1.00  0.00    -0.046 A  
HETATM   26  N   UNL     1      -8.105   5.293  64.581  1.00  0.00    -0.116 NA 
HETATM   27  C   UNL     1      -8.728   4.120  64.378  1.00  0.00    -0.130 A  
HETATM   28  C   UNL     1      -8.058   2.981  63.879  1.00  0.00    -0.082 A  
HETATM   29  C   UNL     1      -6.696   3.093  63.570  1.00  0.00    -0.035 A  
HETATM   30  C   UNL     1      -8.747   1.769  63.707  1.00  0.00    -0.085 A  
HETATM   31  C   UNL     1      -6.037   4.295  63.791  1.00  0.00    -0.018 A  
HETATM   32  C   UNL     1     -10.097   1.677  64.034  1.00  0.00    -0.033 A  
HETATM   33  C   UNL     1     -10.766   2.798  64.516  1.00  0.00     0.556 A  
HETATM   34  C   UNL     1     -10.079   4.005  64.678  1.00  0.00    -0.215 A  
ENDBRANCH  23  25
ENDBRANCH  20  21
BRANCH  20  35
HETATM   35  C   UNL     1      -5.624   9.457  65.486  1.00  0.00    -0.048 C  
BRANCH  35  36
HETATM   36  C   UNL     1      -6.937  10.180  65.669  1.00  0.00    -0.125 C  
HETATM   37  N   UNL     1      -6.864  11.438  66.183  1.00  0.00    -0.371 N  
HETATM   38  O   UNL     1      -8.019   9.665  65.412  1.00  0.00    -0.113 OA 
HETATM   39  H2  UNL     1      -5.973  11.868  66.430  1.00  0.00     0.000 HD 
HETATM   40  H1  UNL     1      -7.751  11.926  66.307  1.00  0.00     0.000 HD 
ENDBRANCH  35  36
ENDBRANCH  20  35
ENDBRANCH  17  20
ENDBRANCH  15  16
BRANCH  15  41
HETATM   41  C   UNL     1      -8.876   7.371  69.709  1.00  0.00    -0.141 C  
BRANCH  41  42
HETATM   42  C   UNL     1     -10.025   7.683  70.645  1.00  0.00    -0.183 A  
HETATM   43  C   UNL     1     -11.273   8.084  70.150  1.00  0.00    -0.145 A  
HETATM   44  C   UNL     1     -12.213   8.049  72.383  1.00  0.00    -0.337 A  
HETATM   45  C   UNL     1     -12.358   8.270  71.014  1.00  0.00    -0.145 A  
HETATM   46  C   UNL     1      -9.893   7.472  72.027  1.00  0.00    -0.200 A  
HETATM   47  C   UNL     1     -10.977   7.653  72.889  1.00  0.00    -0.456 A  
ENDBRANCH  41  42
ENDBRANCH  15  41
ENDBRANCH  12  15
ENDBRANCH  11  12
ENDBRANCH   8  11
BRANCH   9  48
HETATM   48  C   UNL     1      -8.737  11.373  70.046  1.00  0.00     2.106 C  
HETATM   49  C   UNL     1     -11.326  12.899  69.373  1.00  0.00    -0.265 C  
HETATM   50  O   UNL     1      -9.549  10.451  70.013  1.00  0.00    -0.061 OA 
HETATM   51  C   UNL     1     -10.264  11.847  67.344  1.00  0.00    -0.214 C  
HETATM   52  C   UNL     1     -10.066  12.858  68.488  1.00  0.00    -0.189 C  
HETATM   53  N   UNL     1      -8.869  12.518  69.281  1.00  0.00     0.169 N  
HETATM   54  C   UNL     1      -9.882  14.254  67.864  1.00  0.00    -0.226 C  
HETATM   55  H   UNL     1      -8.087  13.172  69.263  1.00  0.00     0.000 HD 
ENDBRANCH   9  48
TORSDOF 12
ENDMDL
MODEL      119
REMARK 921   NORMALIZED FREE ENERGY PREDICTED BY IDOCK:   19.46 KCAL/MOL
REMARK 922        TOTAL FREE ENERGY PREDICTED BY IDOCK:   29.01 KCAL/MOL
REMARK 923 INTER-LIGAND FREE ENERGY PREDICTED BY IDOCK:   18.95 KCAL/MOL
REMARK 924 INTRA-LIGAND FREE ENERGY PREDICTED BY IDOCK:   10.07 KCAL/MOL
REMARK 927      BINDING AFFINITY PREDICTED BY RF-SCORE:    0.00 PKD
ROOT
HETATM    1  C   UNL     1      -6.230  12.983  72.157  1.00  0.00     2.255 C  
HETATM    2  C   UNL     1      -6.708  14.409  72.463  1.00  0.00     2.150 C  
HETATM    3  C   UNL     1      -7.495  15.014  71.303  1.00  0.00     2.271 C  
HETATM    4  C   UNL     1      -6.673  15.005  70.019  1.00  0.00    -0.147 C  
HETATM    5  C   UNL     1      -6.194  13.600  69.666  1.00  0.00    -0.122 C  
HETATM    6  C   UNL     1      -5.472  12.913  70.832  1.00  0.00    -0.185 C  
HETATM    7  C   UNL     1      -5.126  11.451  70.545  1.00  0.00    -0.096 C  
HETATM    8  N   UNL     1      -6.287  10.575  70.324  1.00  0.00    -0.127 NA 
HETATM    9  C   UNL     1      -7.436  10.820  71.236  1.00  0.00     3.462 C  
HETATM   10  C   UNL     1      -7.375  11.967  72.264  1.00  0.00    11.000 C  
ENDROOT
BRANCH   8  11
HETATM   11  C   UNL     1      -5.826   9.157  70.392  1.00  0.00    -0.036 C  
BRANCH  11  12
HETATM   12  C   UNL     1      -6.919   8.086  70.652  1.00  0.00    -0.041 C  
HETATM   13  H   UNL     1      -8.253   7.743  72.047  1.00  0.00     0.000 HD 
HETATM   14  O   UNL     1      -7.585   8.399  71.888  1.00  0.00    -0.103 OA 
BRANCH  12  15
HETATM   15  C   UNL     1      -7.994   8.011  69.532  1.00  0.00    -0.115 C  
BRANCH  15  16
HETATM   16  N   UNL     1      -7.360   8.208  68.214  1.00  0.00    -0.093 N  
HETATM   17  C   UNL     1      -6.071   8.693  68.089  1.00  0.00    -0.051 C  
HETATM   18  O   UNL     1      -5.420   9.111  69.048  1.00  0.00    -0.036 OA 
HETATM   19  H   UNL     1      -7.887   7.980  67.370  1.00  0.00     0.000 HD 
BRANCH  17  20
HETATM   20  C   UNL     1      -5.527   8.742  66.646  1.00  0.00    -0.039 C  
BRANCH  20  21
HETATM   21  N   UNL     1      -5.909   7.517  65.949  1.00  0.00    -0.037 N  
HETATM   22  H   UNL     1      -5.242   6.745  65.933  1.00  0.00     0.000 HD 
HETATM   23  C   UNL     1      -7.114   7.347  65.313  1.00  0.00    -0.064 C  
HETATM   24  O   UNL     1      -8.013   8.185  65.347  1.00  0.00    -0.110 OA 
BRANCH  23  25
HETATM   25  C   UNL     1      -7.294   6.042  64.611  1.00  0.00    -0.071 A  
HETATM   26  N   UNL     1      -8.575   5.597  64.487  1.00  0.00    -0.067 NA 
HETATM   27  C   UNL     1      -8.760   4.398  63.909  1.00  0.00    -0.133 A  
HETATM   28  C   UNL     1      -7.689   3.619  63.418  1.00  0.00    -0.067 A  
HETATM   29  C   UNL     1      -6.389   4.130  63.528  1.00  0.00    -0.022 A  
HETATM   30  C   UNL     1      -7.930   2.360  62.844  1.00  0.00    -0.068 A  
HETATM   31  C   UNL     1      -6.184   5.361  64.139  1.00  0.00    -0.022 A  
HETATM   32  C   UNL     1      -9.229   1.865  62.758  1.00  0.00    -0.090 A  
HETATM   33  C   UNL     1     -10.290   2.632  63.229  1.00  0.00    -0.171 A  
HETATM   34  C   UNL     1     -10.047   3.888  63.794  1.00  0.00    -0.186 A  
ENDBRANCH  23  25
ENDBRANCH  20  21
BRANCH  20  35
HETATM   35  C   UNL     1      -5.912  10.019  65.902  1.00  0.00    -0.077 C  
BRANCH  35  36
HETATM   36  C   UNL     1      -6.231  11.179  66.814  1.00  0.00    -0.122 C  
HETATM   37  N   UNL     1      -7.425  11.121  67.464  1.00  0.00    -0.099 N  
HETATM   38  O   UNL     1      -5.487  12.144  66.945  1.00  0.00    -0.268 OA 
HETATM   39  H2  UNL     1      -8.067  10.339  67.342  1.00  0.00     0.000 HD 
HETATM   40  H1  UNL     1      -7.640  11.905  68.080  1.00  0.00     0.000 HD 
ENDBRANCH  35  36
ENDBRANCH  20  35
ENDBRANCH  17  20
ENDBRANCH  15  16
BRANCH  15  41
HETATM   41  C   UNL     1      -8.834   6.707  69.565  1.00  0.00    -0.139 C  
BRANCH  41  42
HETATM   42  C   UNL     1      -8.536   5.718  70.673  1.00  0.00    -0.128 A  
HETATM   43  C   UNL     1      -7.340   4.988  70.688  1.00  0.00    -0.065 A  
HETATM   44  C   UNL     1      -7.897   4.048  72.851  1.00  0.00    -0.080 A  
HETATM   45  C   UNL     1      -7.026   4.155  71.767  1.00  0.00    -0.037 A  
HETATM   46  C   UNL     1      -9.406   5.594  71.767  1.00  0.00    -0.163 A  
HETATM   47  C   UNL     1      -9.091   4.766  72.847  1.00  0.00    -0.127 A  
ENDBRANCH  41  42
ENDBRANCH  15  41
ENDBRANCH  12  15
ENDBRANCH  11  12
ENDBRANCH   8  11
BRANCH   9  48
HETATM   48  C   UNL     1      -8.758  10.947  70.413  1.00  0.00     2.252 C  
HETATM   49  C   UNL     1     -10.898   9.487  68.748  1.00  0.00    -0.173 C  
HETATM   50  O   UNL     1      -8.823  11.677  69.426  1.00  0.00     0.391 OA 
HETATM   51  C   UNL     1     -11.841  11.420  70.061  1.00  0.00    -0.440 C  
HETATM   52  C   UNL     1     -11.115  10.067  70.158  1.00  0.00    -0.310 C  
HETATM   53  N   UNL     1      -9.836  10.213  70.877  1.00  0.00    -0.011 N  
HETATM   54  C   UNL     1     -12.024   9.093  70.933  1.00  0.00    -0.299 C  
HETATM   55  H   UNL     1      -9.739   9.741  71.776  1.00  0.00     0.000 HD 
ENDBRANCH   9  48
TORSDOF 12
ENDMDL
MODEL      120
REMARK 921   NORMALIZED FREE ENERGY PREDICTED BY IDOCK:   20.52 KCAL/MOL
REMARK 922        TOTAL FREE ENERGY PREDICTED BY IDOCK:   30.83 KCAL/MOL
REMARK 923 INTER-LIGAND FREE ENERGY PREDICTED BY IDOCK:   28.87 KCAL/MOL
REMARK 924 INTRA-LIGAND FREE ENERGY PREDICTED BY IDOCK:    1.96 KCAL/MOL
REMARK 927      BINDING AFFINITY PREDICTED BY RF-SCORE:    0.00 PKD
ROOT
HETATM    1  C   UNL     1      -9.657  14.779  66.287  1.00  0.00    -0.339 C  
HETATM    2  C   UNL     1      -8.832  15.921  66.894  1.00  0.00    -0.264 C  
HETATM    3  C   UNL     1      -7.680  15.405  67.752  1.00  0.00    -0.160 C  
HETATM    4  C   UNL     1      -8.188  14.486  68.857  1.00  0.00    -0.114 C  
HETATM    5  C   UNL     1      -8.999  13.323  68.295  1.00  0.00    -0.176 C  
HETATM    6  C   UNL     1     -10.118  13.785  67.353  1.00  0.00    -0.244 C  
HETATM    7  C   UNL     1     -10.836  12.626  66.660  1.00  0.00    -0.258 C  
HETATM    8  N   UNL     1      -9.985  11.814  65.777  1.00  0.00    -0.231 NA 
HETATM    9  C   UNL     1      -9.025  12.590  64.949  1.00  0.00     1.120 C  
HETATM   10  C   UNL     1      -8.931  14.121  65.106  1.00  0.00     1.979 C  
ENDROOT
BRANCH   8  11
HETATM   11  C   UNL     1     -10.868  10.956  64.933  1.00  0.00    -0.080 C  
BRANCH  11  12
HETATM   12  C   UNL     1     -11.530   9.741  65.636  1.00  0.00     3.215 C  
HETATM   13  H   UNL     1     -12.562   8.173  65.068  1.00  0.00     0.000 HD 
HETATM   14  O   UNL     1     -12.157   8.917  64.638  1.00  0.00    12.275 OA 
BRANCH  12  15
HETATM   15  C   UNL     1     -10.525   8.857  66.427  1.00  0.00    -0.001 C  
BRANCH  15  16
HETATM   16  N   UNL     1     -10.734   9.034  67.877  1.00  0.00    -0.438 N  
HETATM   17  C   UNL     1     -11.376  10.146  68.391  1.00  0.00    -0.113 C  
HETATM   18  O   UNL     1     -11.695  11.112  67.698  1.00  0.00    -0.573 OA 
HETATM   19  H   UNL     1     -10.396   8.316  68.519  1.00  0.00     0.000 HD 
BRANCH  17  20
HETATM   20  C   UNL     1     -11.601  10.124  69.918  1.00  0.00    -0.223 C  
BRANCH  20  21
HETATM   21  N   UNL     1     -11.990  11.460  70.363  1.00  0.00    -0.362 N  
HETATM   22  H   UNL     1     -11.976  12.217  69.680  1.00  0.00     0.000 HD 
HETATM   23  C   UNL     1     -12.374  11.751  71.649  1.00  0.00     0.170 C  
HETATM   24  O   UNL     1     -12.502  10.894  72.520  1.00  0.00     0.617 OA 
BRANCH  23  25
HETATM   25  C   UNL     1     -12.682  13.187  71.919  1.00  0.00    -0.127 A  
HETATM   26  N   UNL     1     -11.932  13.793  72.880  1.00  0.00     0.916 NA 
HETATM   27  C   UNL     1     -12.227  15.069  73.182  1.00  0.00    -0.364 A  
HETATM   28  C   UNL     1     -13.254  15.786  72.528  1.00  0.00    -0.568 A  
HETATM   29  C   UNL     1     -13.976  15.139  71.517  1.00  0.00    -0.614 A  
HETATM   30  C   UNL     1     -13.541  17.110  72.896  1.00  0.00     3.563 A  
HETATM   31  C   UNL     1     -13.692  13.815  71.207  1.00  0.00    -0.104 A  
HETATM   32  C   UNL     1     -12.820  17.728  73.915  1.00  0.00     2.905 A  
HETATM   33  C   UNL     1     -11.800  17.032  74.556  1.00  0.00     0.069 A  
HETATM   34  C   UNL     1     -11.512  15.716  74.181  1.00  0.00     0.848 A  
ENDBRANCH  23  25
ENDBRANCH  20  21
BRANCH  20  35
HETATM   35  C   UNL     1     -12.556   9.022  70.370  1.00  0.00     0.490 C  
BRANCH  35  36
HETATM   36  C   UNL     1     -11.856   7.787  70.885  1.00  0.00    -0.239 C  
HETATM   37  N   UNL     1     -12.648   6.848  71.470  1.00  0.00    -0.377 N  
HETATM   38  O   UNL     1     -10.642   7.640  70.824  1.00  0.00    -0.216 OA 
HETATM   39  H2  UNL     1     -13.657   6.971  71.555  1.00  0.00     0.000 HD 
HETATM   40  H1  UNL     1     -12.175   6.015  71.818  1.00  0.00     0.000 HD 
ENDBRANCH  35  36
ENDBRANCH  20  35
ENDBRANCH  17  20
ENDBRANCH  15  16
BRANCH  15  41
HETATM   41  C   UNL     1     -10.570   7.358  66.029  1.00  0.00     1.417 C  
BRANCH  41  42
HETATM   42  C   UNL     1      -9.380   6.503  66.413  1.00  0.00    -0.175 A  
HETATM   43  C   UNL     1      -8.934   5.468  65.580  1.00  0.00    -0.152 A  
HETATM   44  C   UNL     1      -7.036   5.066  67.032  1.00  0.00    -0.064 A  
HETATM   45  C   UNL     1      -7.774   4.751  65.891  1.00  0.00    -0.091 A  
HETATM   46  C   UNL     1      -8.631   6.803  67.562  1.00  0.00    -0.120 A  
HETATM   47  C   UNL     1      -7.469   6.092  67.869  1.00  0.00    -0.085 A  
ENDBRANCH  41  42
ENDBRANCH  15  41
ENDBRANCH  12  15
ENDBRANCH  11  12
ENDBRANCH   8  11
BRANCH   9  48
HETATM   48  C   UNL     1      -7.592  11.980  65.072  1.00  0.00     2.868 C  
HETATM   49  C   UNL     1      -5.792   9.913  66.477  1.00  0.00    -0.055 C  
HETATM   50  O   UNL     1      -6.629  12.679  65.378  1.00  0.00     3.979 OA 
HETATM   51  C   UNL     1      -5.133  10.303  64.077  1.00  0.00    -0.124 C  
HETATM   52  C   UNL     1      -6.260   9.831  65.012  1.00  0.00    -0.094 C  
HETATM   53  N   UNL     1      -7.482  10.628  64.797  1.00  0.00    -0.355 N  
HETATM   54  C   UNL     1      -6.555   8.352  64.694  1.00  0.00    -0.065 C  
HETATM   55  H   UNL     1      -8.300  10.150  64.420  1.00  0.00     0.000 HD 
ENDBRANCH   9  48
TORSDOF 12
ENDMDL
MODEL      121
REMARK 921   NORMALIZED FREE ENERGY PREDICTED BY IDOCK:   23.14 KCAL/MOL
REMARK 922        TOTAL FREE ENERGY PREDICTED BY IDOCK:   35.27 KCAL/MOL
REMARK 923 INTER-LIGAND FREE ENERGY PREDICTED BY IDOCK:   10.09 KCAL/MOL
REMARK 924 INTRA-LIGAND FREE ENERGY PREDICTED BY IDOCK:   25.18 KCAL/MOL
REMARK 927      BINDING AFFINITY PREDICTED BY RF-SCORE:    0.00 PKD
ROOT
HETATM    1  C   UNL     1      -9.064   8.001  69.627  1.00  0.00    -0.152 C  
HETATM    2  C   UNL     1      -8.678   6.516  69.614  1.00  0.00    -0.139 C  
HETATM    3  C   UNL     1      -8.770   5.908  68.216  1.00  0.00    -0.112 C  
HETATM    4  C   UNL     1     -10.167   6.088  67.632  1.00  0.00    -0.221 C  
HETATM    5  C   UNL     1     -10.583   7.556  67.607  1.00  0.00    -0.303 C  
HETATM    6  C   UNL     1     -10.424   8.237  68.972  1.00  0.00    -0.212 C  
HETATM    7  C   UNL     1     -10.687   9.743  68.926  1.00  0.00    -0.217 C  
HETATM    8  N   UNL     1      -9.760  10.504  68.075  1.00  0.00    -0.146 NA 
HETATM    9  C   UNL     1      -8.337  10.081  68.168  1.00  0.00    -0.113 C  
HETATM   10  C   UNL     1      -7.945   8.881  69.054  1.00  0.00    -0.106 C  
ENDROOT
BRANCH   8  11
HETATM   11  C   UNL     1      -9.921  11.955  68.386  1.00  0.00    -0.203 C  
BRANCH  11  12
HETATM   12  C   UNL     1     -10.466  12.851  67.242  1.00  0.00    -0.234 C  
HETATM   13  H   UNL     1     -11.533  12.574  65.620  1.00  0.00     0.000 HD 
HETATM   14  O   UNL     1     -11.200  12.025  66.320  1.00  0.00    -0.313 OA 
BRANCH  12  15
HETATM   15  C   UNL     1     -11.414  13.981  67.734  1.00  0.00    -0.322 C  
BRANCH  15  16
HETATM   16  N   UNL     1     -12.420  13.423  68.659  1.00  0.00    -0.037 N  
HETATM   17  C   UNL     1     -12.507  12.066  68.910  1.00  0.00     0.515 C  
HETATM   18  O   UNL     1     -11.849  11.229  68.291  1.00  0.00    -0.516 OA 
HETATM   19  H   UNL     1     -13.070  14.056  69.125  1.00  0.00     0.000 HD 
BRANCH  17  20
HETATM   20  C   UNL     1     -13.547  11.664  69.978  1.00  0.00     2.496 C  
BRANCH  20  21
HETATM   21  N   UNL     1     -13.060  10.493  70.702  1.00  0.00    -0.397 N  
HETATM   22  H   UNL     1     -12.641  10.636  71.621  1.00  0.00     0.000 HD 
HETATM   23  C   UNL     1     -13.135   9.211  70.215  1.00  0.00     1.029 C  
HETATM   24  O   UNL     1     -13.695   8.928  69.159  1.00  0.00     5.345 OA 
BRANCH  23  25
HETATM   25  C   UNL     1     -12.533   8.156  71.083  1.00  0.00    -0.182 A  
HETATM   26  N   UNL     1     -11.244   8.359  71.472  1.00  0.00    -0.253 NA 
HETATM   27  C   UNL     1     -10.660   7.398  72.207  1.00  0.00    -0.232 A  
HETATM   28  C   UNL     1     -11.340   6.222  72.595  1.00  0.00    -0.283 A  
HETATM   29  C   UNL     1     -12.678   6.069  72.209  1.00  0.00     0.258 A  
HETATM   30  C   UNL     1     -10.680   5.234  73.343  1.00  0.00    -0.329 A  
HETATM   31  C   UNL     1     -13.287   7.048  71.436  1.00  0.00    -0.335 A  
HETATM   32  C   UNL     1      -9.345   5.400  73.703  1.00  0.00    -0.133 A  
HETATM   33  C   UNL     1      -8.672   6.561  73.333  1.00  0.00    -0.132 A  
HETATM   34  C   UNL     1      -9.335   7.546  72.595  1.00  0.00    -0.208 A  
ENDBRANCH  23  25
ENDBRANCH  20  21
BRANCH  20  35
HETATM   35  C   UNL     1     -13.957  12.822  70.885  1.00  0.00     2.033 C  
BRANCH  35  36
HETATM   36  C   UNL     1     -13.678  14.183  70.293  1.00  0.00     1.123 C  
HETATM   37  N   UNL     1     -14.196  15.247  70.964  1.00  0.00    -0.803 N  
HETATM   38  O   UNL     1     -13.057  14.337  69.248  1.00  0.00     0.663 OA 
HETATM   39  H2  UNL     1     -14.741  15.132  71.818  1.00  0.00     0.000 HD 
HETATM   40  H1  UNL     1     -14.007  16.166  70.563  1.00  0.00     0.000 HD 
ENDBRANCH  35  36
ENDBRANCH  20  35
ENDBRANCH  17  20
ENDBRANCH  15  16
BRANCH  15  41
HETATM   41  C   UNL     1     -10.668  15.183  68.370  1.00  0.00    -0.248 C  
BRANCH  41  42
HETATM   42  C   UNL     1     -10.899  15.440  69.844  1.00  0.00    -0.305 A  
HETATM   43  C   UNL     1     -10.880  14.391  70.774  1.00  0.00     0.577 A  
HETATM   44  C   UNL     1     -11.111  15.960  72.606  1.00  0.00     0.670 A  
HETATM   45  C   UNL     1     -10.990  14.649  72.144  1.00  0.00     1.207 A  
HETATM   46  C   UNL     1     -11.029  16.753  70.325  1.00  0.00     0.079 A  
HETATM   47  C   UNL     1     -11.134  17.012  71.693  1.00  0.00     1.089 A  
ENDBRANCH  41  42
ENDBRANCH  15  41
ENDBRANCH  12  15
ENDBRANCH  11  12
ENDBRANCH   8  11
BRANCH   9  48
HETATM   48  C   UNL     1      -7.744   9.870  66.738  1.00  0.00    -0.099 C  
HETATM   49  C   UNL     1      -6.492   7.886  64.744  1.00  0.00    -0.048 C  
HETATM   50  O   UNL     1      -6.767  10.510  66.356  1.00  0.00    -0.098 OA 
HETATM   51  C   UNL     1      -7.904   9.639  63.612  1.00  0.00    -0.138 C  
HETATM   52  C   UNL     1      -7.906   8.484  64.628  1.00  0.00    -0.131 C  
HETATM   53  N   UNL     1      -8.397   8.947  65.940  1.00  0.00    -0.121 N  
HETATM   54  C   UNL     1      -8.843   7.383  64.095  1.00  0.00     0.827 C  
HETATM   55  H   UNL     1      -9.277   8.560  66.281  1.00  0.00     0.000 HD 
ENDBRANCH   9  48
TORSDOF 12
ENDMDL
MODEL      122
REMARK 921   NORMALIZED FREE ENERGY PREDICTED BY IDOCK:   26.91 KCAL/MOL
REMARK 922        TOTAL FREE ENERGY PREDICTED BY IDOCK:   41.68 KCAL/MOL
REMARK 923 INTER-LIGAND FREE ENERGY PREDICTED BY IDOCK:   18.50 KCAL/MOL
REMARK 924 INTRA-LIGAND FREE ENERGY PREDICTED BY IDOCK:   23.18 KCAL/MOL
REMARK 927      BINDING AFFINITY PREDICTED BY RF-SCORE:    0.00 PKD
ROOT
HETATM    1  C   UNL     1      -8.866   9.882  63.274  1.00  0.00    -0.257 C  
HETATM    2  C   UNL     1     -10.161  10.084  62.476  1.00  0.00     0.800 C  
HETATM    3  C   UNL     1     -11.153   8.943  62.687  1.00  0.00     9.738 C  
HETATM    4  C   UNL     1     -10.526   7.600  62.331  1.00  0.00     7.315 C  
HETATM    5  C   UNL     1      -9.244   7.348  63.119  1.00  0.00     1.945 C  
HETATM    6  C   UNL     1      -8.248   8.510  63.010  1.00  0.00    -0.165 C  
HETATM    7  C   UNL     1      -7.029   8.342  63.919  1.00  0.00    -0.076 C  
HETATM    8  N   UNL     1      -7.333   8.311  65.358  1.00  0.00    -0.081 NA 
HETATM    9  C   UNL     1      -8.361   9.291  65.799  1.00  0.00    -0.123 C  
HETATM   10  C   UNL     1      -9.067  10.190  64.764  1.00  0.00    -0.262 C  
ENDROOT
BRANCH   8  11
HETATM   11  C   UNL     1      -6.056   8.480  66.112  1.00  0.00    -0.052 C  
BRANCH  11  12
HETATM   12  C   UNL     1      -6.015   7.885  67.545  1.00  0.00    -0.046 C  
HETATM   13  H   UNL     1      -6.031   8.601  69.370  1.00  0.00     0.000 HD 
HETATM   14  O   UNL     1      -6.056   8.965  68.493  1.00  0.00    -0.045 OA 
BRANCH  12  15
HETATM   15  C   UNL     1      -7.199   6.927  67.855  1.00  0.00    -0.095 C  
BRANCH  15  16
HETATM   16  N   UNL     1      -8.258   7.658  68.580  1.00  0.00    -0.127 N  
HETATM   17  C   UNL     1      -7.981   8.780  69.339  1.00  0.00    -0.100 C  
HETATM   18  O   UNL     1      -6.833   9.165  69.567  1.00  0.00    -0.046 OA 
HETATM   19  H   UNL     1      -9.220   7.326  68.520  1.00  0.00     0.000 HD 
BRANCH  17  20
HETATM   20  C   UNL     1      -9.215   9.479  69.947  1.00  0.00    -0.220 C  
BRANCH  20  21
HETATM   21  N   UNL     1      -9.699  10.492  69.013  1.00  0.00    -0.202 N  
HETATM   22  H   UNL     1     -10.525  10.275  68.455  1.00  0.00     0.000 HD 
HETATM   23  C   UNL     1      -9.105  11.718  68.844  1.00  0.00     0.117 C  
HETATM   24  O   UNL     1      -8.159  12.103  69.527  1.00  0.00     0.625 OA 
BRANCH  23  25
HETATM   25  C   UNL     1      -9.718  12.593  67.802  1.00  0.00    -0.206 A  
HETATM   26  N   UNL     1     -10.286  11.957  66.739  1.00  0.00    -0.204 NA 
HETATM   27  C   UNL     1     -10.794  12.723  65.760  1.00  0.00    -0.272 A  
HETATM   28  C   UNL     1     -10.778  14.135  65.813  1.00  0.00    -0.301 A  
HETATM   29  C   UNL     1     -10.222  14.751  66.942  1.00  0.00    -0.257 A  
HETATM   30  C   UNL     1     -11.300  14.892  64.753  1.00  0.00    -0.400 A  
HETATM   31  C   UNL     1      -9.677  13.970  67.953  1.00  0.00    -0.229 A  
HETATM   32  C   UNL     1     -11.835  14.259  63.634  1.00  0.00     0.195 A  
HETATM   33  C   UNL     1     -11.865  12.869  63.579  1.00  0.00    -0.605 A  
HETATM   34  C   UNL     1     -11.351  12.117  64.640  1.00  0.00    -0.382 A  
ENDBRANCH  23  25
ENDBRANCH  20  21
BRANCH  20  35
HETATM   35  C   UNL     1     -10.293   8.502  70.409  1.00  0.00    -0.222 C  
BRANCH  35  36
HETATM   36  C   UNL     1     -10.636   8.627  71.874  1.00  0.00    -0.340 C  
HETATM   37  N   UNL     1     -11.962   8.639  72.182  1.00  0.00    -0.367 N  
HETATM   38  O   UNL     1      -9.785   8.752  72.746  1.00  0.00    -0.159 OA 
HETATM   39  H2  UNL     1     -12.682   8.567  71.464  1.00  0.00     0.000 HD 
HETATM   40  H1  UNL     1     -12.193   8.724  73.171  1.00  0.00     0.000 HD 
ENDBRANCH  35  36
ENDBRANCH  20  35
ENDBRANCH  17  20
ENDBRANCH  15  16
BRANCH  15  41
HETATM   41  C   UNL     1      -7.765   6.213  66.599  1.00  0.00    -0.103 C  
BRANCH  41  42
HETATM   42  C   UNL     1      -8.176   4.764  66.753  1.00  0.00    -0.107 A  
HETATM   43  C   UNL     1      -9.266   4.401  67.556  1.00  0.00    -0.164 A  
HETATM   44  C   UNL     1      -9.063   2.091  66.856  1.00  0.00    -0.100 A  
HETATM   45  C   UNL     1      -9.702   3.073  67.611  1.00  0.00     0.088 A  
HETATM   46  C   UNL     1      -7.537   3.761  66.005  1.00  0.00    -0.088 A  
HETATM   47  C   UNL     1      -7.976   2.437  66.055  1.00  0.00    -0.082 A  
ENDBRANCH  41  42
ENDBRANCH  15  41
ENDBRANCH  12  15
ENDBRANCH  11  12
ENDBRANCH   8  11
BRANCH   9  48
HETATM   48  C   UNL     1      -9.444   8.577  66.671  1.00  0.00    -0.207 C  
HETATM   49  C   UNL     1     -12.251   7.314  66.756  1.00  0.00     5.486 C  
HETATM   50  O   UNL     1      -9.914   9.121  67.668  1.00  0.00    -0.172 OA 
HETATM   51  C   UNL     1     -10.628   6.179  68.315  1.00  0.00    -0.324 C  
HETATM   52  C   UNL     1     -10.925   6.535  66.847  1.00  0.00    -0.338 C  
HETATM   53  N   UNL     1      -9.812   7.307  66.264  1.00  0.00    -0.437 N  
HETATM   54  C   UNL     1     -11.096   5.219  66.063  1.00  0.00     0.153 C  
HETATM   55  H   UNL     1      -9.279   6.876  65.509  1.00  0.00     0.000 HD 
ENDBRANCH   9  48
TORSDOF 12
ENDMDL
MODEL      123
REMARK 921   NORMALIZED FREE ENERGY PREDICTED BY IDOCK:   33.20 KCAL/MOL
REMARK 922        TOTAL FREE ENERGY PREDICTED BY IDOCK:   52.39 KCAL/MOL
REMARK 923 INTER-LIGAND FREE ENERGY PREDICTED BY IDOCK:   49.23 KCAL/MOL
REMARK 924 INTRA-LIGAND FREE ENERGY PREDICTED BY IDOCK:    3.16 KCAL/MOL
REMARK 927      BINDING AFFINITY PREDICTED BY RF-SCORE:    0.00 PKD
ROOT
HETATM    1  C   UNL     1     -11.909  13.982  72.896  1.00  0.00     0.987 C  
HETATM    2  C   UNL     1     -11.336  13.472  74.225  1.00  0.00     7.077 C  
HETATM    3  C   UNL     1     -10.539  12.181  74.051  1.00  0.00    21.581 C  
HETATM    4  C   UNL     1     -11.390  11.096  73.401  1.00  0.00    12.892 C  
HETATM    5  C   UNL     1     -11.964  11.554  72.064  1.00  0.00     1.821 C  
HETATM    6  C   UNL     1     -12.701  12.896  72.168  1.00  0.00    -0.086 C  
HETATM    7  C   UNL     1     -13.144  13.444  70.811  1.00  0.00     0.036 C  
HETATM    8  N   UNL     1     -12.046  13.750  69.881  1.00  0.00    -0.337 NA 
HETATM    9  C   UNL     1     -10.863  14.399  70.506  1.00  0.00     0.390 C  
HETATM   10  C   UNL     1     -10.827  14.640  72.029  1.00  0.00     1.420 C  
ENDROOT
BRANCH   8  11
HETATM   11  C   UNL     1     -12.593  14.570  68.761  1.00  0.00     0.370 C  
BRANCH  11  12
HETATM   12  C   UNL     1     -11.710  15.747  68.269  1.00  0.00    -0.222 C  
HETATM   13  H   UNL     1     -11.476  17.633  68.754  1.00  0.00     0.000 HD 
HETATM   14  O   UNL     1     -12.016  16.912  69.055  1.00  0.00     0.496 OA 
BRANCH  12  15
HETATM   15  C   UNL     1     -10.184  15.473  68.391  1.00  0.00    -0.215 C  
BRANCH  15  16
HETATM   16  N   UNL     1      -9.681  14.875  67.139  1.00  0.00    -0.224 N  
HETATM   17  C   UNL     1     -10.302  13.790  66.547  1.00  0.00    -0.286 C  
HETATM   18  O   UNL     1     -11.226  13.175  67.082  1.00  0.00    -0.275 OA 
HETATM   19  H   UNL     1      -8.851  15.272  66.697  1.00  0.00     0.000 HD 
BRANCH  17  20
HETATM   20  C   UNL     1      -9.707  13.355  65.191  1.00  0.00     0.065 C  
BRANCH  20  21
HETATM   21  N   UNL     1      -9.639  11.897  65.145  1.00  0.00    -0.400 N  
HETATM   22  H   UNL     1     -10.513  11.376  65.077  1.00  0.00     0.000 HD 
HETATM   23  C   UNL     1      -8.463  11.188  65.188  1.00  0.00     0.131 C  
HETATM   24  O   UNL     1      -7.358  11.724  65.186  1.00  0.00     1.437 OA 
BRANCH  23  25
HETATM   25  C   UNL     1      -8.606   9.702  65.184  1.00  0.00    -0.157 A  
HETATM   26  N   UNL     1      -9.539   9.184  66.031  1.00  0.00    -0.257 NA 
HETATM   27  C   UNL     1      -9.648   7.847  66.088  1.00  0.00    -0.057 A  
HETATM   28  C   UNL     1      -8.857   6.986  65.295  1.00  0.00     0.153 A  
HETATM   29  C   UNL     1      -7.937   7.558  64.407  1.00  0.00    -0.117 A  
HETATM   30  C   UNL     1      -8.991   5.593  65.408  1.00  0.00    -0.079 A  
HETATM   31  C   UNL     1      -7.803   8.940  64.351  1.00  0.00    -0.128 A  
HETATM   32  C   UNL     1      -9.901   5.045  66.308  1.00  0.00    -0.217 A  
HETATM   33  C   UNL     1     -10.692   5.887  67.085  1.00  0.00    -0.387 A  
HETATM   34  C   UNL     1     -10.561   7.274  66.964  1.00  0.00    -0.415 A  
ENDBRANCH  23  25
ENDBRANCH  20  21
BRANCH  20  35
HETATM   35  C   UNL     1     -10.422  13.975  63.993  1.00  0.00     0.756 C  
BRANCH  35  36
HETATM   36  C   UNL     1     -11.859  13.534  63.850  1.00  0.00    -0.411 C  
HETATM   37  N   UNL     1     -12.680  14.375  63.166  1.00  0.00    -0.463 N  
HETATM   38  O   UNL     1     -12.287  12.500  64.349  1.00  0.00    -0.424 OA 
HETATM   39  H2  UNL     1     -12.345  15.253  62.772  1.00  0.00     0.000 HD 
HETATM   40  H1  UNL     1     -13.651  14.076  63.070  1.00  0.00     0.000 HD 
ENDBRANCH  35  36
ENDBRANCH  20  35
ENDBRANCH  17  20
ENDBRANCH  15  16
BRANCH  15  41
HETATM   41  C   UNL     1      -9.359  16.724  68.790  1.00  0.00    -0.254 C  
BRANCH  41  42
HETATM   42  C   UNL     1      -8.820  17.586  67.668  1.00  0.00    -0.228 A  
HETATM   43  C   UNL     1      -7.653  17.230  66.978  1.00  0.00    -0.228 A  
HETATM   44  C   UNL     1      -7.952  19.079  65.441  1.00  0.00     0.747 A  
HETATM   45  C   UNL     1      -7.220  17.974  65.876  1.00  0.00    -0.278 A  
HETATM   46  C   UNL     1      -9.542  18.705  67.222  1.00  0.00    -0.316 A  
HETATM   47  C   UNL     1      -9.112  19.445  66.119  1.00  0.00    -0.314 A  
ENDBRANCH  41  42
ENDBRANCH  15  41
ENDBRANCH  12  15
ENDBRANCH  11  12
ENDBRANCH   8  11
BRANCH   9  48
HETATM   48  C   UNL     1      -9.555  13.658  70.079  1.00  0.00     2.291 C  
HETATM   49  C   UNL     1      -6.946  13.784  68.448  1.00  0.00    -0.103 C  
HETATM   50  O   UNL     1      -9.601  12.584  69.484  1.00  0.00     0.895 OA 
HETATM   51  C   UNL     1      -6.704  12.439  70.565  1.00  0.00     1.234 C  
HETATM   52  C   UNL     1      -7.033  13.825  69.985  1.00  0.00     0.337 C  
HETATM   53  N   UNL     1      -8.366  14.272  70.432  1.00  0.00     1.150 N  
HETATM   54  C   UNL     1      -5.969  14.818  70.492  1.00  0.00    -0.156 C  
HETATM   55  H   UNL     1      -8.414  15.089  71.040  1.00  0.00     0.000 HD 
ENDBRANCH   9  48
TORSDOF 12
ENDMDL
MODEL      124
REMARK 921   NORMALIZED FREE ENERGY PREDICTED BY IDOCK:   38.01 KCAL/MOL
REMARK 922        TOTAL FREE ENERGY PREDICTED BY IDOCK:   60.57 KCAL/MOL
REMARK 923 INTER-LIGAND FREE ENERGY PREDICTED BY IDOCK:   45.04 KCAL/MOL
REMARK 924 INTRA-LIGAND FREE ENERGY PREDICTED BY IDOCK:   15.54 KCAL/MOL
REMARK 927      BINDING AFFINITY PREDICTED BY RF-SCORE:    0.00 PKD
ROOT
HETATM    1  C   UNL     1     -12.435   6.068  68.944  1.00  0.00     4.931 C  
HETATM    2  C   UNL     1     -13.135   5.111  67.970  1.00  0.00    17.879 C  
HETATM    3  C   UNL     1     -12.466   5.094  66.598  1.00  0.00     7.716 C  
HETATM    4  C   UNL     1     -12.408   6.495  66.000  1.00  0.00     6.031 C  
HETATM    5  C   UNL     1     -11.699   7.476  66.929  1.00  0.00     2.469 C  
HETATM    6  C   UNL     1     -12.279   7.466  68.349  1.00  0.00     3.248 C  
HETATM    7  C   UNL     1     -11.480   8.327  69.329  1.00  0.00     0.639 C  
HETATM    8  N   UNL     1     -10.093   7.888  69.544  1.00  0.00    -0.190 NA 
HETATM    9  C   UNL     1      -9.913   6.416  69.653  1.00  0.00    -0.164 C  
HETATM   10  C   UNL     1     -11.122   5.475  69.474  1.00  0.00     0.067 C  
ENDROOT
BRANCH   8  11
HETATM   11  C   UNL     1      -9.556   8.596  70.744  1.00  0.00    -0.188 C  
BRANCH  11  12
HETATM   12  C   UNL     1     -10.418   9.759  71.303  1.00  0.00     0.021 C  
HETATM   13  H   UNL     1     -10.114  11.638  71.774  1.00  0.00     0.000 HD 
HETATM   14  O   UNL     1      -9.587  10.926  71.431  1.00  0.00     3.987 OA 
BRANCH  12  15
HETATM   15  C   UNL     1     -11.628  10.127  70.400  1.00  0.00    -0.316 C  
BRANCH  15  16
HETATM   16  N   UNL     1     -11.873  11.582  70.459  1.00  0.00    -0.468 N  
HETATM   17  C   UNL     1     -10.864  12.501  70.242  1.00  0.00     1.502 C  
HETATM   18  O   UNL     1      -9.682  12.178  70.116  1.00  0.00     2.389 OA 
HETATM   19  H   UNL     1     -12.814  11.919  70.666  1.00  0.00     0.000 HD 
BRANCH  17  20
HETATM   20  C   UNL     1     -11.313  13.978  70.241  1.00  0.00     0.010 C  
BRANCH  20  21
HETATM   21  N   UNL     1     -10.449  14.740  69.342  1.00  0.00    -0.331 N  
HETATM   22  H   UNL     1     -10.600  14.648  68.338  1.00  0.00     0.000 HD 
HETATM   23  C   UNL     1      -9.446  15.572  69.775  1.00  0.00    -0.173 C  
HETATM   24  O   UNL     1      -9.241  15.812  70.962  1.00  0.00     1.894 OA 
BRANCH  23  25
HETATM   25  C   UNL     1      -8.639  16.221  68.700  1.00  0.00    -0.222 A  
HETATM   26  N   UNL     1      -8.562  17.580  68.742  1.00  0.00    -0.250 NA 
HETATM   27  C   UNL     1      -7.888  18.192  67.753  1.00  0.00    -0.235 A  
HETATM   28  C   UNL     1      -7.254  17.479  66.712  1.00  0.00    -0.250 A  
HETATM   29  C   UNL     1      -7.322  16.080  66.727  1.00  0.00    -0.186 A  
HETATM   30  C   UNL     1      -6.582  18.165  65.687  1.00  0.00    -0.277 A  
HETATM   31  C   UNL     1      -8.030  15.436  67.733  1.00  0.00    -0.159 A  
HETATM   32  C   UNL     1      -6.540  19.557  65.684  1.00  0.00    -0.279 A  
HETATM   33  C   UNL     1      -7.153  20.266  66.713  1.00  0.00    -0.299 A  
HETATM   34  C   UNL     1      -7.814  19.579  67.736  1.00  0.00    -0.323 A  
ENDBRANCH  23  25
ENDBRANCH  20  21
BRANCH  20  35
HETATM   35  C   UNL     1     -12.803  14.153  69.957  1.00  0.00    -0.020 C  
BRANCH  35  36
HETATM   36  C   UNL     1     -13.604  14.574  71.167  1.00  0.00    -0.307 C  
HETATM   37  N   UNL     1     -14.367  15.691  71.022  1.00  0.00    -0.718 N  
HETATM   38  O   UNL     1     -13.551  13.979  72.236  1.00  0.00    -0.430 OA 
HETATM   39  H2  UNL     1     -14.397  16.214  70.148  1.00  0.00     0.000 HD 
HETATM   40  H1  UNL     1     -14.908  15.974  71.839  1.00  0.00     0.000 HD 
ENDBRANCH  35  36
ENDBRANCH  20  35
ENDBRANCH  17  20
ENDBRANCH  15  16
BRANCH  15  41
HETATM   41  C   UNL     1     -11.480   9.639  68.935  1.00  0.00     0.184 C  
BRANCH  41  42
HETATM   42  C   UNL     1     -11.146  10.681  67.888  1.00  0.00    -0.371 A  
HETATM   43  C   UNL     1     -11.949  11.817  67.716  1.00  0.00    -0.134 A  
HETATM   44  C   UNL     1     -10.394  12.716  66.089  1.00  0.00    -0.273 A  
HETATM   45  C   UNL     1     -11.577  12.825  66.819  1.00  0.00    -0.431 A  
HETATM   46  C   UNL     1      -9.962  10.583  67.140  1.00  0.00    -0.234 A  
HETATM   47  C   UNL     1      -9.588  11.591  66.249  1.00  0.00    -0.239 A  
ENDBRANCH  41  42
ENDBRANCH  15  41
ENDBRANCH  12  15
ENDBRANCH  11  12
ENDBRANCH   8  11
BRANCH   9  48
HETATM   48  C   UNL     1      -8.760   5.943  68.711  1.00  0.00    -0.109 C  
HETATM   49  C   UNL     1      -6.797   6.714  66.467  1.00  0.00    -0.061 C  
HETATM   50  O   UNL     1      -8.922   5.009  67.929  1.00  0.00    -0.106 OA 
HETATM   51  C   UNL     1      -5.830   5.022  68.064  1.00  0.00    -0.021 C  
HETATM   52  C   UNL     1      -6.406   6.442  67.932  1.00  0.00    -0.040 C  
HETATM   53  N   UNL     1      -7.559   6.622  68.833  1.00  0.00    -0.099 N  
HETATM   54  C   UNL     1      -5.299   7.443  68.319  1.00  0.00    -0.025 C  
HETATM   55  H   UNL     1      -7.466   7.291  69.598  1.00  0.00     0.000 HD 
ENDBRANCH   9  48
TORSDOF 12
ENDMDL
MODEL      125
REMARK 921   NORMALIZED FREE ENERGY PREDICTED BY IDOCK:   55.45 KCAL/MOL
REMARK 922        TOTAL FREE ENERGY PREDICTED BY IDOCK:   90.26 KCAL/MOL
REMARK 923 INTER-LIGAND FREE ENERGY PREDICTED BY IDOCK:   90.16 KCAL/MOL
REMARK 924 INTRA-LIGAND FREE ENERGY PREDICTED BY IDOCK:    0.10 KCAL/MOL
REMARK 927      BINDING AFFINITY PREDICTED BY RF-SCORE:    0.00 PKD
ROOT
HETATM    1  C   UNL     1     -11.148  13.667  70.652  1.00  0.00     1.000 C  
HETATM    2  C   UNL     1     -12.463  13.840  69.881  1.00  0.00    -0.259 C  
HETATM    3  C   UNL     1     -13.631  14.180  70.804  1.00  0.00     0.072 C  
HETATM    4  C   UNL     1     -13.799  13.122  71.888  1.00  0.00    -0.252 C  
HETATM    5  C   UNL     1     -12.517  12.932  72.694  1.00  0.00     1.134 C  
HETATM    6  C   UNL     1     -11.294  12.674  71.804  1.00  0.00     4.207 C  
HETATM    7  C   UNL     1      -9.980  12.639  72.586  1.00  0.00    18.953 C  
HETATM    8  N   UNL     1      -9.630  13.899  73.260  1.00  0.00     9.070 NA 
HETATM    9  C   UNL     1      -9.897  15.127  72.464  1.00  0.00     4.931 C  
HETATM   10  C   UNL     1     -10.558  15.019  71.075  1.00  0.00     0.241 C  
ENDROOT
BRANCH   8  11
HETATM   11  C   UNL     1      -8.202  13.823  73.687  1.00  0.00    10.220 C  
BRANCH  11  12
HETATM   12  C   UNL     1      -7.136  13.956  72.566  1.00  0.00     4.577 C  
HETATM   13  H   UNL     1      -5.330  13.261  72.248  1.00  0.00     0.000 HD 
HETATM   14  O   UNL     1      -5.983  13.179  72.933  1.00  0.00     0.362 OA 
BRANCH  12  15
HETATM   15  C   UNL     1      -7.628  13.458  71.178  1.00  0.00     5.328 C  
BRANCH  15  16
HETATM   16  N   UNL     1      -7.982  14.613  70.328  1.00  0.00     0.091 N  
HETATM   17  C   UNL     1      -7.033  15.286  69.581  1.00  0.00    -0.188 C  
HETATM   18  O   UNL     1      -5.826  15.058  69.672  1.00  0.00    -0.100 OA 
HETATM   19  H   UNL     1      -8.953  14.923  70.291  1.00  0.00     0.000 HD 
BRANCH  17  20
HETATM   20  C   UNL     1      -7.588  16.403  68.672  1.00  0.00    -0.197 C  
BRANCH  20  21
HETATM   21  N   UNL     1      -8.660  15.858  67.844  1.00  0.00    -0.162 N  
HETATM   22  H   UNL     1      -9.621  16.119  68.067  1.00  0.00     0.000 HD 
HETATM   23  C   UNL     1      -8.447  15.013  66.783  1.00  0.00    -0.204 C  
HETATM   24  O   UNL     1      -7.325  14.708  66.385  1.00  0.00     0.853 OA 
BRANCH  23  25
HETATM   25  C   UNL     1      -9.677  14.521  66.094  1.00  0.00    -0.316 A  
HETATM   26  N   UNL     1      -9.698  13.198  65.772  1.00  0.00    -0.195 NA 
HETATM   27  C   UNL     1     -10.769  12.741  65.102  1.00  0.00    -0.294 A  
HETATM   28  C   UNL     1     -11.856  13.572  64.752  1.00  0.00    -0.412 A  
HETATM   29  C   UNL     1     -11.815  14.919  65.136  1.00  0.00    -0.258 A  
HETATM   30  C   UNL     1     -12.943  13.054  64.029  1.00  0.00     0.146 A  
HETATM   31  C   UNL     1     -10.705  15.406  65.815  1.00  0.00    -0.360 A  
HETATM   32  C   UNL     1     -12.956  11.715  63.644  1.00  0.00    -0.062 A  
HETATM   33  C   UNL     1     -11.893  10.888  63.995  1.00  0.00     1.421 A  
HETATM   34  C   UNL     1     -10.817  11.406  64.722  1.00  0.00    -0.339 A  
ENDBRANCH  23  25
ENDBRANCH  20  21
BRANCH  20  35
HETATM   35  C   UNL     1      -7.984  17.663  69.440  1.00  0.00     0.339 C  
BRANCH  35  36
HETATM   36  C   UNL     1      -8.533  18.760  68.561  1.00  0.00    -0.345 C  
HETATM   37  N   UNL     1      -9.887  18.802  68.428  1.00  0.00    -0.361 N  
HETATM   38  O   UNL     1      -7.815  19.552  67.962  1.00  0.00    -0.288 OA 
HETATM   39  H2  UNL     1     -10.495  18.131  68.896  1.00  0.00     0.000 HD 
HETATM   40  H1  UNL     1     -10.258  19.544  67.834  1.00  0.00     0.000 HD 
ENDBRANCH  35  36
ENDBRANCH  20  35
ENDBRANCH  17  20
ENDBRANCH  15  16
BRANCH  15  41
HETATM   41  C   UNL     1      -6.623  12.518  70.463  1.00  0.00     0.933 C  
BRANCH  41  42
HETATM   42  C   UNL     1      -7.125  11.756  69.254  1.00  0.00    -0.032 A  
HETATM   43  C   UNL     1      -6.386  10.700  68.706  1.00  0.00    -0.047 A  
HETATM   44  C   UNL     1      -8.173  10.208  67.146  1.00  0.00    -0.121 A  
HETATM   45  C   UNL     1      -6.904   9.935  67.656  1.00  0.00    -0.084 A  
HETATM   46  C   UNL     1      -8.398  12.024  68.725  1.00  0.00     0.048 A  
HETATM   47  C   UNL     1      -8.918  11.257  67.680  1.00  0.00    -0.142 A  
ENDBRANCH  41  42
ENDBRANCH  15  41
ENDBRANCH  12  15
ENDBRANCH  11  12
ENDBRANCH   8  11
BRANCH   9  48
HETATM   48  C   UNL     1     -10.690  16.162  73.324  1.00  0.00     3.714 C  
HETATM   49  C   UNL     1     -10.750  19.000  74.520  1.00  0.00     4.121 C  
HETATM   50  O   UNL     1     -10.996  15.918  74.489  1.00  0.00     2.852 OA 
HETATM   51  C   UNL     1     -13.042  18.162  73.891  1.00  0.00     5.373 C  
HETATM   52  C   UNL     1     -11.639  18.507  73.362  1.00  0.00     2.954 C  
HETATM   53  N   UNL     1     -11.037  17.342  72.687  1.00  0.00     1.345 N  
HETATM   54  C   UNL     1     -11.781  19.661  72.352  1.00  0.00    10.893 C  
HETATM   55  H   UNL     1     -10.865  17.410  71.684  1.00  0.00     0.000 HD 
ENDBRANCH   9  48
TORSDOF 12
ENDMDL
MODEL      126
REMARK 921   NORMALIZED FREE ENERGY PREDICTED BY IDOCK:   66.83 KCAL/MOL
REMARK 922        TOTAL FREE ENERGY PREDICTED BY IDOCK:  109.62 KCAL/MOL
REMARK 923 INTER-LIGAND FREE ENERGY PREDICTED BY IDOCK:  108.69 KCAL/MOL
REMARK 924 INTRA-LIGAND FREE ENERGY PREDICTED BY IDOCK:    0.92 KCAL/MOL
REMARK 927      BINDING AFFINITY PREDICTED BY RF-SCORE:    0.00 PKD
ROOT
HETATM    1  C   UNL     1     -11.173  13.675  70.717  1.00  0.00     0.940 C  
HETATM    2  C   UNL     1     -12.415  13.681  69.816  1.00  0.00    -0.193 C  
HETATM    3  C   UNL     1     -13.704  13.873  70.611  1.00  0.00     0.505 C  
HETATM    4  C   UNL     1     -13.847  12.804  71.688  1.00  0.00     0.308 C  
HETATM    5  C   UNL     1     -12.640  12.777  72.622  1.00  0.00     0.995 C  
HETATM    6  C   UNL     1     -11.311  12.674  71.863  1.00  0.00     4.629 C  
HETATM    7  C   UNL     1     -10.089  12.805  72.773  1.00  0.00    17.822 C  
HETATM    8  N   UNL     1      -9.969  14.100  73.460  1.00  0.00     6.639 NA 
HETATM    9  C   UNL     1     -10.305  15.284  72.625  1.00  0.00     3.080 C  
HETATM   10  C   UNL     1     -10.803  15.091  71.178  1.00  0.00     0.012 C  
ENDROOT
BRANCH   8  11
HETATM   11  C   UNL     1      -8.593  14.204  74.030  1.00  0.00     9.900 C  
BRANCH  11  12
HETATM   12  C   UNL     1      -7.475  14.666  73.058  1.00  0.00     5.618 C  
HETATM   13  H   UNL     1      -5.626  14.133  72.680  1.00  0.00     0.000 HD 
HETATM   14  O   UNL     1      -6.310  13.851  73.275  1.00  0.00     0.114 OA 
BRANCH  12  15
HETATM   15  C   UNL     1      -7.868  14.552  71.558  1.00  0.00     4.007 C  
BRANCH  15  16
HETATM   16  N   UNL     1      -7.323  15.700  70.808  1.00  0.00     1.268 N  
HETATM   17  C   UNL     1      -6.071  15.661  70.222  1.00  0.00    -0.066 C  
HETATM   18  O   UNL     1      -5.282  14.731  70.394  1.00  0.00    -0.104 OA 
HETATM   19  H   UNL     1      -7.885  16.547  70.719  1.00  0.00     0.000 HD 
BRANCH  17  20
HETATM   20  C   UNL     1      -5.698  16.907  69.392  1.00  0.00    -0.176 C  
BRANCH  20  21
HETATM   21  N   UNL     1      -6.799  17.227  68.487  1.00  0.00    -0.188 N  
HETATM   22  H   UNL     1      -7.376  18.040  68.700  1.00  0.00     0.000 HD 
HETATM   23  C   UNL     1      -7.100  16.493  67.366  1.00  0.00    -0.154 C  
HETATM   24  O   UNL     1      -6.416  15.548  66.981  1.00  0.00    -0.285 OA 
BRANCH  23  25
HETATM   25  C   UNL     1      -8.297  16.949  66.600  1.00  0.00    -0.253 A  
HETATM   26  N   UNL     1      -9.113  15.970  66.118  1.00  0.00    -0.338 NA 
HETATM   27  C   UNL     1     -10.166  16.352  65.377  1.00  0.00    -0.189 A  
HETATM   28  C   UNL     1     -10.456  17.709  65.111  1.00  0.00     0.462 A  
HETATM   29  C   UNL     1      -9.615  18.688  65.658  1.00  0.00     0.556 A  
HETATM   30  C   UNL     1     -11.555  18.057  64.310  1.00  0.00     4.915 A  
HETATM   31  C   UNL     1      -8.514  18.305  66.412  1.00  0.00    -0.266 A  
HETATM   32  C   UNL     1     -12.368  17.067  63.764  1.00  0.00     5.217 A  
HETATM   33  C   UNL     1     -12.096  15.729  64.031  1.00  0.00     0.194 A  
HETATM   34  C   UNL     1     -11.005  15.386  64.835  1.00  0.00    -0.453 A  
ENDBRANCH  23  25
ENDBRANCH  20  21
BRANCH  20  35
HETATM   35  C   UNL     1      -5.244  18.087  70.248  1.00  0.00    -0.243 C  
BRANCH  35  36
HETATM   36  C   UNL     1      -6.095  19.322  70.078  1.00  0.00    -0.230 C  
HETATM   37  N   UNL     1      -6.248  19.775  68.804  1.00  0.00    -0.255 N  
HETATM   38  O   UNL     1      -6.596  19.919  71.024  1.00  0.00    -0.056 OA 
HETATM   39  H2  UNL     1      -5.813  19.307  68.009  1.00  0.00     0.000 HD 
HETATM   40  H1  UNL     1      -6.823  20.609  68.689  1.00  0.00     0.000 HD 
ENDBRANCH  35  36
ENDBRANCH  20  35
ENDBRANCH  17  20
ENDBRANCH  15  16
BRANCH  15  41
HETATM   41  C   UNL     1      -7.454  13.206  70.908  1.00  0.00     4.380 C  
BRANCH  41  42
HETATM   42  C   UNL     1      -8.004  12.903  69.530  1.00  0.00     1.081 A  
HETATM   43  C   UNL     1      -8.980  13.721  68.945  1.00  0.00     0.146 A  
HETATM   44  C   UNL     1      -8.858  12.456  66.882  1.00  0.00    -0.205 A  
HETATM   45  C   UNL     1      -9.407  13.496  67.632  1.00  0.00    -0.216 A  
HETATM   46  C   UNL     1      -7.466  11.856  68.765  1.00  0.00    -0.100 A  
HETATM   47  C   UNL     1      -7.889  11.634  67.452  1.00  0.00    -0.147 A  
ENDBRANCH  41  42
ENDBRANCH  15  41
ENDBRANCH  12  15
ENDBRANCH  11  12
ENDBRANCH   8  11
BRANCH   9  48
HETATM   48  C   UNL     1     -11.304  16.213  73.385  1.00  0.00     0.925 C  
HETATM   49  C   UNL     1     -11.896  19.054  74.414  1.00  0.00     4.557 C  
HETATM   50  O   UNL     1     -11.631  15.977  74.547  1.00  0.00     0.429 OA 
HETATM   51  C   UNL     1     -13.981  17.817  73.726  1.00  0.00     5.467 C  
HETATM   52  C   UNL     1     -12.625  18.365  73.246  1.00  0.00     7.061 C  
HETATM   53  N   UNL     1     -11.803  17.285  72.667  1.00  0.00     0.201 N  
HETATM   54  C   UNL     1     -12.898  19.429  72.165  1.00  0.00    21.384 C  
HETATM   55  H   UNL     1     -11.589  17.333  71.671  1.00  0.00     0.000 HD 
ENDBRANCH   9  48
TORSDOF 12
ENDMDL
MODEL      127
REMARK 921   NORMALIZED FREE ENERGY PREDICTED BY IDOCK:   83.73 KCAL/MOL
REMARK 922        TOTAL FREE ENERGY PREDICTED BY IDOCK:  138.37 KCAL/MOL
REMARK 923 INTER-LIGAND FREE ENERGY PREDICTED BY IDOCK:   71.09 KCAL/MOL
REMARK 924 INTRA-LIGAND FREE ENERGY PREDICTED BY IDOCK:   67.28 KCAL/MOL
REMARK 927      BINDING AFFINITY PREDICTED BY RF-SCORE:    0.00 PKD
ROOT
HETATM    1  C   UNL     1      -9.034  14.694  66.275  1.00  0.00    -0.112 C  
HETATM    2  C   UNL     1      -7.795  15.593  66.168  1.00  0.00     0.775 C  
HETATM    3  C   UNL     1      -6.646  15.095  67.042  1.00  0.00     0.469 C  
HETATM    4  C   UNL     1      -7.078  14.975  68.499  1.00  0.00    -0.110 C  
HETATM    5  C   UNL     1      -8.298  14.071  68.653  1.00  0.00    -0.104 C  
HETATM    6  C   UNL     1      -9.453  14.478  67.728  1.00  0.00    -0.210 C  
HETATM    7  C   UNL     1     -10.620  13.490  67.757  1.00  0.00    -0.246 C  
HETATM    8  N   UNL     1     -10.293  12.135  67.288  1.00  0.00    -0.211 NA 
HETATM    9  C   UNL     1      -9.410  12.085  66.093  1.00  0.00    -0.211 C  
HETATM   10  C   UNL     1      -8.857  13.390  65.485  1.00  0.00     1.307 C  
ENDROOT
BRANCH   8  11
HETATM   11  C   UNL     1     -11.569  11.396  67.058  1.00  0.00    -0.051 C  
BRANCH  11  12
HETATM   12  C   UNL     1     -12.583  11.383  68.232  1.00  0.00     1.469 C  
HETATM   13  H   UNL     1     -14.047  10.218  68.818  1.00  0.00     0.000 HD 
HETATM   14  O   UNL     1     -13.427  10.226  68.100  1.00  0.00     6.172 OA 
BRANCH  12  15
HETATM   15  C   UNL     1     -11.911  11.330  69.633  1.00  0.00    -0.353 C  
BRANCH  15  16
HETATM   16  N   UNL     1     -11.186  12.591  69.889  1.00  0.00    -0.480 N  
HETATM   17  C   UNL     1     -10.863  13.467  68.870  1.00  0.00    -0.220 C  
HETATM   18  O   UNL     1     -11.039  13.200  67.680  1.00  0.00    -0.254 OA 
HETATM   19  H   UNL     1     -10.915  12.822  70.846  1.00  0.00     0.000 HD 
BRANCH  17  20
HETATM   20  C   UNL     1     -10.196  14.782  69.324  1.00  0.00    -0.185 C  
BRANCH  20  21
HETATM   21  N   UNL     1      -9.903  15.600  68.150  1.00  0.00    -0.212 N  
HETATM   22  H   UNL     1      -8.987  16.044  68.090  1.00  0.00     0.000 HD 
HETATM   23  C   UNL     1     -10.791  15.803  67.123  1.00  0.00    -0.289 C  
HETATM   24  O   UNL     1     -11.884  15.246  67.063  1.00  0.00    -0.133 OA 
BRANCH  23  25
HETATM   25  C   UNL     1     -10.323  16.716  66.038  1.00  0.00    -0.340 A  
HETATM   26  N   UNL     1      -9.976  17.976  66.418  1.00  0.00    -0.351 NA 
HETATM   27  C   UNL     1      -9.606  18.834  65.453  1.00  0.00     1.216 A  
HETATM   28  C   UNL     1      -9.546  18.465  64.091  1.00  0.00     9.411 A  
HETATM   29  C   UNL     1      -9.872  17.147  63.745  1.00  0.00     9.383 A  
HETATM   30  C   UNL     1      -9.176  19.404  63.115  1.00  0.00    18.449 A  
HETATM   31  C   UNL     1     -10.273  16.256  64.732  1.00  0.00     0.610 A  
HETATM   32  C   UNL     1      -8.870  20.713  63.480  1.00  0.00     6.015 A  
HETATM   33  C   UNL     1      -8.917  21.081  64.821  1.00  0.00     2.337 A  
HETATM   34  C   UNL     1      -9.278  20.141  65.791  1.00  0.00    -0.032 A  
ENDBRANCH  23  25
ENDBRANCH  20  21
BRANCH  20  35
HETATM   35  C   UNL     1     -10.988  15.517  70.403  1.00  0.00    -0.360 C  
BRANCH  35  36
HETATM   36  C   UNL     1     -10.125  16.102  71.495  1.00  0.00     2.790 C  
HETATM   37  N   UNL     1     -10.668  16.126  72.742  1.00  0.00     2.254 N  
HETATM   38  O   UNL     1      -9.012  16.569  71.282  1.00  0.00     4.893 OA 
HETATM   39  H2  UNL     1     -11.604  15.769  72.929  1.00  0.00     0.000 HD 
HETATM   40  H1  UNL     1     -10.084  16.521  73.479  1.00  0.00     0.000 HD 
ENDBRANCH  35  36
ENDBRANCH  20  35
ENDBRANCH  17  20
ENDBRANCH  15  16
BRANCH  15  41
HETATM   41  C   UNL     1     -12.899  11.004  70.784  1.00  0.00    -0.354 C  
BRANCH  41  42
HETATM   42  C   UNL     1     -12.548   9.842  71.689  1.00  0.00    -0.509 A  
HETATM   43  C   UNL     1     -12.145   8.608  71.160  1.00  0.00    -0.297 A  
HETATM   44  C   UNL     1     -11.689   7.761  73.384  1.00  0.00     0.803 A  
HETATM   45  C   UNL     1     -11.723   7.574  72.003  1.00  0.00    -0.333 A  
HETATM   46  C   UNL     1     -12.516  10.012  73.083  1.00  0.00     3.370 A  
HETATM   47  C   UNL     1     -12.090   8.981  73.923  1.00  0.00     5.949 A  
ENDBRANCH  41  42
ENDBRANCH  15  41
ENDBRANCH  12  15
ENDBRANCH  11  12
ENDBRANCH   8  11
BRANCH   9  48
HETATM   48  C   UNL     1      -8.222  11.101  66.343  1.00  0.00    -0.164 C  
HETATM   49  C   UNL     1      -6.732   9.337  68.380  1.00  0.00    -0.059 C  
HETATM   50  O   UNL     1      -7.060  11.446  66.143  1.00  0.00    -0.007 OA 
HETATM   51  C   UNL     1      -6.695   8.374  66.052  1.00  0.00    -0.061 C  
HETATM   52  C   UNL     1      -7.597   8.812  67.219  1.00  0.00    -0.089 C  
HETATM   53  N   UNL     1      -8.566   9.831  66.773  1.00  0.00    -0.127 N  
HETATM   54  C   UNL     1      -8.361   7.572  67.723  1.00  0.00    -0.119 C  
HETATM   55  H   UNL     1      -9.555   9.583  66.784  1.00  0.00     0.000 HD 
ENDBRANCH   9  48
TORSDOF 12
ENDMDL
