MODEL        1
REMARK 921   NORMALIZED FREE ENERGY PREDICTED BY IDOCK:   -7.62 KCAL/MOL
REMARK 922        TOTAL FREE ENERGY PREDICTED BY IDOCK:  -10.76 KCAL/MOL
REMARK 923 INTER-LIGAND FREE ENERGY PREDICTED BY IDOCK:   -9.85 KCAL/MOL
REMARK 924 INTRA-LIGAND FREE ENERGY PREDICTED BY IDOCK:   -0.91 KCAL/MOL
REMARK 927      BINDING AFFINITY PREDICTED BY RF-SCORE:    0.00 PKD
ROOT
HETATM    1  C   UNL     1     -10.335  11.093  68.304  1.00  0.00    -0.198 C  
HETATM    2  C   UNL     1     -11.273  12.296  68.300  1.00  0.00    -0.315 C  
HETATM    3  C   UNL     1     -11.019  13.226  67.156  1.00  0.00    -0.288 A  
HETATM    4  C   UNL     1     -11.287  14.613  67.298  1.00  0.00    -0.364 A  
HETATM    5  H   UNL     1     -12.501   6.588  71.894  1.00  0.00     0.000 HD 
HETATM    6  C   UNL     1     -11.107  15.445  66.184  1.00  0.00    -0.230 A  
HETATM    7  C   UNL     1     -10.831  10.184  69.408  1.00  0.00    -0.274 C  
HETATM    8  C   UNL     1     -10.686  14.928  64.961  1.00  0.00    -0.451 A  
HETATM    9  C   UNL     1     -10.043   8.876  69.554  1.00  0.00    -0.198 C  
HETATM   10  C   UNL     1     -10.453  13.558  64.821  1.00  0.00    -0.413 A  
HETATM   11  O   UNL     1     -12.146   6.129  71.142  1.00  0.00    -0.116 OA 
HETATM   12  O   UNL     1     -10.045  13.098  63.600  1.00  0.00    -0.681 OA 
HETATM   13  C   UNL     1     -10.809   8.111  70.698  1.00  0.00    -0.233 C  
HETATM   14  C   UNL     1     -10.619  12.686  65.908  1.00  0.00    -0.297 A  
HETATM   15  H   UNL     1      -9.887  12.166  63.505  1.00  0.00     0.000 HD 
HETATM   16  C   UNL     1     -10.436  11.196  65.753  1.00  0.00    -0.246 C  
HETATM   17  C   UNL     1     -10.308  10.359  67.001  1.00  0.00    -0.295 C  
HETATM   18  O   UNL     1     -10.410  10.628  64.664  1.00  0.00    -0.345 OA 
HETATM   19  C   UNL     1     -10.111   9.017  66.954  1.00  0.00    -0.267 C  
HETATM   20  C   UNL     1      -9.873   8.136  68.197  1.00  0.00    -0.168 C  
HETATM   21  O   UNL     1      -9.923   8.347  65.748  1.00  0.00    -0.427 OA 
HETATM   22  H   UNL     1      -9.786   7.408  65.714  1.00  0.00     0.000 HD 
HETATM   23  C   UNL     1     -10.624   6.787  68.243  1.00  0.00    -0.230 C  
HETATM   24  O   UNL     1      -8.490   7.723  68.062  1.00  0.00    -0.123 OA 
HETATM   25  O   UNL     1     -11.380   6.370  67.364  1.00  0.00    -0.283 OA 
HETATM   26  H   UNL     1      -8.343   7.181  68.829  1.00  0.00     0.000 HD 
HETATM   27  C   UNL     1     -10.478   5.966  69.482  1.00  0.00    -0.346 C  
HETATM   28  C   UNL     1     -10.980   6.613  70.541  1.00  0.00    -0.286 C  
ENDROOT
BRANCH   4  29
HETATM   29  C   UNL     1     -11.783  15.250  68.597  1.00  0.00    -0.346 C  
BRANCH  29  30
HETATM   30  N   UNL     1     -10.726  15.682  69.544  1.00  0.00    -0.247 NA 
HETATM   31  C   UNL     1     -10.306  17.062  69.272  1.00  0.00    -0.276 C  
BRANCH  30  32
HETATM   32  O   UNL     1     -11.453  15.746  70.827  1.00  0.00    -0.327 OA 
HETATM   33  C   UNL     1     -12.664  14.989  70.778  1.00  0.00    -0.381 C  
ENDBRANCH  30  32
ENDBRANCH  29  30
ENDBRANCH   4  29
BRANCH  27  34
HETATM   34  C   UNL     1      -9.218   5.267  69.877  1.00  0.00    -0.137 C  
HETATM   35  O   UNL     1      -8.317   4.987  69.091  1.00  0.00    -0.085 OA 
HETATM   36  H2  UNL     1      -9.753   5.236  71.881  1.00  0.00     0.000 HD 
HETATM   37  N   UNL     1      -9.048   4.982  71.188  1.00  0.00    -0.139 N  
HETATM   38  H1  UNL     1      -8.188   4.505  71.457  1.00  0.00     0.000 HD 
ENDBRANCH  27  34
BRANCH  13  39
HETATM   39  N   UNL     1     -10.281   8.585  72.001  1.00  0.00    -0.293 NA 
HETATM   40  C   UNL     1      -8.821   8.693  72.062  1.00  0.00    -0.194 C  
HETATM   41  C   UNL     1     -10.765   7.793  73.129  1.00  0.00    -0.351 C  
ENDBRANCH  13  39
TORSDOF 5
ENDMDL
MODEL        2
REMARK 921   NORMALIZED FREE ENERGY PREDICTED BY IDOCK:   -7.19 KCAL/MOL
REMARK 922        TOTAL FREE ENERGY PREDICTED BY IDOCK:  -10.20 KCAL/MOL
REMARK 923 INTER-LIGAND FREE ENERGY PREDICTED BY IDOCK:   -9.85 KCAL/MOL
REMARK 924 INTRA-LIGAND FREE ENERGY PREDICTED BY IDOCK:   -0.35 KCAL/MOL
REMARK 927      BINDING AFFINITY PREDICTED BY RF-SCORE:    0.00 PKD
ROOT
HETATM    1  C   UNL     1     -11.095  11.543  68.169  1.00  0.00    -0.303 C  
HETATM    2  C   UNL     1     -10.846  12.982  68.610  1.00  0.00    -0.287 C  
HETATM    3  C   UNL     1     -11.821  13.449  69.645  1.00  0.00    -0.394 A  
HETATM    4  C   UNL     1     -12.175  14.821  69.716  1.00  0.00    -0.337 A  
HETATM    5  H   UNL     1      -6.172   9.204  65.312  1.00  0.00     0.000 HD 
HETATM    6  C   UNL     1     -13.035  15.236  70.744  1.00  0.00    -0.492 A  
HETATM    7  C   UNL     1      -9.938  11.181  67.263  1.00  0.00    -0.211 C  
HETATM    8  C   UNL     1     -13.525  14.331  71.680  1.00  0.00    -0.456 A  
HETATM    9  C   UNL     1      -9.971   9.740  66.738  1.00  0.00    -0.278 C  
HETATM   10  C   UNL     1     -13.149  12.987  71.621  1.00  0.00    -0.347 A  
HETATM   11  O   UNL     1      -6.491   8.483  65.842  1.00  0.00    -0.052 OA 
HETATM   12  O   UNL     1     -13.654  12.137  72.566  1.00  0.00    -0.582 OA 
HETATM   13  C   UNL     1      -8.639   9.621  65.906  1.00  0.00    -0.134 C  
HETATM   14  C   UNL     1     -12.291  12.524  70.612  1.00  0.00    -0.369 A  
HETATM   15  H   UNL     1     -13.397  11.223  72.526  1.00  0.00     0.000 HD 
HETATM   16  C   UNL     1     -11.824  11.090  70.575  1.00  0.00    -0.367 C  
HETATM   17  C   UNL     1     -11.181  10.580  69.310  1.00  0.00    -0.320 C  
HETATM   18  O   UNL     1     -11.919  10.324  71.532  1.00  0.00    -0.358 OA 
HETATM   19  C   UNL     1     -10.759   9.297  69.181  1.00  0.00    -0.183 C  
HETATM   20  C   UNL     1     -10.190   8.704  67.876  1.00  0.00    -0.219 C  
HETATM   21  O   UNL     1     -10.980   8.350  70.178  1.00  0.00    -0.242 OA 
HETATM   22  H   UNL     1     -10.684   7.451  70.087  1.00  0.00     0.000 HD 
HETATM   23  C   UNL     1      -8.939   7.807  68.011  1.00  0.00    -0.126 C  
HETATM   24  O   UNL     1     -11.210   7.762  67.457  1.00  0.00    -0.470 OA 
HETATM   25  O   UNL     1      -8.381   7.531  69.074  1.00  0.00    -0.126 OA 
HETATM   26  H   UNL     1     -10.860   7.397  66.652  1.00  0.00     0.000 HD 
HETATM   27  C   UNL     1      -8.321   7.303  66.749  1.00  0.00    -0.119 C  
HETATM   28  C   UNL     1      -7.871   8.318  66.002  1.00  0.00    -0.095 C  
ENDROOT
BRANCH   4  29
HETATM   29  C   UNL     1     -11.652  15.881  68.745  1.00  0.00    -0.386 C  
BRANCH  29  30
HETATM   30  N   UNL     1     -10.636  16.811  69.296  1.00  0.00    -0.335 NA 
HETATM   31  C   UNL     1      -9.296  16.212  69.254  1.00  0.00    -0.227 C  
BRANCH  30  32
HETATM   32  O   UNL     1     -10.608  17.889  68.288  1.00  0.00    -0.368 OA 
HETATM   33  C   UNL     1      -9.859  19.014  68.751  1.00  0.00    -0.425 C  
ENDBRANCH  30  32
ENDBRANCH  29  30
ENDBRANCH   4  29
BRANCH  27  34
HETATM   34  C   UNL     1      -8.949   6.275  65.864  1.00  0.00    -0.109 C  
HETATM   35  O   UNL     1      -9.936   5.615  66.177  1.00  0.00    -0.138 OA 
HETATM   36  H2  UNL     1      -7.632   6.673  64.311  1.00  0.00     0.000 HD 
HETATM   37  N   UNL     1      -8.425   6.114  64.627  1.00  0.00    -0.326 N  
HETATM   38  H1  UNL     1      -8.855   5.413  64.023  1.00  0.00     0.000 HD 
ENDBRANCH  27  34
BRANCH  13  39
HETATM   39  N   UNL     1      -8.904  10.135  64.540  1.00  0.00    -0.186 NA 
HETATM   40  C   UNL     1     -10.275  10.603  64.322  1.00  0.00    -0.320 C  
HETATM   41  C   UNL     1      -8.537   9.181  63.495  1.00  0.00    -0.165 C  
ENDBRANCH  13  39
TORSDOF 5
ENDMDL
MODEL        3
REMARK 921   NORMALIZED FREE ENERGY PREDICTED BY IDOCK:   -7.11 KCAL/MOL
REMARK 922        TOTAL FREE ENERGY PREDICTED BY IDOCK:  -10.10 KCAL/MOL
REMARK 923 INTER-LIGAND FREE ENERGY PREDICTED BY IDOCK:   -9.12 KCAL/MOL
REMARK 924 INTRA-LIGAND FREE ENERGY PREDICTED BY IDOCK:   -0.98 KCAL/MOL
REMARK 927      BINDING AFFINITY PREDICTED BY RF-SCORE:    0.00 PKD
ROOT
HETATM    1  C   UNL     1     -10.327  10.844  69.316  1.00  0.00    -0.211 C  
HETATM    2  C   UNL     1     -11.356  11.857  69.809  1.00  0.00    -0.223 C  
HETATM    3  C   UNL     1     -11.441  13.071  68.938  1.00  0.00    -0.345 A  
HETATM    4  C   UNL     1     -11.804  14.322  69.500  1.00  0.00    -0.378 A  
HETATM    5  H   UNL     1     -11.245   5.316  71.860  1.00  0.00     0.000 HD 
HETATM    6  C   UNL     1     -11.944  15.423  68.643  1.00  0.00    -0.240 A  
HETATM    7  C   UNL     1     -10.490   9.626  70.199  1.00  0.00    -0.321 C  
HETATM    8  C   UNL     1     -11.743  15.296  67.271  1.00  0.00    -0.088 A  
HETATM    9  C   UNL     1      -9.567   8.454  69.838  1.00  0.00    -0.171 C  
HETATM   10  C   UNL     1     -11.415  14.055  66.722  1.00  0.00    -0.363 A  
HETATM   11  O   UNL     1     -11.014   5.117  70.960  1.00  0.00    -0.065 OA 
HETATM   12  O   UNL     1     -11.231  13.980  65.369  1.00  0.00    -0.306 OA 
HETATM   13  C   UNL     1      -9.997   7.323  70.845  1.00  0.00    -0.185 C  
HETATM   14  C   UNL     1     -11.263  12.925  67.539  1.00  0.00    -0.329 A  
HETATM   15  H   UNL     1     -11.008  13.136  64.995  1.00  0.00     0.000 HD 
HETATM   16  C   UNL     1     -10.974  11.565  66.952  1.00  0.00    -0.296 C  
HETATM   17  C   UNL     1     -10.506  10.471  67.879  1.00  0.00    -0.247 C  
HETATM   18  O   UNL     1     -11.125  11.297  65.762  1.00  0.00    -0.206 OA 
HETATM   19  C   UNL     1     -10.196   9.229  67.431  1.00  0.00    -0.243 C  
HETATM   20  C   UNL     1      -9.617   8.111  68.322  1.00  0.00    -0.144 C  
HETATM   21  O   UNL     1     -10.203   8.916  66.074  1.00  0.00    -0.397 OA 
HETATM   22  H   UNL     1      -9.987   8.046  65.760  1.00  0.00     0.000 HD 
HETATM   23  C   UNL     1     -10.209   6.696  68.129  1.00  0.00    -0.170 C  
HETATM   24  O   UNL     1      -8.261   7.954  67.835  1.00  0.00    -0.126 OA 
HETATM   25  O   UNL     1     -11.090   6.405  67.319  1.00  0.00    -0.368 OA 
HETATM   26  H   UNL     1      -7.904   7.266  68.385  1.00  0.00     0.000 HD 
HETATM   27  C   UNL     1      -9.727   5.623  69.049  1.00  0.00    -0.187 C  
HETATM   28  C   UNL     1     -10.053   5.903  70.317  1.00  0.00    -0.202 C  
ENDROOT
BRANCH   4  29
HETATM   29  C   UNL     1     -12.073  14.534  70.991  1.00  0.00    -0.344 C  
BRANCH  29  30
HETATM   30  N   UNL     1     -12.943  15.687  71.328  1.00  0.00    -0.496 NA 
HETATM   31  C   UNL     1     -14.232  15.236  71.866  1.00  0.00    -0.581 C  
BRANCH  30  32
HETATM   32  O   UNL     1     -12.239  16.295  72.475  1.00  0.00    -0.493 OA 
HETATM   33  C   UNL     1     -12.749  15.805  73.717  1.00  0.00    -0.608 C  
ENDBRANCH  30  32
ENDBRANCH  29  30
ENDBRANCH   4  29
BRANCH  27  34
HETATM   34  C   UNL     1      -8.351   5.042  69.006  1.00  0.00    -0.086 C  
HETATM   35  O   UNL     1      -7.488   5.388  68.204  1.00  0.00    -0.075 OA 
HETATM   36  H2  UNL     1      -8.705   3.841  70.660  1.00  0.00     0.000 HD 
HETATM   37  N   UNL     1      -8.032   4.125  69.947  1.00  0.00    -0.055 N  
HETATM   38  H1  UNL     1      -7.092   3.729  69.918  1.00  0.00     0.000 HD 
ENDBRANCH  27  34
BRANCH  13  39
HETATM   39  N   UNL     1      -9.254   7.530  72.112  1.00  0.00    -0.134 NA 
HETATM   40  C   UNL     1      -8.195   6.548  72.363  1.00  0.00    -0.105 C  
HETATM   41  C   UNL     1     -10.133   7.616  73.276  1.00  0.00    -0.334 C  
ENDBRANCH  13  39
TORSDOF 5
ENDMDL
MODEL        4
REMARK 921   NORMALIZED FREE ENERGY PREDICTED BY IDOCK:   -7.05 KCAL/MOL
REMARK 922        TOTAL FREE ENERGY PREDICTED BY IDOCK:  -10.02 KCAL/MOL
REMARK 923 INTER-LIGAND FREE ENERGY PREDICTED BY IDOCK:   -8.94 KCAL/MOL
REMARK 924 INTRA-LIGAND FREE ENERGY PREDICTED BY IDOCK:   -1.08 KCAL/MOL
REMARK 927      BINDING AFFINITY PREDICTED BY RF-SCORE:    0.00 PKD
ROOT
HETATM    1  C   UNL     1      -8.827  13.979  68.530  1.00  0.00    -0.160 C  
HETATM    2  C   UNL     1      -8.056  12.681  68.306  1.00  0.00    -0.161 C  
HETATM    3  C   UNL     1      -8.833  11.468  68.711  1.00  0.00    -0.047 A  
HETATM    4  C   UNL     1      -8.151  10.314  69.176  1.00  0.00    -0.138 A  
HETATM    5  H   UNL     1      -6.350  18.622  65.339  1.00  0.00     0.000 HD 
HETATM    6  C   UNL     1      -8.904   9.170  69.478  1.00  0.00    -0.149 A  
HETATM    7  C   UNL     1      -7.979  15.074  67.920  1.00  0.00    -0.146 C  
HETATM    8  C   UNL     1     -10.287   9.157  69.317  1.00  0.00    -0.223 A  
HETATM    9  C   UNL     1      -8.601  16.475  67.999  1.00  0.00    -0.184 C  
HETATM   10  C   UNL     1     -10.948  10.287  68.830  1.00  0.00    -0.243 A  
HETATM   11  O   UNL     1      -7.286  18.762  65.254  1.00  0.00    -0.486 OA 
HETATM   12  O   UNL     1     -12.305  10.224  68.686  1.00  0.00    -0.476 OA 
HETATM   13  C   UNL     1      -7.563  17.382  67.238  1.00  0.00    -0.192 C  
HETATM   14  C   UNL     1     -10.237  11.455  68.515  1.00  0.00    -0.216 A  
HETATM   15  H   UNL     1     -12.755  10.992  68.354  1.00  0.00     0.000 HD 
HETATM   16  C   UNL     1     -10.929  12.660  67.926  1.00  0.00    -0.230 C  
HETATM   17  C   UNL     1     -10.189  13.974  67.913  1.00  0.00    -0.240 C  
HETATM   18  O   UNL     1     -12.055  12.619  67.434  1.00  0.00    -0.432 OA 
HETATM   19  C   UNL     1     -10.746  15.112  67.429  1.00  0.00    -0.286 C  
HETATM   20  C   UNL     1     -10.069  16.496  67.488  1.00  0.00    -0.267 C  
HETATM   21  O   UNL     1     -12.071  15.154  67.001  1.00  0.00    -0.203 OA 
HETATM   22  H   UNL     1     -12.461  15.951  66.662  1.00  0.00     0.000 HD 
HETATM   23  C   UNL     1     -10.165  17.368  66.216  1.00  0.00    -0.341 C  
HETATM   24  O   UNL     1     -10.881  17.233  68.437  1.00  0.00    -0.354 OA 
HETATM   25  O   UNL     1     -10.744  17.041  65.179  1.00  0.00    -0.672 OA 
HETATM   26  H   UNL     1     -10.463  18.085  68.474  1.00  0.00     0.000 HD 
HETATM   27  C   UNL     1      -9.434  18.670  66.224  1.00  0.00    -0.267 C  
HETATM   28  C   UNL     1      -8.115  18.473  66.343  1.00  0.00    -0.273 C  
ENDROOT
BRANCH   4  29
HETATM   29  C   UNL     1      -6.633  10.240  69.348  1.00  0.00    -0.058 C  
BRANCH  29  30
HETATM   30  N   UNL     1      -6.121  10.595  70.695  1.00  0.00    -0.254 NA 
HETATM   31  C   UNL     1      -5.317   9.504  71.257  1.00  0.00    -0.059 C  
BRANCH  30  32
HETATM   32  O   UNL     1      -5.156  11.671  70.397  1.00  0.00    -0.076 OA 
HETATM   33  C   UNL     1      -5.353  12.798  71.255  1.00  0.00    -0.138 C  
ENDBRANCH  30  32
ENDBRANCH  29  30
ENDBRANCH   4  29
BRANCH  27  34
HETATM   34  C   UNL     1      -9.837  19.849  67.050  1.00  0.00    -0.411 C  
HETATM   35  O   UNL     1     -10.796  19.850  67.817  1.00  0.00    -0.318 OA 
HETATM   36  H2  UNL     1      -8.228  20.979  66.390  1.00  0.00     0.000 HD 
HETATM   37  N   UNL     1      -9.059  20.952  66.982  1.00  0.00    -0.627 N  
HETATM   38  H1  UNL     1      -9.334  21.757  67.545  1.00  0.00     0.000 HD 
ENDBRANCH  27  34
BRANCH  13  39
HETATM   39  N   UNL     1      -6.511  17.785  68.203  1.00  0.00    -0.180 NA 
HETATM   40  C   UNL     1      -6.889  18.892  69.086  1.00  0.00    -0.296 C  
HETATM   41  C   UNL     1      -5.234  18.083  67.557  1.00  0.00    -0.137 C  
ENDBRANCH  13  39
TORSDOF 5
ENDMDL
MODEL        5
REMARK 921   NORMALIZED FREE ENERGY PREDICTED BY IDOCK:   -6.87 KCAL/MOL
REMARK 922        TOTAL FREE ENERGY PREDICTED BY IDOCK:   -9.78 KCAL/MOL
REMARK 923 INTER-LIGAND FREE ENERGY PREDICTED BY IDOCK:   -9.22 KCAL/MOL
REMARK 924 INTRA-LIGAND FREE ENERGY PREDICTED BY IDOCK:   -0.56 KCAL/MOL
REMARK 927      BINDING AFFINITY PREDICTED BY RF-SCORE:    0.00 PKD
ROOT
HETATM    1  C   UNL     1     -10.779  10.390  70.241  1.00  0.00    -0.249 C  
HETATM    2  C   UNL     1     -11.915  11.395  70.411  1.00  0.00    -0.465 C  
HETATM    3  C   UNL     1     -11.880  12.488  69.389  1.00  0.00    -0.368 A  
HETATM    4  C   UNL     1     -12.382  13.775  69.714  1.00  0.00    -0.311 A  
HETATM    5  H   UNL     1     -11.955   5.165  73.273  1.00  0.00     0.000 HD 
HETATM    6  C   UNL     1     -12.402  14.756  68.710  1.00  0.00    -0.019 A  
HETATM    7  C   UNL     1     -11.058   9.279  71.230  1.00  0.00    -0.427 C  
HETATM    8  C   UNL     1     -11.950  14.476  67.423  1.00  0.00    -0.367 A  
HETATM    9  C   UNL     1     -10.045   8.127  71.191  1.00  0.00    -0.222 C  
HETATM   10  C   UNL     1     -11.486  13.198  67.104  1.00  0.00    -0.334 A  
HETATM   11  O   UNL     1     -11.557   4.872  72.461  1.00  0.00    -0.032 OA 
HETATM   12  O   UNL     1     -11.057  12.972  65.827  1.00  0.00    -0.275 OA 
HETATM   13  C   UNL     1     -10.613   7.103  72.244  1.00  0.00    -0.215 C  
HETATM   14  C   UNL     1     -11.447  12.185  68.074  1.00  0.00    -0.380 A  
HETATM   15  H   UNL     1     -10.741  12.102  65.610  1.00  0.00     0.000 HD 
HETATM   16  C   UNL     1     -11.010  10.783  67.727  1.00  0.00    -0.297 C  
HETATM   17  C   UNL     1     -10.681   9.837  68.855  1.00  0.00    -0.241 C  
HETATM   18  O   UNL     1     -10.932  10.365  66.574  1.00  0.00    -0.097 OA 
HETATM   19  C   UNL     1     -10.253   8.569  68.632  1.00  0.00    -0.197 C  
HETATM   20  C   UNL     1      -9.808   7.601  69.748  1.00  0.00    -0.181 C  
HETATM   21  O   UNL     1     -10.003   8.096  67.347  1.00  0.00    -0.173 OA 
HETATM   22  H   UNL     1      -9.704   7.207  67.191  1.00  0.00     0.000 HD 
HETATM   23  C   UNL     1     -10.306   6.142  69.637  1.00  0.00    -0.218 C  
HETATM   24  O   UNL     1      -8.381   7.464  69.531  1.00  0.00    -0.129 OA 
HETATM   25  O   UNL     1     -11.014   5.706  68.729  1.00  0.00    -0.216 OA 
HETATM   26  H   UNL     1      -8.107   6.868  70.219  1.00  0.00     0.000 HD 
HETATM   27  C   UNL     1      -9.963   5.217  70.758  1.00  0.00    -0.279 C  
HETATM   28  C   UNL     1     -10.523   5.629  71.902  1.00  0.00    -0.225 C  
ENDROOT
BRANCH   4  29
HETATM   29  C   UNL     1     -12.924  14.149  71.093  1.00  0.00    -0.349 C  
BRANCH  29  30
HETATM   30  N   UNL     1     -11.935  14.726  72.037  1.00  0.00    -0.331 NA 
HETATM   31  C   UNL     1     -11.924  16.192  71.960  1.00  0.00    -0.526 C  
BRANCH  30  32
HETATM   32  O   UNL     1     -12.528  14.414  73.353  1.00  0.00    -0.308 OA 
HETATM   33  C   UNL     1     -12.510  15.554  74.215  1.00  0.00    -0.643 C  
ENDBRANCH  30  32
ENDBRANCH  29  30
ENDBRANCH   4  29
BRANCH  27  34
HETATM   34  C   UNL     1      -8.583   4.714  71.033  1.00  0.00    -0.110 C  
HETATM   35  O   UNL     1      -8.094   4.639  72.157  1.00  0.00    -0.098 OA 
HETATM   36  H2  UNL     1      -8.247   4.268  69.034  1.00  0.00     0.000 HD 
HETATM   37  N   UNL     1      -7.863   4.264  69.980  1.00  0.00    -0.052 N  
HETATM   38  H1  UNL     1      -6.921   3.921  70.168  1.00  0.00     0.000 HD 
ENDBRANCH  27  34
BRANCH  13  39
HETATM   39  N   UNL     1     -10.120   7.502  73.585  1.00  0.00    -0.323 NA 
HETATM   40  C   UNL     1      -8.809   8.158  73.580  1.00  0.00    -0.227 C  
HETATM   41  C   UNL     1     -10.114   6.395  74.539  1.00  0.00    -0.339 C  
ENDBRANCH  13  39
TORSDOF 5
ENDMDL
MODEL        6
REMARK 921   NORMALIZED FREE ENERGY PREDICTED BY IDOCK:   -6.85 KCAL/MOL
REMARK 922        TOTAL FREE ENERGY PREDICTED BY IDOCK:   -9.76 KCAL/MOL
REMARK 923 INTER-LIGAND FREE ENERGY PREDICTED BY IDOCK:   -8.73 KCAL/MOL
REMARK 924 INTRA-LIGAND FREE ENERGY PREDICTED BY IDOCK:   -1.03 KCAL/MOL
REMARK 927      BINDING AFFINITY PREDICTED BY RF-SCORE:    0.00 PKD
ROOT
HETATM    1  C   UNL     1     -10.809  10.310  68.071  1.00  0.00    -0.325 C  
HETATM    2  C   UNL     1     -10.390  11.648  68.674  1.00  0.00    -0.229 C  
HETATM    3  C   UNL     1     -11.366  12.159  69.687  1.00  0.00    -0.223 A  
HETATM    4  C   UNL     1     -11.521  13.557  69.877  1.00  0.00    -0.194 A  
HETATM    5  H   UNL     1      -6.065   7.526  65.311  1.00  0.00     0.000 HD 
HETATM    6  C   UNL     1     -12.391  14.001  70.884  1.00  0.00    -0.443 A  
HETATM    7  C   UNL     1      -9.648   9.863  67.209  1.00  0.00    -0.195 C  
HETATM    8  C   UNL     1     -13.080  13.097  71.688  1.00  0.00    -0.444 A  
HETATM    9  C   UNL     1      -9.847   8.498  66.536  1.00  0.00    -0.342 C  
HETATM   10  C   UNL     1     -12.899  11.723  71.515  1.00  0.00    -0.345 A  
HETATM   11  O   UNL     1      -6.527   6.815  65.741  1.00  0.00    -0.047 OA 
HETATM   12  O   UNL     1     -13.594  10.876  72.331  1.00  0.00    -0.545 OA 
HETATM   13  C   UNL     1      -8.485   8.257  65.784  1.00  0.00    -0.151 C  
HETATM   14  C   UNL     1     -12.040  11.231  70.520  1.00  0.00    -0.481 A  
HETATM   15  H   UNL     1     -13.471   9.941  72.214  1.00  0.00     0.000 HD 
HETATM   16  C   UNL     1     -11.784   9.752  70.365  1.00  0.00    -0.231 C  
HETATM   17  C   UNL     1     -11.123   9.270  69.098  1.00  0.00    -0.002 C  
HETATM   18  O   UNL     1     -12.064   8.924  71.229  1.00  0.00    -0.294 OA 
HETATM   19  C   UNL     1     -10.882   7.955  68.865  1.00  0.00     0.021 C  
HETATM   20  C   UNL     1     -10.304   7.406  67.544  1.00  0.00    -0.251 C  
HETATM   21  O   UNL     1     -11.317   6.964  69.741  1.00  0.00    -0.420 OA 
HETATM   22  H   UNL     1     -11.148   6.044  69.578  1.00  0.00     0.000 HD 
HETATM   23  C   UNL     1      -9.211   6.321  67.667  1.00  0.00    -0.111 C  
HETATM   24  O   UNL     1     -11.413   6.673  66.965  1.00  0.00    -0.763 OA 
HETATM   25  O   UNL     1      -8.785   5.866  68.729  1.00  0.00    -0.110 OA 
HETATM   26  H   UNL     1     -11.057   6.336  66.151  1.00  0.00     0.000 HD 
HETATM   27  C   UNL     1      -8.574   5.849  66.401  1.00  0.00    -0.127 C  
HETATM   28  C   UNL     1      -7.924   6.849  65.795  1.00  0.00    -0.116 C  
ENDROOT
BRANCH   4  29
HETATM   29  C   UNL     1     -10.776  14.610  69.057  1.00  0.00    -0.249 C  
BRANCH  29  30
HETATM   30  N   UNL     1     -11.587  15.327  68.042  1.00  0.00    -0.339 NA 
HETATM   31  C   UNL     1     -11.090  16.693  67.838  1.00  0.00    -0.212 C  
BRANCH  30  32
HETATM   32  O   UNL     1     -11.254  14.606  66.798  1.00  0.00    -0.328 OA 
HETATM   33  C   UNL     1     -12.419  14.032  66.201  1.00  0.00    -0.430 C  
ENDBRANCH  30  32
ENDBRANCH  29  30
ENDBRANCH   4  29
BRANCH  27  34
HETATM   34  C   UNL     1      -9.272   5.015  65.376  1.00  0.00    -0.138 C  
HETATM   35  O   UNL     1     -10.404   4.561  65.520  1.00  0.00    -0.254 OA 
HETATM   36  H2  UNL     1      -7.709   5.201  64.025  1.00  0.00     0.000 HD 
HETATM   37  N   UNL     1      -8.632   4.805  64.203  1.00  0.00    -0.135 N  
HETATM   38  H1  UNL     1      -9.109   4.236  63.503  1.00  0.00     0.000 HD 
ENDBRANCH  27  34
BRANCH  13  39
HETATM   39  N   UNL     1      -8.564   8.929  64.464  1.00  0.00    -0.161 NA 
HETATM   40  C   UNL     1      -8.345   8.043  63.317  1.00  0.00     0.031 C  
HETATM   41  C   UNL     1      -7.682  10.090  64.367  1.00  0.00    -0.145 C  
ENDBRANCH  13  39
TORSDOF 5
ENDMDL
MODEL        7
REMARK 921   NORMALIZED FREE ENERGY PREDICTED BY IDOCK:   -6.64 KCAL/MOL
REMARK 922        TOTAL FREE ENERGY PREDICTED BY IDOCK:   -9.48 KCAL/MOL
REMARK 923 INTER-LIGAND FREE ENERGY PREDICTED BY IDOCK:   -9.12 KCAL/MOL
REMARK 924 INTRA-LIGAND FREE ENERGY PREDICTED BY IDOCK:   -0.36 KCAL/MOL
REMARK 927      BINDING AFFINITY PREDICTED BY RF-SCORE:    0.00 PKD
ROOT
HETATM    1  C   UNL     1     -10.702   9.242  67.142  1.00  0.00    -0.222 C  
HETATM    2  C   UNL     1      -9.958   9.863  65.963  1.00  0.00    -0.338 C  
HETATM    3  C   UNL     1     -10.643  11.077  65.418  1.00  0.00    -0.270 A  
HETATM    4  C   UNL     1     -10.514  11.404  64.044  1.00  0.00    -0.435 A  
HETATM    5  H   UNL     1      -7.061   5.435  70.323  1.00  0.00     0.000 HD 
HETATM    6  C   UNL     1     -11.109  12.588  63.581  1.00  0.00    -0.523 A  
HETATM    7  C   UNL     1      -9.801   8.147  67.670  1.00  0.00    -0.216 C  
HETATM    8  C   UNL     1     -11.800  13.431  64.447  1.00  0.00    -0.452 A  
HETATM    9  C   UNL     1     -10.349   7.415  68.902  1.00  0.00    -0.214 C  
HETATM   10  C   UNL     1     -11.897  13.116  65.805  1.00  0.00    -0.397 A  
HETATM   11  O   UNL     1      -7.561   5.885  70.994  1.00  0.00    -0.091 OA 
HETATM   12  O   UNL     1     -12.583  13.977  66.615  1.00  0.00    -0.516 OA 
HETATM   13  C   UNL     1      -9.198   6.406  69.273  1.00  0.00    -0.135 C  
HETATM   14  C   UNL     1     -11.319  11.943  66.314  1.00  0.00    -0.394 A  
HETATM   15  H   UNL     1     -12.648  13.763  67.539  1.00  0.00     0.000 HD 
HETATM   16  C   UNL     1     -11.358  11.625  67.788  1.00  0.00    -0.288 C  
HETATM   17  C   UNL     1     -11.017  10.223  68.226  1.00  0.00    -0.315 C  
HETATM   18  O   UNL     1     -11.630  12.456  68.652  1.00  0.00    -0.273 OA 
HETATM   19  C   UNL     1     -11.055   9.843  69.528  1.00  0.00    -0.217 C  
HETATM   20  C   UNL     1     -10.815   8.399  70.012  1.00  0.00    -0.225 C  
HETATM   21  O   UNL     1     -11.503  10.703  70.528  1.00  0.00    -0.311 OA 
HETATM   22  H   UNL     1     -11.529  10.437  71.440  1.00  0.00     0.000 HD 
HETATM   23  C   UNL     1      -9.926   8.228  71.265  1.00  0.00    -0.192 C  
HETATM   24  O   UNL     1     -12.117   7.978  70.490  1.00  0.00    -0.489 OA 
HETATM   25  O   UNL     1      -9.413   9.153  71.897  1.00  0.00    -0.332 OA 
HETATM   26  H   UNL     1     -11.969   7.088  70.788  1.00  0.00     0.000 HD 
HETATM   27  C   UNL     1      -9.606   6.833  71.689  1.00  0.00    -0.163 C  
HETATM   28  C   UNL     1      -8.901   6.199  70.745  1.00  0.00    -0.140 C  
ENDROOT
BRANCH   4  29
HETATM   29  C   UNL     1      -9.744  10.548  63.038  1.00  0.00    -0.294 C  
BRANCH  29  30
HETATM   30  N   UNL     1      -8.380  10.139  63.455  1.00  0.00    -0.159 NA 
HETATM   31  C   UNL     1      -8.123   8.735  63.115  1.00  0.00    -0.176 C  
BRANCH  30  32
HETATM   32  O   UNL     1      -7.520  10.919  62.543  1.00  0.00    -0.097 OA 
HETATM   33  C   UNL     1      -6.185  10.408  62.523  1.00  0.00    -0.139 C  
ENDBRANCH  30  32
ENDBRANCH  29  30
ENDBRANCH   4  29
BRANCH  27  34
HETATM   34  C   UNL     1     -10.603   5.891  72.282  1.00  0.00    -0.217 C  
HETATM   35  O   UNL     1     -11.791   6.163  72.438  1.00  0.00    -0.303 OA 
HETATM   36  H2  UNL     1      -9.204   4.369  72.454  1.00  0.00     0.000 HD 
HETATM   37  N   UNL     1     -10.172   4.651  72.608  1.00  0.00    -0.178 N  
HETATM   38  H1  UNL     1     -10.854   4.008  73.012  1.00  0.00     0.000 HD 
ENDBRANCH  27  34
BRANCH  13  39
HETATM   39  N   UNL     1      -9.379   5.182  68.455  1.00  0.00    -0.117 NA 
HETATM   40  C   UNL     1      -9.441   3.938  69.227  1.00  0.00    -0.186 C  
HETATM   41  C   UNL     1      -8.380   5.057  67.396  1.00  0.00    -0.106 C  
ENDBRANCH  13  39
TORSDOF 5
ENDMDL
MODEL        8
REMARK 921   NORMALIZED FREE ENERGY PREDICTED BY IDOCK:   -6.63 KCAL/MOL
REMARK 922        TOTAL FREE ENERGY PREDICTED BY IDOCK:   -9.48 KCAL/MOL
REMARK 923 INTER-LIGAND FREE ENERGY PREDICTED BY IDOCK:   -8.74 KCAL/MOL
REMARK 924 INTRA-LIGAND FREE ENERGY PREDICTED BY IDOCK:   -0.74 KCAL/MOL
REMARK 927      BINDING AFFINITY PREDICTED BY RF-SCORE:    0.00 PKD
ROOT
HETATM    1  C   UNL     1     -10.833  10.435  68.523  1.00  0.00    -0.278 C  
HETATM    2  C   UNL     1     -10.360  11.875  68.696  1.00  0.00    -0.218 C  
HETATM    3  C   UNL     1     -11.337  12.722  69.449  1.00  0.00    -0.267 A  
HETATM    4  C   UNL     1     -11.421  14.113  69.183  1.00  0.00    -0.338 A  
HETATM    5  H   UNL     1      -6.167   6.721  67.004  1.00  0.00     0.000 HD 
HETATM    6  C   UNL     1     -12.295  14.889  69.958  1.00  0.00    -0.358 A  
HETATM    7  C   UNL     1      -9.672   9.689  67.901  1.00  0.00    -0.169 C  
HETATM    8  C   UNL     1     -13.059  14.316  70.972  1.00  0.00    -0.394 A  
HETATM    9  C   UNL     1      -9.926   8.192  67.682  1.00  0.00    -0.240 C  
HETATM   10  C   UNL     1     -12.949  12.951  71.247  1.00  0.00    -0.228 A  
HETATM   11  O   UNL     1      -6.681   6.203  67.613  1.00  0.00    -0.054 OA 
HETATM   12  O   UNL     1     -13.715  12.436  72.254  1.00  0.00    -0.497 OA 
HETATM   13  C   UNL     1      -8.556   7.667  67.109  1.00  0.00    -0.121 C  
HETATM   14  C   UNL     1     -12.087  12.134  70.499  1.00  0.00    -0.383 A  
HETATM   15  H   UNL     1     -13.641  11.507  72.442  1.00  0.00     0.000 HD 
HETATM   16  C   UNL     1     -11.910  10.672  70.828  1.00  0.00    -0.357 C  
HETATM   17  C   UNL     1     -11.237   9.787  69.809  1.00  0.00    -0.242 C  
HETATM   18  O   UNL     1     -12.262  10.172  71.894  1.00  0.00    -0.332 OA 
HETATM   19  C   UNL     1     -11.063   8.457  70.011  1.00  0.00    -0.148 C  
HETATM   20  C   UNL     1     -10.475   7.494  68.959  1.00  0.00    -0.208 C  
HETATM   21  O   UNL     1     -11.579   7.813  71.133  1.00  0.00    -0.274 OA 
HETATM   22  H   UNL     1     -11.456   6.881  71.275  1.00  0.00     0.000 HD 
HETATM   23  C   UNL     1      -9.447   6.458  69.467  1.00  0.00    -0.145 C  
HETATM   24  O   UNL     1     -11.604   6.664  68.587  1.00  0.00    -0.567 OA 
HETATM   25  O   UNL     1      -9.081   6.343  70.637  1.00  0.00    -0.147 OA 
HETATM   26  H   UNL     1     -11.241   6.072  67.938  1.00  0.00     0.000 HD 
HETATM   27  C   UNL     1      -8.799   5.583  68.445  1.00  0.00    -0.107 C  
HETATM   28  C   UNL     1      -8.075   6.312  67.587  1.00  0.00    -0.117 C  
ENDROOT
BRANCH   4  29
HETATM   29  C   UNL     1     -10.592  14.821  68.111  1.00  0.00    -0.241 C  
BRANCH  29  30
HETATM   30  N   UNL     1     -11.251  14.977  66.790  1.00  0.00    -0.339 NA 
HETATM   31  C   UNL     1     -10.390  14.480  65.710  1.00  0.00    -0.331 C  
BRANCH  30  32
HETATM   32  O   UNL     1     -12.364  14.011  66.871  1.00  0.00    -0.418 OA 
HETATM   33  C   UNL     1     -12.396  13.157  65.725  1.00  0.00    -0.435 C  
ENDBRANCH  30  32
ENDBRANCH  29  30
ENDBRANCH   4  29
BRANCH  27  34
HETATM   34  C   UNL     1      -9.509   4.499  67.702  1.00  0.00    -0.160 C  
HETATM   35  O   UNL     1     -10.372   4.705  66.852  1.00  0.00    -0.195 OA 
HETATM   36  H2  UNL     1      -8.388   3.010  68.613  1.00  0.00     0.000 HD 
HETATM   37  N   UNL     1      -9.131   3.224  67.946  1.00  0.00    -0.151 N  
HETATM   38  H1  UNL     1      -9.616   2.484  67.438  1.00  0.00     0.000 HD 
ENDBRANCH  27  34
BRANCH  13  39
HETATM   39  N   UNL     1      -8.556   7.891  65.643  1.00  0.00    -0.150 NA 
HETATM   40  C   UNL     1      -8.396   6.674  64.842  1.00  0.00    -0.034 C  
HETATM   41  C   UNL     1      -7.576   8.890  65.223  1.00  0.00    -0.098 C  
ENDBRANCH  13  39
TORSDOF 5
ENDMDL
MODEL        9
REMARK 921   NORMALIZED FREE ENERGY PREDICTED BY IDOCK:   -6.62 KCAL/MOL
REMARK 922        TOTAL FREE ENERGY PREDICTED BY IDOCK:   -9.45 KCAL/MOL
REMARK 923 INTER-LIGAND FREE ENERGY PREDICTED BY IDOCK:   -8.46 KCAL/MOL
REMARK 924 INTRA-LIGAND FREE ENERGY PREDICTED BY IDOCK:   -0.99 KCAL/MOL
REMARK 927      BINDING AFFINITY PREDICTED BY RF-SCORE:    0.00 PKD
ROOT
HETATM    1  C   UNL     1      -9.555  10.327  68.204  1.00  0.00    -0.151 C  
HETATM    2  C   UNL     1      -8.392   9.849  69.069  1.00  0.00    -0.130 C  
HETATM    3  C   UNL     1      -8.311   8.357  69.161  1.00  0.00    -0.122 A  
HETATM    4  C   UNL     1      -7.779   7.748  70.327  1.00  0.00    -0.089 A  
HETATM    5  H   UNL     1      -8.808  16.196  66.509  1.00  0.00     0.000 HD 
HETATM    6  C   UNL     1      -7.651   6.351  70.350  1.00  0.00    -0.096 A  
HETATM    7  C   UNL     1      -9.390  11.826  68.081  1.00  0.00    -0.190 C  
HETATM    8  C   UNL     1      -8.025   5.577  69.255  1.00  0.00    -0.095 A  
HETATM    9  C   UNL     1     -10.446  12.509  67.201  1.00  0.00    -0.237 C  
HETATM   10  C   UNL     1      -8.521   6.186  68.101  1.00  0.00    -0.116 A  
HETATM   11  O   UNL     1      -9.162  15.778  65.733  1.00  0.00    -0.321 OA 
HETATM   12  O   UNL     1      -8.871   5.383  67.051  1.00  0.00    -0.112 OA 
HETATM   13  C   UNL     1      -9.994  14.018  67.189  1.00  0.00    -0.252 C  
HETATM   14  C   UNL     1      -8.668   7.580  68.030  1.00  0.00    -0.121 A  
HETATM   15  H   UNL     1      -9.208   5.798  66.266  1.00  0.00     0.000 HD 
HETATM   16  C   UNL     1      -9.139   8.256  66.766  1.00  0.00    -0.156 C  
HETATM   17  C   UNL     1      -9.583   9.695  66.848  1.00  0.00    -0.217 C  
HETATM   18  O   UNL     1      -9.156   7.702  65.669  1.00  0.00    -0.066 OA 
HETATM   19  C   UNL     1     -10.048  10.370  65.767  1.00  0.00    -0.262 C  
HETATM   20  C   UNL     1     -10.607  11.807  65.823  1.00  0.00    -0.268 C  
HETATM   21  O   UNL     1     -10.230   9.745  64.536  1.00  0.00    -0.344 OA 
HETATM   22  H   UNL     1     -10.556  10.218  63.779  1.00  0.00     0.000 HD 
HETATM   23  C   UNL     1     -10.165  12.766  64.695  1.00  0.00    -0.297 C  
HETATM   24  O   UNL     1     -12.021  11.632  65.553  1.00  0.00    -0.234 OA 
HETATM   25  O   UNL     1      -9.416  12.463  63.766  1.00  0.00    -0.040 OA 
HETATM   26  H   UNL     1     -12.366  12.517  65.588  1.00  0.00     0.000 HD 
HETATM   27  C   UNL     1     -10.621  14.184  64.788  1.00  0.00    -0.439 C  
HETATM   28  C   UNL     1     -10.123  14.773  65.882  1.00  0.00    -0.321 C  
ENDROOT
BRANCH   4  29
HETATM   29  C   UNL     1      -7.316   8.532  71.555  1.00  0.00    -0.098 C  
BRANCH  29  30
HETATM   30  N   UNL     1      -7.585   7.890  72.865  1.00  0.00    -0.110 NA 
HETATM   31  C   UNL     1      -6.603   8.313  73.871  1.00  0.00    -0.123 C  
BRANCH  30  32
HETATM   32  O   UNL     1      -8.854   8.522  73.276  1.00  0.00    -0.308 OA 
HETATM   33  C   UNL     1      -9.893   7.552  73.428  1.00  0.00    -0.310 C  
ENDBRANCH  30  32
ENDBRANCH  29  30
ENDBRANCH   4  29
BRANCH  27  34
HETATM   34  C   UNL     1     -12.037  14.621  64.589  1.00  0.00    -0.454 C  
HETATM   35  O   UNL     1     -12.993  14.129  65.183  1.00  0.00    -0.729 OA 
HETATM   36  H2  UNL     1     -11.487  16.122  63.267  1.00  0.00     0.000 HD 
HETATM   37  N   UNL     1     -12.257  15.656  63.748  1.00  0.00    -0.886 N  
HETATM   38  H1  UNL     1     -13.224  15.954  63.613  1.00  0.00     0.000 HD 
ENDBRANCH  27  34
BRANCH  13  39
HETATM   39  N   UNL     1     -10.560  14.675  68.393  1.00  0.00    -0.236 NA 
HETATM   40  C   UNL     1     -11.655  15.609  68.117  1.00  0.00    -0.283 C  
HETATM   41  C   UNL     1      -9.542  15.335  69.208  1.00  0.00    -0.249 C  
ENDBRANCH  13  39
TORSDOF 5
ENDMDL
MODEL       10
REMARK 921   NORMALIZED FREE ENERGY PREDICTED BY IDOCK:   -6.61 KCAL/MOL
REMARK 922        TOTAL FREE ENERGY PREDICTED BY IDOCK:   -9.45 KCAL/MOL
REMARK 923 INTER-LIGAND FREE ENERGY PREDICTED BY IDOCK:   -8.75 KCAL/MOL
REMARK 924 INTRA-LIGAND FREE ENERGY PREDICTED BY IDOCK:   -0.70 KCAL/MOL
REMARK 927      BINDING AFFINITY PREDICTED BY RF-SCORE:    0.00 PKD
ROOT
HETATM    1  C   UNL     1      -9.961   8.577  68.649  1.00  0.00    -0.197 C  
HETATM    2  C   UNL     1     -10.417   7.122  68.700  1.00  0.00    -0.218 C  
HETATM    3  C   UNL     1     -10.364   6.544  70.080  1.00  0.00    -0.241 A  
HETATM    4  C   UNL     1     -10.124   5.157  70.257  1.00  0.00    -0.338 A  
HETATM    5  H   UNL     1     -11.798  11.308  63.449  1.00  0.00     0.000 HD 
HETATM    6  C   UNL     1     -10.152   4.636  71.560  1.00  0.00    -0.255 A  
HETATM    7  C   UNL     1     -10.235   9.047  67.237  1.00  0.00    -0.323 C  
HETATM    8  C   UNL     1     -10.419   5.454  72.655  1.00  0.00    -0.261 A  
HETATM    9  C   UNL     1      -9.886  10.520  66.981  1.00  0.00    -0.223 C  
HETATM   10  C   UNL     1     -10.684   6.812  72.469  1.00  0.00    -0.230 A  
HETATM   11  O   UNL     1     -11.921  11.977  64.113  1.00  0.00    -0.381 OA 
HETATM   12  O   UNL     1     -10.944   7.573  73.574  1.00  0.00    -0.495 OA 
HETATM   13  C   UNL     1     -10.336  10.750  65.490  1.00  0.00    -0.241 C  
HETATM   14  C   UNL     1     -10.666   7.379  71.185  1.00  0.00    -0.246 A  
HETATM   15  H   UNL     1     -11.124   8.497  73.448  1.00  0.00     0.000 HD 
HETATM   16  C   UNL     1     -11.014   8.830  70.963  1.00  0.00    -0.268 C  
HETATM   17  C   UNL     1     -10.668   9.453  69.634  1.00  0.00    -0.251 C  
HETATM   18  O   UNL     1     -11.589   9.523  71.801  1.00  0.00    -0.385 OA 
HETATM   19  C   UNL     1     -10.919  10.758  69.361  1.00  0.00    -0.254 C  
HETATM   20  C   UNL     1     -10.491  11.464  68.058  1.00  0.00    -0.188 C  
HETATM   21  O   UNL     1     -11.428  11.624  70.326  1.00  0.00    -0.487 OA 
HETATM   22  H   UNL     1     -11.604  12.537  70.134  1.00  0.00     0.000 HD 
HETATM   23  C   UNL     1     -11.533  12.399  67.404  1.00  0.00    -0.352 C  
HETATM   24  O   UNL     1      -9.464  12.390  68.493  1.00  0.00    -0.313 OA 
HETATM   25  O   UNL     1     -12.659  12.622  67.850  1.00  0.00     0.165 OA 
HETATM   26  H   UNL     1      -9.200  12.825  67.691  1.00  0.00     0.000 HD 
HETATM   27  C   UNL     1     -11.168  13.015  66.093  1.00  0.00    -0.320 C  
HETATM   28  C   UNL     1     -10.996  12.073  65.157  1.00  0.00    -0.310 C  
ENDROOT
BRANCH   4  29
HETATM   29  C   UNL     1      -9.856   4.190  69.104  1.00  0.00    -0.051 C  
BRANCH  29  30
HETATM   30  N   UNL     1      -8.435   4.052  68.699  1.00  0.00    -0.085 NA 
HETATM   31  C   UNL     1      -8.043   2.639  68.623  1.00  0.00    -0.052 C  
BRANCH  30  32
HETATM   32  O   UNL     1      -8.454   4.521  67.299  1.00  0.00    -0.104 OA 
HETATM   33  C   UNL     1      -9.693   4.204  66.661  1.00  0.00    -0.211 C  
ENDBRANCH  30  32
ENDBRANCH  29  30
ENDBRANCH   4  29
BRANCH  27  34
HETATM   34  C   UNL     1     -10.128  14.075  65.929  1.00  0.00    -0.321 C  
HETATM   35  O   UNL     1      -9.426  14.491  66.846  1.00  0.00    -0.231 OA 
HETATM   36  H2  UNL     1     -10.451  14.206  63.883  1.00  0.00     0.000 HD 
HETATM   37  N   UNL     1      -9.919  14.555  64.681  1.00  0.00    -0.483 N  
HETATM   38  H1  UNL     1      -9.209  15.279  64.569  1.00  0.00     0.000 HD 
ENDBRANCH  27  34
BRANCH  13  39
HETATM   39  N   UNL     1      -9.225  10.323  64.604  1.00  0.00    -0.221 NA 
HETATM   40  C   UNL     1      -7.899  10.368  65.227  1.00  0.00    -0.137 C  
HETATM   41  C   UNL     1      -9.199  11.051  63.337  1.00  0.00    -0.245 C  
ENDBRANCH  13  39
TORSDOF 5
ENDMDL
MODEL       11
REMARK 921   NORMALIZED FREE ENERGY PREDICTED BY IDOCK:   -6.54 KCAL/MOL
REMARK 922        TOTAL FREE ENERGY PREDICTED BY IDOCK:   -9.35 KCAL/MOL
REMARK 923 INTER-LIGAND FREE ENERGY PREDICTED BY IDOCK:   -8.67 KCAL/MOL
REMARK 924 INTRA-LIGAND FREE ENERGY PREDICTED BY IDOCK:   -0.69 KCAL/MOL
REMARK 927      BINDING AFFINITY PREDICTED BY RF-SCORE:    0.00 PKD
ROOT
HETATM    1  C   UNL     1     -10.334  11.649  67.723  1.00  0.00    -0.202 C  
HETATM    2  C   UNL     1      -9.813  13.040  68.073  1.00  0.00    -0.224 C  
HETATM    3  C   UNL     1     -10.813  13.863  68.823  1.00  0.00    -0.282 A  
HETATM    4  C   UNL     1     -10.810  15.276  68.687  1.00  0.00    -0.253 A  
HETATM    5  H   UNL     1      -5.726   7.851  66.235  1.00  0.00     0.000 HD 
HETATM    6  C   UNL     1     -11.713  16.021  69.460  1.00  0.00    -0.275 A  
HETATM    7  C   UNL     1      -9.158  10.904  67.128  1.00  0.00    -0.152 C  
HETATM    8  C   UNL     1     -12.585  15.397  70.348  1.00  0.00    -0.433 A  
HETATM    9  C   UNL     1      -9.459   9.449  66.745  1.00  0.00    -0.217 C  
HETATM   10  C   UNL     1     -12.561  14.009  70.497  1.00  0.00    -0.329 A  
HETATM   11  O   UNL     1      -6.312   7.307  66.748  1.00  0.00    -0.044 OA 
HETATM   12  O   UNL     1     -13.434  13.444  71.383  1.00  0.00    -0.253 OA 
HETATM   13  C   UNL     1      -8.070   8.908  66.237  1.00  0.00    -0.110 C  
HETATM   14  C   UNL     1     -11.676  13.221  69.745  1.00  0.00    -0.354 A  
HETATM   15  H   UNL     1     -13.417  12.499  71.485  1.00  0.00     0.000 HD 
HETATM   16  C   UNL     1     -11.593  11.727  69.945  1.00  0.00    -0.274 C  
HETATM   17  C   UNL     1     -10.875  10.906  68.903  1.00  0.00    -0.262 C  
HETATM   18  O   UNL     1     -12.058  11.150  70.925  1.00  0.00    -0.346 OA 
HETATM   19  C   UNL     1     -10.779   9.556  68.988  1.00  0.00    -0.202 C  
HETATM   20  C   UNL     1     -10.146   8.666  67.899  1.00  0.00    -0.203 C  
HETATM   21  O   UNL     1     -11.418   8.838  69.997  1.00  0.00    -0.449 OA 
HETATM   22  H   UNL     1     -11.350   7.892  70.057  1.00  0.00     0.000 HD 
HETATM   23  C   UNL     1      -9.214   7.534  68.386  1.00  0.00    -0.139 C  
HETATM   24  O   UNL     1     -11.275   7.935  67.357  1.00  0.00    -0.435 OA 
HETATM   25  O   UNL     1      -8.955   7.292  69.565  1.00  0.00    -0.143 OA 
HETATM   26  H   UNL     1     -10.885   7.387  66.686  1.00  0.00     0.000 HD 
HETATM   27  C   UNL     1      -8.520   6.724  67.341  1.00  0.00    -0.121 C  
HETATM   28  C   UNL     1      -7.693   7.490  66.619  1.00  0.00    -0.101 C  
ENDROOT
BRANCH   4  29
HETATM   29  C   UNL     1      -9.862  16.035  67.759  1.00  0.00    -0.231 C  
BRANCH  29  30
HETATM   30  N   UNL     1     -10.437  17.228  67.089  1.00  0.00    -0.319 NA 
HETATM   31  C   UNL     1      -9.680  18.439  67.427  1.00  0.00    -0.299 C  
BRANCH  30  32
HETATM   32  O   UNL     1     -10.139  16.971  65.667  1.00  0.00    -0.554 OA 
HETATM   33  C   UNL     1     -10.718  15.740  65.228  1.00  0.00    -0.428 C  
ENDBRANCH  30  32
ENDBRANCH  29  30
ENDBRANCH   4  29
BRANCH  27  34
HETATM   34  C   UNL     1      -9.212   5.753  66.440  1.00  0.00    -0.151 C  
HETATM   35  O   UNL     1     -10.196   5.098  66.769  1.00  0.00    -0.202 OA 
HETATM   36  H2  UNL     1      -7.963   6.201  64.844  1.00  0.00     0.000 HD 
HETATM   37  N   UNL     1      -8.752   5.643  65.172  1.00  0.00    -0.262 N  
HETATM   38  H1  UNL     1      -9.224   4.980  64.557  1.00  0.00     0.000 HD 
ENDBRANCH  27  34
BRANCH  13  39
HETATM   39  N   UNL     1      -7.933   9.267  64.804  1.00  0.00    -0.117 NA 
HETATM   40  C   UNL     1      -6.872  10.237  64.519  1.00  0.00    -0.069 C  
HETATM   41  C   UNL     1      -9.190   9.721  64.213  1.00  0.00    -0.232 C  
ENDBRANCH  13  39
TORSDOF 5
ENDMDL
MODEL       12
REMARK 921   NORMALIZED FREE ENERGY PREDICTED BY IDOCK:   -6.51 KCAL/MOL
REMARK 922        TOTAL FREE ENERGY PREDICTED BY IDOCK:   -9.32 KCAL/MOL
REMARK 923 INTER-LIGAND FREE ENERGY PREDICTED BY IDOCK:   -8.35 KCAL/MOL
REMARK 924 INTRA-LIGAND FREE ENERGY PREDICTED BY IDOCK:   -0.98 KCAL/MOL
REMARK 927      BINDING AFFINITY PREDICTED BY RF-SCORE:    0.00 PKD
ROOT
HETATM    1  C   UNL     1     -10.084   8.503  67.385  1.00  0.00    -0.298 C  
HETATM    2  C   UNL     1     -10.675   7.200  66.856  1.00  0.00    -0.363 C  
HETATM    3  C   UNL     1     -10.234   6.002  67.638  1.00  0.00    -0.221 A  
HETATM    4  C   UNL     1     -10.125   4.741  66.998  1.00  0.00    -0.228 A  
HETATM    5  H   UNL     1     -13.201  13.378  65.290  1.00  0.00     0.000 HD 
HETATM    6  C   UNL     1      -9.780   3.626  67.776  1.00  0.00    -0.109 A  
HETATM    7  C   UNL     1     -10.754   9.610  66.601  1.00  0.00    -0.102 C  
HETATM    8  C   UNL     1      -9.559   3.746  69.146  1.00  0.00    -0.195 A  
HETATM    9  C   UNL     1     -10.329  11.026  67.014  1.00  0.00    -0.269 C  
HETATM   10  C   UNL     1      -9.698   4.986  69.773  1.00  0.00    -0.196 A  
HETATM   11  O   UNL     1     -13.009  13.602  66.193  1.00  0.00    -0.224 OA 
HETATM   12  O   UNL     1      -9.474   5.053  71.120  1.00  0.00    -0.143 OA 
HETATM   13  C   UNL     1     -11.221  11.956  66.108  1.00  0.00    -0.333 C  
HETATM   14  C   UNL     1     -10.041   6.130  69.036  1.00  0.00    -0.213 A  
HETATM   15  H   UNL     1      -9.569   5.896  71.547  1.00  0.00     0.000 HD 
HETATM   16  C   UNL     1     -10.259   7.462  69.711  1.00  0.00    -0.209 C  
HETATM   17  C   UNL     1     -10.303   8.700  68.851  1.00  0.00    -0.228 C  
HETATM   18  O   UNL     1     -10.427   7.586  70.922  1.00  0.00    -0.212 OA 
HETATM   19  C   UNL     1     -10.465   9.940  69.378  1.00  0.00    -0.231 C  
HETATM   20  C   UNL     1     -10.414  11.241  68.551  1.00  0.00    -0.197 C  
HETATM   21  O   UNL     1     -10.508  10.151  70.754  1.00  0.00    -0.382 OA 
HETATM   22  H   UNL     1     -10.622  11.019  71.122  1.00  0.00     0.000 HD 
HETATM   23  C   UNL     1     -11.489  12.305  68.869  1.00  0.00    -0.304 C  
HETATM   24  O   UNL     1      -9.193  11.882  68.999  1.00  0.00    -0.390 OA 
HETATM   25  O   UNL     1     -12.362  12.190  69.730  1.00  0.00    -0.158 OA 
HETATM   26  H   UNL     1      -9.162  12.683  68.489  1.00  0.00     0.000 HD 
HETATM   27  C   UNL     1     -11.511  13.529  68.014  1.00  0.00    -0.342 C  
HETATM   28  C   UNL     1     -11.783  13.214  66.741  1.00  0.00    -0.385 C  
ENDROOT
BRANCH   4  29
HETATM   29  C   UNL     1     -10.384   4.522  65.507  1.00  0.00    -0.229 C  
BRANCH  29  30
HETATM   30  N   UNL     1      -9.206   4.109  64.705  1.00  0.00    -0.144 NA 
HETATM   31  C   UNL     1      -9.603   3.720  63.347  1.00  0.00    -0.142 C  
BRANCH  30  32
HETATM   32  O   UNL     1      -8.468   5.377  64.542  1.00  0.00    -0.140 OA 
HETATM   33  C   UNL     1      -8.139   5.615  63.171  1.00  0.00    -0.101 C  
ENDBRANCH  30  32
ENDBRANCH  29  30
ENDBRANCH   4  29
BRANCH  27  34
HETATM   34  C   UNL     1     -10.462  14.592  68.050  1.00  0.00    -0.236 C  
HETATM   35  O   UNL     1      -9.473  14.552  68.776  1.00  0.00    -0.205 OA 
HETATM   36  H2  UNL     1     -11.377  15.677  66.536  1.00  0.00     0.000 HD 
HETATM   37  N   UNL     1     -10.593  15.626  67.187  1.00  0.00    -0.305 N  
HETATM   38  H1  UNL     1      -9.876  16.352  67.212  1.00  0.00     0.000 HD 
ENDBRANCH  27  34
BRANCH  13  39
HETATM   39  N   UNL     1     -10.535  12.121  64.804  1.00  0.00    -0.283 NA 
HETATM   40  C   UNL     1     -10.209  13.508  64.459  1.00  0.00    -0.269 C  
HETATM   41  C   UNL     1     -11.259  11.496  63.700  1.00  0.00    -0.362 C  
ENDBRANCH  13  39
TORSDOF 5
ENDMDL
MODEL       13
REMARK 921   NORMALIZED FREE ENERGY PREDICTED BY IDOCK:   -6.46 KCAL/MOL
REMARK 922        TOTAL FREE ENERGY PREDICTED BY IDOCK:   -9.25 KCAL/MOL
REMARK 923 INTER-LIGAND FREE ENERGY PREDICTED BY IDOCK:   -8.89 KCAL/MOL
REMARK 924 INTRA-LIGAND FREE ENERGY PREDICTED BY IDOCK:   -0.37 KCAL/MOL
REMARK 927      BINDING AFFINITY PREDICTED BY RF-SCORE:    0.00 PKD
ROOT
HETATM    1  C   UNL     1     -11.078  11.365  68.399  1.00  0.00    -0.296 C  
HETATM    2  C   UNL     1     -10.876  10.328  69.500  1.00  0.00    -0.292 C  
HETATM    3  C   UNL     1     -10.928   8.922  68.990  1.00  0.00     0.026 A  
HETATM    4  C   UNL     1     -11.389   7.880  69.835  1.00  0.00     0.034 A  
HETATM    5  H   UNL     1      -9.179  16.933  70.206  1.00  0.00     0.000 HD 
HETATM    6  C   UNL     1     -11.356   6.564  69.350  1.00  0.00    -0.395 A  
HETATM    7  C   UNL     1     -10.829  12.710  69.047  1.00  0.00    -0.192 C  
HETATM    8  C   UNL     1     -10.875   6.280  68.075  1.00  0.00    -0.409 A  
HETATM    9  C   UNL     1     -10.939  13.904  68.089  1.00  0.00    -0.267 C  
HETATM   10  C   UNL     1     -10.395   7.308  67.260  1.00  0.00    -0.279 A  
HETATM   11  O   UNL     1      -8.896  16.879  69.300  1.00  0.00    -0.127 OA 
HETATM   12  O   UNL     1      -9.930   6.978  66.018  1.00  0.00    -0.408 OA 
HETATM   13  C   UNL     1     -10.565  15.137  68.995  1.00  0.00    -0.245 C  
HETATM   14  C   UNL     1     -10.408   8.640  67.701  1.00  0.00    -0.317 A  
HETATM   15  H   UNL     1      -9.603   7.678  65.464  1.00  0.00     0.000 HD 
HETATM   16  C   UNL     1      -9.833   9.751  66.859  1.00  0.00    -0.201 C  
HETATM   17  C   UNL     1     -10.162  11.175  67.232  1.00  0.00    -0.227 C  
HETATM   18  O   UNL     1      -9.089   9.556  65.899  1.00  0.00    -0.159 OA 
HETATM   19  C   UNL     1      -9.711  12.233  66.512  1.00  0.00    -0.234 C  
HETATM   20  C   UNL     1     -10.105  13.698  66.793  1.00  0.00    -0.269 C  
HETATM   21  O   UNL     1      -8.993  12.062  65.331  1.00  0.00    -0.413 OA 
HETATM   22  H   UNL     1      -8.677  12.803  64.827  1.00  0.00     0.000 HD 
HETATM   23  C   UNL     1      -8.968  14.742  66.734  1.00  0.00    -0.266 C  
HETATM   24  O   UNL     1     -10.923  14.056  65.651  1.00  0.00    -0.292 OA 
HETATM   25  O   UNL     1      -7.791  14.490  66.472  1.00  0.00     0.394 OA 
HETATM   26  H   UNL     1     -11.166  14.958  65.825  1.00  0.00     0.000 HD 
HETATM   27  C   UNL     1      -9.314  16.149  67.097  1.00  0.00    -0.225 C  
HETATM   28  C   UNL     1      -9.713  16.226  68.373  1.00  0.00    -0.222 C  
ENDROOT
BRANCH   4  29
HETATM   29  C   UNL     1     -11.901   8.107  71.258  1.00  0.00    -0.287 C  
BRANCH  29  30
HETATM   30  N   UNL     1     -13.311   8.555  71.368  1.00  0.00    -0.264 NA 
HETATM   31  C   UNL     1     -14.162   7.489  71.909  1.00  0.00    -0.347 C  
BRANCH  30  32
HETATM   32  O   UNL     1     -13.242   9.571  72.437  1.00  0.00    -0.431 OA 
HETATM   33  C   UNL     1     -13.196  10.893  71.895  1.00  0.00    -0.403 C  
ENDBRANCH  30  32
ENDBRANCH  29  30
ENDBRANCH   4  29
BRANCH  27  34
HETATM   34  C   UNL     1     -10.166  17.043  66.255  1.00  0.00    -0.329 C  
HETATM   35  O   UNL     1     -10.505  16.779  65.105  1.00  0.00    -0.658 OA 
HETATM   36  H2  UNL     1     -10.410  18.414  67.793  1.00  0.00     0.000 HD 
HETATM   37  N   UNL     1     -10.632  18.178  66.826  1.00  0.00    -0.333 N  
HETATM   38  H1  UNL     1     -11.213  18.788  66.251  1.00  0.00     0.000 HD 
ENDBRANCH  27  34
BRANCH  13  39
HETATM   39  N   UNL     1     -11.793  15.579  69.699  1.00  0.00    -0.346 NA 
HETATM   40  C   UNL     1     -11.590  15.944  71.104  1.00  0.00    -0.432 C  
HETATM   41  C   UNL     1     -12.884  14.612  69.594  1.00  0.00     0.226 C  
ENDBRANCH  13  39
TORSDOF 5
ENDMDL
MODEL       14
REMARK 921   NORMALIZED FREE ENERGY PREDICTED BY IDOCK:   -6.45 KCAL/MOL
REMARK 922        TOTAL FREE ENERGY PREDICTED BY IDOCK:   -9.24 KCAL/MOL
REMARK 923 INTER-LIGAND FREE ENERGY PREDICTED BY IDOCK:   -8.60 KCAL/MOL
REMARK 924 INTRA-LIGAND FREE ENERGY PREDICTED BY IDOCK:   -0.64 KCAL/MOL
REMARK 927      BINDING AFFINITY PREDICTED BY RF-SCORE:    0.00 PKD
ROOT
HETATM    1  C   UNL     1      -8.552  15.154  67.162  1.00  0.00    -0.247 C  
HETATM    2  C   UNL     1      -8.432  16.343  68.110  1.00  0.00    -0.188 C  
HETATM    3  C   UNL     1      -8.786  17.643  67.459  1.00  0.00    -0.234 A  
HETATM    4  C   UNL     1      -8.171  18.844  67.897  1.00  0.00    -0.305 A  
HETATM    5  H   UNL     1      -8.767   9.842  70.263  1.00  0.00     0.000 HD 
HETATM    6  C   UNL     1      -8.579  20.054  67.315  1.00  0.00    -0.399 A  
HETATM    7  C   UNL     1      -8.328  13.922  68.012  1.00  0.00    -0.166 C  
HETATM    8  C   UNL     1      -9.570  20.083  66.337  1.00  0.00    -0.536 A  
HETATM    9  C   UNL     1      -8.453  12.595  67.251  1.00  0.00    -0.193 C  
HETATM   10  C   UNL     1     -10.191  18.899  65.932  1.00  0.00    -0.286 A  
HETATM   11  O   UNL     1      -9.397   9.722  69.562  1.00  0.00    -0.185 OA 
HETATM   12  O   UNL     1     -11.160  18.979  64.972  1.00  0.00    -0.393 OA 
HETATM   13  C   UNL     1      -8.253  11.508  68.372  1.00  0.00    -0.152 C  
HETATM   14  C   UNL     1      -9.816  17.665  66.486  1.00  0.00    -0.323 A  
HETATM   15  H   UNL     1     -11.583  18.174  64.697  1.00  0.00     0.000 HD 
HETATM   16  C   UNL     1     -10.524  16.388  66.106  1.00  0.00    -0.314 C  
HETATM   17  C   UNL     1      -9.879  15.076  66.475  1.00  0.00    -0.276 C  
HETATM   18  O   UNL     1     -11.612  16.362  65.533  1.00  0.00     0.387 OA 
HETATM   19  C   UNL     1     -10.432  13.881  66.147  1.00  0.00    -0.297 C  
HETATM   20  C   UNL     1      -9.760  12.518  66.412  1.00  0.00    -0.249 C  
HETATM   21  O   UNL     1     -11.583  13.796  65.368  1.00  0.00    -0.309 OA 
HETATM   22  H   UNL     1     -11.970  12.960  65.138  1.00  0.00     0.000 HD 
HETATM   23  C   UNL     1     -10.667  11.396  66.966  1.00  0.00    -0.261 C  
HETATM   24  O   UNL     1      -9.433  12.035  65.085  1.00  0.00    -0.419 OA 
HETATM   25  O   UNL     1     -11.871  11.512  67.195  1.00  0.00    -0.595 OA 
HETATM   26  H   UNL     1      -9.019  11.196  65.249  1.00  0.00     0.000 HD 
HETATM   27  C   UNL     1     -10.012  10.101  67.317  1.00  0.00    -0.241 C  
HETATM   28  C   UNL     1      -9.125  10.270  68.304  1.00  0.00    -0.139 C  
ENDROOT
BRANCH   4  29
HETATM   29  C   UNL     1      -7.100  18.898  68.988  1.00  0.00    -0.306 C  
BRANCH  29  30
HETATM   30  N   UNL     1      -5.696  18.915  68.508  1.00  0.00    -0.205 NA 
HETATM   31  C   UNL     1      -5.635  18.762  67.050  1.00  0.00    -0.144 C  
BRANCH  30  32
HETATM   32  O   UNL     1      -5.286  20.309  68.767  1.00  0.00    -0.207 OA 
HETATM   33  C   UNL     1      -5.360  20.623  70.160  1.00  0.00    -0.326 C  
ENDBRANCH  30  32
ENDBRANCH  29  30
ENDBRANCH   4  29
BRANCH  27  34
HETATM   34  C   UNL     1      -9.460   9.144  66.310  1.00  0.00    -0.237 C  
HETATM   35  O   UNL     1      -8.578   9.433  65.505  1.00  0.00    -0.135 OA 
HETATM   36  H2  UNL     1     -10.627   7.581  67.017  1.00  0.00     0.000 HD 
HETATM   37  N   UNL     1      -9.926   7.875  66.336  1.00  0.00    -0.458 N  
HETATM   38  H1  UNL     1      -9.548   7.222  65.649  1.00  0.00     0.000 HD 
ENDBRANCH  27  34
BRANCH  13  39
HETATM   39  N   UNL     1      -6.797  11.284  68.541  1.00  0.00    -0.066 NA 
HETATM   40  C   UNL     1      -6.308  10.017  67.990  1.00  0.00    -0.054 C  
HETATM   41  C   UNL     1      -6.361  11.419  69.929  1.00  0.00    -0.141 C  
ENDBRANCH  13  39
TORSDOF 5
ENDMDL
MODEL       15
REMARK 921   NORMALIZED FREE ENERGY PREDICTED BY IDOCK:   -6.45 KCAL/MOL
REMARK 922        TOTAL FREE ENERGY PREDICTED BY IDOCK:   -9.24 KCAL/MOL
REMARK 923 INTER-LIGAND FREE ENERGY PREDICTED BY IDOCK:   -8.31 KCAL/MOL
REMARK 924 INTRA-LIGAND FREE ENERGY PREDICTED BY IDOCK:   -0.92 KCAL/MOL
REMARK 927      BINDING AFFINITY PREDICTED BY RF-SCORE:    0.00 PKD
ROOT
HETATM    1  C   UNL     1      -8.689  13.935  68.337  1.00  0.00    -0.173 C  
HETATM    2  C   UNL     1      -8.020  12.606  67.995  1.00  0.00    -0.155 C  
HETATM    3  C   UNL     1      -8.831  11.422  68.416  1.00  0.00    -0.167 A  
HETATM    4  C   UNL     1      -8.183  10.211  68.774  1.00  0.00    -0.113 A  
HETATM    5  H   UNL     1      -6.215  18.569  65.132  1.00  0.00     0.000 HD 
HETATM    6  C   UNL     1      -8.975   9.099  69.094  1.00  0.00    -0.144 A  
HETATM    7  C   UNL     1      -7.831  15.007  67.701  1.00  0.00    -0.186 C  
HETATM    8  C   UNL     1     -10.365   9.172  69.053  1.00  0.00    -0.229 A  
HETATM    9  C   UNL     1      -8.359  16.435  67.889  1.00  0.00    -0.174 C  
HETATM   10  C   UNL     1     -10.996  10.358  68.671  1.00  0.00    -0.243 A  
HETATM   11  O   UNL     1      -7.145  18.765  65.135  1.00  0.00    -0.474 OA 
HETATM   12  O   UNL     1     -12.362  10.378  68.643  1.00  0.00    -0.655 OA 
HETATM   13  C   UNL     1      -7.336  17.315  67.078  1.00  0.00    -0.185 C  
HETATM   14  C   UNL     1     -10.245  11.497  68.343  1.00  0.00    -0.211 A  
HETATM   15  H   UNL     1     -12.791  11.185  68.383  1.00  0.00     0.000 HD 
HETATM   16  C   UNL     1     -10.910  12.764  67.865  1.00  0.00    -0.220 C  
HETATM   17  C   UNL     1     -10.096  14.034  67.841  1.00  0.00    -0.237 C  
HETATM   18  O   UNL     1     -12.074  12.810  67.472  1.00  0.00    -0.359 OA 
HETATM   19  C   UNL     1     -10.623  15.222  67.454  1.00  0.00    -0.282 C  
HETATM   20  C   UNL     1      -9.861  16.562  67.509  1.00  0.00    -0.248 C  
HETATM   21  O   UNL     1     -11.974  15.358  67.144  1.00  0.00    -0.071 OA 
HETATM   22  H   UNL     1     -12.343  16.191  66.872  1.00  0.00     0.000 HD 
HETATM   23  C   UNL     1     -10.011  17.494  66.286  1.00  0.00    -0.308 C  
HETATM   24  O   UNL     1     -10.545  17.300  68.554  1.00  0.00    -0.354 OA 
HETATM   25  O   UNL     1     -10.694  17.248  65.291  1.00  0.00    -0.637 OA 
HETATM   26  H   UNL     1     -10.075  18.125  68.589  1.00  0.00     0.000 HD 
HETATM   27  C   UNL     1      -9.205  18.751  66.283  1.00  0.00    -0.255 C  
HETATM   28  C   UNL     1      -7.895  18.475  66.279  1.00  0.00    -0.254 C  
ENDROOT
BRANCH   4  29
HETATM   29  C   UNL     1      -6.663  10.044  68.810  1.00  0.00    -0.049 C  
BRANCH  29  30
HETATM   30  N   UNL     1      -6.053   9.460  67.591  1.00  0.00    -0.053 NA 
HETATM   31  C   UNL     1      -5.141  10.414  66.948  1.00  0.00    -0.041 C  
BRANCH  30  32
HETATM   32  O   UNL     1      -5.180   8.405  68.144  1.00  0.00    -0.032 OA 
HETATM   33  C   UNL     1      -5.405   7.151  67.496  1.00  0.00    -0.020 C  
ENDBRANCH  30  32
ENDBRANCH  29  30
ENDBRANCH   4  29
BRANCH  27  34
HETATM   34  C   UNL     1      -9.466  19.913  67.187  1.00  0.00    -0.373 C  
HETATM   35  O   UNL     1     -10.481  20.035  67.866  1.00  0.00    -0.391 OA 
HETATM   36  H2  UNL     1      -7.616  20.761  66.785  1.00  0.00     0.000 HD 
HETATM   37  N   UNL     1      -8.493  20.846  67.299  1.00  0.00    -0.494 N  
HETATM   38  H1  UNL     1      -8.672  21.639  67.916  1.00  0.00     0.000 HD 
ENDBRANCH  27  34
BRANCH  13  39
HETATM   39  N   UNL     1      -6.184  17.615  67.963  1.00  0.00    -0.157 NA 
HETATM   40  C   UNL     1      -6.541  18.277  69.221  1.00  0.00    -0.236 C  
HETATM   41  C   UNL     1      -5.133  18.372  67.288  1.00  0.00    -0.135 C  
ENDBRANCH  13  39
TORSDOF 5
ENDMDL
MODEL       16
REMARK 921   NORMALIZED FREE ENERGY PREDICTED BY IDOCK:   -6.45 KCAL/MOL
REMARK 922        TOTAL FREE ENERGY PREDICTED BY IDOCK:   -9.23 KCAL/MOL
REMARK 923 INTER-LIGAND FREE ENERGY PREDICTED BY IDOCK:   -8.58 KCAL/MOL
REMARK 924 INTRA-LIGAND FREE ENERGY PREDICTED BY IDOCK:   -0.66 KCAL/MOL
REMARK 927      BINDING AFFINITY PREDICTED BY RF-SCORE:    0.00 PKD
ROOT
HETATM    1  C   UNL     1     -10.946  10.374  68.165  1.00  0.00    -0.334 C  
HETATM    2  C   UNL     1     -10.734   9.235  69.158  1.00  0.00    -0.202 C  
HETATM    3  C   UNL     1     -10.578   7.905  68.491  1.00  0.00    -0.146 A  
HETATM    4  C   UNL     1     -10.996   6.725  69.159  1.00  0.00    -0.290 A  
HETATM    5  H   UNL     1      -9.871  15.841  70.778  1.00  0.00     0.000 HD 
HETATM    6  C   UNL     1     -10.768   5.489  68.536  1.00  0.00    -0.161 A  
HETATM    7  C   UNL     1     -10.915  11.647  68.982  1.00  0.00    -0.283 C  
HETATM    8  C   UNL     1     -10.139   5.414  67.296  1.00  0.00    -0.229 A  
HETATM    9  C   UNL     1     -11.067  12.933  68.158  1.00  0.00    -0.282 C  
HETATM   10  C   UNL     1      -9.704   6.578  66.659  1.00  0.00    -0.154 A  
HETATM   11  O   UNL     1      -9.499  15.928  69.908  1.00  0.00    -0.144 OA 
HETATM   12  O   UNL     1      -9.088   6.452  65.445  1.00  0.00    -0.369 OA 
HETATM   13  C   UNL     1     -10.923  14.077  69.231  1.00  0.00    -0.206 C  
HETATM   14  C   UNL     1      -9.909   7.837  67.242  1.00  0.00    -0.249 A  
HETATM   15  H   UNL     1      -8.792   7.244  65.011  1.00  0.00     0.000 HD 
HETATM   16  C   UNL     1      -9.386   9.096  66.596  1.00  0.00    -0.177 C  
HETATM   17  C   UNL     1      -9.909  10.423  67.089  1.00  0.00    -0.221 C  
HETATM   18  O   UNL     1      -8.538   9.097  65.707  1.00  0.00    -0.136 OA 
HETATM   19  C   UNL     1      -9.514  11.601  66.545  1.00  0.00    -0.206 C  
HETATM   20  C   UNL     1     -10.096  12.973  66.944  1.00  0.00    -0.243 C  
HETATM   21  O   UNL     1      -8.673  11.651  65.436  1.00  0.00    -0.401 OA 
HETATM   22  H   UNL     1      -8.396  12.476  65.056  1.00  0.00     0.000 HD 
HETATM   23  C   UNL     1      -9.084  14.127  67.126  1.00  0.00    -0.232 C  
HETATM   24  O   UNL     1     -10.837  13.384  65.769  1.00  0.00    -0.273 OA 
HETATM   25  O   UNL     1      -7.867  14.029  66.965  1.00  0.00    -0.090 OA 
HETATM   26  H   UNL     1     -11.196  14.229  66.015  1.00  0.00     0.000 HD 
HETATM   27  C   UNL     1      -9.621  15.435  67.604  1.00  0.00    -0.210 C  
HETATM   28  C   UNL     1     -10.145  15.314  68.830  1.00  0.00    -0.225 C  
ENDROOT
BRANCH   4  29
HETATM   29  C   UNL     1     -11.663   6.723  70.535  1.00  0.00    -0.375 C  
BRANCH  29  30
HETATM   30  N   UNL     1     -10.739   6.714  71.697  1.00  0.00    -0.225 NA 
HETATM   31  C   UNL     1     -11.118   7.737  72.679  1.00  0.00    -0.376 C  
BRANCH  30  32
HETATM   32  O   UNL     1     -11.050   5.424  72.343  1.00  0.00    -0.246 OA 
HETATM   33  C   UNL     1     -10.666   5.427  73.720  1.00  0.00    -0.280 C  
ENDBRANCH  30  32
ENDBRANCH  29  30
ENDBRANCH   4  29
BRANCH  27  34
HETATM   34  C   UNL     1     -10.485  16.335  66.781  1.00  0.00    -0.287 C  
HETATM   35  O   UNL     1     -10.762  16.127  65.603  1.00  0.00    -0.346 OA 
HETATM   36  H2  UNL     1     -10.865  17.594  68.387  1.00  0.00     0.000 HD 
HETATM   37  N   UNL     1     -11.034  17.407  67.398  1.00  0.00    -0.152 N  
HETATM   38  H1  UNL     1     -11.623  18.021  66.835  1.00  0.00     0.000 HD 
ENDBRANCH  27  34
BRANCH  13  39
HETATM   39  N   UNL     1     -12.255  14.301  69.844  1.00  0.00    -0.341 NA 
HETATM   40  C   UNL     1     -12.615  15.712  70.015  1.00  0.00    -0.146 C  
HETATM   41  C   UNL     1     -12.422  13.592  71.110  1.00  0.00    -0.339 C  
ENDBRANCH  13  39
TORSDOF 5
ENDMDL
MODEL       17
REMARK 921   NORMALIZED FREE ENERGY PREDICTED BY IDOCK:   -6.44 KCAL/MOL
REMARK 922        TOTAL FREE ENERGY PREDICTED BY IDOCK:   -9.23 KCAL/MOL
REMARK 923 INTER-LIGAND FREE ENERGY PREDICTED BY IDOCK:   -8.47 KCAL/MOL
REMARK 924 INTRA-LIGAND FREE ENERGY PREDICTED BY IDOCK:   -0.76 KCAL/MOL
REMARK 927      BINDING AFFINITY PREDICTED BY RF-SCORE:    0.00 PKD
ROOT
HETATM    1  C   UNL     1      -9.693   7.547  68.025  1.00  0.00    -0.165 C  
HETATM    2  C   UNL     1     -10.018   6.171  67.449  1.00  0.00    -0.166 C  
HETATM    3  C   UNL     1      -9.787   5.063  68.428  1.00  0.00    -0.209 A  
HETATM    4  C   UNL     1      -9.416   3.775  67.963  1.00  0.00    -0.221 A  
HETATM    5  H   UNL     1     -12.234  12.029  64.660  1.00  0.00     0.000 HD 
HETATM    6  C   UNL     1      -9.279   2.741  68.901  1.00  0.00    -0.224 A  
HETATM    7  C   UNL     1     -10.137   8.548  66.980  1.00  0.00    -0.347 C  
HETATM    8  C   UNL     1      -9.509   2.964  70.256  1.00  0.00    -0.200 A  
HETATM    9  C   UNL     1      -9.938  10.015  67.384  1.00  0.00    -0.242 C  
HETATM   10  C   UNL     1      -9.902   4.228  70.702  1.00  0.00    -0.195 A  
HETATM   11  O   UNL     1     -12.349  12.324  65.556  1.00  0.00    -0.602 OA 
HETATM   12  O   UNL     1     -10.120   4.397  72.040  1.00  0.00    -0.181 OA 
HETATM   13  C   UNL     1     -10.544  10.816  66.171  1.00  0.00    -0.175 C  
HETATM   14  C   UNL     1     -10.053   5.294  69.801  1.00  0.00    -0.334 A  
HETATM   15  H   UNL     1     -10.388   5.256  72.344  1.00  0.00     0.000 HD 
HETATM   16  C   UNL     1     -10.541   6.646  70.260  1.00  0.00    -0.222 C  
HETATM   17  C   UNL     1     -10.374   7.820  69.327  1.00  0.00    -0.220 C  
HETATM   18  O   UNL     1     -11.090   6.834  71.343  1.00  0.00    -0.240 OA 
HETATM   19  C   UNL     1     -10.759   9.074  69.671  1.00  0.00    -0.219 C  
HETATM   20  C   UNL     1     -10.516  10.320  68.795  1.00  0.00    -0.203 C  
HETATM   21  O   UNL     1     -11.245   9.369  70.942  1.00  0.00    -0.272 OA 
HETATM   22  H   UNL     1     -11.515  10.248  71.183  1.00  0.00     0.000 HD 
HETATM   23  C   UNL     1     -11.689  11.318  68.672  1.00  0.00    -0.324 C  
HETATM   24  O   UNL     1      -9.534  11.079  69.545  1.00  0.00    -0.407 OA 
HETATM   25  O   UNL     1     -12.783  11.193  69.224  1.00  0.00    -0.252 OA 
HETATM   26  H   UNL     1      -9.384  11.846  69.005  1.00  0.00     0.000 HD 
HETATM   27  C   UNL     1     -11.503  12.480  67.752  1.00  0.00    -0.378 C  
HETATM   28  C   UNL     1     -11.341  12.065  66.490  1.00  0.00    -0.354 C  
ENDROOT
BRANCH   4  29
HETATM   29  C   UNL     1      -9.178   3.443  66.489  1.00  0.00    -0.164 C  
BRANCH  29  30
HETATM   30  N   UNL     1      -7.816   3.734  65.977  1.00  0.00    -0.089 NA 
HETATM   31  C   UNL     1      -7.042   2.498  65.809  1.00  0.00    -0.064 C  
BRANCH  30  32
HETATM   32  O   UNL     1      -8.084   4.211  64.606  1.00  0.00    -0.088 OA 
HETATM   33  C   UNL     1      -9.455   4.021  64.248  1.00  0.00    -0.162 C  
ENDBRANCH  30  32
ENDBRANCH  29  30
ENDBRANCH   4  29
BRANCH  27  34
HETATM   34  C   UNL     1     -10.576  13.620  68.023  1.00  0.00    -0.249 C  
HETATM   35  O   UNL     1      -9.950  14.214  67.150  1.00  0.00    -0.248 OA 
HETATM   36  H2  UNL     1     -11.009  13.611  70.052  1.00  0.00     0.000 HD 
HETATM   37  N   UNL     1     -10.473  14.049  69.302  1.00  0.00    -0.431 N  
HETATM   38  H1  UNL     1      -9.840  14.827  69.487  1.00  0.00     0.000 HD 
ENDBRANCH  27  34
BRANCH  13  39
HETATM   39  N   UNL     1      -9.490  10.948  65.136  1.00  0.00    -0.215 NA 
HETATM   40  C   UNL     1      -9.761  10.218  63.895  1.00  0.00    -0.261 C  
HETATM   41  C   UNL     1      -8.161  10.599  65.634  1.00  0.00    -0.146 C  
ENDBRANCH  13  39
TORSDOF 5
ENDMDL
MODEL       18
REMARK 921   NORMALIZED FREE ENERGY PREDICTED BY IDOCK:   -6.42 KCAL/MOL
REMARK 922        TOTAL FREE ENERGY PREDICTED BY IDOCK:   -9.20 KCAL/MOL
REMARK 923 INTER-LIGAND FREE ENERGY PREDICTED BY IDOCK:   -8.52 KCAL/MOL
REMARK 924 INTRA-LIGAND FREE ENERGY PREDICTED BY IDOCK:   -0.69 KCAL/MOL
REMARK 927      BINDING AFFINITY PREDICTED BY RF-SCORE:    0.00 PKD
ROOT
HETATM    1  C   UNL     1      -9.555  10.798  68.283  1.00  0.00    -0.170 C  
HETATM    2  C   UNL     1     -10.549  11.893  68.659  1.00  0.00    -0.259 C  
HETATM    3  C   UNL     1     -10.551  13.034  67.691  1.00  0.00    -0.232 A  
HETATM    4  C   UNL     1     -10.872  14.341  68.139  1.00  0.00    -0.253 A  
HETATM    5  H   UNL     1     -10.803   5.542  71.232  1.00  0.00     0.000 HD 
HETATM    6  C   UNL     1     -10.935  15.374  67.191  1.00  0.00    -0.317 A  
HETATM    7  C   UNL     1      -9.800   9.664  69.255  1.00  0.00    -0.195 C  
HETATM    8  C   UNL     1     -10.701  15.126  65.841  1.00  0.00    -0.341 A  
HETATM    9  C   UNL     1      -8.922   8.427  69.020  1.00  0.00    -0.147 C  
HETATM   10  C   UNL     1     -10.415  13.831  65.405  1.00  0.00    -0.331 A  
HETATM   11  O   UNL     1     -10.556   5.260  70.359  1.00  0.00    -0.268 OA 
HETATM   12  O   UNL     1     -10.196  13.638  64.069  1.00  0.00    -0.701 OA 
HETATM   13  C   UNL     1      -9.434   7.403  70.100  1.00  0.00    -0.165 C  
HETATM   14  C   UNL     1     -10.340  12.765  66.315  1.00  0.00    -0.271 A  
HETATM   15  H   UNL     1     -10.002  12.756  63.772  1.00  0.00     0.000 HD 
HETATM   16  C   UNL     1     -10.098  11.351  65.849  1.00  0.00    -0.243 C  
HETATM   17  C   UNL     1      -9.709  10.317  66.876  1.00  0.00    -0.229 C  
HETATM   18  O   UNL     1     -10.227  10.993  64.680  1.00  0.00    -0.284 OA 
HETATM   19  C   UNL     1      -9.445   9.029  66.540  1.00  0.00    -0.206 C  
HETATM   20  C   UNL     1      -8.945   7.964  67.536  1.00  0.00    -0.127 C  
HETATM   21  O   UNL     1      -9.427   8.608  65.212  1.00  0.00    -0.435 OA 
HETATM   22  H   UNL     1      -9.243   7.706  64.977  1.00  0.00     0.000 HD 
HETATM   23  C   UNL     1      -9.597   6.566  67.438  1.00  0.00    -0.125 C  
HETATM   24  O   UNL     1      -7.584   7.708  67.108  1.00  0.00    -0.099 OA 
HETATM   25  O   UNL     1     -10.466   6.248  66.625  1.00  0.00    -0.217 OA 
HETATM   26  H   UNL     1      -7.276   7.052  67.722  1.00  0.00     0.000 HD 
HETATM   27  C   UNL     1      -9.192   5.552  68.457  1.00  0.00    -0.133 C  
HETATM   28  C   UNL     1      -9.541   5.949  69.686  1.00  0.00    -0.148 C  
ENDROOT
BRANCH   4  29
HETATM   29  C   UNL     1     -11.174  14.686  69.597  1.00  0.00    -0.272 C  
BRANCH  29  30
HETATM   30  N   UNL     1     -12.530  14.321  70.076  1.00  0.00    -0.336 NA 
HETATM   31  C   UNL     1     -12.458  13.346  71.170  1.00  0.00    -0.327 C  
BRANCH  30  32
HETATM   32  O   UNL     1     -12.995  15.572  70.705  1.00  0.00    -0.462 OA 
HETATM   33  C   UNL     1     -14.087  15.332  71.596  1.00  0.00    -0.541 C  
ENDBRANCH  30  32
ENDBRANCH  29  30
ENDBRANCH   4  29
BRANCH  27  34
HETATM   34  C   UNL     1      -7.844   4.909  68.506  1.00  0.00    -0.081 C  
HETATM   35  O   UNL     1      -7.095   4.816  67.537  1.00  0.00    -0.063 OA 
HETATM   36  H2  UNL     1      -7.983   4.553  70.545  1.00  0.00     0.000 HD 
HETATM   37  N   UNL     1      -7.411   4.458  69.705  1.00  0.00    -0.050 N  
HETATM   38  H1  UNL     1      -6.491   4.019  69.738  1.00  0.00     0.000 HD 
ENDBRANCH  27  34
BRANCH  13  39
HETATM   39  N   UNL     1      -8.719   7.679  71.370  1.00  0.00    -0.122 NA 
HETATM   40  C   UNL     1      -9.454   8.532  72.309  1.00  0.00    -0.295 C  
HETATM   41  C   UNL     1      -7.378   8.220  71.159  1.00  0.00    -0.070 C  
ENDBRANCH  13  39
TORSDOF 5
ENDMDL
MODEL       19
REMARK 921   NORMALIZED FREE ENERGY PREDICTED BY IDOCK:   -6.42 KCAL/MOL
REMARK 922        TOTAL FREE ENERGY PREDICTED BY IDOCK:   -9.20 KCAL/MOL
REMARK 923 INTER-LIGAND FREE ENERGY PREDICTED BY IDOCK:   -8.59 KCAL/MOL
REMARK 924 INTRA-LIGAND FREE ENERGY PREDICTED BY IDOCK:   -0.61 KCAL/MOL
REMARK 927      BINDING AFFINITY PREDICTED BY RF-SCORE:    0.00 PKD
ROOT
HETATM    1  C   UNL     1     -10.711  10.366  68.815  1.00  0.00    -0.255 C  
HETATM    2  C   UNL     1      -9.876   9.758  69.938  1.00  0.00    -0.279 C  
HETATM    3  C   UNL     1     -10.084   8.283  70.084  1.00  0.00    -0.191 A  
HETATM    4  C   UNL     1      -9.943   7.671  71.356  1.00  0.00    -0.203 A  
HETATM    5  H   UNL     1      -8.575  15.905  67.193  1.00  0.00     0.000 HD 
HETATM    6  C   UNL     1     -10.073   6.277  71.444  1.00  0.00    -0.222 A  
HETATM    7  C   UNL     1     -10.260  11.805  68.696  1.00  0.00    -0.211 C  
HETATM    8  C   UNL     1     -10.324   5.506  70.312  1.00  0.00    -0.349 A  
HETATM    9  C   UNL     1     -10.953  12.596  67.578  1.00  0.00    -0.280 C  
HETATM   10  C   UNL     1     -10.431   6.113  69.059  1.00  0.00    -0.248 A  
HETATM   11  O   UNL     1      -8.814  15.502  66.367  1.00  0.00    -0.289 OA 
HETATM   12  O   UNL     1     -10.674   5.313  67.978  1.00  0.00    -0.084 OA 
HETATM   13  C   UNL     1     -10.251  14.004  67.633  1.00  0.00    -0.241 C  
HETATM   14  C   UNL     1     -10.309   7.504  68.921  1.00  0.00    -0.220 A  
HETATM   15  H   UNL     1     -10.747   5.726  67.125  1.00  0.00     0.000 HD 
HETATM   16  C   UNL     1     -10.357   8.165  67.566  1.00  0.00    -0.261 C  
HETATM   17  C   UNL     1     -10.546   9.661  67.506  1.00  0.00    -0.339 C  
HETATM   18  O   UNL     1     -10.225   7.551  66.509  1.00  0.00    -0.210 OA 
HETATM   19  C   UNL     1     -10.629  10.332  66.330  1.00  0.00    -0.107 C  
HETATM   20  C   UNL     1     -10.923  11.842  66.219  1.00  0.00    -0.300 C  
HETATM   21  O   UNL     1     -10.638   9.667  65.107  1.00  0.00     0.166 OA 
HETATM   22  H   UNL     1     -10.696  10.137  64.283  1.00  0.00     0.000 HD 
HETATM   23  C   UNL     1     -10.076  12.638  65.201  1.00  0.00    -0.237 C  
HETATM   24  O   UNL     1     -12.248  11.888  65.631  1.00  0.00    -0.413 OA 
HETATM   25  O   UNL     1      -9.203  12.154  64.478  1.00  0.00     0.243 OA 
HETATM   26  H   UNL     1     -12.429  12.819  65.563  1.00  0.00     0.000 HD 
HETATM   27  C   UNL     1     -10.283  14.116  65.149  1.00  0.00    -0.411 C  
HETATM   28  C   UNL     1      -9.946  14.683  66.313  1.00  0.00    -0.290 C  
ENDROOT
BRANCH   4  29
HETATM   29  C   UNL     1      -9.636   8.446  72.638  1.00  0.00    -0.267 C  
BRANCH  29  30
HETATM   30  N   UNL     1      -8.196   8.643  72.939  1.00  0.00    -0.412 NA 
HETATM   31  C   UNL     1      -7.857   8.113  74.265  1.00  0.00    -0.238 C  
BRANCH  30  32
HETATM   32  O   UNL     1      -7.541   7.733  71.981  1.00  0.00    -0.072 OA 
HETATM   33  C   UNL     1      -6.117   7.810  72.080  1.00  0.00    -0.039 C  
ENDBRANCH  30  32
ENDBRANCH  29  30
ENDBRANCH   4  29
BRANCH  27  34
HETATM   34  C   UNL     1     -11.517  14.768  64.616  1.00  0.00    -0.381 C  
HETATM   35  O   UNL     1     -12.560  14.166  64.378  1.00  0.00    -0.658 OA 
HETATM   36  H2  UNL     1     -10.656  16.655  64.669  1.00  0.00     0.000 HD 
HETATM   37  N   UNL     1     -11.488  16.109  64.444  1.00  0.00    -0.651 N  
HETATM   38  H1  UNL     1     -12.331  16.555  64.080  1.00  0.00     0.000 HD 
ENDBRANCH  27  34
BRANCH  13  39
HETATM   39  N   UNL     1     -10.946  14.824  68.656  1.00  0.00    -0.245 NA 
HETATM   40  C   UNL     1     -11.781  15.897  68.109  1.00  0.00    -0.130 C  
HETATM   41  C   UNL     1     -10.034  15.370  69.659  1.00  0.00    -0.264 C  
ENDBRANCH  13  39
TORSDOF 5
ENDMDL
MODEL       20
REMARK 921   NORMALIZED FREE ENERGY PREDICTED BY IDOCK:   -6.29 KCAL/MOL
REMARK 922        TOTAL FREE ENERGY PREDICTED BY IDOCK:   -9.04 KCAL/MOL
REMARK 923 INTER-LIGAND FREE ENERGY PREDICTED BY IDOCK:   -8.13 KCAL/MOL
REMARK 924 INTRA-LIGAND FREE ENERGY PREDICTED BY IDOCK:   -0.91 KCAL/MOL
REMARK 927      BINDING AFFINITY PREDICTED BY RF-SCORE:    0.00 PKD
ROOT
HETATM    1  C   UNL     1      -9.892  10.133  68.019  1.00  0.00    -0.169 C  
HETATM    2  C   UNL     1     -11.153   9.722  68.774  1.00  0.00    -0.140 C  
HETATM    3  C   UNL     1     -11.665  10.798  69.679  1.00  0.00    -0.395 A  
HETATM    4  C   UNL     1     -12.364  10.452  70.864  1.00  0.00    -0.480 A  
HETATM    5  H   UNL     1      -8.882   6.449  63.193  1.00  0.00     0.000 HD 
HETATM    6  C   UNL     1     -12.893  11.486  71.652  1.00  0.00    -0.475 A  
HETATM    7  C   UNL     1      -9.612   9.013  67.040  1.00  0.00    -0.231 C  
HETATM    8  C   UNL     1     -12.748  12.820  71.280  1.00  0.00    -0.364 A  
HETATM    9  C   UNL     1      -8.394   9.250  66.137  1.00  0.00    -0.122 C  
HETATM   10  C   UNL     1     -12.084  13.150  70.096  1.00  0.00    -0.321 A  
HETATM   11  O   UNL     1      -8.657   7.314  62.870  1.00  0.00     0.151 OA 
HETATM   12  O   UNL     1     -11.970  14.473  69.772  1.00  0.00    -0.294 OA 
HETATM   13  C   UNL     1      -8.388   7.992  65.190  1.00  0.00    -0.130 C  
HETATM   14  C   UNL     1     -11.537  12.151  69.276  1.00  0.00    -0.377 A  
HETATM   15  H   UNL     1     -11.519  14.698  68.967  1.00  0.00     0.000 HD 
HETATM   16  C   UNL     1     -10.876  12.490  67.962  1.00  0.00    -0.225 C  
HETATM   17  C   UNL     1     -10.034  11.432  67.293  1.00  0.00    -0.217 C  
HETATM   18  O   UNL     1     -11.009  13.574  67.399  1.00  0.00    -0.265 OA 
HETATM   19  C   UNL     1      -9.381  11.662  66.126  1.00  0.00    -0.224 C  
HETATM   20  C   UNL     1      -8.429  10.649  65.458  1.00  0.00    -0.175 C  
HETATM   21  O   UNL     1      -9.374  12.918  65.525  1.00  0.00    -0.456 OA 
HETATM   22  H   UNL     1      -8.917  13.078  64.707  1.00  0.00     0.000 HD 
HETATM   23  C   UNL     1      -8.561  10.481  63.928  1.00  0.00    -0.144 C  
HETATM   24  O   UNL     1      -7.124  11.265  65.596  1.00  0.00    -0.361 OA 
HETATM   25  O   UNL     1      -9.355  11.097  63.216  1.00  0.00    -0.261 OA 
HETATM   26  H   UNL     1      -6.537  10.641  65.185  1.00  0.00     0.000 HD 
HETATM   27  C   UNL     1      -7.713   9.436  63.280  1.00  0.00    -0.115 C  
HETATM   28  C   UNL     1      -8.031   8.218  63.734  1.00  0.00    -0.149 C  
ENDROOT
BRANCH   4  29
HETATM   29  C   UNL     1     -12.593   9.012  71.322  1.00  0.00    -0.280 C  
BRANCH  29  30
HETATM   30  N   UNL     1     -11.799   8.578  72.498  1.00  0.00    -0.368 NA 
HETATM   31  C   UNL     1     -11.647   7.118  72.522  1.00  0.00    -0.226 C  
BRANCH  30  32
HETATM   32  O   UNL     1     -10.454   9.100  72.186  1.00  0.00    -0.265 OA 
HETATM   33  C   UNL     1      -9.437   8.155  72.527  1.00  0.00    -0.269 C  
ENDBRANCH  30  32
ENDBRANCH  29  30
ENDBRANCH   4  29
BRANCH  27  34
HETATM   34  C   UNL     1      -6.229   9.540  63.130  1.00  0.00    -0.102 C  
HETATM   35  O   UNL     1      -5.496   8.580  62.906  1.00  0.00    -0.068 OA 
HETATM   36  H2  UNL     1      -6.260  11.604  63.331  1.00  0.00     0.000 HD 
HETATM   37  N   UNL     1      -5.682  10.775  63.190  1.00  0.00    -0.337 N  
HETATM   38  H1  UNL     1      -4.669  10.846  63.087  1.00  0.00     0.000 HD 
ENDBRANCH  27  34
BRANCH  13  39
HETATM   39  N   UNL     1      -7.669   6.897  65.887  1.00  0.00    -0.093 NA 
HETATM   40  C   UNL     1      -6.302   6.668  65.410  1.00  0.00    -0.042 C  
HETATM   41  C   UNL     1      -8.412   5.639  65.880  1.00  0.00    -0.136 C  
ENDBRANCH  13  39
TORSDOF 5
ENDMDL
MODEL       21
REMARK 921   NORMALIZED FREE ENERGY PREDICTED BY IDOCK:   -6.23 KCAL/MOL
REMARK 922        TOTAL FREE ENERGY PREDICTED BY IDOCK:   -8.96 KCAL/MOL
REMARK 923 INTER-LIGAND FREE ENERGY PREDICTED BY IDOCK:   -8.30 KCAL/MOL
REMARK 924 INTRA-LIGAND FREE ENERGY PREDICTED BY IDOCK:   -0.66 KCAL/MOL
REMARK 927      BINDING AFFINITY PREDICTED BY RF-SCORE:    0.00 PKD
ROOT
HETATM    1  C   UNL     1      -9.498   9.889  66.675  1.00  0.00    -0.220 C  
HETATM    2  C   UNL     1     -10.051   8.498  66.971  1.00  0.00    -0.347 C  
HETATM    3  C   UNL     1      -9.096   7.646  67.746  1.00  0.00    -0.131 A  
HETATM    4  C   UNL     1      -9.109   6.237  67.579  1.00  0.00    -0.110 A  
HETATM    5  H   UNL     1     -13.990  13.779  65.070  1.00  0.00     0.000 HD 
HETATM    6  C   UNL     1      -8.251   5.463  68.375  1.00  0.00    -0.094 A  
HETATM    7  C   UNL     1     -10.637  10.662  66.046  1.00  0.00    -0.195 C  
HETATM    8  C   UNL     1      -7.411   6.056  69.314  1.00  0.00    -0.089 A  
HETATM    9  C   UNL     1     -10.302  12.121  65.708  1.00  0.00    -0.289 C  
HETATM   10  C   UNL     1      -7.425   7.441  69.492  1.00  0.00    -0.090 A  
HETATM   11  O   UNL     1     -13.420  14.304  65.619  1.00  0.00    -0.502 OA 
HETATM   12  O   UNL     1      -6.586   7.976  70.429  1.00  0.00    -0.037 OA 
HETATM   13  C   UNL     1     -11.660  12.691  65.152  1.00  0.00    -0.348 C  
HETATM   14  C   UNL     1      -8.266   8.257  68.720  1.00  0.00    -0.117 A  
HETATM   15  H   UNL     1      -6.595   8.918  70.550  1.00  0.00     0.000 HD 
HETATM   16  C   UNL     1      -8.340   9.747  68.948  1.00  0.00    -0.120 C  
HETATM   17  C   UNL     1      -9.001  10.600  67.894  1.00  0.00    -0.138 C  
HETATM   18  O   UNL     1      -7.912  10.297  69.960  1.00  0.00    -0.148 OA 
HETATM   19  C   UNL     1      -9.084  11.949  68.005  1.00  0.00    -0.189 C  
HETATM   20  C   UNL     1      -9.657  12.870  66.908  1.00  0.00    -0.240 C  
HETATM   21  O   UNL     1      -8.482  12.636  69.056  1.00  0.00    -0.331 OA 
HETATM   22  H   UNL     1      -8.541  13.581  69.134  1.00  0.00     0.000 HD 
HETATM   23  C   UNL     1     -10.596  14.004  67.379  1.00  0.00    -0.278 C  
HETATM   24  O   UNL     1      -8.497  13.598  66.433  1.00  0.00    -0.387 OA 
HETATM   25  O   UNL     1     -10.904  14.224  68.550  1.00  0.00    -0.238 OA 
HETATM   26  H   UNL     1      -8.850  14.165  65.758  1.00  0.00     0.000 HD 
HETATM   27  C   UNL     1     -11.234  14.844  66.321  1.00  0.00    -0.331 C  
HETATM   28  C   UNL     1     -12.037  14.105  65.547  1.00  0.00    -0.414 C  
ENDROOT
BRANCH   4  29
HETATM   29  C   UNL     1     -10.025   5.510  66.594  1.00  0.00    -0.186 C  
BRANCH  29  30
HETATM   30  N   UNL     1      -9.341   4.640  65.605  1.00  0.00    -0.152 NA 
HETATM   31  C   UNL     1     -10.307   4.035  64.679  1.00  0.00    -0.205 C  
BRANCH  30  32
HETATM   32  O   UNL     1      -8.586   5.613  64.791  1.00  0.00    -0.137 OA 
HETATM   33  C   UNL     1      -7.321   5.083  64.389  1.00  0.00    -0.059 C  
ENDBRANCH  30  32
ENDBRANCH  29  30
ENDBRANCH   4  29
BRANCH  27  34
HETATM   34  C   UNL     1     -10.491  15.825  65.473  1.00  0.00    -0.403 C  
HETATM   35  O   UNL     1      -9.374  16.257  65.747  1.00  0.00    -0.442 OA 
HETATM   36  H2  UNL     1     -11.976  15.840  64.025  1.00  0.00     0.000 HD 
HETATM   37  N   UNL     1     -11.068  16.207  64.312  1.00  0.00    -0.619 N  
HETATM   38  H1  UNL     1     -10.561  16.877  63.733  1.00  0.00     0.000 HD 
ENDBRANCH  27  34
BRANCH  13  39
HETATM   39  N   UNL     1     -11.738  12.365  63.707  1.00  0.00    -0.438 NA 
HETATM   40  C   UNL     1     -12.987  11.718  63.295  1.00  0.00     0.063 C  
HETATM   41  C   UNL     1     -10.598  11.576  63.243  1.00  0.00    -0.338 C  
ENDBRANCH  13  39
TORSDOF 5
ENDMDL
MODEL       22
REMARK 921   NORMALIZED FREE ENERGY PREDICTED BY IDOCK:   -6.17 KCAL/MOL
REMARK 922        TOTAL FREE ENERGY PREDICTED BY IDOCK:   -8.88 KCAL/MOL
REMARK 923 INTER-LIGAND FREE ENERGY PREDICTED BY IDOCK:   -8.91 KCAL/MOL
REMARK 924 INTRA-LIGAND FREE ENERGY PREDICTED BY IDOCK:    0.02 KCAL/MOL
REMARK 927      BINDING AFFINITY PREDICTED BY RF-SCORE:    0.00 PKD
ROOT
HETATM    1  C   UNL     1     -10.249  11.323  68.988  1.00  0.00    -0.169 C  
HETATM    2  C   UNL     1     -10.947  11.937  67.778  1.00  0.00    -0.278 C  
HETATM    3  C   UNL     1     -10.302  13.207  67.318  1.00  0.00    -0.243 A  
HETATM    4  C   UNL     1     -11.085  14.213  66.695  1.00  0.00    -0.314 A  
HETATM    5  H   UNL     1     -11.831   5.420  69.715  1.00  0.00     0.000 HD 
HETATM    6  C   UNL     1     -10.437  15.359  66.211  1.00  0.00    -0.310 A  
HETATM    7  C   UNL     1     -10.913   9.981  69.212  1.00  0.00    -0.264 C  
HETATM    8  C   UNL     1      -9.057  15.507  66.327  1.00  0.00    -0.369 A  
HETATM    9  C   UNL     1     -10.322   9.167  70.371  1.00  0.00    -0.269 C  
HETATM   10  C   UNL     1      -8.290  14.499  66.915  1.00  0.00    -0.101 A  
HETATM   11  O   UNL     1     -10.903   5.433  69.916  1.00  0.00    -0.298 OA 
HETATM   12  O   UNL     1      -6.939  14.689  67.002  1.00  0.00    -0.357 OA 
HETATM   13  C   UNL     1     -11.134   7.819  70.325  1.00  0.00    -0.234 C  
HETATM   14  C   UNL     1      -8.894  13.334  67.414  1.00  0.00    -0.204 A  
HETATM   15  H   UNL     1      -6.417  14.003  67.402  1.00  0.00     0.000 HD 
HETATM   16  C   UNL     1      -8.071  12.209  67.992  1.00  0.00    -0.155 C  
HETATM   17  C   UNL     1      -8.777  11.146  68.795  1.00  0.00    -0.130 C  
HETATM   18  O   UNL     1      -6.858  12.102  67.819  1.00  0.00    -0.085 OA 
HETATM   19  C   UNL     1      -8.110  10.116  69.374  1.00  0.00    -0.160 C  
HETATM   20  C   UNL     1      -8.773   9.066  70.288  1.00  0.00    -0.184 C  
HETATM   21  O   UNL     1      -6.721  10.031  69.338  1.00  0.00    -0.052 OA 
HETATM   22  H   UNL     1      -6.254   9.309  69.742  1.00  0.00     0.000 HD 
HETATM   23  C   UNL     1      -8.360   7.594  70.062  1.00  0.00    -0.134 C  
HETATM   24  O   UNL     1      -8.217   9.352  71.596  1.00  0.00    -0.242 OA 
HETATM   25  O   UNL     1      -7.544   7.211  69.223  1.00  0.00    -0.097 OA 
HETATM   26  H   UNL     1      -8.626   8.705  72.159  1.00  0.00     0.000 HD 
HETATM   27  C   UNL     1      -9.063   6.556  70.873  1.00  0.00    -0.154 C  
HETATM   28  C   UNL     1     -10.371   6.537  70.590  1.00  0.00    -0.201 C  
ENDROOT
BRANCH   4  29
HETATM   29  C   UNL     1     -12.599  14.109  66.502  1.00  0.00    -0.128 C  
BRANCH  29  30
HETATM   30  N   UNL     1     -13.056  13.933  65.101  1.00  0.00    -0.764 NA 
HETATM   31  C   UNL     1     -12.069  14.464  64.153  1.00  0.00    -0.376 C  
BRANCH  30  32
HETATM   32  O   UNL     1     -13.005  12.468  64.929  1.00  0.00    -0.821 OA 
HETATM   33  C   UNL     1     -12.518  12.113  63.633  1.00  0.00    -0.549 C  
ENDBRANCH  30  32
ENDBRANCH  29  30
ENDBRANCH   4  29
BRANCH  27  34
HETATM   34  C   UNL     1      -8.870   6.373  72.344  1.00  0.00    -0.134 C  
HETATM   35  O   UNL     1      -7.970   6.907  72.987  1.00  0.00    -0.105 OA 
HETATM   36  H2  UNL     1     -10.568   5.194  72.515  1.00  0.00     0.000 HD 
HETATM   37  N   UNL     1      -9.780   5.620  73.003  1.00  0.00    -0.154 N  
HETATM   38  H1  UNL     1      -9.648   5.496  74.007  1.00  0.00     0.000 HD 
ENDBRANCH  27  34
BRANCH  13  39
HETATM   39  N   UNL     1     -12.390   8.013  71.090  1.00  0.00    -0.264 NA 
HETATM   40  C   UNL     1     -12.295   8.993  72.176  1.00  0.00    -0.372 C  
HETATM   41  C   UNL     1     -12.939   6.760  71.603  1.00  0.00    -0.236 C  
ENDBRANCH  13  39
TORSDOF 5
ENDMDL
MODEL       23
REMARK 921   NORMALIZED FREE ENERGY PREDICTED BY IDOCK:   -6.17 KCAL/MOL
REMARK 922        TOTAL FREE ENERGY PREDICTED BY IDOCK:   -8.88 KCAL/MOL
REMARK 923 INTER-LIGAND FREE ENERGY PREDICTED BY IDOCK:   -8.27 KCAL/MOL
REMARK 924 INTRA-LIGAND FREE ENERGY PREDICTED BY IDOCK:   -0.61 KCAL/MOL
REMARK 927      BINDING AFFINITY PREDICTED BY RF-SCORE:    0.00 PKD
ROOT
HETATM    1  C   UNL     1      -8.787  12.479  67.295  1.00  0.00    -0.195 C  
HETATM    2  C   UNL     1      -8.907  13.989  67.480  1.00  0.00    -0.199 C  
HETATM    3  C   UNL     1      -9.745  14.639  66.425  1.00  0.00    -0.315 A  
HETATM    4  C   UNL     1      -9.482  15.978  66.037  1.00  0.00    -0.384 A  
HETATM    5  H   UNL     1      -6.851   9.746  72.459  1.00  0.00     0.000 HD 
HETATM    6  C   UNL     1     -10.332  16.580  65.098  1.00  0.00    -0.049 A  
HETATM    7  C   UNL     1      -8.062  11.968  68.521  1.00  0.00    -0.123 C  
HETATM    8  C   UNL     1     -11.416  15.889  64.563  1.00  0.00    -0.287 A  
HETATM    9  C   UNL     1      -7.874  10.445  68.558  1.00  0.00    -0.107 C  
HETATM   10  C   UNL     1     -11.686  14.581  64.972  1.00  0.00    -0.392 A  
HETATM   11  O   UNL     1      -7.509   9.151  72.119  1.00  0.00    -0.330 OA 
HETATM   12  O   UNL     1     -12.764  13.946  64.422  1.00  0.00    -0.656 OA 
HETATM   13  C   UNL     1      -7.177  10.193  69.947  1.00  0.00    -0.154 C  
HETATM   14  C   UNL     1     -10.864  13.937  65.909  1.00  0.00    -0.287 A  
HETATM   15  H   UNL     1     -12.948  13.057  64.700  1.00  0.00     0.000 HD 
HETATM   16  C   UNL     1     -11.182  12.549  66.409  1.00  0.00    -0.306 C  
HETATM   17  C   UNL     1     -10.108  11.793  67.151  1.00  0.00    -0.224 C  
HETATM   18  O   UNL     1     -12.279  12.014  66.264  1.00  0.00    -0.548 OA 
HETATM   19  C   UNL     1     -10.299  10.531  67.610  1.00  0.00    -0.217 C  
HETATM   20  C   UNL     1      -9.201   9.682  68.282  1.00  0.00    -0.129 C  
HETATM   21  O   UNL     1     -11.468   9.823  67.340  1.00  0.00    -0.340 OA 
HETATM   22  H   UNL     1     -11.602   8.939  67.662  1.00  0.00     0.000 HD 
HETATM   23  C   UNL     1      -9.615   8.886  69.540  1.00  0.00    -0.171 C  
HETATM   24  O   UNL     1      -8.941   8.633  67.315  1.00  0.00    -0.131 OA 
HETATM   25  O   UNL     1     -10.745   8.876  70.028  1.00  0.00    -0.222 OA 
HETATM   26  H   UNL     1      -8.264   8.111  67.729  1.00  0.00     0.000 HD 
HETATM   27  C   UNL     1      -8.540   8.136  70.256  1.00  0.00    -0.131 C  
HETATM   28  C   UNL     1      -7.614   8.975  70.735  1.00  0.00    -0.120 C  
ENDROOT
BRANCH   4  29
HETATM   29  C   UNL     1      -8.332  16.812  66.603  1.00  0.00    -0.261 C  
BRANCH  29  30
HETATM   30  N   UNL     1      -8.224  18.196  66.078  1.00  0.00    -0.511 NA 
HETATM   31  C   UNL     1      -7.936  19.148  67.158  1.00  0.00    -0.259 C  
BRANCH  30  32
HETATM   32  O   UNL     1      -6.988  18.139  65.275  1.00  0.00    -0.484 OA 
HETATM   33  C   UNL     1      -6.348  19.416  65.214  1.00  0.00    -0.273 C  
ENDBRANCH  30  32
ENDBRANCH  29  30
ENDBRANCH   4  29
BRANCH  27  34
HETATM   34  C   UNL     1      -7.872   6.914  69.715  1.00  0.00    -0.115 C  
HETATM   35  O   UNL     1      -6.698   6.625  69.929  1.00  0.00    -0.047 OA 
HETATM   36  H2  UNL     1      -9.623   6.234  68.833  1.00  0.00     0.000 HD 
HETATM   37  N   UNL     1      -8.632   6.055  68.998  1.00  0.00    -0.119 N  
HETATM   38  H1  UNL     1      -8.176   5.220  68.629  1.00  0.00     0.000 HD 
ENDBRANCH  27  34
BRANCH  13  39
HETATM   39  N   UNL     1      -5.716  10.378  69.768  1.00  0.00    -0.043 NA 
HETATM   40  C   UNL     1      -5.182  11.609  70.356  1.00  0.00    -0.104 C  
HETATM   41  C   UNL     1      -5.301  10.278  68.370  1.00  0.00    -0.034 C  
ENDBRANCH  13  39
TORSDOF 5
ENDMDL
MODEL       24
REMARK 921   NORMALIZED FREE ENERGY PREDICTED BY IDOCK:   -6.12 KCAL/MOL
REMARK 922        TOTAL FREE ENERGY PREDICTED BY IDOCK:   -8.82 KCAL/MOL
REMARK 923 INTER-LIGAND FREE ENERGY PREDICTED BY IDOCK:   -8.50 KCAL/MOL
REMARK 924 INTRA-LIGAND FREE ENERGY PREDICTED BY IDOCK:   -0.32 KCAL/MOL
REMARK 927      BINDING AFFINITY PREDICTED BY RF-SCORE:    0.00 PKD
ROOT
HETATM    1  C   UNL     1      -9.011  10.288  66.656  1.00  0.00    -0.156 C  
HETATM    2  C   UNL     1      -9.397   8.837  66.929  1.00  0.00    -0.213 C  
HETATM    3  C   UNL     1      -8.360   8.098  67.716  1.00  0.00    -0.128 A  
HETATM    4  C   UNL     1      -8.201   6.700  67.537  1.00  0.00    -0.122 A  
HETATM    5  H   UNL     1     -13.909  13.625  64.996  1.00  0.00     0.000 HD 
HETATM    6  C   UNL     1      -7.270   6.027  68.342  1.00  0.00    -0.084 A  
HETATM    7  C   UNL     1     -10.223  10.925  66.011  1.00  0.00    -0.311 C  
HETATM    8  C   UNL     1      -6.525   6.707  69.302  1.00  0.00    -0.039 A  
HETATM    9  C   UNL     1     -10.060  12.417  65.691  1.00  0.00    -0.277 C  
HETATM   10  C   UNL     1      -6.709   8.078  69.492  1.00  0.00    -0.038 A  
HETATM   11  O   UNL     1     -13.416  14.209  65.561  1.00  0.00    -0.643 OA 
HETATM   12  O   UNL     1      -5.957   8.700  70.448  1.00  0.00    -0.027 OA 
HETATM   13  C   UNL     1     -11.467  12.825  65.114  1.00  0.00    -0.321 C  
HETATM   14  C   UNL     1      -7.628   8.795  68.710  1.00  0.00    -0.095 A  
HETATM   15  H   UNL     1      -6.082   9.633  70.578  1.00  0.00     0.000 HD 
HETATM   16  C   UNL     1      -7.885  10.262  68.949  1.00  0.00    -0.106 C  
HETATM   17  C   UNL     1      -8.625  11.040  67.889  1.00  0.00    -0.133 C  
HETATM   18  O   UNL     1      -7.545  10.850  69.974  1.00  0.00     0.038 OA 
HETATM   19  C   UNL     1      -8.872  12.369  68.010  1.00  0.00    -0.187 C  
HETATM   20  C   UNL     1      -9.532  13.225  66.910  1.00  0.00    -0.249 C  
HETATM   21  O   UNL     1      -8.376  13.112  69.077  1.00  0.00    -0.343 OA 
HETATM   22  H   UNL     1      -8.551  14.043  69.162  1.00  0.00     0.000 HD 
HETATM   23  C   UNL     1     -10.609  14.233  67.371  1.00  0.00    -0.276 C  
HETATM   24  O   UNL     1      -8.460  14.092  66.463  1.00  0.00    -0.420 OA 
HETATM   25  O   UNL     1     -10.963  14.402  68.539  1.00  0.00    -0.235 OA 
HETATM   26  H   UNL     1      -8.866  14.620  65.786  1.00  0.00     0.000 HD 
HETATM   27  C   UNL     1     -11.325  15.001  66.309  1.00  0.00    -0.273 C  
HETATM   28  C   UNL     1     -12.019  14.178  65.514  1.00  0.00    -0.391 C  
ENDROOT
BRANCH   4  29
HETATM   29  C   UNL     1      -9.004   5.878  66.529  1.00  0.00    -0.131 C  
BRANCH  29  30
HETATM   30  N   UNL     1     -10.153   5.123  67.086  1.00  0.00    -0.194 NA 
HETATM   31  C   UNL     1     -10.919   5.948  68.029  1.00  0.00    -0.155 C  
BRANCH  30  32
HETATM   32  O   UNL     1     -11.033   4.965  65.911  1.00  0.00    -0.248 OA 
HETATM   33  C   UNL     1     -10.440   4.111  64.929  1.00  0.00    -0.173 C  
ENDBRANCH  30  32
ENDBRANCH  29  30
ENDBRANCH   4  29
BRANCH  27  34
HETATM   34  C   UNL     1     -10.690  16.073  65.484  1.00  0.00    -0.361 C  
HETATM   35  O   UNL     1      -9.679  16.684  65.817  1.00  0.00    -0.485 OA 
HETATM   36  H2  UNL     1     -12.053  15.821  63.940  1.00  0.00     0.000 HD 
HETATM   37  N   UNL     1     -11.238  16.335  64.275  1.00  0.00    -0.622 N  
HETATM   38  H1  UNL     1     -10.805  17.067  63.711  1.00  0.00     0.000 HD 
ENDBRANCH  27  34
BRANCH  13  39
HETATM   39  N   UNL     1     -11.478  12.506  63.665  1.00  0.00    -0.457 NA 
HETATM   40  C   UNL     1     -12.643  11.735  63.221  1.00  0.00    -0.254 C  
HETATM   41  C   UNL     1     -10.252  11.848  63.221  1.00  0.00    -0.395 C  
ENDBRANCH  13  39
TORSDOF 5
ENDMDL
MODEL       25
REMARK 921   NORMALIZED FREE ENERGY PREDICTED BY IDOCK:   -6.07 KCAL/MOL
REMARK 922        TOTAL FREE ENERGY PREDICTED BY IDOCK:   -8.75 KCAL/MOL
REMARK 923 INTER-LIGAND FREE ENERGY PREDICTED BY IDOCK:   -7.72 KCAL/MOL
REMARK 924 INTRA-LIGAND FREE ENERGY PREDICTED BY IDOCK:   -1.02 KCAL/MOL
REMARK 927      BINDING AFFINITY PREDICTED BY RF-SCORE:    0.00 PKD
ROOT
HETATM    1  C   UNL     1      -9.515   9.237  67.346  1.00  0.00    -0.165 C  
HETATM    2  C   UNL     1     -10.595   9.910  66.505  1.00  0.00    -0.156 C  
HETATM    3  C   UNL     1     -10.091  10.374  65.175  1.00  0.00    -0.379 A  
HETATM    4  C   UNL     1     -10.676  11.507  64.552  1.00  0.00    -0.390 A  
HETATM    5  H   UNL     1     -11.981   5.919  71.905  1.00  0.00     0.000 HD 
HETATM    6  C   UNL     1     -10.229  11.871  63.273  1.00  0.00    -0.428 A  
HETATM    7  C   UNL     1     -10.222   8.686  68.565  1.00  0.00    -0.221 C  
HETATM    8  C   UNL     1      -9.241  11.136  62.621  1.00  0.00    -0.357 A  
HETATM    9  C   UNL     1      -9.311   7.920  69.534  1.00  0.00    -0.156 C  
HETATM   10  C   UNL     1      -8.691  10.006  63.229  1.00  0.00    -0.221 A  
HETATM   11  O   UNL     1     -11.259   5.383  71.599  1.00  0.00    -0.131 OA 
HETATM   12  O   UNL     1      -7.728   9.316  62.547  1.00  0.00    -0.114 OA 
HETATM   13  C   UNL     1     -10.304   7.405  70.643  1.00  0.00    -0.212 C  
HETATM   14  C   UNL     1      -9.106   9.602  64.507  1.00  0.00    -0.287 A  
HETATM   15  H   UNL     1      -7.354   8.546  62.960  1.00  0.00     0.000 HD 
HETATM   16  C   UNL     1      -8.569   8.346  65.147  1.00  0.00    -0.132 C  
HETATM   17  C   UNL     1      -8.798   8.141  66.623  1.00  0.00    -0.164 C  
HETATM   18  O   UNL     1      -7.976   7.470  64.521  1.00  0.00    -0.132 OA 
HETATM   19  C   UNL     1      -8.324   7.055  67.284  1.00  0.00    -0.122 C  
HETATM   20  C   UNL     1      -8.444   6.853  68.808  1.00  0.00    -0.121 C  
HETATM   21  O   UNL     1      -7.518   6.110  66.655  1.00  0.00    -0.087 OA 
HETATM   22  H   UNL     1      -7.186   5.349  67.118  1.00  0.00     0.000 HD 
HETATM   23  C   UNL     1      -8.847   5.441  69.289  1.00  0.00    -0.101 C  
HETATM   24  O   UNL     1      -7.077   6.968  69.276  1.00  0.00    -0.077 OA 
HETATM   25  O   UNL     1      -9.065   4.480  68.550  1.00  0.00    -0.107 OA 
HETATM   26  H   UNL     1      -7.151   6.844  70.215  1.00  0.00     0.000 HD 
HETATM   27  C   UNL     1      -9.060   5.254  70.755  1.00  0.00    -0.168 C  
HETATM   28  C   UNL     1     -10.078   6.009  71.187  1.00  0.00    -0.194 C  
ENDROOT
BRANCH   4  29
HETATM   29  C   UNL     1     -11.786  12.343  65.189  1.00  0.00    -0.388 C  
BRANCH  29  30
HETATM   30  N   UNL     1     -11.476  13.782  65.380  1.00  0.00    -0.306 NA 
HETATM   31  C   UNL     1     -12.133  14.603  64.356  1.00  0.00    -0.462 C  
BRANCH  30  32
HETATM   32  O   UNL     1     -12.182  14.097  66.637  1.00  0.00    -0.448 OA 
HETATM   33  C   UNL     1     -11.785  13.217  67.692  1.00  0.00    -0.366 C  
ENDBRANCH  30  32
ENDBRANCH  29  30
ENDBRANCH   4  29
BRANCH  27  34
HETATM   34  C   UNL     1      -7.961   5.275  71.768  1.00  0.00    -0.112 C  
HETATM   35  O   UNL     1      -6.778   5.450  71.489  1.00  0.00    -0.051 OA 
HETATM   36  H2  UNL     1      -9.287   5.045  73.348  1.00  0.00     0.000 HD 
HETATM   37  N   UNL     1      -8.311   5.149  73.068  1.00  0.00    -0.111 N  
HETATM   38  H1  UNL     1      -7.560   5.163  73.760  1.00  0.00     0.000 HD 
ENDBRANCH  27  34
BRANCH  13  39
HETATM   39  N   UNL     1     -10.475   8.487  71.644  1.00  0.00    -0.250 NA 
HETATM   40  C   UNL     1      -9.621   8.359  72.829  1.00  0.00    -0.238 C  
HETATM   41  C   UNL     1     -11.866   8.663  72.055  1.00  0.00    -0.372 C  
ENDBRANCH  13  39
TORSDOF 5
ENDMDL
MODEL       26
REMARK 921   NORMALIZED FREE ENERGY PREDICTED BY IDOCK:   -6.02 KCAL/MOL
REMARK 922        TOTAL FREE ENERGY PREDICTED BY IDOCK:   -8.68 KCAL/MOL
REMARK 923 INTER-LIGAND FREE ENERGY PREDICTED BY IDOCK:   -7.86 KCAL/MOL
REMARK 924 INTRA-LIGAND FREE ENERGY PREDICTED BY IDOCK:   -0.82 KCAL/MOL
REMARK 927      BINDING AFFINITY PREDICTED BY RF-SCORE:    0.00 PKD
ROOT
HETATM    1  C   UNL     1      -8.744  13.439  66.809  1.00  0.00    -0.093 C  
HETATM    2  C   UNL     1      -9.064  14.669  67.653  1.00  0.00    -0.193 C  
HETATM    3  C   UNL     1      -9.564  15.819  66.837  1.00  0.00    -0.243 A  
HETATM    4  C   UNL     1      -9.318  17.150  67.264  1.00  0.00    -0.242 A  
HETATM    5  H   UNL     1      -8.373   8.378  70.292  1.00  0.00     0.000 HD 
HETATM    6  C   UNL     1      -9.863  18.203  66.515  1.00  0.00    -0.362 A  
HETATM    7  C   UNL     1      -8.420  12.335  67.792  1.00  0.00    -0.163 C  
HETATM    8  C   UNL     1     -10.636  17.955  65.383  1.00  0.00     0.113 A  
HETATM    9  C   UNL     1      -8.108  10.980  67.142  1.00  0.00    -0.134 C  
HETATM   10  C   UNL     1     -10.898  16.642  64.986  1.00  0.00    -0.176 A  
HETATM   11  O   UNL     1      -8.820   8.082  69.507  1.00  0.00    -0.142 OA 
HETATM   12  O   UNL     1     -11.665  16.450  63.871  1.00  0.00    -1.504 OA 
HETATM   13  C   UNL     1      -7.890  10.023  68.374  1.00  0.00    -0.089 C  
HETATM   14  C   UNL     1     -10.374  15.556  65.704  1.00  0.00    -0.407 A  
HETATM   15  H   UNL     1     -11.844  15.556  63.601  1.00  0.00     0.000 HD 
HETATM   16  C   UNL     1     -10.704  14.133  65.325  1.00  0.00    -0.364 C  
HETATM   17  C   UNL     1      -9.869  13.024  65.916  1.00  0.00    -0.243 C  
HETATM   18  O   UNL     1     -11.634  13.830  64.580  1.00  0.00    -0.363 OA 
HETATM   19  C   UNL     1     -10.078  11.720  65.606  1.00  0.00    -0.243 C  
HETATM   20  C   UNL     1      -9.187  10.563  66.104  1.00  0.00    -0.170 C  
HETATM   21  O   UNL     1     -11.017  11.334  64.652  1.00  0.00    -0.294 OA 
HETATM   22  H   UNL     1     -11.163  10.421  64.436  1.00  0.00     0.000 HD 
HETATM   23  C   UNL     1      -9.916   9.290  66.592  1.00  0.00    -0.264 C  
HETATM   24  O   UNL     1      -8.522  10.104  64.900  1.00  0.00    -0.156 OA 
HETATM   25  O   UNL     1     -11.137   9.137  66.601  1.00  0.00     0.209 OA 
HETATM   26  H   UNL     1      -7.973   9.391  65.207  1.00  0.00     0.000 HD 
HETATM   27  C   UNL     1      -9.072   8.199  67.165  1.00  0.00    -0.163 C  
HETATM   28  C   UNL     1      -8.443   8.616  68.270  1.00  0.00    -0.131 C  
ENDROOT
BRANCH   4  29
HETATM   29  C   UNL     1      -8.508  17.501  68.512  1.00  0.00    -0.280 C  
BRANCH  29  30
HETATM   30  N   UNL     1      -7.249  18.250  68.270  1.00  0.00    -0.250 NA 
HETATM   31  C   UNL     1      -7.445  19.690  68.473  1.00  0.00    -0.334 C  
BRANCH  30  32
HETATM   32  O   UNL     1      -6.397  17.815  69.394  1.00  0.00    -0.236 OA 
HETATM   33  C   UNL     1      -6.487  16.403  69.599  1.00  0.00    -0.201 C  
ENDBRANCH  30  32
ENDBRANCH  29  30
ENDBRANCH   4  29
BRANCH  27  34
HETATM   34  C   UNL     1      -8.147   7.348  66.357  1.00  0.00    -0.118 C  
HETATM   35  O   UNL     1      -7.179   6.755  66.826  1.00  0.00    -0.073 OA 
HETATM   36  H2  UNL     1      -9.256   7.621  64.625  1.00  0.00     0.000 HD 
HETATM   37  N   UNL     1      -8.437   7.182  65.047  1.00  0.00    -0.332 N  
HETATM   38  H1  UNL     1      -7.806   6.600  64.495  1.00  0.00     0.000 HD 
ENDBRANCH  27  34
BRANCH  13  39
HETATM   39  N   UNL     1      -6.478  10.150  68.809  1.00  0.00    -0.051 NA 
HETATM   40  C   UNL     1      -5.633   9.000  68.474  1.00  0.00    -0.038 C  
HETATM   41  C   UNL     1      -6.349  10.458  70.232  1.00  0.00    -0.132 C  
ENDBRANCH  13  39
TORSDOF 5
ENDMDL
MODEL       27
REMARK 921   NORMALIZED FREE ENERGY PREDICTED BY IDOCK:   -6.00 KCAL/MOL
REMARK 922        TOTAL FREE ENERGY PREDICTED BY IDOCK:   -8.67 KCAL/MOL
REMARK 923 INTER-LIGAND FREE ENERGY PREDICTED BY IDOCK:   -7.60 KCAL/MOL
REMARK 924 INTRA-LIGAND FREE ENERGY PREDICTED BY IDOCK:   -1.06 KCAL/MOL
REMARK 927      BINDING AFFINITY PREDICTED BY RF-SCORE:    0.00 PKD
ROOT
HETATM    1  C   UNL     1     -10.100  11.851  69.134  1.00  0.00     0.148 C  
HETATM    2  C   UNL     1     -11.263  12.787  69.450  1.00  0.00    -0.198 C  
HETATM    3  C   UNL     1     -10.917  14.230  69.254  1.00  0.00    -0.271 A  
HETATM    4  C   UNL     1     -11.554  15.223  70.042  1.00  0.00    -0.331 A  
HETATM    5  H   UNL     1     -12.049   6.072  68.307  1.00  0.00     0.000 HD 
HETATM    6  C   UNL     1     -11.260  16.570  69.783  1.00  0.00    -0.166 A  
HETATM    7  C   UNL     1     -10.663  10.449  69.218  1.00  0.00    -0.270 C  
HETATM    8  C   UNL     1     -10.374  16.931  68.771  1.00  0.00    -0.324 A  
HETATM    9  C   UNL     1      -9.654   9.340  68.887  1.00  0.00    -0.155 C  
HETATM   10  C   UNL     1      -9.775  15.948  67.980  1.00  0.00    -0.216 A  
HETATM   11  O   UNL     1     -11.380   6.184  67.641  1.00  0.00    -0.197 OA 
HETATM   12  O   UNL     1      -8.916  16.352  66.997  1.00  0.00    -0.199 OA 
HETATM   13  C   UNL     1     -10.513   8.023  68.975  1.00  0.00    -0.199 C  
HETATM   14  C   UNL     1     -10.037  14.587  68.202  1.00  0.00    -0.227 A  
HETATM   15  H   UNL     1      -8.508  15.684  66.458  1.00  0.00     0.000 HD 
HETATM   16  C   UNL     1      -9.449  13.520  67.313  1.00  0.00    -0.230 C  
HETATM   17  C   UNL     1      -9.498  12.088  67.786  1.00  0.00    -0.190 C  
HETATM   18  O   UNL     1      -8.954  13.754  66.212  1.00  0.00    -0.061 OA 
HETATM   19  C   UNL     1      -8.967  11.070  67.064  1.00  0.00    -0.148 C  
HETATM   20  C   UNL     1      -8.903   9.609  67.552  1.00  0.00    -0.125 C  
HETATM   21  O   UNL     1      -8.262  11.299  65.885  1.00  0.00    -0.323 OA 
HETATM   22  H   UNL     1      -7.890  10.586  65.379  1.00  0.00     0.000 HD 
HETATM   23  C   UNL     1      -9.270   8.518  66.520  1.00  0.00    -0.190 C  
HETATM   24  O   UNL     1      -7.487   9.381  67.762  1.00  0.00    -0.086 OA 
HETATM   25  O   UNL     1      -9.595   8.733  65.352  1.00  0.00    -0.071 OA 
HETATM   26  H   UNL     1      -7.447   8.481  68.063  1.00  0.00     0.000 HD 
HETATM   27  C   UNL     1      -9.304   7.106  67.004  1.00  0.00    -0.181 C  
HETATM   28  C   UNL     1     -10.247   6.948  67.941  1.00  0.00    -0.174 C  
ENDROOT
BRANCH   4  29
HETATM   29  C   UNL     1     -12.561  14.908  71.148  1.00  0.00    -0.335 C  
BRANCH  29  30
HETATM   30  N   UNL     1     -12.036  14.977  72.534  1.00  0.00    -0.353 NA 
HETATM   31  C   UNL     1     -12.299  16.291  73.134  1.00  0.00    -0.499 C  
BRANCH  30  32
HETATM   32  O   UNL     1     -12.916  14.039  73.258  1.00  0.00    -0.457 OA 
HETATM   33  C   UNL     1     -13.693  13.252  72.353  1.00  0.00    -0.578 C  
ENDBRANCH  30  32
ENDBRANCH  29  30
ENDBRANCH   4  29
BRANCH  27  34
HETATM   34  C   UNL     1      -8.089   6.323  67.384  1.00  0.00    -0.109 C  
HETATM   35  O   UNL     1      -6.947   6.772  67.345  1.00  0.00    -0.076 OA 
HETATM   36  H2  UNL     1      -9.213   4.670  67.941  1.00  0.00     0.000 HD 
HETATM   37  N   UNL     1      -8.278   5.068  67.851  1.00  0.00    -0.097 N  
HETATM   38  H1  UNL     1      -7.448   4.534  68.111  1.00  0.00     0.000 HD 
ENDBRANCH  27  34
BRANCH  13  39
HETATM   39  N   UNL     1     -10.539   7.587  70.393  1.00  0.00    -0.224 NA 
HETATM   40  C   UNL     1      -9.658   6.456  70.697  1.00  0.00    -0.172 C  
HETATM   41  C   UNL     1     -11.890   7.304  70.873  1.00  0.00    -0.316 C  
ENDBRANCH  13  39
TORSDOF 5
ENDMDL
MODEL       28
REMARK 921   NORMALIZED FREE ENERGY PREDICTED BY IDOCK:   -5.98 KCAL/MOL
REMARK 922        TOTAL FREE ENERGY PREDICTED BY IDOCK:   -8.63 KCAL/MOL
REMARK 923 INTER-LIGAND FREE ENERGY PREDICTED BY IDOCK:   -7.86 KCAL/MOL
REMARK 924 INTRA-LIGAND FREE ENERGY PREDICTED BY IDOCK:   -0.77 KCAL/MOL
REMARK 927      BINDING AFFINITY PREDICTED BY RF-SCORE:    0.00 PKD
ROOT
HETATM    1  C   UNL     1     -10.294  10.340  69.555  1.00  0.00    -0.267 C  
HETATM    2  C   UNL     1     -10.485   8.846  69.313  1.00  0.00    -0.234 C  
HETATM    3  C   UNL     1     -11.068   8.136  70.494  1.00  0.00    -0.257 A  
HETATM    4  C   UNL     1     -10.749   6.773  70.728  1.00  0.00    -0.270 A  
HETATM    5  H   UNL     1      -9.558  13.382  64.255  1.00  0.00     0.000 HD 
HETATM    6  C   UNL     1     -11.370   6.118  71.803  1.00  0.00    -0.346 A  
HETATM    7  C   UNL     1      -9.864  10.923  68.226  1.00  0.00    -0.179 C  
HETATM    8  C   UNL     1     -12.285   6.781  72.617  1.00  0.00     0.190 A  
HETATM    9  C   UNL     1      -9.658  12.444  68.238  1.00  0.00    -0.211 C  
HETATM   10  C   UNL     1     -12.615   8.114  72.362  1.00  0.00    -0.226 A  
HETATM   11  O   UNL     1     -10.105  13.959  64.775  1.00  0.00    -0.373 OA 
HETATM   12  O   UNL     1     -13.521   8.720  73.186  1.00  0.00    -0.953 OA 
HETATM   13  C   UNL     1      -9.299  12.778  66.742  1.00  0.00    -0.241 C  
HETATM   14  C   UNL     1     -12.020   8.811  71.299  1.00  0.00    -0.353 A  
HETATM   15  H   UNL     1     -13.746   9.626  73.012  1.00  0.00     0.000 HD 
HETATM   16  C   UNL     1     -12.417  10.229  70.971  1.00  0.00    -0.384 C  
HETATM   17  C   UNL     1     -11.530  11.024  70.045  1.00  0.00    -0.398 C  
HETATM   18  O   UNL     1     -13.438  10.762  71.400  1.00  0.00    -0.216 OA 
HETATM   19  C   UNL     1     -11.796  12.314  69.721  1.00  0.00    -0.318 C  
HETATM   20  C   UNL     1     -10.867  13.196  68.862  1.00  0.00    -0.204 C  
HETATM   21  O   UNL     1     -12.854  13.011  70.298  1.00  0.00     0.026 OA 
HETATM   22  H   UNL     1     -13.041  13.914  70.071  1.00  0.00     0.000 HD 
HETATM   23  C   UNL     1     -11.546  14.073  67.786  1.00  0.00    -0.345 C  
HETATM   24  O   UNL     1     -10.367  14.180  69.802  1.00  0.00    -0.419 OA 
HETATM   25  O   UNL     1     -12.759  14.121  67.578  1.00  0.00     0.180 OA 
HETATM   26  H   UNL     1      -9.794  14.723  69.273  1.00  0.00     0.000 HD 
HETATM   27  C   UNL     1     -10.653  14.860  66.885  1.00  0.00    -0.300 C  
HETATM   28  C   UNL     1      -9.881  14.047  66.152  1.00  0.00    -0.303 C  
ENDROOT
BRANCH   4  29
HETATM   29  C   UNL     1      -9.781   5.969  69.860  1.00  0.00    -0.163 C  
BRANCH  29  30
HETATM   30  N   UNL     1     -10.410   5.051  68.879  1.00  0.00    -0.122 NA 
HETATM   31  C   UNL     1     -10.074   5.438  67.504  1.00  0.00    -0.180 C  
BRANCH  30  32
HETATM   32  O   UNL     1      -9.684   3.787  69.111  1.00  0.00    -0.168 OA 
HETATM   33  C   UNL     1      -8.978   3.370  67.941  1.00  0.00    -0.144 C  
ENDBRANCH  30  32
ENDBRANCH  29  30
ENDBRANCH   4  29
BRANCH  27  34
HETATM   34  C   UNL     1      -9.851  16.041  67.327  1.00  0.00    -0.236 C  
HETATM   35  O   UNL     1      -9.985  16.588  68.418  1.00  0.00    -0.233 OA 
HETATM   36  H2  UNL     1      -8.712  16.035  65.593  1.00  0.00     0.000 HD 
HETATM   37  N   UNL     1      -8.886  16.488  66.491  1.00  0.00    -0.255 N  
HETATM   38  H1  UNL     1      -8.339  17.294  66.793  1.00  0.00     0.000 HD 
ENDBRANCH  27  34
BRANCH  13  39
HETATM   39  N   UNL     1      -7.840  12.574  66.563  1.00  0.00     0.267 NA 
HETATM   40  C   UNL     1      -7.451  11.188  66.285  1.00  0.00    -0.064 C  
HETATM   41  C   UNL     1      -7.055  13.092  67.681  1.00  0.00    -0.160 C  
ENDBRANCH  13  39
TORSDOF 5
ENDMDL
MODEL       29
REMARK 921   NORMALIZED FREE ENERGY PREDICTED BY IDOCK:   -5.92 KCAL/MOL
REMARK 922        TOTAL FREE ENERGY PREDICTED BY IDOCK:   -8.55 KCAL/MOL
REMARK 923 INTER-LIGAND FREE ENERGY PREDICTED BY IDOCK:   -7.57 KCAL/MOL
REMARK 924 INTRA-LIGAND FREE ENERGY PREDICTED BY IDOCK:   -0.99 KCAL/MOL
REMARK 927      BINDING AFFINITY PREDICTED BY RF-SCORE:    0.00 PKD
ROOT
HETATM    1  C   UNL     1      -8.530  14.776  66.607  1.00  0.00    -0.093 C  
HETATM    2  C   UNL     1      -9.699  13.803  66.730  1.00  0.00    -0.277 C  
HETATM    3  C   UNL     1      -9.311  12.388  66.439  1.00  0.00    -0.219 A  
HETATM    4  C   UNL     1     -10.265  11.491  65.890  1.00  0.00    -0.286 A  
HETATM    5  H   UNL     1      -9.759  20.111  69.417  1.00  0.00     0.000 HD 
HETATM    6  C   UNL     1      -9.889  10.154  65.697  1.00  0.00    -0.347 A  
HETATM    7  C   UNL     1      -9.049  16.112  67.092  1.00  0.00    -0.218 C  
HETATM    8  C   UNL     1      -8.616   9.708  66.043  1.00  0.00    -0.144 A  
HETATM    9  C   UNL     1      -8.004  17.235  67.093  1.00  0.00    -0.229 C  
HETATM   10  C   UNL     1      -7.693  10.589  66.610  1.00  0.00    -0.123 A  
HETATM   11  O   UNL     1      -8.847  19.949  69.626  1.00  0.00     0.201 OA 
HETATM   12  O   UNL     1      -6.458  10.103  66.937  1.00  0.00    -0.067 OA 
HETATM   13  C   UNL     1      -8.782  18.461  67.704  1.00  0.00    -0.260 C  
HETATM   14  C   UNL     1      -8.023  11.937  66.822  1.00  0.00    -0.087 A  
HETATM   15  H   UNL     1      -5.830  10.703  67.322  1.00  0.00     0.000 HD 
HETATM   16  C   UNL     1      -7.060  12.884  67.494  1.00  0.00    -0.152 C  
HETATM   17  C   UNL     1      -7.332  14.365  67.402  1.00  0.00    -0.167 C  
HETATM   18  O   UNL     1      -6.079  12.510  68.134  1.00  0.00    -0.057 OA 
HETATM   19  C   UNL     1      -6.503  15.287  67.952  1.00  0.00    -0.156 C  
HETATM   20  C   UNL     1      -6.684  16.811  67.796  1.00  0.00    -0.137 C  
HETATM   21  O   UNL     1      -5.301  14.924  68.555  1.00  0.00    -0.090 OA 
HETATM   22  H   UNL     1      -4.720  15.570  68.940  1.00  0.00     0.000 HD 
HETATM   23  C   UNL     1      -6.474  17.665  69.067  1.00  0.00    -0.228 C  
HETATM   24  O   UNL     1      -5.565  17.204  66.963  1.00  0.00    -0.137 OA 
HETATM   25  O   UNL     1      -6.167  17.220  70.173  1.00  0.00    -0.143 OA 
HETATM   26  H   UNL     1      -5.677  18.143  66.867  1.00  0.00     0.000 HD 
HETATM   27  C   UNL     1      -6.739  19.131  68.955  1.00  0.00    -0.336 C  
HETATM   28  C   UNL     1      -8.024  19.360  68.660  1.00  0.00    -0.368 C  
ENDROOT
BRANCH   4  29
HETATM   29  C   UNL     1     -11.690  11.897  65.516  1.00  0.00    -0.157 C  
BRANCH  29  30
HETATM   30  N   UNL     1     -11.831  12.647  64.243  1.00  0.00    -0.366 NA 
HETATM   31  C   UNL     1     -12.545  11.850  63.238  1.00  0.00    -0.344 C  
BRANCH  30  32
HETATM   32  O   UNL     1     -12.765  13.730  64.610  1.00  0.00    -0.644 OA 
HETATM   33  C   UNL     1     -12.166  15.015  64.434  1.00  0.00    -0.337 C  
ENDBRANCH  30  32
ENDBRANCH  29  30
ENDBRANCH   4  29
BRANCH  27  34
HETATM   34  C   UNL     1      -5.876  20.079  68.187  1.00  0.00    -0.228 C  
HETATM   35  O   UNL     1      -5.540  19.904  67.018  1.00  0.00    -0.173 OA 
HETATM   36  H2  UNL     1      -5.790  21.425  69.763  1.00  0.00     0.000 HD 
HETATM   37  N   UNL     1      -5.498  21.219  68.807  1.00  0.00    -0.410 N  
HETATM   38  H1  UNL     1      -4.909  21.867  68.283  1.00  0.00     0.000 HD 
ENDBRANCH  27  34
BRANCH  13  39
HETATM   39  N   UNL     1      -9.516  19.133  66.604  1.00  0.00    -0.329 NA 
HETATM   40  C   UNL     1      -8.815  20.277  66.015  1.00  0.00    -0.034 C  
HETATM   41  C   UNL     1     -10.870  19.527  66.986  1.00  0.00    -0.427 C  
ENDBRANCH  13  39
TORSDOF 5
ENDMDL
MODEL       30
REMARK 921   NORMALIZED FREE ENERGY PREDICTED BY IDOCK:   -5.88 KCAL/MOL
REMARK 922        TOTAL FREE ENERGY PREDICTED BY IDOCK:   -8.51 KCAL/MOL
REMARK 923 INTER-LIGAND FREE ENERGY PREDICTED BY IDOCK:   -7.86 KCAL/MOL
REMARK 924 INTRA-LIGAND FREE ENERGY PREDICTED BY IDOCK:   -0.65 KCAL/MOL
REMARK 927      BINDING AFFINITY PREDICTED BY RF-SCORE:    0.00 PKD
ROOT
HETATM    1  C   UNL     1      -9.064  13.007  67.091  1.00  0.00    -0.225 C  
HETATM    2  C   UNL     1      -9.180  11.969  65.979  1.00  0.00    -0.152 C  
HETATM    3  C   UNL     1      -9.471  10.595  66.495  1.00  0.00    -0.199 A  
HETATM    4  C   UNL     1      -9.008   9.459  65.781  1.00  0.00    -0.227 A  
HETATM    5  H   UNL     1      -9.588  18.723  64.872  1.00  0.00     0.000 HD 
HETATM    6  C   UNL     1      -9.360   8.186  66.254  1.00  0.00    -0.259 A  
HETATM    7  C   UNL     1      -8.941  14.346  66.397  1.00  0.00    -0.122 C  
HETATM    8  C   UNL     1     -10.152   8.034  67.388  1.00  0.00    -0.294 A  
HETATM    9  C   UNL     1      -8.856  15.548  67.348  1.00  0.00    -0.203 C  
HETATM   10  C   UNL     1     -10.628   9.157  68.068  1.00  0.00    -0.197 A  
HETATM   11  O   UNL     1     -10.070  18.752  65.690  1.00  0.00    -0.482 OA 
HETATM   12  O   UNL     1     -11.405   8.956  69.174  1.00  0.00    -0.417 OA 
HETATM   13  C   UNL     1      -8.815  16.785  66.375  1.00  0.00    -0.296 C  
HETATM   14  C   UNL     1     -10.303  10.451  67.634  1.00  0.00    -0.260 A  
HETATM   15  H   UNL     1     -11.730   9.721  69.636  1.00  0.00     0.000 HD 
HETATM   16  C   UNL     1     -10.864  11.673  68.319  1.00  0.00    -0.219 C  
HETATM   17  C   UNL     1     -10.234  13.011  68.022  1.00  0.00    -0.233 C  
HETATM   18  O   UNL     1     -11.823  11.637  69.086  1.00  0.00    -0.292 OA 
HETATM   19  C   UNL     1     -10.657  14.156  68.616  1.00  0.00    -0.249 C  
HETATM   20  C   UNL     1      -9.979  15.528  68.423  1.00  0.00    -0.214 C  
HETATM   21  O   UNL     1     -11.637  14.149  69.605  1.00  0.00    -0.263 OA 
HETATM   22  H   UNL     1     -11.934  14.950  70.020  1.00  0.00     0.000 HD 
HETATM   23  C   UNL     1     -10.917  16.739  68.218  1.00  0.00    -0.327 C  
HETATM   24  O   UNL     1      -9.389  15.801  69.718  1.00  0.00    -0.241 OA 
HETATM   25  O   UNL     1     -12.147  16.685  68.208  1.00  0.00     0.418 OA 
HETATM   26  H   UNL     1      -8.971  16.647  69.599  1.00  0.00     0.000 HD 
HETATM   27  C   UNL     1     -10.276  18.058  67.935  1.00  0.00    -0.386 C  
HETATM   28  C   UNL     1      -9.596  18.018  66.782  1.00  0.00    -0.303 C  
ENDROOT
BRANCH   4  29
HETATM   29  C   UNL     1      -8.163   9.545  64.510  1.00  0.00    -0.152 C  
BRANCH  29  30
HETATM   30  N   UNL     1      -8.853   9.165  63.253  1.00  0.00    -0.148 NA 
HETATM   31  C   UNL     1      -9.164  10.350  62.444  1.00  0.00    -0.277 C  
BRANCH  30  32
HETATM   32  O   UNL     1      -7.795   8.456  62.508  1.00  0.00    -0.125 OA 
HETATM   33  C   UNL     1      -7.953   7.038  62.602  1.00  0.00    -0.116 C  
ENDBRANCH  30  32
ENDBRANCH  29  30
ENDBRANCH   4  29
BRANCH  27  34
HETATM   34  C   UNL     1      -9.499  18.842  68.943  1.00  0.00    -0.286 C  
HETATM   35  O   UNL     1      -8.304  18.672  69.168  1.00  0.00    -0.137 OA 
HETATM   36  H2  UNL     1     -11.131  20.035  69.409  1.00  0.00     0.000 HD 
HETATM   37  N   UNL     1     -10.149  19.832  69.597  1.00  0.00    -0.480 N  
HETATM   38  H1  UNL     1      -9.619  20.367  70.285  1.00  0.00     0.000 HD 
ENDBRANCH  27  34
BRANCH  13  39
HETATM   39  N   UNL     1      -7.406  16.999  65.964  1.00  0.00    -0.228 NA 
HETATM   40  C   UNL     1      -6.415  16.661  66.991  1.00  0.00    -0.196 C  
HETATM   41  C   UNL     1      -7.160  18.352  65.468  1.00  0.00    -0.075 C  
ENDBRANCH  13  39
TORSDOF 5
ENDMDL
MODEL       31
REMARK 921   NORMALIZED FREE ENERGY PREDICTED BY IDOCK:   -5.85 KCAL/MOL
REMARK 922        TOTAL FREE ENERGY PREDICTED BY IDOCK:   -8.46 KCAL/MOL
REMARK 923 INTER-LIGAND FREE ENERGY PREDICTED BY IDOCK:   -8.60 KCAL/MOL
REMARK 924 INTRA-LIGAND FREE ENERGY PREDICTED BY IDOCK:    0.14 KCAL/MOL
REMARK 927      BINDING AFFINITY PREDICTED BY RF-SCORE:    0.00 PKD
ROOT
HETATM    1  C   UNL     1     -10.781   9.575  68.307  1.00  0.00    -0.241 C  
HETATM    2  C   UNL     1     -10.001   8.921  69.444  1.00  0.00    -0.192 C  
HETATM    3  C   UNL     1      -9.861   7.441  69.275  1.00  0.00    -0.168 A  
HETATM    4  C   UNL     1      -9.767   6.605  70.418  1.00  0.00    -0.186 A  
HETATM    5  H   UNL     1      -9.847  15.657  68.171  1.00  0.00     0.000 HD 
HETATM    6  C   UNL     1      -9.563   5.231  70.224  1.00  0.00    -0.241 A  
HETATM    7  C   UNL     1     -10.684  11.067  68.542  1.00  0.00    -0.236 C  
HETATM    8  C   UNL     1      -9.445   4.695  68.944  1.00  0.00    -0.218 A  
HETATM    9  C   UNL     1     -11.373  11.924  67.472  1.00  0.00    -0.381 C  
HETATM   10  C   UNL     1      -9.509   5.529  67.826  1.00  0.00    -0.116 A  
HETATM   11  O   UNL     1      -9.853  15.407  67.254  1.00  0.00    -0.216 OA 
HETATM   12  O   UNL     1      -9.383   4.957  66.591  1.00  0.00    -0.127 OA 
HETATM   13  C   UNL     1     -11.053  13.399  67.919  1.00  0.00    -0.265 C  
HETATM   14  C   UNL     1      -9.712   6.910  67.970  1.00  0.00    -0.138 A  
HETATM   15  H   UNL     1      -9.426   5.524  65.830  1.00  0.00     0.000 HD 
HETATM   16  C   UNL     1      -9.716   7.831  66.774  1.00  0.00    -0.227 C  
HETATM   17  C   UNL     1     -10.254   9.229  66.951  1.00  0.00    -0.327 C  
HETATM   18  O   UNL     1      -9.281   7.508  65.671  1.00  0.00     0.012 OA 
HETATM   19  C   UNL     1     -10.322  10.112  65.923  1.00  0.00    -0.151 C  
HETATM   20  C   UNL     1     -10.956  11.513  66.031  1.00  0.00    -0.259 C  
HETATM   21  O   UNL     1      -9.985   9.748  64.622  1.00  0.00    -0.409 OA 
HETATM   22  H   UNL     1     -10.032  10.367  63.902  1.00  0.00     0.000 HD 
HETATM   23  C   UNL     1     -10.187  12.674  65.362  1.00  0.00    -0.284 C  
HETATM   24  O   UNL     1     -12.149  11.412  65.213  1.00  0.00     0.112 OA 
HETATM   25  O   UNL     1      -9.124  12.556  64.750  1.00  0.00     0.565 OA 
HETATM   26  H   UNL     1     -12.540  12.275  65.280  1.00  0.00     0.000 HD 
HETATM   27  C   UNL     1     -10.739  14.051  65.540  1.00  0.00    -0.317 C  
HETATM   28  C   UNL     1     -10.730  14.403  66.831  1.00  0.00    -0.292 C  
ENDROOT
BRANCH   4  29
HETATM   29  C   UNL     1      -9.854   7.122  71.854  1.00  0.00    -0.159 C  
BRANCH  29  30
HETATM   30  N   UNL     1     -10.994   6.607  72.654  1.00  0.00    -0.245 NA 
HETATM   31  C   UNL     1     -10.521   5.870  73.832  1.00  0.00    -0.273 C  
BRANCH  30  32
HETATM   32  O   UNL     1     -11.594   7.845  73.189  1.00  0.00    -0.292 OA 
HETATM   33  C   UNL     1     -12.565   8.384  72.289  1.00  0.00    -0.349 C  
ENDBRANCH  30  32
ENDBRANCH  29  30
ENDBRANCH   4  29
BRANCH  27  34
HETATM   34  C   UNL     1     -12.001  14.533  64.901  1.00  0.00    -0.422 C  
HETATM   35  O   UNL     1     -13.123  14.181  65.255  1.00  0.00    -0.763 OA 
HETATM   36  H2  UNL     1     -10.978  15.804  63.620  1.00  0.00     0.000 HD 
HETATM   37  N   UNL     1     -11.889  15.453  63.916  1.00  0.00    -0.908 N  
HETATM   38  H1  UNL     1     -12.751  15.782  63.480  1.00  0.00     0.000 HD 
ENDBRANCH  27  34
BRANCH  13  39
HETATM   39  N   UNL     1     -12.073  13.808  68.916  1.00  0.00    -0.350 NA 
HETATM   40  C   UNL     1     -11.848  15.130  69.508  1.00  0.00    -0.332 C  
HETATM   41  C   UNL     1     -12.259  12.818  69.975  1.00  0.00    -0.209 C  
ENDBRANCH  13  39
TORSDOF 5
ENDMDL
MODEL       32
REMARK 921   NORMALIZED FREE ENERGY PREDICTED BY IDOCK:   -5.82 KCAL/MOL
REMARK 922        TOTAL FREE ENERGY PREDICTED BY IDOCK:   -8.43 KCAL/MOL
REMARK 923 INTER-LIGAND FREE ENERGY PREDICTED BY IDOCK:   -7.58 KCAL/MOL
REMARK 924 INTRA-LIGAND FREE ENERGY PREDICTED BY IDOCK:   -0.85 KCAL/MOL
REMARK 927      BINDING AFFINITY PREDICTED BY RF-SCORE:    0.00 PKD
ROOT
HETATM    1  C   UNL     1      -8.972  14.530  67.667  1.00  0.00    -0.193 C  
HETATM    2  C   UNL     1      -9.756  13.565  68.552  1.00  0.00    -0.168 C  
HETATM    3  C   UNL     1      -9.486  12.129  68.228  1.00  0.00    -0.204 A  
HETATM    4  C   UNL     1     -10.496  11.155  68.440  1.00  0.00    -0.211 A  
HETATM    5  H   UNL     1      -8.797  20.171  70.121  1.00  0.00     0.000 HD 
HETATM    6  C   UNL     1     -10.186   9.809  68.194  1.00  0.00    -0.220 A  
HETATM    7  C   UNL     1      -9.226  15.910  68.232  1.00  0.00    -0.189 C  
HETATM    8  C   UNL     1      -8.918   9.431  67.762  1.00  0.00    -0.127 A  
HETATM    9  C   UNL     1      -8.483  17.039  67.504  1.00  0.00    -0.208 C  
HETATM   10  C   UNL     1      -7.921  10.393  67.584  1.00  0.00    -0.106 A  
HETATM   11  O   UNL     1      -7.924  20.050  69.765  1.00  0.00     0.211 OA 
HETATM   12  O   UNL     1      -6.691   9.972  67.162  1.00  0.00    -0.072 OA 
HETATM   13  C   UNL     1      -8.863  18.323  68.333  1.00  0.00    -0.305 C  
HETATM   14  C   UNL     1      -8.183  11.752  67.817  1.00  0.00    -0.144 A  
HETATM   15  H   UNL     1      -6.013  10.626  67.042  1.00  0.00     0.000 HD 
HETATM   16  C   UNL     1      -7.098  12.793  67.693  1.00  0.00    -0.145 C  
HETATM   17  C   UNL     1      -7.504  14.244  67.635  1.00  0.00    -0.194 C  
HETATM   18  O   UNL     1      -5.900  12.520  67.661  1.00  0.00    -0.104 OA 
HETATM   19  C   UNL     1      -6.596  15.243  67.495  1.00  0.00    -0.151 C  
HETATM   20  C   UNL     1      -6.970  16.730  67.328  1.00  0.00    -0.177 C  
HETATM   21  O   UNL     1      -5.243  14.980  67.302  1.00  0.00    -0.312 OA 
HETATM   22  H   UNL     1      -4.607  15.679  67.204  1.00  0.00     0.000 HD 
HETATM   23  C   UNL     1      -6.134  17.747  68.137  1.00  0.00    -0.172 C  
HETATM   24  O   UNL     1      -6.590  17.026  65.961  1.00  0.00    -0.110 OA 
HETATM   25  O   UNL     1      -5.200  17.456  68.885  1.00  0.00    -0.145 OA 
HETATM   26  H   UNL     1      -6.821  17.942  65.858  1.00  0.00     0.000 HD 
HETATM   27  C   UNL     1      -6.544  19.181  68.061  1.00  0.00    -0.258 C  
HETATM   28  C   UNL     1      -7.773  19.351  68.563  1.00  0.00    -0.345 C  
ENDROOT
BRANCH   4  29
HETATM   29  C   UNL     1     -11.901  11.488  68.944  1.00  0.00    -0.341 C  
BRANCH  29  30
HETATM   30  N   UNL     1     -12.085  11.431  70.415  1.00  0.00    -0.366 NA 
HETATM   31  C   UNL     1     -12.503  12.735  70.945  1.00  0.00    -0.283 C  
BRANCH  30  32
HETATM   32  O   UNL     1     -13.269  10.561  70.556  1.00  0.00    -0.282 OA 
HETATM   33  C   UNL     1     -12.982   9.420  71.369  1.00  0.00    -0.346 C  
ENDBRANCH  30  32
ENDBRANCH  29  30
ENDBRANCH   4  29
BRANCH  27  34
HETATM   34  C   UNL     1      -6.382  20.032  66.843  1.00  0.00    -0.188 C  
HETATM   35  O   UNL     1      -5.591  19.785  65.937  1.00  0.00    -0.162 OA 
HETATM   36  H2  UNL     1      -7.903  21.318  67.425  1.00  0.00     0.000 HD 
HETATM   37  N   UNL     1      -7.201  21.101  66.717  1.00  0.00    -0.555 N  
HETATM   38  H1  UNL     1      -7.091  21.682  65.885  1.00  0.00     0.000 HD 
ENDBRANCH  27  34
BRANCH  13  39
HETATM   39  N   UNL     1     -10.158  18.834  67.821  1.00  0.00    -0.349 NA 
HETATM   40  C   UNL     1     -10.327  18.718  66.370  1.00  0.00    -0.439 C  
HETATM   41  C   UNL     1     -10.432  20.206  68.242  1.00  0.00    -0.216 C  
ENDBRANCH  13  39
TORSDOF 5
ENDMDL
MODEL       33
REMARK 921   NORMALIZED FREE ENERGY PREDICTED BY IDOCK:   -5.82 KCAL/MOL
REMARK 922        TOTAL FREE ENERGY PREDICTED BY IDOCK:   -8.43 KCAL/MOL
REMARK 923 INTER-LIGAND FREE ENERGY PREDICTED BY IDOCK:   -7.78 KCAL/MOL
REMARK 924 INTRA-LIGAND FREE ENERGY PREDICTED BY IDOCK:   -0.64 KCAL/MOL
REMARK 927      BINDING AFFINITY PREDICTED BY RF-SCORE:    0.00 PKD
ROOT
HETATM    1  C   UNL     1     -11.072  11.293  69.131  1.00  0.00    -0.312 C  
HETATM    2  C   UNL     1     -10.551  12.727  69.154  1.00  0.00     0.013 C  
HETATM    3  C   UNL     1     -11.572  13.708  69.638  1.00  0.00    -0.342 A  
HETATM    4  C   UNL     1     -11.550  15.045  69.164  1.00  0.00    -0.333 A  
HETATM    5  H   UNL     1      -6.446   7.246  68.806  1.00  0.00     0.000 HD 
HETATM    6  C   UNL     1     -12.475  15.956  69.693  1.00  0.00     0.108 A  
HETATM    7  C   UNL     1      -9.881  10.425  68.785  1.00  0.00    -0.190 C  
HETATM    8  C   UNL     1     -13.390  15.567  70.669  1.00  0.00    -0.201 A  
HETATM    9  C   UNL     1     -10.181   8.921  68.754  1.00  0.00    -0.224 C  
HETATM   10  C   UNL     1     -13.386  14.257  71.152  1.00  0.00    -0.299 A  
HETATM   11  O   UNL     1      -7.059   6.843  69.411  1.00  0.00    -0.074 OA 
HETATM   12  O   UNL     1     -14.300  13.924  72.112  1.00  0.00    -0.520 OA 
HETATM   13  C   UNL     1      -8.778   8.272  68.452  1.00  0.00    -0.133 C  
HETATM   14  C   UNL     1     -12.479  13.309  70.652  1.00  0.00    -0.373 A  
HETATM   15  H   UNL     1     -14.297  13.033  72.440  1.00  0.00     0.000 HD 
HETATM   16  C   UNL     1     -12.420  11.909  71.212  1.00  0.00    -0.213 C  
HETATM   17  C   UNL     1     -11.669  10.859  70.432  1.00  0.00    -0.444 C  
HETATM   18  O   UNL     1     -12.931  11.587  72.282  1.00  0.00    -0.283 OA 
HETATM   19  C   UNL     1     -11.590   9.570  70.847  1.00  0.00    -0.326 C  
HETATM   20  C   UNL     1     -10.923   8.442  70.034  1.00  0.00    -0.194 C  
HETATM   21  O   UNL     1     -12.277   9.120  71.972  1.00  0.00    -0.367 OA 
HETATM   22  H   UNL     1     -12.221   8.217  72.263  1.00  0.00     0.000 HD 
HETATM   23  C   UNL     1     -10.023   7.462  70.821  1.00  0.00    -0.182 C  
HETATM   24  O   UNL     1     -12.036   7.601  69.640  1.00  0.00    -0.092 OA 
HETATM   25  O   UNL     1      -9.815   7.514  72.033  1.00  0.00    -0.160 OA 
HETATM   26  H   UNL     1     -11.624   6.907  69.139  1.00  0.00     0.000 HD 
HETATM   27  C   UNL     1      -9.295   6.423  70.033  1.00  0.00    -0.162 C  
HETATM   28  C   UNL     1      -8.431   6.990  69.183  1.00  0.00    -0.129 C  
ENDROOT
BRANCH   4  29
HETATM   29  C   UNL     1     -10.556  15.556  68.120  1.00  0.00    -0.266 C  
BRANCH  29  30
HETATM   30  N   UNL     1      -9.923  16.863  68.422  1.00  0.00    -0.260 NA 
HETATM   31  C   UNL     1      -8.546  16.685  68.898  1.00  0.00    -0.235 C  
BRANCH  30  32
HETATM   32  O   UNL     1      -9.792  17.473  67.084  1.00  0.00    -0.278 OA 
HETATM   33  C   UNL     1     -10.260  18.823  67.080  1.00  0.00    -0.381 C  
ENDBRANCH  30  32
ENDBRANCH  29  30
ENDBRANCH   4  29
BRANCH  27  34
HETATM   34  C   UNL     1      -9.959   5.262  69.367  1.00  0.00    -0.218 C  
HETATM   35  O   UNL     1     -10.522   5.330  68.278  1.00  0.00    -0.151 OA 
HETATM   36  H2  UNL     1      -9.384   3.951  70.869  1.00  0.00     0.000 HD 
HETATM   37  N   UNL     1      -9.879   4.061  69.983  1.00  0.00    -0.192 N  
HETATM   38  H1  UNL     1     -10.333   3.268  69.528  1.00  0.00     0.000 HD 
ENDBRANCH  27  34
BRANCH  13  39
HETATM   39  N   UNL     1      -8.579   8.272  66.982  1.00  0.00    -0.121 NA 
HETATM   40  C   UNL     1      -7.682   9.321  66.490  1.00  0.00    -0.093 C  
HETATM   41  C   UNL     1      -9.838   8.311  66.241  1.00  0.00    -0.157 C  
ENDBRANCH  13  39
TORSDOF 5
ENDMDL
MODEL       34
REMARK 921   NORMALIZED FREE ENERGY PREDICTED BY IDOCK:   -5.71 KCAL/MOL
REMARK 922        TOTAL FREE ENERGY PREDICTED BY IDOCK:   -8.28 KCAL/MOL
REMARK 923 INTER-LIGAND FREE ENERGY PREDICTED BY IDOCK:   -7.59 KCAL/MOL
REMARK 924 INTRA-LIGAND FREE ENERGY PREDICTED BY IDOCK:   -0.69 KCAL/MOL
REMARK 927      BINDING AFFINITY PREDICTED BY RF-SCORE:    0.00 PKD
ROOT
HETATM    1  C   UNL     1     -10.446   8.376  69.367  1.00  0.00    -0.222 C  
HETATM    2  C   UNL     1     -10.348   9.856  69.722  1.00  0.00    -0.278 C  
HETATM    3  C   UNL     1     -11.520  10.343  70.515  1.00  0.00    -0.431 A  
HETATM    4  C   UNL     1     -11.939  11.694  70.402  1.00  0.00    -0.448 A  
HETATM    5  H   UNL     1      -4.976   6.117  67.681  1.00  0.00     0.000 HD 
HETATM    6  C   UNL     1     -12.995  12.135  71.213  1.00  0.00    -0.303 A  
HETATM    7  C   UNL     1      -9.124   8.015  68.725  1.00  0.00    -0.144 C  
HETATM    8  C   UNL     1     -13.614  11.276  72.117  1.00  0.00    -0.077 A  
HETATM    9  C   UNL     1      -8.995   6.538  68.328  1.00  0.00    -0.121 C  
HETATM   10  C   UNL     1     -13.177   9.956  72.243  1.00  0.00    -0.340 A  
HETATM   11  O   UNL     1      -5.359   5.421  68.202  1.00  0.00    -0.007 OA 
HETATM   12  O   UNL     1     -13.814   9.152  73.147  1.00  0.00    -1.065 OA 
HETATM   13  C   UNL     1      -7.526   6.435  67.770  1.00  0.00    -0.093 C  
HETATM   14  C   UNL     1     -12.124   9.469  71.453  1.00  0.00    -0.459 A  
HETATM   15  H   UNL     1     -13.516   8.254  73.233  1.00  0.00     0.000 HD 
HETATM   16  C   UNL     1     -11.598   8.065  71.626  1.00  0.00    -0.275 C  
HETATM   17  C   UNL     1     -10.705   7.499  70.550  1.00  0.00    -0.244 C  
HETATM   18  O   UNL     1     -11.839   7.369  72.610  1.00  0.00    -0.237 OA 
HETATM   19  C   UNL     1     -10.212   6.236  70.611  1.00  0.00    -0.194 C  
HETATM   20  C   UNL     1      -9.382   5.580  69.489  1.00  0.00    -0.130 C  
HETATM   21  O   UNL     1     -10.577   5.356  71.627  1.00  0.00    -0.227 OA 
HETATM   22  H   UNL     1     -10.231   4.472  71.670  1.00  0.00     0.000 HD 
HETATM   23  C   UNL     1      -8.142   4.770  69.930  1.00  0.00    -0.069 C  
HETATM   24  O   UNL     1     -10.262   4.552  68.971  1.00  0.00    -0.079 OA 
HETATM   25  O   UNL     1      -7.784   4.608  71.097  1.00  0.00    -0.076 OA 
HETATM   26  H   UNL     1      -9.751   4.148  68.279  1.00  0.00     0.000 HD 
HETATM   27  C   UNL     1      -7.275   4.209  68.852  1.00  0.00    -0.055 C  
HETATM   28  C   UNL     1      -6.735   5.189  68.118  1.00  0.00    -0.055 C  
ENDROOT
BRANCH   4  29
HETATM   29  C   UNL     1     -11.288  12.706  69.458  1.00  0.00    -0.158 C  
BRANCH  29  30
HETATM   30  N   UNL     1     -12.149  13.838  69.038  1.00  0.00    -0.350 NA 
HETATM   31  C   UNL     1     -11.483  15.124  69.274  1.00  0.00    -0.311 C  
BRANCH  30  32
HETATM   32  O   UNL     1     -12.184  13.686  67.570  1.00  0.00    -0.342 OA 
HETATM   33  C   UNL     1     -11.290  14.600  66.931  1.00  0.00    -0.356 C  
ENDBRANCH  30  32
ENDBRANCH  29  30
ENDBRANCH   4  29
BRANCH  27  34
HETATM   34  C   UNL     1      -7.679   3.083  67.957  1.00  0.00    -0.056 C  
HETATM   35  O   UNL     1      -7.361   3.002  66.773  1.00  0.00    -0.068 OA 
HETATM   36  H2  UNL     1      -8.637   2.078  69.499  1.00  0.00     0.000 HD 
HETATM   37  N   UNL     1      -8.388   2.072  68.509  1.00  0.00    -0.056 N  
HETATM   38  H1  UNL     1      -8.664   1.303  67.898  1.00  0.00     0.000 HD 
ENDBRANCH  27  34
BRANCH  13  39
HETATM   39  N   UNL     1      -7.549   6.827  66.340  1.00  0.00    -0.088 NA 
HETATM   40  C   UNL     1      -8.305   5.919  65.473  1.00  0.00    -0.145 C  
HETATM   41  C   UNL     1      -6.212   7.036  65.789  1.00  0.00    -0.037 C  
ENDBRANCH  13  39
TORSDOF 5
ENDMDL
MODEL       35
REMARK 921   NORMALIZED FREE ENERGY PREDICTED BY IDOCK:   -5.69 KCAL/MOL
REMARK 922        TOTAL FREE ENERGY PREDICTED BY IDOCK:   -8.26 KCAL/MOL
REMARK 923 INTER-LIGAND FREE ENERGY PREDICTED BY IDOCK:   -7.36 KCAL/MOL
REMARK 924 INTRA-LIGAND FREE ENERGY PREDICTED BY IDOCK:   -0.90 KCAL/MOL
REMARK 927      BINDING AFFINITY PREDICTED BY RF-SCORE:    0.00 PKD
ROOT
HETATM    1  C   UNL     1      -9.378  11.481  67.944  1.00  0.00    -0.171 C  
HETATM    2  C   UNL     1      -9.457  12.119  66.560  1.00  0.00    -0.235 C  
HETATM    3  C   UNL     1      -9.249  13.601  66.591  1.00  0.00    -0.225 A  
HETATM    4  C   UNL     1      -9.876  14.423  65.620  1.00  0.00    -0.322 A  
HETATM    5  H   UNL     1      -8.529   5.398  67.551  1.00  0.00     0.000 HD 
HETATM    6  C   UNL     1      -9.603  15.799  65.633  1.00  0.00    -0.299 A  
HETATM    7  C   UNL     1      -9.438   9.986  67.715  1.00  0.00    -0.157 C  
HETATM    8  C   UNL     1      -8.730  16.349  66.568  1.00  0.00    -0.324 A  
HETATM    9  C   UNL     1      -9.327   9.144  68.994  1.00  0.00    -0.151 C  
HETATM   10  C   UNL     1      -8.094  15.528  67.502  1.00  0.00    -0.165 A  
HETATM   11  O   UNL     1      -7.975   5.659  68.278  1.00  0.00    -0.098 OA 
HETATM   12  O   UNL     1      -7.243  16.114  68.397  1.00  0.00    -0.128 OA 
HETATM   13  C   UNL     1      -9.340   7.663  68.461  1.00  0.00    -0.147 C  
HETATM   14  C   UNL     1      -8.336  14.146  67.528  1.00  0.00    -0.194 A  
HETATM   15  H   UNL     1      -6.810  15.556  69.032  1.00  0.00     0.000 HD 
HETATM   16  C   UNL     1      -7.606  13.239  68.488  1.00  0.00    -0.128 C  
HETATM   17  C   UNL     1      -8.134  11.841  68.692  1.00  0.00    -0.104 C  
HETATM   18  O   UNL     1      -6.589  13.574  69.092  1.00  0.00    -0.103 OA 
HETATM   19  C   UNL     1      -7.556  10.970  69.557  1.00  0.00     0.007 C  
HETATM   20  C   UNL     1      -8.119   9.570  69.875  1.00  0.00    -0.157 C  
HETATM   21  O   UNL     1      -6.496  11.348  70.378  1.00  0.00    -0.438 OA 
HETATM   22  H   UNL     1      -6.091  10.738  70.983  1.00  0.00     0.000 HD 
HETATM   23  C   UNL     1      -7.095   8.414  69.948  1.00  0.00    -0.051 C  
HETATM   24  O   UNL     1      -8.564   9.685  71.250  1.00  0.00    -0.301 OA 
HETATM   25  O   UNL     1      -5.881   8.536  69.783  1.00  0.00    -0.029 OA 
HETATM   26  H   UNL     1      -8.911   8.822  71.445  1.00  0.00     0.000 HD 
HETATM   27  C   UNL     1      -7.635   7.038  70.160  1.00  0.00    -0.095 C  
HETATM   28  C   UNL     1      -8.415   6.671  69.137  1.00  0.00    -0.124 C  
ENDROOT
BRANCH   4  29
HETATM   29  C   UNL     1     -10.820  13.890  64.542  1.00  0.00    -0.368 C  
BRANCH  29  30
HETATM   30  N   UNL     1     -12.052  13.226  65.037  1.00  0.00    -0.384 NA 
HETATM   31  C   UNL     1     -12.875  14.158  65.817  1.00  0.00    -0.329 C  
BRANCH  30  32
HETATM   32  O   UNL     1     -12.810  12.989  63.794  1.00  0.00    -0.667 OA 
HETATM   33  C   UNL     1     -12.365  11.804  63.131  1.00  0.00    -0.161 C  
ENDBRANCH  30  32
ENDBRANCH  29  30
ENDBRANCH   4  29
BRANCH  27  34
HETATM   34  C   UNL     1      -8.243   6.568  71.442  1.00  0.00    -0.120 C  
HETATM   35  O   UNL     1      -8.325   7.259  72.454  1.00  0.00    -0.106 OA 
HETATM   36  H2  UNL     1      -8.772   4.735  70.627  1.00  0.00     0.000 HD 
HETATM   37  N   UNL     1      -8.781   5.327  71.458  1.00  0.00    -0.133 N  
HETATM   38  H1  UNL     1      -9.196   5.006  72.334  1.00  0.00     0.000 HD 
ENDBRANCH  27  34
BRANCH  13  39
HETATM   39  N   UNL     1     -10.755   7.246  68.299  1.00  0.00    -0.163 NA 
HETATM   40  C   UNL     1     -11.273   6.419  69.392  1.00  0.00    -0.394 C  
HETATM   41  C   UNL     1     -11.008   6.587  67.019  1.00  0.00    -0.396 C  
ENDBRANCH  13  39
TORSDOF 5
ENDMDL
MODEL       36
REMARK 921   NORMALIZED FREE ENERGY PREDICTED BY IDOCK:   -5.47 KCAL/MOL
REMARK 922        TOTAL FREE ENERGY PREDICTED BY IDOCK:   -7.97 KCAL/MOL
REMARK 923 INTER-LIGAND FREE ENERGY PREDICTED BY IDOCK:   -7.05 KCAL/MOL
REMARK 924 INTRA-LIGAND FREE ENERGY PREDICTED BY IDOCK:   -0.92 KCAL/MOL
REMARK 927      BINDING AFFINITY PREDICTED BY RF-SCORE:    0.00 PKD
ROOT
HETATM    1  C   UNL     1      -9.487   8.849  67.351  1.00  0.00    -0.181 C  
HETATM    2  C   UNL     1      -8.419   9.545  66.511  1.00  0.00    -0.130 C  
HETATM    3  C   UNL     1      -8.984  10.236  65.310  1.00  0.00    -0.214 A  
HETATM    4  C   UNL     1      -8.198  10.372  64.137  1.00  0.00    -0.118 A  
HETATM    5  H   UNL     1      -7.397   7.563  72.994  1.00  0.00     0.000 HD 
HETATM    6  C   UNL     1      -8.731  11.088  63.055  1.00  0.00    -0.154 A  
HETATM    7  C   UNL     1      -8.779   8.355  68.594  1.00  0.00    -0.133 C  
HETATM    8  C   UNL     1      -9.997  11.663  63.128  1.00  0.00    -0.400 A  
HETATM    9  C   UNL     1      -9.694   7.655  69.608  1.00  0.00    -0.171 C  
HETATM   10  C   UNL     1     -10.753  11.550  64.297  1.00  0.00    -0.355 A  
HETATM   11  O   UNL     1      -8.292   7.844  73.142  1.00  0.00    -0.144 OA 
HETATM   12  O   UNL     1     -11.988  12.135  64.322  1.00  0.00    -0.380 OA 
HETATM   13  C   UNL     1      -8.728   7.324  70.807  1.00  0.00    -0.146 C  
HETATM   14  C   UNL     1     -10.262  10.843  65.405  1.00  0.00    -0.339 A  
HETATM   15  H   UNL     1     -12.502  12.059  65.117  1.00  0.00     0.000 HD 
HETATM   16  C   UNL     1     -11.039  10.770  66.697  1.00  0.00    -0.035 C  
HETATM   17  C   UNL     1     -10.624   9.745  67.723  1.00  0.00    -0.320 C  
HETATM   18  O   UNL     1     -11.976  11.519  66.965  1.00  0.00    -0.556 OA 
HETATM   19  C   UNL     1     -11.286   9.591  68.897  1.00  0.00     0.082 C  
HETATM   20  C   UNL     1     -10.964   8.492  69.930  1.00  0.00    -0.165 C  
HETATM   21  O   UNL     1     -12.444  10.309  69.185  1.00  0.00    -0.571 OA 
HETATM   22  H   UNL     1     -12.907  10.201  70.008  1.00  0.00     0.000 HD 
HETATM   23  C   UNL     1     -10.939   8.923  71.414  1.00  0.00    -0.310 C  
HETATM   24  O   UNL     1     -12.121   7.621  69.873  1.00  0.00    -0.206 OA 
HETATM   25  O   UNL     1     -11.166  10.063  71.821  1.00  0.00    -0.026 OA 
HETATM   26  H   UNL     1     -11.923   6.944  70.509  1.00  0.00     0.000 HD 
HETATM   27  C   UNL     1     -10.536   7.893  72.417  1.00  0.00    -0.359 C  
HETATM   28  C   UNL     1      -9.275   7.496  72.210  1.00  0.00    -0.138 C  
ENDROOT
BRANCH   4  29
HETATM   29  C   UNL     1      -6.788   9.798  63.992  1.00  0.00    -0.120 C  
BRANCH  29  30
HETATM   30  N   UNL     1      -6.711   8.403  63.489  1.00  0.00    -0.084 NA 
HETATM   31  C   UNL     1      -5.769   8.298  62.368  1.00  0.00    -0.075 C  
BRANCH  30  32
HETATM   32  O   UNL     1      -6.059   7.695  64.608  1.00  0.00    -0.038 OA 
HETATM   33  C   UNL     1      -5.580   6.411  64.202  1.00  0.00    -0.022 C  
ENDBRANCH  30  32
ENDBRANCH  29  30
ENDBRANCH   4  29
BRANCH  27  34
HETATM   34  C   UNL     1     -11.375   6.712  72.785  1.00  0.00    -0.186 C  
HETATM   35  O   UNL     1     -10.962   5.756  73.435  1.00  0.00    -0.268 OA 
HETATM   36  H2  UNL     1     -13.073   7.531  71.918  1.00  0.00     0.000 HD 
HETATM   37  N   UNL     1     -12.678   6.736  72.423  1.00  0.00    -0.509 N  
HETATM   38  H1  UNL     1     -13.251   5.930  72.674  1.00  0.00     0.000 HD 
ENDBRANCH  27  34
BRANCH  13  39
HETATM   39  N   UNL     1      -8.055   6.036  70.512  1.00  0.00    -0.110 NA 
HETATM   40  C   UNL     1      -8.593   4.886  71.244  1.00  0.00    -0.123 C  
HETATM   41  C   UNL     1      -6.606   6.101  70.691  1.00  0.00    -0.048 C  
ENDBRANCH  13  39
TORSDOF 5
ENDMDL
MODEL       37
REMARK 921   NORMALIZED FREE ENERGY PREDICTED BY IDOCK:   -5.45 KCAL/MOL
REMARK 922        TOTAL FREE ENERGY PREDICTED BY IDOCK:   -7.95 KCAL/MOL
REMARK 923 INTER-LIGAND FREE ENERGY PREDICTED BY IDOCK:   -7.84 KCAL/MOL
REMARK 924 INTRA-LIGAND FREE ENERGY PREDICTED BY IDOCK:   -0.11 KCAL/MOL
REMARK 927      BINDING AFFINITY PREDICTED BY RF-SCORE:    0.00 PKD
ROOT
HETATM    1  C   UNL     1     -10.740   9.911  68.712  1.00  0.00    -0.247 C  
HETATM    2  C   UNL     1      -9.924  10.925  67.916  1.00  0.00    -0.195 C  
HETATM    3  C   UNL     1     -10.648  12.218  67.707  1.00  0.00    -0.241 A  
HETATM    4  C   UNL     1     -10.392  12.993  66.546  1.00  0.00    -0.278 A  
HETATM    5  H   UNL     1      -7.160   5.434  70.952  1.00  0.00     0.000 HD 
HETATM    6  C   UNL     1     -11.034  14.233  66.417  1.00  0.00    -0.311 A  
HETATM    7  C   UNL     1      -9.810   8.746  68.974  1.00  0.00    -0.183 C  
HETATM    8  C   UNL     1     -11.895  14.703  67.406  1.00  0.00    -0.374 A  
HETATM    9  C   UNL     1     -10.429   7.618  69.811  1.00  0.00    -0.232 C  
HETATM   10  C   UNL     1     -12.119  13.948  68.559  1.00  0.00    -0.296 A  
HETATM   11  O   UNL     1      -7.774   5.609  71.656  1.00  0.00    -0.102 OA 
HETATM   12  O   UNL     1     -12.970  14.453  69.502  1.00  0.00    -0.411 OA 
HETATM   13  C   UNL     1      -9.241   6.599  69.989  1.00  0.00    -0.158 C  
HETATM   14  C   UNL     1     -11.500  12.700  68.733  1.00  0.00    -0.349 A  
HETATM   15  H   UNL     1     -13.122  13.939  70.286  1.00  0.00     0.000 HD 
HETATM   16  C   UNL     1     -11.680  11.905  70.002  1.00  0.00    -0.286 C  
HETATM   17  C   UNL     1     -11.266  10.455  70.002  1.00  0.00    -0.385 C  
HETATM   18  O   UNL     1     -12.125  12.385  71.043  1.00  0.00    -0.222 OA 
HETATM   19  C   UNL     1     -11.420   9.659  71.090  1.00  0.00    -0.384 C  
HETATM   20  C   UNL     1     -11.107   8.149  71.105  1.00  0.00    -0.245 C  
HETATM   21  O   UNL     1     -12.057  10.111  72.243  1.00  0.00     0.155 OA 
HETATM   22  H   UNL     1     -12.164   9.554  73.005  1.00  0.00     0.000 HD 
HETATM   23  C   UNL     1     -10.357   7.611  72.344  1.00  0.00    -0.238 C  
HETATM   24  O   UNL     1     -12.412   7.532  71.233  1.00  0.00    -0.328 OA 
HETATM   25  O   UNL     1     -10.007   8.293  73.308  1.00  0.00    -0.201 OA 
HETATM   26  H   UNL     1     -12.219   6.601  71.242  1.00  0.00     0.000 HD 
HETATM   27  C   UNL     1      -9.963   6.171  72.331  1.00  0.00    -0.187 C  
HETATM   28  C   UNL     1      -9.098   5.924  71.339  1.00  0.00    -0.140 C  
ENDROOT
BRANCH   4  29
HETATM   29  C   UNL     1      -9.436  12.560  65.434  1.00  0.00     0.106 C  
BRANCH  29  30
HETATM   30  N   UNL     1     -10.076  11.981  64.227  1.00  0.00    -0.297 NA 
HETATM   31  C   UNL     1     -10.639  10.656  64.513  1.00  0.00    -0.075 C  
BRANCH  30  32
HETATM   32  O   UNL     1     -11.244  12.862  64.030  1.00  0.00    -0.367 OA 
HETATM   33  C   UNL     1     -12.349  12.144  63.476  1.00  0.00    -0.574 C  
ENDBRANCH  30  32
ENDBRANCH  29  30
ENDBRANCH   4  29
BRANCH  27  34
HETATM   34  C   UNL     1     -10.932   5.039  72.439  1.00  0.00    -0.132 C  
HETATM   35  O   UNL     1     -10.782   3.955  71.882  1.00  0.00     0.126 OA 
HETATM   36  H2  UNL     1     -12.144   6.080  73.762  1.00  0.00     0.000 HD 
HETATM   37  N   UNL     1     -12.003   5.211  73.246  1.00  0.00    -0.421 N  
HETATM   38  H1  UNL     1     -12.665   4.438  73.320  1.00  0.00     0.000 HD 
ENDBRANCH  27  34
BRANCH  13  39
HETATM   39  N   UNL     1      -9.214   5.713  68.800  1.00  0.00    -0.117 NA 
HETATM   40  C   UNL     1      -9.229   4.280  69.108  1.00  0.00    -0.145 C  
HETATM   41  C   UNL     1      -8.105   6.012  67.897  1.00  0.00    -0.106 C  
ENDBRANCH  13  39
TORSDOF 5
ENDMDL
MODEL       38
REMARK 921   NORMALIZED FREE ENERGY PREDICTED BY IDOCK:   -5.40 KCAL/MOL
REMARK 922        TOTAL FREE ENERGY PREDICTED BY IDOCK:   -7.88 KCAL/MOL
REMARK 923 INTER-LIGAND FREE ENERGY PREDICTED BY IDOCK:   -6.72 KCAL/MOL
REMARK 924 INTRA-LIGAND FREE ENERGY PREDICTED BY IDOCK:   -1.17 KCAL/MOL
REMARK 927      BINDING AFFINITY PREDICTED BY RF-SCORE:    0.00 PKD
ROOT
HETATM    1  C   UNL     1      -9.406   8.605  66.891  1.00  0.00    -0.216 C  
HETATM    2  C   UNL     1     -10.742   9.165  67.370  1.00  0.00    -0.247 C  
HETATM    3  C   UNL     1     -10.846  10.648  67.197  1.00  0.00    -0.328 A  
HETATM    4  C   UNL     1     -11.642  11.410  68.091  1.00  0.00    -0.364 A  
HETATM    5  H   UNL     1      -9.714   2.517  66.045  1.00  0.00     0.000 HD 
HETATM    6  C   UNL     1     -11.776  12.787  67.856  1.00  0.00    -0.408 A  
HETATM    7  C   UNL     1      -9.533   7.099  66.978  1.00  0.00    -0.192 C  
HETATM    8  C   UNL     1     -11.154  13.394  66.769  1.00  0.00    -0.308 A  
HETATM    9  C   UNL     1      -8.297   6.330  66.492  1.00  0.00    -0.114 C  
HETATM   10  C   UNL     1     -10.397  12.632  65.877  1.00  0.00    -0.276 A  
HETATM   11  O   UNL     1      -9.187   2.821  65.316  1.00  0.00    -0.147 OA 
HETATM   12  O   UNL     1      -9.809  13.273  64.823  1.00  0.00    -0.578 OA 
HETATM   13  C   UNL     1      -8.729   4.822  66.621  1.00  0.00    -0.111 C  
HETATM   14  C   UNL     1     -10.233  11.251  66.070  1.00  0.00    -0.295 A  
HETATM   15  H   UNL     1      -9.294  12.754  64.216  1.00  0.00     0.000 HD 
HETATM   16  C   UNL     1      -9.474  10.405  65.079  1.00  0.00    -0.253 C  
HETATM   17  C   UNL     1      -9.059   9.016  65.495  1.00  0.00    -0.271 C  
HETATM   18  O   UNL     1      -9.198  10.780  63.941  1.00  0.00    -0.210 OA 
HETATM   19  C   UNL     1      -8.349   8.199  64.678  1.00  0.00    -0.079 C  
HETATM   20  C   UNL     1      -7.814   6.813  65.096  1.00  0.00    -0.119 C  
HETATM   21  O   UNL     1      -7.880   8.630  63.439  1.00  0.00    -0.135 OA 
HETATM   22  H   UNL     1      -7.383   8.057  62.866  1.00  0.00     0.000 HD 
HETATM   23  C   UNL     1      -7.974   5.672  64.066  1.00  0.00    -0.121 C  
HETATM   24  O   UNL     1      -6.377   7.001  65.139  1.00  0.00    -0.036 OA 
HETATM   25  O   UNL     1      -8.481   5.794  62.951  1.00  0.00    -0.090 OA 
HETATM   26  H   UNL     1      -6.049   6.147  65.397  1.00  0.00     0.000 HD 
HETATM   27  C   UNL     1      -7.549   4.305  64.493  1.00  0.00    -0.073 C  
HETATM   28  C   UNL     1      -8.291   3.876  65.520  1.00  0.00    -0.105 C  
ENDROOT
BRANCH   4  29
HETATM   29  C   UNL     1     -12.382  10.811  69.287  1.00  0.00     0.016 C  
BRANCH  29  30
HETATM   30  N   UNL     1     -11.770  11.068  70.615  1.00  0.00    -0.321 NA 
HETATM   31  C   UNL     1     -12.729  10.809  71.696  1.00  0.00    -0.414 C  
BRANCH  30  32
HETATM   32  O   UNL     1     -10.770   9.988  70.721  1.00  0.00    -0.303 OA 
HETATM   33  C   UNL     1     -11.385   8.737  71.037  1.00  0.00    -0.278 C  
ENDBRANCH  30  32
ENDBRANCH  29  30
ENDBRANCH   4  29
BRANCH  27  34
HETATM   34  C   UNL     1      -6.126   3.901  64.704  1.00  0.00    -0.023 C  
HETATM   35  O   UNL     1      -5.169   4.652  64.530  1.00  0.00    -0.012 OA 
HETATM   36  H2  UNL     1      -6.663   2.012  65.371  1.00  0.00     0.000 HD 
HETATM   37  N   UNL     1      -5.895   2.653  65.171  1.00  0.00    -0.017 N  
HETATM   38  H1  UNL     1      -4.923   2.378  65.316  1.00  0.00     0.000 HD 
ENDBRANCH  27  34
BRANCH  13  39
HETATM   39  N   UNL     1      -8.464   4.385  68.013  1.00  0.00    -0.094 NA 
HETATM   40  C   UNL     1      -7.168   3.728  68.209  1.00  0.00    -0.054 C  
HETATM   41  C   UNL     1      -9.529   3.545  68.556  1.00  0.00    -0.141 C  
ENDBRANCH  13  39
TORSDOF 5
ENDMDL
MODEL       39
REMARK 921   NORMALIZED FREE ENERGY PREDICTED BY IDOCK:   -5.38 KCAL/MOL
REMARK 922        TOTAL FREE ENERGY PREDICTED BY IDOCK:   -7.86 KCAL/MOL
REMARK 923 INTER-LIGAND FREE ENERGY PREDICTED BY IDOCK:   -7.19 KCAL/MOL
REMARK 924 INTRA-LIGAND FREE ENERGY PREDICTED BY IDOCK:   -0.67 KCAL/MOL
REMARK 927      BINDING AFFINITY PREDICTED BY RF-SCORE:    0.00 PKD
ROOT
HETATM    1  C   UNL     1      -9.593  12.887  68.215  1.00  0.00    -0.212 C  
HETATM    2  C   UNL     1     -10.585  13.618  69.115  1.00  0.00    -0.082 C  
HETATM    3  C   UNL     1     -10.491  15.107  68.995  1.00  0.00    -0.248 A  
HETATM    4  C   UNL     1     -10.810  15.928  70.107  1.00  0.00    -0.359 A  
HETATM    5  H   UNL     1     -11.173   6.983  67.489  1.00  0.00     0.000 HD 
HETATM    6  C   UNL     1     -10.782  17.320  69.938  1.00  0.00     0.380 A  
HETATM    7  C   UNL     1      -9.934  11.417  68.332  1.00  0.00    -0.206 C  
HETATM    8  C   UNL     1     -10.458  17.889  68.708  1.00  0.00    -0.217 A  
HETATM    9  C   UNL     1      -9.072  10.496  67.458  1.00  0.00    -0.144 C  
HETATM   10  C   UNL     1     -10.174  17.073  67.611  1.00  0.00    -0.317 A  
HETATM   11  O   UNL     1     -10.871   7.246  66.627  1.00  0.00    -0.220 OA 
HETATM   12  O   UNL     1      -9.866  17.677  66.424  1.00  0.00    -0.292 OA 
HETATM   13  C   UNL     1      -9.683   9.067  67.715  1.00  0.00    -0.156 C  
HETATM   14  C   UNL     1     -10.189  15.675  67.731  1.00  0.00    -0.252 A  
HETATM   15  H   UNL     1      -9.673  17.122  65.678  1.00  0.00     0.000 HD 
HETATM   16  C   UNL     1      -9.950  14.782  66.539  1.00  0.00    -0.271 C  
HETATM   17  C   UNL     1      -9.659  13.322  66.786  1.00  0.00    -0.258 C  
HETATM   18  O   UNL     1     -10.004  15.178  65.377  1.00  0.00    -0.344 OA 
HETATM   19  C   UNL     1      -9.403  12.456  65.774  1.00  0.00    -0.011 C  
HETATM   20  C   UNL     1      -9.000  10.982  65.983  1.00  0.00    -0.197 C  
HETATM   21  O   UNL     1      -9.302  12.883  64.452  1.00  0.00    -0.155 OA 
HETATM   22  H   UNL     1      -9.123  12.276  63.743  1.00  0.00     0.000 HD 
HETATM   23  C   UNL     1      -9.677   9.943  65.060  1.00  0.00    -0.288 C  
HETATM   24  O   UNL     1      -7.619  10.940  65.545  1.00  0.00    -0.337 OA 
HETATM   25  O   UNL     1     -10.494  10.210  64.178  1.00  0.00     0.172 OA 
HETATM   26  H   UNL     1      -7.371  10.032  65.674  1.00  0.00     0.000 HD 
HETATM   27  C   UNL     1      -9.370   8.504  65.313  1.00  0.00     0.156 C  
HETATM   28  C   UNL     1      -9.795   8.133  66.526  1.00  0.00    -0.239 C  
ENDROOT
BRANCH   4  29
HETATM   29  C   UNL     1     -11.206  15.380  71.478  1.00  0.00    -0.336 C  
BRANCH  29  30
HETATM   30  N   UNL     1     -12.554  15.770  71.961  1.00  0.00    -0.430 NA 
HETATM   31  C   UNL     1     -13.600  15.280  71.056  1.00  0.00    -0.419 C  
BRANCH  30  32
HETATM   32  O   UNL     1     -12.699  14.965  73.190  1.00  0.00    -0.430 OA 
HETATM   33  C   UNL     1     -12.474  15.756  74.359  1.00  0.00    -0.638 C  
ENDBRANCH  30  32
ENDBRANCH  29  30
ENDBRANCH   4  29
BRANCH  27  34
HETATM   34  C   UNL     1      -8.045   7.871  65.036  1.00  0.00    -0.144 C  
HETATM   35  O   UNL     1      -7.023   8.120  65.670  1.00  0.00    -0.064 OA 
HETATM   36  H2  UNL     1      -8.829   6.661  63.543  1.00  0.00     0.000 HD 
HETATM   37  N   UNL     1      -7.994   6.930  64.066  1.00  0.00    -0.227 N  
HETATM   38  H1  UNL     1      -7.089   6.498  63.877  1.00  0.00     0.000 HD 
ENDBRANCH  27  34
BRANCH  13  39
HETATM   39  N   UNL     1      -9.053   8.512  68.937  1.00  0.00    -0.146 NA 
HETATM   40  C   UNL     1      -9.906   8.542  70.128  1.00  0.00    -0.178 C  
HETATM   41  C   UNL     1      -7.763   9.127  69.239  1.00  0.00    -0.080 C  
ENDBRANCH  13  39
TORSDOF 5
ENDMDL
MODEL       40
REMARK 921   NORMALIZED FREE ENERGY PREDICTED BY IDOCK:   -5.37 KCAL/MOL
REMARK 922        TOTAL FREE ENERGY PREDICTED BY IDOCK:   -7.84 KCAL/MOL
REMARK 923 INTER-LIGAND FREE ENERGY PREDICTED BY IDOCK:   -7.66 KCAL/MOL
REMARK 924 INTRA-LIGAND FREE ENERGY PREDICTED BY IDOCK:   -0.18 KCAL/MOL
REMARK 927      BINDING AFFINITY PREDICTED BY RF-SCORE:    0.00 PKD
ROOT
HETATM    1  C   UNL     1     -10.983   9.082  69.302  1.00  0.00    -0.052 C  
HETATM    2  C   UNL     1     -10.517   8.232  70.481  1.00  0.00    -0.225 C  
HETATM    3  C   UNL     1     -10.309   6.796  70.115  1.00  0.00    -0.228 A  
HETATM    4  C   UNL     1     -10.503   5.783  71.089  1.00  0.00    -0.301 A  
HETATM    5  H   UNL     1     -10.165  15.079  70.415  1.00  0.00     0.000 HD 
HETATM    6  C   UNL     1     -10.229   4.454  70.733  1.00  0.00    -0.106 A  
HETATM    7  C   UNL     1     -10.980  10.512  69.796  1.00  0.00    -0.350 C  
HETATM    8  C   UNL     1      -9.767   4.132  69.459  1.00  0.00    -0.254 A  
HETATM    9  C   UNL     1     -11.380  11.549  68.738  1.00  0.00    -0.327 C  
HETATM   10  C   UNL     1      -9.551   5.138  68.516  1.00  0.00    -0.140 A  
HETATM   11  O   UNL     1      -9.924  14.982  69.501  1.00  0.00    -0.205 OA 
HETATM   12  O   UNL     1      -9.094   4.772  67.281  1.00  0.00    -0.114 OA 
HETATM   13  C   UNL     1     -11.218  12.923  69.490  1.00  0.00    -0.074 C  
HETATM   14  C   UNL     1      -9.811   6.482  68.825  1.00  0.00    -0.146 A  
HETATM   15  H   UNL     1      -8.946   5.457  66.639  1.00  0.00     0.000 HD 
HETATM   16  C   UNL     1      -9.519   7.586  67.839  1.00  0.00    -0.141 C  
HETATM   17  C   UNL     1     -10.111   8.949  68.095  1.00  0.00    -0.227 C  
HETATM   18  O   UNL     1      -8.803   7.436  66.851  1.00  0.00    -0.124 OA 
HETATM   19  C   UNL     1      -9.923   9.989  67.245  1.00  0.00    -0.197 C  
HETATM   20  C   UNL     1     -10.591  11.369  67.411  1.00  0.00    -0.218 C  
HETATM   21  O   UNL     1      -9.248   9.834  66.036  1.00  0.00    -0.158 OA 
HETATM   22  H   UNL     1      -9.116  10.563  65.441  1.00  0.00     0.000 HD 
HETATM   23  C   UNL     1      -9.695  12.605  67.167  1.00  0.00    -0.211 C  
HETATM   24  O   UNL     1     -11.524  11.432  66.303  1.00  0.00    -0.311 OA 
HETATM   25  O   UNL     1      -8.507  12.562  66.845  1.00  0.00    -0.186 OA 
HETATM   26  H   UNL     1     -11.935  12.283  66.405  1.00  0.00     0.000 HD 
HETATM   27  C   UNL     1     -10.301  13.947  67.416  1.00  0.00    -0.252 C  
HETATM   28  C   UNL     1     -10.639  14.083  68.704  1.00  0.00    -0.257 C  
ENDROOT
BRANCH   4  29
HETATM   29  C   UNL     1     -10.975   6.060  72.516  1.00  0.00    -0.260 C  
BRANCH  29  30
HETATM   30  N   UNL     1     -10.038   5.654  73.593  1.00  0.00    -0.184 NA 
HETATM   31  C   UNL     1      -9.739   6.781  74.485  1.00  0.00    -0.238 C  
BRANCH  30  32
HETATM   32  O   UNL     1     -10.859   4.731  74.401  1.00  0.00    -0.344 OA 
HETATM   33  C   UNL     1     -10.435   3.376  74.235  1.00  0.00    -0.199 C  
ENDBRANCH  30  32
ENDBRANCH  29  30
ENDBRANCH   4  29
BRANCH  27  34
HETATM   34  C   UNL     1     -11.360  14.558  66.556  1.00  0.00    -0.352 C  
HETATM   35  O   UNL     1     -11.128  15.161  65.512  1.00  0.00    -0.336 OA 
HETATM   36  H2  UNL     1     -12.886  13.847  67.769  1.00  0.00     0.000 HD 
HETATM   37  N   UNL     1     -12.647  14.379  66.931  1.00  0.00    -0.437 N  
HETATM   38  H1  UNL     1     -13.370  14.796  66.344  1.00  0.00     0.000 HD 
ENDBRANCH  27  34
BRANCH  13  39
HETATM   39  N   UNL     1     -12.472  13.189  70.236  1.00  0.00    -0.217 NA 
HETATM   40  C   UNL     1     -12.824  14.607  70.348  1.00  0.00    -0.270 C  
HETATM   41  C   UNL     1     -12.483  12.572  71.561  1.00  0.00    -0.017 C  
ENDBRANCH  13  39
TORSDOF 5
ENDMDL
MODEL       41
REMARK 921   NORMALIZED FREE ENERGY PREDICTED BY IDOCK:   -5.35 KCAL/MOL
REMARK 922        TOTAL FREE ENERGY PREDICTED BY IDOCK:   -7.82 KCAL/MOL
REMARK 923 INTER-LIGAND FREE ENERGY PREDICTED BY IDOCK:   -7.06 KCAL/MOL
REMARK 924 INTRA-LIGAND FREE ENERGY PREDICTED BY IDOCK:   -0.76 KCAL/MOL
REMARK 927      BINDING AFFINITY PREDICTED BY RF-SCORE:    0.00 PKD
ROOT
HETATM    1  C   UNL     1     -10.353   7.942  67.925  1.00  0.00    -0.281 C  
HETATM    2  C   UNL     1      -9.980   7.312  69.264  1.00  0.00    -0.170 C  
HETATM    3  C   UNL     1      -9.790   5.830  69.177  1.00  0.00    -0.211 A  
HETATM    4  C   UNL     1     -10.069   5.014  70.304  1.00  0.00    -0.339 A  
HETATM    5  H   UNL     1      -9.435  14.027  67.989  1.00  0.00     0.000 HD 
HETATM    6  C   UNL     1      -9.811   3.638  70.210  1.00  0.00    -0.089 A  
HETATM    7  C   UNL     1     -10.339   9.438  68.153  1.00  0.00    -0.255 C  
HETATM    8  C   UNL     1      -9.286   3.083  69.047  1.00  0.00    -0.222 A  
HETATM    9  C   UNL     1     -10.648  10.272  66.902  1.00  0.00    -0.282 C  
HETATM   10  C   UNL     1      -8.987   3.897  67.953  1.00  0.00    -0.125 A  
HETATM   11  O   UNL     1      -9.145  13.762  67.124  1.00  0.00    -0.220 OA 
HETATM   12  O   UNL     1      -8.469   3.306  66.835  1.00  0.00    -0.095 OA 
HETATM   13  C   UNL     1     -10.492  11.757  67.403  1.00  0.00    -0.211 C  
HETATM   14  C   UNL     1      -9.228   5.279  67.998  1.00  0.00    -0.125 A  
HETATM   15  H   UNL     1      -8.266   3.860  66.090  1.00  0.00     0.000 HD 
HETATM   16  C   UNL     1      -8.848   6.180  66.849  1.00  0.00    -0.117 C  
HETATM   17  C   UNL     1      -9.416   7.577  66.818  1.00  0.00    -0.230 C  
HETATM   18  O   UNL     1      -8.080   5.842  65.951  1.00  0.00    -0.108 OA 
HETATM   19  C   UNL     1      -9.151   8.443  65.808  1.00  0.00    -0.139 C  
HETATM   20  C   UNL     1      -9.789   9.841  65.681  1.00  0.00    -0.301 C  
HETATM   21  O   UNL     1      -8.412   8.060  64.691  1.00  0.00    -0.331 OA 
HETATM   22  H   UNL     1      -8.225   8.666  63.984  1.00  0.00     0.000 HD 
HETATM   23  C   UNL     1      -8.846  10.996  65.275  1.00  0.00    -0.129 C  
HETATM   24  O   UNL     1     -10.654   9.717  64.524  1.00  0.00     0.128 OA 
HETATM   25  O   UNL     1      -7.643  10.876  65.040  1.00  0.00     0.085 OA 
HETATM   26  H   UNL     1     -11.047  10.579  64.446  1.00  0.00     0.000 HD 
HETATM   27  C   UNL     1      -9.429  12.371  65.240  1.00  0.00     0.098 C  
HETATM   28  C   UNL     1      -9.837  12.745  66.459  1.00  0.00    -0.258 C  
ENDROOT
BRANCH   4  29
HETATM   29  C   UNL     1     -10.615   5.554  71.626  1.00  0.00    -0.231 C  
BRANCH  29  30
HETATM   30  N   UNL     1      -9.601   5.842  72.670  1.00  0.00    -0.153 NA 
HETATM   31  C   UNL     1      -9.540   7.279  72.963  1.00  0.00    -0.175 C  
BRANCH  30  32
HETATM   32  O   UNL     1     -10.196   5.228  73.873  1.00  0.00    -0.190 OA 
HETATM   33  C   UNL     1     -11.357   4.462  73.545  1.00  0.00    -0.245 C  
ENDBRANCH  30  32
ENDBRANCH  29  30
ENDBRANCH   4  29
BRANCH  27  34
HETATM   34  C   UNL     1     -10.418  12.834  64.220  1.00  0.00    -0.399 C  
HETATM   35  O   UNL     1     -11.081  13.862  64.328  1.00  0.00    -0.351 OA 
HETATM   36  H2  UNL     1      -9.977  11.260  62.942  1.00  0.00     0.000 HD 
HETATM   37  N   UNL     1     -10.540  12.098  63.092  1.00  0.00    -0.609 N  
HETATM   38  H1  UNL     1     -11.216  12.414  62.395  1.00  0.00     0.000 HD 
ENDBRANCH  27  34
BRANCH  13  39
HETATM   39  N   UNL     1     -11.779  12.174  68.010  1.00  0.00    -0.394 NA 
HETATM   40  C   UNL     1     -12.381  13.365  67.402  1.00  0.00    -0.065 C  
HETATM   41  C   UNL     1     -11.691  12.351  69.458  1.00  0.00    -0.322 C  
ENDBRANCH  13  39
TORSDOF 5
ENDMDL
MODEL       42
REMARK 921   NORMALIZED FREE ENERGY PREDICTED BY IDOCK:   -5.34 KCAL/MOL
REMARK 922        TOTAL FREE ENERGY PREDICTED BY IDOCK:   -7.81 KCAL/MOL
REMARK 923 INTER-LIGAND FREE ENERGY PREDICTED BY IDOCK:   -6.79 KCAL/MOL
REMARK 924 INTRA-LIGAND FREE ENERGY PREDICTED BY IDOCK:   -1.02 KCAL/MOL
REMARK 927      BINDING AFFINITY PREDICTED BY RF-SCORE:    0.00 PKD
ROOT
HETATM    1  C   UNL     1     -10.255   7.843  67.286  1.00  0.00    -0.343 C  
HETATM    2  C   UNL     1     -10.060   9.353  67.186  1.00  0.00    -0.292 C  
HETATM    3  C   UNL     1     -10.788  10.105  68.255  1.00  0.00    -0.297 A  
HETATM    4  C   UNL     1     -11.258  11.420  68.000  1.00  0.00    -0.346 A  
HETATM    5  H   UNL     1      -5.984   4.821  64.046  1.00  0.00     0.000 HD 
HETATM    6  C   UNL     1     -11.872  12.124  69.047  1.00  0.00    -0.361 A  
HETATM    7  C   UNL     1      -9.330   7.236  66.254  1.00  0.00    -0.160 C  
HETATM    8  C   UNL     1     -12.011  11.555  70.310  1.00  0.00    -0.455 A  
HETATM    9  C   UNL     1      -9.339   5.702  66.219  1.00  0.00    -0.169 C  
HETATM   10  C   UNL     1     -11.520  10.272  70.561  1.00  0.00    -0.343 A  
HETATM   11  O   UNL     1      -6.081   4.301  64.836  1.00  0.00    -0.022 OA 
HETATM   12  O   UNL     1     -11.678   9.759  71.818  1.00  0.00    -0.369 OA 
HETATM   13  C   UNL     1      -8.254   5.352  65.133  1.00  0.00    -0.138 C  
HETATM   14  C   UNL     1     -10.899   9.529  69.546  1.00  0.00    -0.243 A  
HETATM   15  H   UNL     1     -11.343   8.886  71.989  1.00  0.00     0.000 HD 
HETATM   16  C   UNL     1     -10.305   8.169  69.820  1.00  0.00    -0.216 C  
HETATM   17  C   UNL     1      -9.948   7.295  68.643  1.00  0.00    -0.169 C  
HETATM   18  O   UNL     1     -10.074   7.749  70.951  1.00  0.00    -0.187 OA 
HETATM   19  C   UNL     1      -9.437   6.048  68.800  1.00  0.00    -0.125 C  
HETATM   20  C   UNL     1      -9.154   5.080  67.632  1.00  0.00    -0.113 C  
HETATM   21  O   UNL     1      -9.298   5.466  70.057  1.00  0.00    -0.139 OA 
HETATM   22  H   UNL     1      -8.940   4.592  70.166  1.00  0.00     0.000 HD 
HETATM   23  C   UNL     1      -7.820   4.302  67.688  1.00  0.00    -0.088 C  
HETATM   24  O   UNL     1     -10.139   4.032  67.812  1.00  0.00    -0.002 OA 
HETATM   25  O   UNL     1      -6.987   4.394  68.590  1.00  0.00    -0.050 OA 
HETATM   26  H   UNL     1      -9.964   3.436  67.093  1.00  0.00     0.000 HD 
HETATM   27  C   UNL     1      -7.488   3.434  66.519  1.00  0.00    -0.076 C  
HETATM   28  C   UNL     1      -7.351   4.166  65.407  1.00  0.00    -0.072 C  
ENDROOT
BRANCH   4  29
HETATM   29  C   UNL     1     -11.112  12.124  66.651  1.00  0.00    -0.306 C  
BRANCH  29  30
HETATM   30  N   UNL     1     -10.878  13.588  66.712  1.00  0.00    -0.281 NA 
HETATM   31  C   UNL     1      -9.450  13.887  66.872  1.00  0.00    -0.258 C  
BRANCH  30  32
HETATM   32  O   UNL     1     -11.212  14.023  65.342  1.00  0.00    -0.306 OA 
HETATM   33  C   UNL     1     -12.409  13.399  64.874  1.00  0.00    -0.412 C  
ENDBRANCH  30  32
ENDBRANCH  29  30
ENDBRANCH   4  29
BRANCH  27  34
HETATM   34  C   UNL     1      -8.204   2.163  66.192  1.00  0.00    -0.089 C  
HETATM   35  O   UNL     1      -9.139   1.717  66.852  1.00  0.00    -0.121 OA 
HETATM   36  H2  UNL     1      -7.086   1.866  64.470  1.00  0.00     0.000 HD 
HETATM   37  N   UNL     1      -7.829   1.507  65.071  1.00  0.00    -0.067 N  
HETATM   38  H1  UNL     1      -8.318   0.640  64.848  1.00  0.00     0.000 HD 
ENDBRANCH  27  34
BRANCH  13  39
HETATM   39  N   UNL     1      -8.906   5.395  63.802  1.00  0.00     0.066 NA 
HETATM   40  C   UNL     1      -9.395   4.099  63.323  1.00  0.00    -0.140 C  
HETATM   41  C   UNL     1      -8.066   6.014  62.779  1.00  0.00    -0.097 C  
ENDBRANCH  13  39
TORSDOF 5
ENDMDL
MODEL       43
REMARK 921   NORMALIZED FREE ENERGY PREDICTED BY IDOCK:   -5.24 KCAL/MOL
REMARK 922        TOTAL FREE ENERGY PREDICTED BY IDOCK:   -7.67 KCAL/MOL
REMARK 923 INTER-LIGAND FREE ENERGY PREDICTED BY IDOCK:   -7.01 KCAL/MOL
REMARK 924 INTRA-LIGAND FREE ENERGY PREDICTED BY IDOCK:   -0.67 KCAL/MOL
REMARK 927      BINDING AFFINITY PREDICTED BY RF-SCORE:    0.00 PKD
ROOT
HETATM    1  C   UNL     1      -9.025  11.575  68.446  1.00  0.00    -0.173 C  
HETATM    2  C   UNL     1      -8.762  10.293  67.661  1.00  0.00    -0.121 C  
HETATM    3  C   UNL     1      -9.225   9.066  68.382  1.00  0.00    -0.137 A  
HETATM    4  C   UNL     1      -8.555   7.831  68.178  1.00  0.00    -0.123 A  
HETATM    5  H   UNL     1      -8.702  16.526  64.804  1.00  0.00     0.000 HD 
HETATM    6  C   UNL     1      -9.060   6.686  68.812  1.00  0.00    -0.131 A  
HETATM    7  C   UNL     1      -8.659  12.712  67.517  1.00  0.00    -0.185 C  
HETATM    8  C   UNL     1     -10.195   6.751  69.615  1.00  0.00    -0.207 A  
HETATM    9  C   UNL     1      -8.895  14.111  68.103  1.00  0.00    -0.183 C  
HETATM   10  C   UNL     1     -10.866   7.964  69.786  1.00  0.00    -0.202 A  
HETATM   11  O   UNL     1      -9.436  16.713  65.378  1.00  0.00    -0.413 OA 
HETATM   12  O   UNL     1     -11.978   7.976  70.580  1.00  0.00    -0.466 OA 
HETATM   13  C   UNL     1      -8.511  15.075  66.919  1.00  0.00    -0.236 C  
HETATM   14  C   UNL     1     -10.399   9.136  69.173  1.00  0.00    -0.223 A  
HETATM   15  H   UNL     1     -12.434   8.801  70.697  1.00  0.00     0.000 HD 
HETATM   16  C   UNL     1     -11.150  10.439  69.295  1.00  0.00    -0.253 C  
HETATM   17  C   UNL     1     -10.444  11.711  68.897  1.00  0.00    -0.201 C  
HETATM   18  O   UNL     1     -12.315  10.513  69.679  1.00  0.00    -0.225 OA 
HETATM   19  C   UNL     1     -11.035  12.928  69.003  1.00  0.00    -0.197 C  
HETATM   20  C   UNL     1     -10.320  14.262  68.707  1.00  0.00    -0.239 C  
HETATM   21  O   UNL     1     -12.296  13.083  69.574  1.00  0.00    -0.178 OA 
HETATM   22  H   UNL     1     -12.710  13.935  69.648  1.00  0.00     0.000 HD 
HETATM   23  C   UNL     1     -11.119  15.310  67.899  1.00  0.00    -0.321 C  
HETATM   24  O   UNL     1     -10.209  14.887  70.010  1.00  0.00    -0.459 OA 
HETATM   25  O   UNL     1     -12.271  15.158  67.491  1.00  0.00     0.027 OA 
HETATM   26  H   UNL     1      -9.768  15.708  69.827  1.00  0.00     0.000 HD 
HETATM   27  C   UNL     1     -10.407  16.567  67.522  1.00  0.00    -0.294 C  
HETATM   28  C   UNL     1      -9.373  16.304  66.714  1.00  0.00    -0.237 C  
ENDROOT
BRANCH   4  29
HETATM   29  C   UNL     1      -7.323   7.674  67.286  1.00  0.00    -0.091 C  
BRANCH  29  30
HETATM   30  N   UNL     1      -7.598   7.427  65.849  1.00  0.00    -0.086 NA 
HETATM   31  C   UNL     1      -6.858   8.369  65.001  1.00  0.00    -0.067 C  
BRANCH  30  32
HETATM   32  O   UNL     1      -6.956   6.117  65.621  1.00  0.00    -0.054 OA 
HETATM   33  C   UNL     1      -7.923   5.066  65.569  1.00  0.00    -0.104 C  
ENDBRANCH  30  32
ENDBRANCH  29  30
ENDBRANCH   4  29
BRANCH  27  34
HETATM   34  C   UNL     1     -10.018  17.631  68.497  1.00  0.00    -0.368 C  
HETATM   35  O   UNL     1     -10.398  17.660  69.664  1.00  0.00    -0.097 OA 
HETATM   36  H2  UNL     1      -8.777  18.567  67.123  1.00  0.00     0.000 HD 
HETATM   37  N   UNL     1      -9.151  18.578  68.073  1.00  0.00    -0.293 N  
HETATM   38  H1  UNL     1      -8.886  19.304  68.739  1.00  0.00     0.000 HD 
ENDBRANCH  27  34
BRANCH  13  39
HETATM   39  N   UNL     1      -7.044  15.295  66.964  1.00  0.00    -0.197 NA 
HETATM   40  C   UNL     1      -6.411  14.914  68.230  1.00  0.00    -0.118 C  
HETATM   41  C   UNL     1      -6.666  16.662  66.616  1.00  0.00    -0.157 C  
ENDBRANCH  13  39
TORSDOF 5
ENDMDL
MODEL       44
REMARK 921   NORMALIZED FREE ENERGY PREDICTED BY IDOCK:   -5.23 KCAL/MOL
REMARK 922        TOTAL FREE ENERGY PREDICTED BY IDOCK:   -7.66 KCAL/MOL
REMARK 923 INTER-LIGAND FREE ENERGY PREDICTED BY IDOCK:   -7.63 KCAL/MOL
REMARK 924 INTRA-LIGAND FREE ENERGY PREDICTED BY IDOCK:   -0.03 KCAL/MOL
REMARK 927      BINDING AFFINITY PREDICTED BY RF-SCORE:    0.00 PKD
ROOT
HETATM    1  C   UNL     1      -9.546  10.205  68.550  1.00  0.00    -0.158 C  
HETATM    2  C   UNL     1     -10.300   9.203  69.420  1.00  0.00    -0.220 C  
HETATM    3  C   UNL     1      -9.414   8.134  69.976  1.00  0.00    -0.167 A  
HETATM    4  C   UNL     1      -9.942   6.843  70.237  1.00  0.00    -0.189 A  
HETATM    5  H   UNL     1     -12.802  15.367  67.757  1.00  0.00     0.000 HD 
HETATM    6  C   UNL     1      -9.102   5.886  70.826  1.00  0.00    -0.163 A  
HETATM    7  C   UNL     1     -10.541  11.295  68.215  1.00  0.00    -0.228 C  
HETATM    8  C   UNL     1      -7.785   6.192  71.158  1.00  0.00    -0.106 A  
HETATM    9  C   UNL     1      -9.966  12.441  67.373  1.00  0.00    -0.203 C  
HETATM   10  C   UNL     1      -7.282   7.474  70.925  1.00  0.00    -0.067 A  
HETATM   11  O   UNL     1     -11.911  15.675  67.871  1.00  0.00    -0.205 OA 
HETATM   12  O   UNL     1      -5.984   7.727  71.272  1.00  0.00    -0.035 OA 
HETATM   13  C   UNL     1     -11.172  13.445  67.244  1.00  0.00    -0.295 C  
HETATM   14  C   UNL     1      -8.084   8.464  70.337  1.00  0.00    -0.109 A  
HETATM   15  H   UNL     1      -5.642   8.599  71.113  1.00  0.00     0.000 HD 
HETATM   16  C   UNL     1      -7.574   9.871  70.141  1.00  0.00    -0.175 C  
HETATM   17  C   UNL     1      -8.346  10.789  69.226  1.00  0.00    -0.072 C  
HETATM   18  O   UNL     1      -6.578  10.314  70.707  1.00  0.00    -0.302 OA 
HETATM   19  C   UNL     1      -7.943  12.059  68.970  1.00  0.00     0.179 C  
HETATM   20  C   UNL     1      -8.640  12.998  67.965  1.00  0.00    -0.186 C  
HETATM   21  O   UNL     1      -6.742  12.560  69.465  1.00  0.00    -0.268 OA 
HETATM   22  H   UNL     1      -6.460  13.450  69.286  1.00  0.00     0.000 HD 
HETATM   23  C   UNL     1      -8.847  14.462  68.415  1.00  0.00    -0.182 C  
HETATM   24  O   UNL     1      -7.672  13.131  66.894  1.00  0.00    -0.390 OA 
HETATM   25  O   UNL     1      -8.490  14.924  69.500  1.00  0.00    -0.124 OA 
HETATM   26  H   UNL     1      -8.102  13.709  66.275  1.00  0.00     0.000 HD 
HETATM   27  C   UNL     1      -9.604  15.359  67.492  1.00  0.00    -0.206 C  
HETATM   28  C   UNL     1     -10.860  14.925  67.333  1.00  0.00    -0.304 C  
ENDROOT
BRANCH   4  29
HETATM   29  C   UNL     1     -11.385   6.441  69.932  1.00  0.00    -0.434 C  
BRANCH  29  30
HETATM   30  N   UNL     1     -12.332   6.534  71.070  1.00  0.00    -0.216 NA 
HETATM   31  C   UNL     1     -11.657   6.247  72.342  1.00  0.00    -0.282 C  
BRANCH  30  32
HETATM   32  O   UNL     1     -12.639   7.977  71.114  1.00  0.00    -0.268 OA 
HETATM   33  C   UNL     1     -13.877   8.225  71.785  1.00  0.00    -0.396 C  
ENDBRANCH  30  32
ENDBRANCH  29  30
ENDBRANCH   4  29
BRANCH  27  34
HETATM   34  C   UNL     1      -9.077  15.847  66.182  1.00  0.00    -0.350 C  
HETATM   35  O   UNL     1      -9.767  15.986  65.176  1.00  0.00    -0.345 OA 
HETATM   36  H2  UNL     1      -7.175  16.151  66.955  1.00  0.00     0.000 HD 
HETATM   37  N   UNL     1      -7.774  16.209  66.131  1.00  0.00    -0.034 N  
HETATM   38  H1  UNL     1      -7.414  16.543  65.236  1.00  0.00     0.000 HD 
ENDBRANCH  27  34
BRANCH  13  39
HETATM   39  N   UNL     1     -12.009  13.011  66.099  1.00  0.00    -0.414 NA 
HETATM   40  C   UNL     1     -11.256  12.450  64.974  1.00  0.00    -0.312 C  
HETATM   41  C   UNL     1     -12.901  14.065  65.619  1.00  0.00    -0.406 C  
ENDBRANCH  13  39
TORSDOF 5
ENDMDL
MODEL       45
REMARK 921   NORMALIZED FREE ENERGY PREDICTED BY IDOCK:   -5.20 KCAL/MOL
REMARK 922        TOTAL FREE ENERGY PREDICTED BY IDOCK:   -7.62 KCAL/MOL
REMARK 923 INTER-LIGAND FREE ENERGY PREDICTED BY IDOCK:   -8.32 KCAL/MOL
REMARK 924 INTRA-LIGAND FREE ENERGY PREDICTED BY IDOCK:    0.70 KCAL/MOL
REMARK 927      BINDING AFFINITY PREDICTED BY RF-SCORE:    0.00 PKD
ROOT
HETATM    1  C   UNL     1     -11.299  10.394  68.275  1.00  0.00    -0.292 C  
HETATM    2  C   UNL     1     -10.621   9.865  69.535  1.00  0.00    -0.264 C  
HETATM    3  C   UNL     1     -10.663   8.373  69.635  1.00  0.00    -0.201 A  
HETATM    4  C   UNL     1     -10.688   7.750  70.909  1.00  0.00    -0.229 A  
HETATM    5  H   UNL     1      -9.615  16.196  67.103  1.00  0.00     0.000 HD 
HETATM    6  C   UNL     1     -10.655   6.348  70.968  1.00  0.00    -0.282 A  
HETATM    7  C   UNL     1     -11.020  11.882  68.248  1.00  0.00    -0.273 C  
HETATM    8  C   UNL     1     -10.589   5.582  69.807  1.00  0.00    -0.388 A  
HETATM    9  C   UNL     1     -11.585  12.610  67.020  1.00  0.00    -0.431 C  
HETATM   10  C   UNL     1     -10.534   6.204  68.557  1.00  0.00    -0.237 A  
HETATM   11  O   UNL     1      -9.640  15.789  66.244  1.00  0.00    -0.264 OA 
HETATM   12  O   UNL     1     -10.466   5.409  67.448  1.00  0.00    -0.215 OA 
HETATM   13  C   UNL     1     -11.089  14.092  67.212  1.00  0.00    -0.302 C  
HETATM   14  C   UNL     1     -10.566   7.603  68.449  1.00  0.00    -0.166 A  
HETATM   15  H   UNL     1     -10.429   5.832  66.598  1.00  0.00     0.000 HD 
HETATM   16  C   UNL     1     -10.441   8.289  67.111  1.00  0.00    -0.316 C  
HETATM   17  C   UNL     1     -10.803   9.750  67.020  1.00  0.00    -0.165 C  
HETATM   18  O   UNL     1     -10.036   7.724  66.097  1.00  0.00    -0.015 OA 
HETATM   19  C   UNL     1     -10.748  10.437  65.851  1.00  0.00     0.047 C  
HETATM   20  C   UNL     1     -11.204  11.901  65.689  1.00  0.00    -0.306 C  
HETATM   21  O   UNL     1     -10.443   9.808  64.647  1.00  0.00    -0.100 OA 
HETATM   22  H   UNL     1     -10.403  10.289  63.828  1.00  0.00     0.000 HD 
HETATM   23  C   UNL     1     -10.288  12.822  64.853  1.00  0.00    -0.309 C  
HETATM   24  O   UNL     1     -12.390  11.799  64.861  1.00  0.00    -0.210 OA 
HETATM   25  O   UNL     1      -9.241  12.470  64.308  1.00  0.00     0.461 OA 
HETATM   26  H   UNL     1     -12.671  12.701  64.762  1.00  0.00     0.000 HD 
HETATM   27  C   UNL     1     -10.667  14.264  64.766  1.00  0.00    -0.435 C  
HETATM   28  C   UNL     1     -10.630  14.838  65.975  1.00  0.00    -0.312 C  
ENDROOT
BRANCH   4  29
HETATM   29  C   UNL     1     -10.728   8.522  72.228  1.00  0.00    -0.341 C  
BRANCH  29  30
HETATM   30  N   UNL     1     -12.070   8.673  72.843  1.00  0.00    -0.131 NA 
HETATM   31  C   UNL     1     -12.710   9.923  72.413  1.00  0.00    -0.062 C  
BRANCH  30  32
HETATM   32  O   UNL     1     -12.845   7.600  72.191  1.00  0.00    -0.241 OA 
HETATM   33  C   UNL     1     -14.251   7.831  72.301  1.00  0.00    -0.107 C  
ENDBRANCH  30  32
ENDBRANCH  29  30
ENDBRANCH   4  29
BRANCH  27  34
HETATM   34  C   UNL     1     -11.851  14.773  64.010  1.00  0.00    -0.071 C  
HETATM   35  O   UNL     1     -12.324  15.897  64.155  1.00  0.00    -0.634 OA 
HETATM   36  H2  UNL     1     -12.001  13.033  62.890  1.00  0.00     0.000 HD 
HETATM   37  N   UNL     1     -12.389  13.958  63.074  1.00  0.00    -1.023 N  
HETATM   38  H1  UNL     1     -13.198  14.306  62.557  1.00  0.00     0.000 HD 
ENDBRANCH  27  34
BRANCH  13  39
HETATM   39  N   UNL     1     -12.062  14.792  68.085  1.00  0.00    -0.209 NA 
HETATM   40  C   UNL     1     -11.682  16.161  68.444  1.00  0.00    -0.126 C  
HETATM   41  C   UNL     1     -12.383  14.036  69.294  1.00  0.00    -0.171 C  
ENDBRANCH  13  39
TORSDOF 5
ENDMDL
MODEL       46
REMARK 921   NORMALIZED FREE ENERGY PREDICTED BY IDOCK:   -5.10 KCAL/MOL
REMARK 922        TOTAL FREE ENERGY PREDICTED BY IDOCK:   -7.50 KCAL/MOL
REMARK 923 INTER-LIGAND FREE ENERGY PREDICTED BY IDOCK:   -6.69 KCAL/MOL
REMARK 924 INTRA-LIGAND FREE ENERGY PREDICTED BY IDOCK:   -0.81 KCAL/MOL
REMARK 927      BINDING AFFINITY PREDICTED BY RF-SCORE:    0.00 PKD
ROOT
HETATM    1  C   UNL     1      -8.868   7.874  69.800  1.00  0.00    -0.141 C  
HETATM    2  C   UNL     1      -8.969   6.359  69.954  1.00  0.00    -0.142 C  
HETATM    3  C   UNL     1      -9.232   5.935  71.365  1.00  0.00    -0.158 A  
HETATM    4  C   UNL     1      -8.750   4.684  71.829  1.00  0.00    -0.134 A  
HETATM    5  H   UNL     1      -9.505   9.564  63.917  1.00  0.00     0.000 HD 
HETATM    6  C   UNL     1      -9.077   4.285  73.134  1.00  0.00    -0.119 A  
HETATM    7  C   UNL     1      -8.773   8.133  68.312  1.00  0.00    -0.133 C  
HETATM    8  C   UNL     1      -9.863   5.089  73.955  1.00  0.00    -0.182 A  
HETATM    9  C   UNL     1      -8.707   9.618  67.931  1.00  0.00    -0.119 C  
HETATM   10  C   UNL     1     -10.358   6.306  73.481  1.00  0.00    -0.255 A  
HETATM   11  O   UNL     1      -9.986  10.228  64.398  1.00  0.00    -0.335 OA 
HETATM   12  O   UNL     1     -11.129   7.057  74.323  1.00  0.00    -0.186 OA 
HETATM   13  C   UNL     1      -8.692   9.593  66.357  1.00  0.00    -0.134 C  
HETATM   14  C   UNL     1     -10.058   6.747  72.183  1.00  0.00    -0.198 A  
HETATM   15  H   UNL     1     -11.466   7.885  74.000  1.00  0.00     0.000 HD 
HETATM   16  C   UNL     1     -10.640   8.027  71.634  1.00  0.00    -0.227 C  
HETATM   17  C   UNL     1     -10.036   8.607  70.380  1.00  0.00    -0.213 C  
HETATM   18  O   UNL     1     -11.597   8.606  72.144  1.00  0.00    -0.342 OA 
HETATM   19  C   UNL     1     -10.479   9.768  69.836  1.00  0.00    -0.261 C  
HETATM   20  C   UNL     1      -9.827  10.451  68.616  1.00  0.00    -0.177 C  
HETATM   21  O   UNL     1     -11.456  10.542  70.456  1.00  0.00    -0.313 OA 
HETATM   22  H   UNL     1     -11.767  11.355  70.075  1.00  0.00     0.000 HD 
HETATM   23  C   UNL     1     -10.788  11.013  67.544  1.00  0.00    -0.263 C  
HETATM   24  O   UNL     1      -9.239  11.653  69.173  1.00  0.00    -0.392 OA 
HETATM   25  O   UNL     1     -12.017  10.961  67.601  1.00  0.00    -0.512 OA 
HETATM   26  H   UNL     1      -8.837  12.074  68.421  1.00  0.00     0.000 HD 
HETATM   27  C   UNL     1     -10.172  11.592  66.313  1.00  0.00    -0.262 C  
HETATM   28  C   UNL     1      -9.495  10.657  65.635  1.00  0.00    -0.212 C  
ENDROOT
BRANCH   4  29
HETATM   29  C   UNL     1      -7.910   3.732  70.978  1.00  0.00    -0.062 C  
BRANCH  29  30
HETATM   30  N   UNL     1      -8.636   2.571  70.406  1.00  0.00    -0.050 NA 
HETATM   31  C   UNL     1      -9.570   2.998  69.357  1.00  0.00    -0.006 C  
BRANCH  30  32
HETATM   32  O   UNL     1      -7.567   1.842  69.696  1.00  0.00    -0.043 OA 
HETATM   33  C   UNL     1      -6.647   2.743  69.075  1.00  0.00    -0.033 C  
ENDBRANCH  30  32
ENDBRANCH  29  30
ENDBRANCH   4  29
BRANCH  27  34
HETATM   34  C   UNL     1      -9.408  12.876  66.286  1.00  0.00    -0.141 C  
HETATM   35  O   UNL     1      -8.506  13.151  67.073  1.00  0.00    -0.194 OA 
HETATM   36  H2  UNL     1     -10.409  13.545  64.597  1.00  0.00     0.000 HD 
HETATM   37  N   UNL     1      -9.697  13.753  65.297  1.00  0.00    -0.565 N  
HETATM   38  H1  UNL     1      -9.175  14.629  65.279  1.00  0.00     0.000 HD 
ENDBRANCH  27  34
BRANCH  13  39
HETATM   39  N   UNL     1      -7.288   9.409  65.914  1.00  0.00    -0.094 NA 
HETATM   40  C   UNL     1      -6.739  10.534  65.152  1.00  0.00    -0.024 C  
HETATM   41  C   UNL     1      -7.087   8.166  65.174  1.00  0.00    -0.067 C  
ENDBRANCH  13  39
TORSDOF 5
ENDMDL
MODEL       47
REMARK 921   NORMALIZED FREE ENERGY PREDICTED BY IDOCK:   -5.06 KCAL/MOL
REMARK 922        TOTAL FREE ENERGY PREDICTED BY IDOCK:   -7.45 KCAL/MOL
REMARK 923 INTER-LIGAND FREE ENERGY PREDICTED BY IDOCK:   -6.77 KCAL/MOL
REMARK 924 INTRA-LIGAND FREE ENERGY PREDICTED BY IDOCK:   -0.68 KCAL/MOL
REMARK 927      BINDING AFFINITY PREDICTED BY RF-SCORE:    0.00 PKD
ROOT
HETATM    1  C   UNL     1      -9.864   7.236  68.628  1.00  0.00    -0.161 C  
HETATM    2  C   UNL     1      -9.993   7.674  70.084  1.00  0.00    -0.186 C  
HETATM    3  C   UNL     1     -10.367   6.549  70.998  1.00  0.00    -0.240 A  
HETATM    4  C   UNL     1     -11.123   6.812  72.170  1.00  0.00    -0.284 A  
HETATM    5  H   UNL     1      -6.737  11.378  65.322  1.00  0.00     0.000 HD 
HETATM    6  C   UNL     1     -11.393   5.746  73.042  1.00  0.00    -0.254 A  
HETATM    7  C   UNL     1      -9.324   8.436  67.881  1.00  0.00    -0.147 C  
HETATM    8  C   UNL     1     -10.925   4.462  72.775  1.00  0.00    -0.174 A  
HETATM    9  C   UNL     1      -9.075   8.192  66.387  1.00  0.00    -0.226 C  
HETATM   10  C   UNL     1     -10.157   4.218  71.634  1.00  0.00    -0.146 A  
HETATM   11  O   UNL     1      -6.424  10.543  64.994  1.00  0.00    -0.110 OA 
HETATM   12  O   UNL     1      -9.718   2.942  71.417  1.00  0.00    -0.155 OA 
HETATM   13  C   UNL     1      -8.457   9.552  65.890  1.00  0.00    -0.125 C  
HETATM   14  C   UNL     1      -9.861   5.252  70.732  1.00  0.00    -0.261 A  
HETATM   15  H   UNL     1      -9.195   2.777  70.642  1.00  0.00     0.000 HD 
HETATM   16  C   UNL     1      -8.977   5.017  69.532  1.00  0.00    -0.096 C  
HETATM   17  C   UNL     1      -8.960   6.059  68.442  1.00  0.00    -0.114 C  
HETATM   18  O   UNL     1      -8.252   4.032  69.410  1.00  0.00    -0.058 OA 
HETATM   19  C   UNL     1      -8.217   5.914  67.316  1.00  0.00    -0.105 C  
HETATM   20  C   UNL     1      -8.246   6.901  66.131  1.00  0.00    -0.121 C  
HETATM   21  O   UNL     1      -7.498   4.750  67.058  1.00  0.00    -0.084 OA 
HETATM   22  H   UNL     1      -6.977   4.649  66.270  1.00  0.00     0.000 HD 
HETATM   23  C   UNL     1      -6.882   7.274  65.509  1.00  0.00    -0.052 C  
HETATM   24  O   UNL     1      -8.881   6.143  65.071  1.00  0.00    -0.356 OA 
HETATM   25  O   UNL     1      -5.793   6.836  65.882  1.00  0.00    -0.028 OA 
HETATM   26  H   UNL     1      -8.899   6.752  64.342  1.00  0.00     0.000 HD 
HETATM   27  C   UNL     1      -6.885   8.301  64.424  1.00  0.00    -0.069 C  
HETATM   28  C   UNL     1      -7.324   9.478  64.885  1.00  0.00    -0.111 C  
ENDROOT
BRANCH   4  29
HETATM   29  C   UNL     1     -11.642   8.199  72.549  1.00  0.00    -0.404 C  
BRANCH  29  30
HETATM   30  N   UNL     1     -12.593   8.812  71.589  1.00  0.00    -0.330 NA 
HETATM   31  C   UNL     1     -13.893   9.065  72.222  1.00  0.00    -0.484 C  
BRANCH  30  32
HETATM   32  O   UNL     1     -12.006  10.149  71.367  1.00  0.00    -0.369 OA 
HETATM   33  C   UNL     1     -12.986  11.178  71.520  1.00  0.00    -0.437 C  
ENDBRANCH  30  32
ENDBRANCH  29  30
ENDBRANCH   4  29
BRANCH  27  34
HETATM   34  C   UNL     1      -7.435   8.067  63.054  1.00  0.00    -0.114 C  
HETATM   35  O   UNL     1      -7.625   6.952  62.575  1.00  0.00    -0.082 OA 
HETATM   36  H2  UNL     1      -7.693  10.096  62.710  1.00  0.00     0.000 HD 
HETATM   37  N   UNL     1      -7.794   9.153  62.333  1.00  0.00    -0.115 N  
HETATM   38  H1  UNL     1      -8.169   8.993  61.398  1.00  0.00     0.000 HD 
ENDBRANCH  27  34
BRANCH  13  39
HETATM   39  N   UNL     1      -9.574  10.472  65.563  1.00  0.00    -0.212 NA 
HETATM   40  C   UNL     1      -9.854  10.601  64.130  1.00  0.00    -0.335 C  
HETATM   41  C   UNL     1      -9.408  11.797  66.154  1.00  0.00    -0.225 C  
ENDBRANCH  13  39
TORSDOF 5
ENDMDL
MODEL       48
REMARK 921   NORMALIZED FREE ENERGY PREDICTED BY IDOCK:   -5.06 KCAL/MOL
REMARK 922        TOTAL FREE ENERGY PREDICTED BY IDOCK:   -7.44 KCAL/MOL
REMARK 923 INTER-LIGAND FREE ENERGY PREDICTED BY IDOCK:   -7.24 KCAL/MOL
REMARK 924 INTRA-LIGAND FREE ENERGY PREDICTED BY IDOCK:   -0.20 KCAL/MOL
REMARK 927      BINDING AFFINITY PREDICTED BY RF-SCORE:    0.00 PKD
ROOT
HETATM    1  C   UNL     1     -10.563   8.347  68.516  1.00  0.00    -0.149 C  
HETATM    2  C   UNL     1     -10.643   8.218  70.034  1.00  0.00    -0.235 C  
HETATM    3  C   UNL     1     -10.435   6.814  70.509  1.00  0.00    -0.238 A  
HETATM    4  C   UNL     1     -11.063   6.371  71.702  1.00  0.00    -0.314 A  
HETATM    5  H   UNL     1      -9.719  14.202  66.818  1.00  0.00     0.000 HD 
HETATM    6  C   UNL     1     -10.788   5.073  72.158  1.00  0.00    -0.179 A  
HETATM    7  C   UNL     1     -10.625   9.831  68.223  1.00  0.00    -0.271 C  
HETATM    8  C   UNL     1      -9.913   4.239  71.466  1.00  0.00    -0.243 A  
HETATM    9  C   UNL     1     -10.512  10.188  66.734  1.00  0.00    -0.270 C  
HETATM   10  C   UNL     1      -9.276   4.694  70.310  1.00  0.00    -0.132 A  
HETATM   11  O   UNL     1      -9.164  13.711  66.224  1.00  0.00    -0.186 OA 
HETATM   12  O   UNL     1      -8.423   3.839  69.669  1.00  0.00    -0.059 OA 
HETATM   13  C   UNL     1     -10.527  11.762  66.732  1.00  0.00    -0.225 C  
HETATM   14  C   UNL     1      -9.520   5.984  69.815  1.00  0.00    -0.173 A  
HETATM   15  H   UNL     1      -7.990   4.149  68.882  1.00  0.00     0.000 HD 
HETATM   16  C   UNL     1      -8.788   6.511  68.605  1.00  0.00    -0.121 C  
HETATM   17  C   UNL     1      -9.317   7.756  67.937  1.00  0.00    -0.148 C  
HETATM   18  O   UNL     1      -7.770   5.993  68.151  1.00  0.00    -0.098 OA 
HETATM   19  C   UNL     1      -8.739   8.281  66.828  1.00  0.00    -0.133 C  
HETATM   20  C   UNL     1      -9.302   9.489  66.052  1.00  0.00    -0.216 C  
HETATM   21  O   UNL     1      -7.677   7.649  66.186  1.00  0.00    -0.085 OA 
HETATM   22  H   UNL     1      -7.272   8.017  65.409  1.00  0.00     0.000 HD 
HETATM   23  C   UNL     1      -8.280  10.553  65.591  1.00  0.00    -0.161 C  
HETATM   24  O   UNL     1      -9.745   8.913  64.798  1.00  0.00    -0.150 OA 
HETATM   25  O   UNL     1      -7.066  10.497  65.790  1.00  0.00    -0.131 OA 
HETATM   26  H   UNL     1     -10.092   9.657  64.320  1.00  0.00     0.000 HD 
HETATM   27  C   UNL     1      -8.820  11.774  64.923  1.00  0.00     0.506 C  
HETATM   28  C   UNL     1      -9.602  12.467  65.760  1.00  0.00    -0.156 C  
ENDROOT
BRANCH   4  29
HETATM   29  C   UNL     1     -12.009   7.238  72.533  1.00  0.00    -0.097 C  
BRANCH  29  30
HETATM   30  N   UNL     1     -13.081   7.927  71.774  1.00  0.00    -0.329 NA 
HETATM   31  C   UNL     1     -14.386   7.299  72.016  1.00  0.00    -0.272 C  
BRANCH  30  32
HETATM   32  O   UNL     1     -13.155   9.240  72.445  1.00  0.00    -0.419 OA 
HETATM   33  C   UNL     1     -12.942  10.309  71.521  1.00  0.00    -0.453 C  
ENDBRANCH  30  32
ENDBRANCH  29  30
ENDBRANCH   4  29
BRANCH  27  34
HETATM   34  C   UNL     1      -9.426  11.779  63.557  1.00  0.00    -0.129 C  
HETATM   35  O   UNL     1     -10.516  12.281  63.294  1.00  0.00    -0.417 OA 
HETATM   36  H2  UNL     1      -7.768  10.860  62.716  1.00  0.00     0.000 HD 
HETATM   37  N   UNL     1      -8.696  11.249  62.549  1.00  0.00    -0.473 N  
HETATM   38  H1  UNL     1      -9.110  11.253  61.617  1.00  0.00     0.000 HD 
ENDBRANCH  27  34
BRANCH  13  39
HETATM   39  N   UNL     1     -11.942  12.207  66.740  1.00  0.00    -0.615 NA 
HETATM   40  C   UNL     1     -12.459  12.617  65.431  1.00  0.00    -0.355 C  
HETATM   41  C   UNL     1     -12.199  13.259  67.723  1.00  0.00    -0.113 C  
ENDBRANCH  13  39
TORSDOF 5
ENDMDL
MODEL       49
REMARK 921   NORMALIZED FREE ENERGY PREDICTED BY IDOCK:   -5.05 KCAL/MOL
REMARK 922        TOTAL FREE ENERGY PREDICTED BY IDOCK:   -7.43 KCAL/MOL
REMARK 923 INTER-LIGAND FREE ENERGY PREDICTED BY IDOCK:   -6.57 KCAL/MOL
REMARK 924 INTRA-LIGAND FREE ENERGY PREDICTED BY IDOCK:   -0.87 KCAL/MOL
REMARK 927      BINDING AFFINITY PREDICTED BY RF-SCORE:    0.00 PKD
ROOT
HETATM    1  C   UNL     1      -9.468   7.827  69.057  1.00  0.00    -0.150 C  
HETATM    2  C   UNL     1     -10.674   8.724  68.787  1.00  0.00    -0.111 C  
HETATM    3  C   UNL     1     -10.521   9.543  67.544  1.00  0.00    -0.336 A  
HETATM    4  C   UNL     1     -11.149  10.812  67.452  1.00  0.00    -0.363 A  
HETATM    5  H   UNL     1     -10.857   3.373  73.070  1.00  0.00     0.000 HD 
HETATM    6  C   UNL     1     -11.046  11.521  66.246  1.00  0.00    -0.321 A  
HETATM    7  C   UNL     1      -9.854   6.959  70.235  1.00  0.00    -0.186 C  
HETATM    8  C   UNL     1     -10.355  10.993  65.158  1.00  0.00    -0.346 A  
HETATM    9  C   UNL     1      -8.784   5.939  70.647  1.00  0.00    -0.137 C  
HETATM   10  C   UNL     1      -9.766   9.730  65.247  1.00  0.00    -0.300 A  
HETATM   11  O   UNL     1     -10.303   2.939  72.431  1.00  0.00    -0.155 OA 
HETATM   12  O   UNL     1      -9.103   9.253  64.151  1.00  0.00    -0.415 OA 
HETATM   13  C   UNL     1      -9.469   5.140  71.818  1.00  0.00    -0.149 C  
HETATM   14  C   UNL     1      -9.842   8.983  66.433  1.00  0.00    -0.356 A  
HETATM   15  H   UNL     1      -8.702   8.394  64.212  1.00  0.00     0.000 HD 
HETATM   16  C   UNL     1      -9.267   7.591  66.521  1.00  0.00    -0.174 C  
HETATM   17  C   UNL     1      -9.090   6.976  67.887  1.00  0.00    -0.127 C  
HETATM   18  O   UNL     1      -8.959   6.923  65.536  1.00  0.00    -0.031 OA 
HETATM   19  C   UNL     1      -8.555   5.742  68.059  1.00  0.00    -0.105 C  
HETATM   20  C   UNL     1      -8.260   5.114  69.437  1.00  0.00    -0.087 C  
HETATM   21  O   UNL     1      -8.050   5.006  66.989  1.00  0.00    -0.106 OA 
HETATM   22  H   UNL     1      -7.675   4.142  67.110  1.00  0.00     0.000 HD 
HETATM   23  C   UNL     1      -8.643   3.628  69.616  1.00  0.00    -0.066 C  
HETATM   24  O   UNL     1      -6.812   5.076  69.492  1.00  0.00    -0.049 OA 
HETATM   25  O   UNL     1      -9.149   2.920  68.744  1.00  0.00    -0.122 OA 
HETATM   26  H   UNL     1      -6.631   4.690  70.341  1.00  0.00     0.000 HD 
HETATM   27  C   UNL     1      -8.452   3.033  70.972  1.00  0.00    -0.096 C  
HETATM   28  C   UNL     1      -9.232   3.644  71.872  1.00  0.00    -0.116 C  
ENDROOT
BRANCH   4  29
HETATM   29  C   UNL     1     -11.951  11.444  68.590  1.00  0.00    -0.249 C  
BRANCH  29  30
HETATM   30  N   UNL     1     -11.324  12.620  69.242  1.00  0.00    -0.260 NA 
HETATM   31  C   UNL     1     -11.631  13.855  68.509  1.00  0.00    -0.332 C  
BRANCH  30  32
HETATM   32  O   UNL     1     -12.077  12.725  70.507  1.00  0.00    -0.367 OA 
HETATM   33  C   UNL     1     -12.538  11.445  70.945  1.00  0.00    -0.356 C  
ENDBRANCH  30  32
ENDBRANCH  29  30
ENDBRANCH   4  29
BRANCH  27  34
HETATM   34  C   UNL     1      -7.117   2.752  71.580  1.00  0.00    -0.032 C  
HETATM   35  O   UNL     1      -6.049   3.045  71.050  1.00  0.00    -0.017 OA 
HETATM   36  H2  UNL     1      -7.963   1.974  73.308  1.00  0.00     0.000 HD 
HETATM   37  N   UNL     1      -7.098   2.194  72.812  1.00  0.00    -0.026 N  
HETATM   38  H1  UNL     1      -6.186   2.002  73.228  1.00  0.00     0.000 HD 
ENDBRANCH  27  34
BRANCH  13  39
HETATM   39  N   UNL     1      -9.249   5.892  73.077  1.00  0.00    -0.137 NA 
HETATM   40  C   UNL     1      -8.217   5.327  73.950  1.00  0.00    -0.111 C  
HETATM   41  C   UNL     1     -10.481   6.096  73.837  1.00  0.00    -0.275 C  
ENDBRANCH  13  39
TORSDOF 5
ENDMDL
MODEL       50
REMARK 921   NORMALIZED FREE ENERGY PREDICTED BY IDOCK:   -4.93 KCAL/MOL
REMARK 922        TOTAL FREE ENERGY PREDICTED BY IDOCK:   -7.27 KCAL/MOL
REMARK 923 INTER-LIGAND FREE ENERGY PREDICTED BY IDOCK:   -6.83 KCAL/MOL
REMARK 924 INTRA-LIGAND FREE ENERGY PREDICTED BY IDOCK:   -0.44 KCAL/MOL
REMARK 927      BINDING AFFINITY PREDICTED BY RF-SCORE:    0.00 PKD
ROOT
HETATM    1  C   UNL     1      -9.764   8.787  68.321  1.00  0.00    -0.175 C  
HETATM    2  C   UNL     1     -10.761   9.671  67.577  1.00  0.00    -0.321 C  
HETATM    3  C   UNL     1     -10.236  10.161  66.264  1.00  0.00    -0.288 A  
HETATM    4  C   UNL     1     -10.670  11.411  65.751  1.00  0.00    -0.309 A  
HETATM    5  H   UNL     1     -12.543   5.510  72.727  1.00  0.00     0.000 HD 
HETATM    6  C   UNL     1     -10.214  11.806  64.485  1.00  0.00    -0.327 A  
HETATM    7  C   UNL     1     -10.506   8.249  69.526  1.00  0.00    -0.228 C  
HETATM    8  C   UNL     1      -9.365  10.992  63.740  1.00  0.00    -0.247 A  
HETATM    9  C   UNL     1      -9.686   7.288  70.397  1.00  0.00    -0.172 C  
HETATM   10  C   UNL     1      -8.967   9.750  64.239  1.00  0.00    -0.237 A  
HETATM   11  O   UNL     1     -11.916   4.902  72.352  1.00  0.00     0.278 OA 
HETATM   12  O   UNL     1      -8.136   8.985  63.469  1.00  0.00    -0.146 OA 
HETATM   13  C   UNL     1     -10.708   6.835  71.506  1.00  0.00    -0.226 C  
HETATM   14  C   UNL     1      -9.396   9.312  65.502  1.00  0.00    -0.303 A  
HETATM   15  H   UNL     1      -7.865   8.141  63.809  1.00  0.00     0.000 HD 
HETATM   16  C   UNL     1      -9.027   7.945  66.025  1.00  0.00    -0.154 C  
HETATM   17  C   UNL     1      -9.237   7.661  67.491  1.00  0.00    -0.145 C  
HETATM   18  O   UNL     1      -8.588   7.045  65.312  1.00  0.00    -0.099 OA 
HETATM   19  C   UNL     1      -8.906   6.470  68.050  1.00  0.00    -0.114 C  
HETATM   20  C   UNL     1      -9.007   6.169  69.559  1.00  0.00    -0.133 C  
HETATM   21  O   UNL     1      -8.266   5.471  67.320  1.00  0.00    -0.102 OA 
HETATM   22  H   UNL     1      -8.035   4.637  67.712  1.00  0.00     0.000 HD 
HETATM   23  C   UNL     1      -9.595   4.795  69.952  1.00  0.00    -0.181 C  
HETATM   24  O   UNL     1      -7.623   6.050  69.976  1.00  0.00    -0.083 OA 
HETATM   25  O   UNL     1      -9.974   3.936  69.156  1.00  0.00    -0.047 OA 
HETATM   26  H   UNL     1      -7.685   5.865  70.906  1.00  0.00     0.000 HD 
HETATM   27  C   UNL     1      -9.787   4.527  71.409  1.00  0.00    -0.264 C  
HETATM   28  C   UNL     1     -10.670   5.383  71.937  1.00  0.00    -0.211 C  
ENDROOT
BRANCH   4  29
HETATM   29  C   UNL     1     -11.626  12.345  66.494  1.00  0.00    -0.387 C  
BRANCH  29  30
HETATM   30  N   UNL     1     -11.041  13.081  67.642  1.00  0.00    -0.257 NA 
HETATM   31  C   UNL     1     -10.310  14.271  67.188  1.00  0.00    -0.262 C  
BRANCH  30  32
HETATM   32  O   UNL     1     -12.238  13.604  68.330  1.00  0.00    -0.332 OA 
HETATM   33  C   UNL     1     -11.881  14.398  69.464  1.00  0.00    -0.329 C  
ENDBRANCH  30  32
ENDBRANCH  29  30
ENDBRANCH   4  29
BRANCH  27  34
HETATM   34  C   UNL     1      -8.666   4.311  72.373  1.00  0.00    -0.108 C  
HETATM   35  O   UNL     1      -8.227   3.204  72.674  1.00  0.00    -0.072 OA 
HETATM   36  H2  UNL     1      -8.376   6.348  72.637  1.00  0.00     0.000 HD 
HETATM   37  N   UNL     1      -8.071   5.409  72.893  1.00  0.00    -0.108 N  
HETATM   38  H1  UNL     1      -7.306   5.261  73.551  1.00  0.00     0.000 HD 
ENDBRANCH  27  34
BRANCH  13  39
HETATM   39  N   UNL     1     -10.688   7.848  72.590  1.00  0.00    -0.319 NA 
HETATM   40  C   UNL     1     -11.803   8.799  72.554  1.00  0.00    -0.202 C  
HETATM   41  C   UNL     1      -9.422   8.575  72.662  1.00  0.00    -0.225 C  
ENDBRANCH  13  39
TORSDOF 5
ENDMDL
MODEL       51
REMARK 921   NORMALIZED FREE ENERGY PREDICTED BY IDOCK:   -4.79 KCAL/MOL
REMARK 922        TOTAL FREE ENERGY PREDICTED BY IDOCK:   -7.10 KCAL/MOL
REMARK 923 INTER-LIGAND FREE ENERGY PREDICTED BY IDOCK:   -7.01 KCAL/MOL
REMARK 924 INTRA-LIGAND FREE ENERGY PREDICTED BY IDOCK:   -0.09 KCAL/MOL
REMARK 927      BINDING AFFINITY PREDICTED BY RF-SCORE:    0.00 PKD
ROOT
HETATM    1  C   UNL     1      -9.405  11.035  66.812  1.00  0.00    -0.199 C  
HETATM    2  C   UNL     1     -10.626  11.258  67.699  1.00  0.00    -0.252 C  
HETATM    3  C   UNL     1     -11.036  12.695  67.774  1.00  0.00    -0.266 A  
HETATM    4  C   UNL     1     -11.666  13.191  68.945  1.00  0.00    -0.368 A  
HETATM    5  H   UNL     1      -8.860   5.118  65.211  1.00  0.00     0.000 HD 
HETATM    6  C   UNL     1     -12.102  14.524  68.954  1.00  0.00    -0.272 A  
HETATM    7  C   UNL     1      -9.233   9.535  66.713  1.00  0.00    -0.184 C  
HETATM    8  C   UNL     1     -11.933  15.343  67.841  1.00  0.00     0.052 A  
HETATM    9  C   UNL     1      -8.071   9.088  65.816  1.00  0.00    -0.109 C  
HETATM   10  C   UNL     1     -11.338  14.839  66.682  1.00  0.00    -0.347 A  
HETATM   11  O   UNL     1      -8.624   5.590  64.421  1.00  0.00    -0.119 OA 
HETATM   12  O   UNL     1     -11.197  15.681  65.615  1.00  0.00    -0.238 OA 
HETATM   13  C   UNL     1      -8.175   7.517  65.834  1.00  0.00    -0.134 C  
HETATM   14  C   UNL     1     -10.885  13.512  66.626  1.00  0.00    -0.283 A  
HETATM   15  H   UNL     1     -10.793  15.338  64.826  1.00  0.00     0.000 HD 
HETATM   16  C   UNL     1     -10.302  12.935  65.359  1.00  0.00    -0.296 C  
HETATM   17  C   UNL     1      -9.547  11.632  65.449  1.00  0.00    -0.228 C  
HETATM   18  O   UNL     1     -10.432  13.460  64.255  1.00  0.00    -0.429 OA 
HETATM   19  C   UNL     1      -8.965  11.059  64.365  1.00  0.00    -0.042 C  
HETATM   20  C   UNL     1      -8.099   9.784  64.426  1.00  0.00    -0.150 C  
HETATM   21  O   UNL     1      -8.953  11.687  63.123  1.00  0.00    -0.522 OA 
HETATM   22  H   UNL     1      -8.546  11.285  62.364  1.00  0.00     0.000 HD 
HETATM   23  C   UNL     1      -8.340   8.731  63.321  1.00  0.00    -0.161 C  
HETATM   24  O   UNL     1      -6.765  10.264  64.119  1.00  0.00    -0.207 OA 
HETATM   25  O   UNL     1      -9.157   8.843  62.406  1.00  0.00    -0.142 OA 
HETATM   26  H   UNL     1      -6.232   9.479  64.157  1.00  0.00     0.000 HD 
HETATM   27  C   UNL     1      -7.577   7.451  63.421  1.00  0.00    -0.114 C  
HETATM   28  C   UNL     1      -7.908   6.786  64.534  1.00  0.00    -0.115 C  
ENDROOT
BRANCH   4  29
HETATM   29  C   UNL     1     -11.917  12.345  70.194  1.00  0.00    -0.298 C  
BRANCH  29  30
HETATM   30  N   UNL     1     -13.083  12.749  71.018  1.00  0.00    -0.071 NA 
HETATM   31  C   UNL     1     -13.238  11.865  72.180  1.00  0.00    -0.261 C  
BRANCH  30  32
HETATM   32  O   UNL     1     -12.648  14.045  71.576  1.00  0.00    -0.336 OA 
HETATM   33  C   UNL     1     -13.344  14.351  72.786  1.00  0.00    -0.513 C  
ENDBRANCH  30  32
ENDBRANCH  29  30
ENDBRANCH   4  29
BRANCH  27  34
HETATM   34  C   UNL     1      -6.104   7.338  63.193  1.00  0.00    -0.052 C  
HETATM   35  O   UNL     1      -5.442   8.165  62.573  1.00  0.00    -0.067 OA 
HETATM   36  H2  UNL     1      -5.970   5.599  64.318  1.00  0.00     0.000 HD 
HETATM   37  N   UNL     1      -5.466   6.287  63.758  1.00  0.00    -0.018 N  
HETATM   38  H1  UNL     1      -4.460   6.210  63.603  1.00  0.00     0.000 HD 
ENDBRANCH  27  34
BRANCH  13  39
HETATM   39  N   UNL     1      -7.452   7.023  67.032  1.00  0.00    -0.092 NA 
HETATM   40  C   UNL     1      -8.256   6.992  68.257  1.00  0.00    -0.124 C  
HETATM   41  C   UNL     1      -6.205   7.745  67.278  1.00  0.00    -0.054 C  
ENDBRANCH  13  39
TORSDOF 5
ENDMDL
MODEL       52
REMARK 921   NORMALIZED FREE ENERGY PREDICTED BY IDOCK:   -4.75 KCAL/MOL
REMARK 922        TOTAL FREE ENERGY PREDICTED BY IDOCK:   -7.04 KCAL/MOL
REMARK 923 INTER-LIGAND FREE ENERGY PREDICTED BY IDOCK:   -6.46 KCAL/MOL
REMARK 924 INTRA-LIGAND FREE ENERGY PREDICTED BY IDOCK:   -0.58 KCAL/MOL
REMARK 927      BINDING AFFINITY PREDICTED BY RF-SCORE:    0.00 PKD
ROOT
HETATM    1  C   UNL     1     -10.117   8.286  69.977  1.00  0.00    -0.196 C  
HETATM    2  C   UNL     1      -9.319   9.462  69.423  1.00  0.00    -0.172 C  
HETATM    3  C   UNL     1     -10.176  10.647  69.105  1.00  0.00    -0.238 A  
HETATM    4  C   UNL     1      -9.800  11.532  68.061  1.00  0.00    -0.192 A  
HETATM    5  H   UNL     1      -6.445   4.229  72.793  1.00  0.00     0.000 HD 
HETATM    6  C   UNL     1     -10.587  12.672  67.838  1.00  0.00    -0.232 A  
HETATM    7  C   UNL     1      -9.094   7.253  70.397  1.00  0.00    -0.155 C  
HETATM    8  C   UNL     1     -11.704  12.940  68.625  1.00  0.00    -0.359 A  
HETATM    9  C   UNL     1      -9.692   5.990  71.032  1.00  0.00    -0.208 C  
HETATM   10  C   UNL     1     -12.049  12.080  69.670  1.00  0.00    -0.230 A  
HETATM   11  O   UNL     1      -7.215   4.262  73.348  1.00  0.00    -0.070 OA 
HETATM   12  O   UNL     1     -13.152  12.388  70.416  1.00  0.00     0.305 OA 
HETATM   13  C   UNL     1      -8.426   5.145  71.433  1.00  0.00    -0.124 C  
HETATM   14  C   UNL     1     -11.293  10.927  69.931  1.00  0.00    -0.381 A  
HETATM   15  H   UNL     1     -13.387  11.803  71.127  1.00  0.00     0.000 HD 
HETATM   16  C   UNL     1     -11.616  10.025  71.097  1.00  0.00    -0.378 C  
HETATM   17  C   UNL     1     -10.987   8.654  71.136  1.00  0.00    -0.320 C  
HETATM   18  O   UNL     1     -12.344  10.360  72.029  1.00  0.00    -0.224 OA 
HETATM   19  C   UNL     1     -11.245   7.769  72.131  1.00  0.00    -0.297 C  
HETATM   20  C   UNL     1     -10.709   6.324  72.160  1.00  0.00    -0.231 C  
HETATM   21  O   UNL     1     -12.179   8.041  73.128  1.00  0.00    -0.659 OA 
HETATM   22  H   UNL     1     -12.359   7.421  73.826  1.00  0.00     0.000 HD 
HETATM   23  C   UNL     1     -10.168   5.813  73.514  1.00  0.00    -0.213 C  
HETATM   24  O   UNL     1     -11.897   5.515  71.969  1.00  0.00    -0.047 OA 
HETATM   25  O   UNL     1     -10.147   6.469  74.557  1.00  0.00    -0.344 OA 
HETATM   26  H   UNL     1     -11.566   4.624  71.986  1.00  0.00     0.000 HD 
HETATM   27  C   UNL     1      -9.559   4.450  73.536  1.00  0.00    -0.135 C  
HETATM   28  C   UNL     1      -8.473   4.403  72.754  1.00  0.00    -0.106 C  
ENDROOT
BRANCH   4  29
HETATM   29  C   UNL     1      -8.571  11.324  67.176  1.00  0.00    -0.147 C  
BRANCH  29  30
HETATM   30  N   UNL     1      -7.525  12.371  67.274  1.00  0.00    -0.150 NA 
HETATM   31  C   UNL     1      -7.119  12.582  68.669  1.00  0.00    -0.100 C  
BRANCH  30  32
HETATM   32  O   UNL     1      -6.364  11.726  66.629  1.00  0.00    -0.120 OA 
HETATM   33  C   UNL     1      -6.720  10.463  66.063  1.00  0.00    -0.124 C  
ENDBRANCH  30  32
ENDBRANCH  29  30
ENDBRANCH   4  29
BRANCH  27  34
HETATM   34  C   UNL     1     -10.338   3.184  73.381  1.00  0.00    -0.148 C  
HETATM   35  O   UNL     1     -10.977   2.661  74.289  1.00  0.00    -0.149 OA 
HETATM   36  H2  UNL     1      -9.898   3.051  71.358  1.00  0.00     0.000 HD 
HETATM   37  N   UNL     1     -10.380   2.625  72.151  1.00  0.00    -0.087 N  
HETATM   38  H1  UNL     1     -10.912   1.761  72.046  1.00  0.00     0.000 HD 
ENDBRANCH  27  34
BRANCH  13  39
HETATM   39  N   UNL     1      -8.004   4.359  70.248  1.00  0.00    -0.062 NA 
HETATM   40  C   UNL     1      -6.781   4.844  69.602  1.00  0.00    -0.051 C  
HETATM   41  C   UNL     1      -9.065   4.221  69.253  1.00  0.00    -0.122 C  
ENDBRANCH  13  39
TORSDOF 5
ENDMDL
MODEL       53
REMARK 921   NORMALIZED FREE ENERGY PREDICTED BY IDOCK:   -4.68 KCAL/MOL
REMARK 922        TOTAL FREE ENERGY PREDICTED BY IDOCK:   -6.95 KCAL/MOL
REMARK 923 INTER-LIGAND FREE ENERGY PREDICTED BY IDOCK:   -7.07 KCAL/MOL
REMARK 924 INTRA-LIGAND FREE ENERGY PREDICTED BY IDOCK:    0.12 KCAL/MOL
REMARK 927      BINDING AFFINITY PREDICTED BY RF-SCORE:    0.00 PKD
ROOT
HETATM    1  C   UNL     1      -8.370  12.603  67.891  1.00  0.00    -0.172 C  
HETATM    2  C   UNL     1      -7.304  11.536  67.663  1.00  0.00    -0.105 C  
HETATM    3  C   UNL     1      -7.830  10.145  67.831  1.00  0.00    -0.101 A  
HETATM    4  C   UNL     1      -6.968   9.112  68.283  1.00  0.00    -0.076 A  
HETATM    5  H   UNL     1      -6.630  18.025  65.556  1.00  0.00     0.000 HD 
HETATM    6  C   UNL     1      -7.474   7.806  68.360  1.00  0.00    -0.104 A  
HETATM    7  C   UNL     1      -7.723  13.920  67.521  1.00  0.00    -0.192 C  
HETATM    8  C   UNL     1      -8.787   7.522  67.994  1.00  0.00    -0.127 A  
HETATM    9  C   UNL     1      -8.651  15.137  67.637  1.00  0.00    -0.180 C  
HETATM   10  C   UNL     1      -9.621   8.538  67.522  1.00  0.00    -0.154 A  
HETATM   11  O   UNL     1      -7.556  17.974  65.347  1.00  0.00    -0.412 OA 
HETATM   12  O   UNL     1     -10.900   8.209  67.171  1.00  0.00    -0.464 OA 
HETATM   13  C   UNL     1      -7.758  16.330  67.128  1.00  0.00    -0.188 C  
HETATM   14  C   UNL     1      -9.159   9.860  67.428  1.00  0.00    -0.147 A  
HETATM   15  H   UNL     1     -11.467   8.900  66.851  1.00  0.00     0.000 HD 
HETATM   16  C   UNL     1     -10.027  10.956  66.858  1.00  0.00    -0.194 C  
HETATM   17  C   UNL     1      -9.607  12.387  67.080  1.00  0.00    -0.211 C  
HETATM   18  O   UNL     1     -11.044  10.740  66.202  1.00  0.00    -0.048 OA 
HETATM   19  C   UNL     1     -10.344  13.433  66.627  1.00  0.00    -0.269 C  
HETATM   20  C   UNL     1     -10.010  14.911  66.917  1.00  0.00    -0.242 C  
HETATM   21  O   UNL     1     -11.579  13.248  66.012  1.00  0.00    -0.324 OA 
HETATM   22  H   UNL     1     -12.094  13.980  65.695  1.00  0.00     0.000 HD 
HETATM   23  C   UNL     1     -10.141  15.895  65.732  1.00  0.00    -0.361 C  
HETATM   24  O   UNL     1     -11.080  15.335  67.799  1.00  0.00    -0.300 OA 
HETATM   25  O   UNL     1     -10.497  15.585  64.595  1.00  0.00    -0.353 OA 
HETATM   26  H   UNL     1     -10.874  16.246  67.978  1.00  0.00     0.000 HD 
HETATM   27  C   UNL     1      -9.731  17.310  65.972  1.00  0.00    -0.190 C  
HETATM   28  C   UNL     1      -8.427  17.383  66.267  1.00  0.00    -0.225 C  
ENDROOT
BRANCH   4  29
HETATM   29  C   UNL     1      -5.507   9.339  68.671  1.00  0.00    -0.040 C  
BRANCH  29  30
HETATM   30  N   UNL     1      -5.249   9.523  70.121  1.00  0.00    -0.031 NA 
HETATM   31  C   UNL     1      -6.394  10.159  70.783  1.00  0.00    -0.052 C  
BRANCH  30  32
HETATM   32  O   UNL     1      -5.236   8.135  70.623  1.00  0.00    -0.023 OA 
HETATM   33  C   UNL     1      -5.713   8.064  71.968  1.00  0.00    -0.036 C  
ENDBRANCH  30  32
ENDBRANCH  29  30
ENDBRANCH   4  29
BRANCH  27  34
HETATM   34  C   UNL     1     -10.490  18.265  66.836  1.00  0.00    -0.373 C  
HETATM   35  O   UNL     1     -10.792  18.038  68.004  1.00  0.00    -0.336 OA 
HETATM   36  H2  UNL     1     -10.538  19.714  65.352  1.00  0.00     0.000 HD 
HETATM   37  N   UNL     1     -10.807  19.468  66.305  1.00  0.00    -0.384 N  
HETATM   38  H1  UNL     1     -11.326  20.120  66.894  1.00  0.00     0.000 HD 
ENDBRANCH  27  34
BRANCH  13  39
HETATM   39  N   UNL     1      -6.954  16.823  68.273  1.00  0.00    -0.156 NA 
HETATM   40  C   UNL     1      -6.962  15.943  69.445  1.00  0.00    -0.211 C  
HETATM   41  C   UNL     1      -7.313  18.182  68.673  1.00  0.00    -0.286 C  
ENDBRANCH  13  39
TORSDOF 5
ENDMDL
MODEL       54
REMARK 921   NORMALIZED FREE ENERGY PREDICTED BY IDOCK:   -4.49 KCAL/MOL
REMARK 922        TOTAL FREE ENERGY PREDICTED BY IDOCK:   -6.71 KCAL/MOL
REMARK 923 INTER-LIGAND FREE ENERGY PREDICTED BY IDOCK:   -6.26 KCAL/MOL
REMARK 924 INTRA-LIGAND FREE ENERGY PREDICTED BY IDOCK:   -0.45 KCAL/MOL
REMARK 927      BINDING AFFINITY PREDICTED BY RF-SCORE:    0.00 PKD
ROOT
HETATM    1  C   UNL     1      -9.323  10.457  69.772  1.00  0.00    -0.019 C  
HETATM    2  C   UNL     1     -10.281  11.227  68.868  1.00  0.00    -0.195 C  
HETATM    3  C   UNL     1      -9.670  12.466  68.294  1.00  0.00    -0.218 A  
HETATM    4  C   UNL     1     -10.489  13.585  67.993  1.00  0.00    -0.245 A  
HETATM    5  H   UNL     1     -11.249   4.681  70.661  1.00  0.00     0.000 HD 
HETATM    6  C   UNL     1      -9.895  14.703  67.389  1.00  0.00    -0.222 A  
HETATM    7  C   UNL     1     -10.031   9.167  70.124  1.00  0.00    -0.231 C  
HETATM    8  C   UNL     1      -8.537  14.718  67.080  1.00  0.00    -0.248 A  
HETATM    9  C   UNL     1      -9.211   8.213  71.003  1.00  0.00    -0.178 C  
HETATM   10  C   UNL     1      -7.744  13.601  67.353  1.00  0.00    -0.143 A  
HETATM   11  O   UNL     1     -10.307   4.594  70.567  1.00  0.00    -0.185 OA 
HETATM   12  O   UNL     1      -6.418  13.662  67.029  1.00  0.00    -0.399 OA 
HETATM   13  C   UNL     1     -10.141   6.951  71.143  1.00  0.00    -0.191 C  
HETATM   14  C   UNL     1      -8.293  12.459  67.957  1.00  0.00    -0.170 A  
HETATM   15  H   UNL     1      -5.878  12.902  67.214  1.00  0.00     0.000 HD 
HETATM   16  C   UNL     1      -7.462  11.223  68.197  1.00  0.00    -0.091 C  
HETATM   17  C   UNL     1      -8.006  10.166  69.126  1.00  0.00    -0.124 C  
HETATM   18  O   UNL     1      -6.378  11.021  67.654  1.00  0.00    -0.057 OA 
HETATM   19  C   UNL     1      -7.312   9.038  69.420  1.00  0.00    -0.075 C  
HETATM   20  C   UNL     1      -7.780   7.980  70.441  1.00  0.00    -0.085 C  
HETATM   21  O   UNL     1      -6.017   8.831  68.953  1.00  0.00    -0.042 OA 
HETATM   22  H   UNL     1      -5.532   8.040  69.158  1.00  0.00     0.000 HD 
HETATM   23  C   UNL     1      -7.618   6.500  70.027  1.00  0.00    -0.100 C  
HETATM   24  O   UNL     1      -6.827   8.110  71.526  1.00  0.00    -0.051 OA 
HETATM   25  O   UNL     1      -7.141   6.115  68.959  1.00  0.00    -0.075 OA 
HETATM   26  H   UNL     1      -7.116   7.459  72.156  1.00  0.00     0.000 HD 
HETATM   27  C   UNL     1      -8.153   5.468  70.964  1.00  0.00    -0.118 C  
HETATM   28  C   UNL     1      -9.479   5.589  71.097  1.00  0.00    -0.159 C  
ENDROOT
BRANCH   4  29
HETATM   29  C   UNL     1     -11.992  13.633  68.270  1.00  0.00    -0.350 C  
BRANCH  29  30
HETATM   30  N   UNL     1     -12.385  14.215  69.577  1.00  0.00    -0.298 NA 
HETATM   31  C   UNL     1     -12.512  13.172  70.602  1.00  0.00    -0.286 C  
BRANCH  30  32
HETATM   32  O   UNL     1     -11.185  14.986  69.958  1.00  0.00    -0.250 OA 
HETATM   33  C   UNL     1     -11.357  15.623  71.226  1.00  0.00    -0.390 C  
ENDBRANCH  30  32
ENDBRANCH  29  30
ENDBRANCH   4  29
BRANCH  27  34
HETATM   34  C   UNL     1      -7.546   5.152  72.293  1.00  0.00    -0.096 C  
HETATM   35  O   UNL     1      -8.163   4.633  73.219  1.00  0.00    -0.099 OA 
HETATM   36  H2  UNL     1      -5.667   5.793  71.692  1.00  0.00     0.000 HD 
HETATM   37  N   UNL     1      -6.227   5.403  72.451  1.00  0.00    -0.034 N  
HETATM   38  H1  UNL     1      -5.813   5.187  73.358  1.00  0.00     0.000 HD 
ENDBRANCH  27  34
BRANCH  13  39
HETATM   39  N   UNL     1     -11.078   7.195  72.267  1.00  0.00    -0.244 NA 
HETATM   40  C   UNL     1     -10.566   6.800  73.582  1.00  0.00    -0.320 C  
HETATM   41  C   UNL     1     -12.392   6.593  72.049  1.00  0.00    -0.272 C  
ENDBRANCH  13  39
TORSDOF 5
ENDMDL
MODEL       55
REMARK 921   NORMALIZED FREE ENERGY PREDICTED BY IDOCK:   -4.42 KCAL/MOL
REMARK 922        TOTAL FREE ENERGY PREDICTED BY IDOCK:   -6.62 KCAL/MOL
REMARK 923 INTER-LIGAND FREE ENERGY PREDICTED BY IDOCK:   -6.60 KCAL/MOL
REMARK 924 INTRA-LIGAND FREE ENERGY PREDICTED BY IDOCK:   -0.02 KCAL/MOL
REMARK 927      BINDING AFFINITY PREDICTED BY RF-SCORE:    0.00 PKD
ROOT
HETATM    1  C   UNL     1      -9.071   9.968  68.462  1.00  0.00    -0.127 C  
HETATM    2  C   UNL     1      -8.939   9.082  69.698  1.00  0.00    -0.153 C  
HETATM    3  C   UNL     1      -8.311   7.757  69.398  1.00  0.00    -0.133 A  
HETATM    4  C   UNL     1      -8.656   6.620  70.173  1.00  0.00    -0.140 A  
HETATM    5  H   UNL     1     -10.017  15.845  70.021  1.00  0.00     0.000 HD 
HETATM    6  C   UNL     1      -7.996   5.410  69.913  1.00  0.00    -0.081 A  
HETATM    7  C   UNL     1      -9.559  11.309  68.964  1.00  0.00    -0.048 C  
HETATM    8  C   UNL     1      -7.016   5.323  68.927  1.00  0.00    -0.056 A  
HETATM    9  C   UNL     1      -9.717  12.375  67.872  1.00  0.00    -0.204 C  
HETATM   10  C   UNL     1      -6.660   6.455  68.190  1.00  0.00    -0.066 A  
HETATM   11  O   UNL     1      -9.424  15.899  69.282  1.00  0.00    -0.235 OA 
HETATM   12  O   UNL     1      -5.691   6.320  67.236  1.00  0.00    -0.012 OA 
HETATM   13  C   UNL     1     -10.151  13.660  68.672  1.00  0.00    -0.180 C  
HETATM   14  C   UNL     1      -7.294   7.687  68.413  1.00  0.00    -0.095 A  
HETATM   15  H   UNL     1      -5.449   7.090  66.734  1.00  0.00     0.000 HD 
HETATM   16  C   UNL     1      -6.874   8.931  67.670  1.00  0.00    -0.070 C  
HETATM   17  C   UNL     1      -7.788  10.131  67.711  1.00  0.00    -0.098 C  
HETATM   18  O   UNL     1      -5.814   9.026  67.055  1.00  0.00    -0.045 OA 
HETATM   19  C   UNL     1      -7.502  11.279  67.048  1.00  0.00    -0.139 C  
HETATM   20  C   UNL     1      -8.452  12.492  66.976  1.00  0.00    -0.161 C  
HETATM   21  O   UNL     1      -6.391  11.386  66.214  1.00  0.00    -0.313 OA 
HETATM   22  H   UNL     1      -6.191  12.191  65.751  1.00  0.00     0.000 HD 
HETATM   23  C   UNL     1      -7.810  13.885  67.161  1.00  0.00    -0.012 C  
HETATM   24  O   UNL     1      -8.867  12.518  65.587  1.00  0.00    -0.269 OA 
HETATM   25  O   UNL     1      -6.610  14.089  67.350  1.00  0.00    -0.278 OA 
HETATM   26  H   UNL     1      -9.452  13.265  65.543  1.00  0.00     0.000 HD 
HETATM   27  C   UNL     1      -8.729  15.062  67.189  1.00  0.00    -0.242 C  
HETATM   28  C   UNL     1      -9.565  14.987  68.231  1.00  0.00    -0.210 C  
ENDROOT
BRANCH   4  29
HETATM   29  C   UNL     1      -9.697   6.642  71.293  1.00  0.00    -0.173 C  
BRANCH  29  30
HETATM   30  N   UNL     1     -10.953   7.370  70.987  1.00  0.00    -0.247 NA 
HETATM   31  C   UNL     1     -11.879   6.527  70.221  1.00  0.00    -0.295 C  
BRANCH  30  32
HETATM   32  O   UNL     1     -11.574   7.512  72.319  1.00  0.00    -0.285 OA 
HETATM   33  C   UNL     1     -10.648   7.194  73.361  1.00  0.00    -0.382 C  
ENDBRANCH  30  32
ENDBRANCH  29  30
ENDBRANCH   4  29
BRANCH  27  34
HETATM   34  C   UNL     1      -9.467  15.573  65.995  1.00  0.00    -0.352 C  
HETATM   35  O   UNL     1      -9.451  16.746  65.631  1.00  0.00    -0.523 OA 
HETATM   36  H2  UNL     1     -10.146  13.679  65.487  1.00  0.00     0.000 HD 
HETATM   37  N   UNL     1     -10.142  14.670  65.246  1.00  0.00    -0.421 N  
HETATM   38  H1  UNL     1     -10.646  15.019  64.430  1.00  0.00     0.000 HD 
ENDBRANCH  27  34
BRANCH  13  39
HETATM   39  N   UNL     1     -11.623  13.613  68.852  1.00  0.00    -0.297 NA 
HETATM   40  C   UNL     1     -12.370  14.537  67.993  1.00  0.00     0.067 C  
HETATM   41  C   UNL     1     -12.029  13.796  70.244  1.00  0.00    -0.326 C  
ENDBRANCH  13  39
TORSDOF 5
ENDMDL
MODEL       56
REMARK 921   NORMALIZED FREE ENERGY PREDICTED BY IDOCK:   -4.38 KCAL/MOL
REMARK 922        TOTAL FREE ENERGY PREDICTED BY IDOCK:   -6.56 KCAL/MOL
REMARK 923 INTER-LIGAND FREE ENERGY PREDICTED BY IDOCK:   -6.93 KCAL/MOL
REMARK 924 INTRA-LIGAND FREE ENERGY PREDICTED BY IDOCK:    0.37 KCAL/MOL
REMARK 927      BINDING AFFINITY PREDICTED BY RF-SCORE:    0.00 PKD
ROOT
HETATM    1  C   UNL     1      -8.293  14.452  67.256  1.00  0.00    -0.228 C  
HETATM    2  C   UNL     1      -9.287  13.424  67.788  1.00  0.00    -0.211 C  
HETATM    3  C   UNL     1      -8.670  12.077  68.003  1.00  0.00    -0.175 A  
HETATM    4  C   UNL     1      -9.462  10.907  67.869  1.00  0.00    -0.166 A  
HETATM    5  H   UNL     1     -10.391  20.186  68.028  1.00  0.00     0.000 HD 
HETATM    6  C   UNL     1      -8.870   9.666  68.148  1.00  0.00    -0.119 A  
HETATM    7  C   UNL     1      -9.027  15.776  67.258  1.00  0.00    -0.211 C  
HETATM    8  C   UNL     1      -7.542   9.579  68.557  1.00  0.00    -0.081 A  
HETATM    9  C   UNL     1      -8.181  16.970  66.794  1.00  0.00    -0.273 C  
HETATM   10  C   UNL     1      -6.778  10.737  68.714  1.00  0.00    -0.060 A  
HETATM   11  O   UNL     1      -9.464  20.254  68.228  1.00  0.00    -0.219 OA 
HETATM   12  O   UNL     1      -5.481  10.600  69.121  1.00  0.00    -0.041 OA 
HETATM   13  C   UNL     1      -9.151  18.198  66.968  1.00  0.00    -0.263 C  
HETATM   14  C   UNL     1      -7.326  12.001  68.447  1.00  0.00    -0.096 A  
HETATM   15  H   UNL     1      -4.961  11.388  69.229  1.00  0.00     0.000 HD 
HETATM   16  C   UNL     1      -6.533  13.265  68.677  1.00  0.00    -0.087 C  
HETATM   17  C   UNL     1      -7.046  14.549  68.075  1.00  0.00    -0.147 C  
HETATM   18  O   UNL     1      -5.506  13.304  69.350  1.00  0.00    -0.075 OA 
HETATM   19  C   UNL     1      -6.381  15.724  68.207  1.00  0.00    -0.116 C  
HETATM   20  C   UNL     1      -6.811  17.039  67.526  1.00  0.00    -0.144 C  
HETATM   21  O   UNL     1      -5.137  15.796  68.829  1.00  0.00    -0.097 OA 
HETATM   22  H   UNL     1      -4.672  16.619  68.923  1.00  0.00     0.000 HD 
HETATM   23  C   UNL     1      -6.747  18.319  68.390  1.00  0.00    -0.226 C  
HETATM   24  O   UNL     1      -5.770  17.270  66.543  1.00  0.00    -0.181 OA 
HETATM   25  O   UNL     1      -6.373  18.360  69.563  1.00  0.00    -0.261 OA 
HETATM   26  H   UNL     1      -6.035  18.080  66.123  1.00  0.00     0.000 HD 
HETATM   27  C   UNL     1      -7.249  19.583  67.774  1.00  0.00    -0.290 C  
HETATM   28  C   UNL     1      -8.554  19.488  67.492  1.00  0.00    -0.307 C  
ENDROOT
BRANCH   4  29
HETATM   29  C   UNL     1     -10.934  10.924  67.457  1.00  0.00    -0.293 C  
BRANCH  29  30
HETATM   30  N   UNL     1     -11.195  10.819  66.000  1.00  0.00     0.116 NA 
HETATM   31  C   UNL     1     -11.528  12.129  65.428  1.00  0.00    -0.336 C  
BRANCH  30  32
HETATM   32  O   UNL     1      -9.861  10.491  65.459  1.00  0.00    -0.230 OA 
HETATM   33  C   UNL     1      -9.822  10.647  64.039  1.00  0.00    -0.338 C  
ENDBRANCH  30  32
ENDBRANCH  29  30
ENDBRANCH   4  29
BRANCH  27  34
HETATM   34  C   UNL     1      -6.553  20.308  66.668  1.00  0.00    -0.224 C  
HETATM   35  O   UNL     1      -5.334  20.437  66.597  1.00  0.00    -0.165 OA 
HETATM   36  H2  UNL     1      -8.330  20.673  65.662  1.00  0.00     0.000 HD 
HETATM   37  N   UNL     1      -7.317  20.795  65.665  1.00  0.00    -0.487 N  
HETATM   38  H1  UNL     1      -6.842  21.290  64.909  1.00  0.00     0.000 HD 
ENDBRANCH  27  34
BRANCH  13  39
HETATM   39  N   UNL     1      -9.984  18.302  65.745  1.00  0.00    -0.523 NA 
HETATM   40  C   UNL     1     -10.744  19.549  65.632  1.00  0.00    -0.325 C  
HETATM   41  C   UNL     1     -10.880  17.160  65.572  1.00  0.00    -0.055 C  
ENDBRANCH  13  39
TORSDOF 5
ENDMDL
MODEL       57
REMARK 921   NORMALIZED FREE ENERGY PREDICTED BY IDOCK:   -4.31 KCAL/MOL
REMARK 922        TOTAL FREE ENERGY PREDICTED BY IDOCK:   -6.48 KCAL/MOL
REMARK 923 INTER-LIGAND FREE ENERGY PREDICTED BY IDOCK:   -6.84 KCAL/MOL
REMARK 924 INTRA-LIGAND FREE ENERGY PREDICTED BY IDOCK:    0.36 KCAL/MOL
REMARK 927      BINDING AFFINITY PREDICTED BY RF-SCORE:    0.00 PKD
ROOT
HETATM    1  C   UNL     1      -9.261  12.024  66.379  1.00  0.00    -0.216 C  
HETATM    2  C   UNL     1      -8.643  13.377  66.719  1.00  0.00    -0.043 C  
HETATM    3  C   UNL     1      -9.645  14.356  67.247  1.00  0.00    -0.227 A  
HETATM    4  C   UNL     1      -9.461  15.746  67.025  1.00  0.00    -0.235 A  
HETATM    5  H   UNL     1      -4.943   7.666  65.885  1.00  0.00     0.000 HD 
HETATM    6  C   UNL     1     -10.379  16.640  67.596  1.00  0.00    -0.305 A  
HETATM    7  C   UNL     1      -8.101  11.117  66.027  1.00  0.00    -0.064 C  
HETATM    8  C   UNL     1     -11.441  16.182  68.371  1.00  0.00    -0.298 A  
HETATM    9  C   UNL     1      -8.505   9.674  65.693  1.00  0.00    -0.141 C  
HETATM   10  C   UNL     1     -11.598  14.814  68.610  1.00  0.00    -0.319 A  
HETATM   11  O   UNL     1      -5.659   7.228  66.331  1.00  0.00    -0.023 OA 
HETATM   12  O   UNL     1     -12.653  14.414  69.380  1.00  0.00    -0.553 OA 
HETATM   13  C   UNL     1      -7.126   8.955  65.447  1.00  0.00    -0.080 C  
HETATM   14  C   UNL     1     -10.705  13.882  68.059  1.00  0.00    -0.255 A  
HETATM   15  H   UNL     1     -12.760  13.484  69.542  1.00  0.00     0.000 HD 
HETATM   16  C   UNL     1     -10.824  12.408  68.363  1.00  0.00    -0.238 C  
HETATM   17  C   UNL     1     -10.055  11.437  67.502  1.00  0.00    -0.205 C  
HETATM   18  O   UNL     1     -11.494  11.962  69.291  1.00  0.00    -0.262 OA 
HETATM   19  C   UNL     1     -10.127  10.095  67.687  1.00  0.00    -0.190 C  
HETATM   20  C   UNL     1      -9.443   9.061  66.770  1.00  0.00    -0.182 C  
HETATM   21  O   UNL     1     -10.989   9.530  68.624  1.00  0.00    -0.395 OA 
HETATM   22  H   UNL     1     -11.039   8.590  68.754  1.00  0.00     0.000 HD 
HETATM   23  C   UNL     1      -8.730   7.881  67.470  1.00  0.00    -0.125 C  
HETATM   24  O   UNL     1     -10.553   8.409  66.103  1.00  0.00    -0.119 OA 
HETATM   25  O   UNL     1      -8.681   7.709  68.688  1.00  0.00    -0.129 OA 
HETATM   26  H   UNL     1     -10.131   7.772  65.538  1.00  0.00     0.000 HD 
HETATM   27  C   UNL     1      -7.982   6.924  66.601  1.00  0.00    -0.108 C  
HETATM   28  C   UNL     1      -6.974   7.541  65.973  1.00  0.00    -0.061 C  
ENDROOT
BRANCH   4  29
HETATM   29  C   UNL     1      -8.303  16.327  66.213  1.00  0.00    -0.308 C  
BRANCH  29  30
HETATM   30  N   UNL     1      -7.372  17.207  66.962  1.00  0.00    -0.165 NA 
HETATM   31  C   UNL     1      -7.498  18.602  66.524  1.00  0.00    -0.244 C  
BRANCH  30  32
HETATM   32  O   UNL     1      -7.934  17.180  68.327  1.00  0.00    -0.217 OA 
HETATM   33  C   UNL     1      -6.972  16.717  69.277  1.00  0.00    -0.216 C  
ENDBRANCH  30  32
ENDBRANCH  29  30
ENDBRANCH   4  29
BRANCH  27  34
HETATM   34  C   UNL     1      -8.636   5.961  65.664  1.00  0.00    -0.155 C  
HETATM   35  O   UNL     1      -8.070   5.455  64.699  1.00  0.00    -0.112 OA 
HETATM   36  H2  UNL     1     -10.400   5.951  66.757  1.00  0.00     0.000 HD 
HETATM   37  N   UNL     1      -9.907   5.588  65.941  1.00  0.00    -0.352 N  
HETATM   38  H1  UNL     1     -10.353   4.930  65.301  1.00  0.00     0.000 HD 
ENDBRANCH  27  34
BRANCH  13  39
HETATM   39  N   UNL     1      -6.734   9.182  64.035  1.00  0.00    -0.088 NA 
HETATM   40  C   UNL     1      -7.814   9.679  63.177  1.00  0.00    -0.133 C  
HETATM   41  C   UNL     1      -6.118   8.007  63.422  1.00  0.00    -0.071 C  
ENDBRANCH  13  39
TORSDOF 5
ENDMDL
MODEL       58
REMARK 921   NORMALIZED FREE ENERGY PREDICTED BY IDOCK:   -4.25 KCAL/MOL
REMARK 922        TOTAL FREE ENERGY PREDICTED BY IDOCK:   -6.40 KCAL/MOL
REMARK 923 INTER-LIGAND FREE ENERGY PREDICTED BY IDOCK:   -6.07 KCAL/MOL
REMARK 924 INTRA-LIGAND FREE ENERGY PREDICTED BY IDOCK:   -0.33 KCAL/MOL
REMARK 927      BINDING AFFINITY PREDICTED BY RF-SCORE:    0.00 PKD
ROOT
HETATM    1  C   UNL     1      -8.285   9.006  66.871  1.00  0.00    -0.116 C  
HETATM    2  C   UNL     1      -8.190   7.636  66.205  1.00  0.00    -0.120 C  
HETATM    3  C   UNL     1      -7.383   6.658  67.000  1.00  0.00    -0.082 A  
HETATM    4  C   UNL     1      -6.665   5.629  66.337  1.00  0.00    -0.057 A  
HETATM    5  H   UNL     1     -12.894  12.324  64.502  1.00  0.00     0.000 HD 
HETATM    6  C   UNL     1      -5.978   4.686  67.116  1.00  0.00    -0.023 A  
HETATM    7  C   UNL     1      -9.259   9.806  66.035  1.00  0.00    -0.226 C  
HETATM    8  C   UNL     1      -6.005   4.747  68.507  1.00  0.00    -0.026 A  
HETATM    9  C   UNL     1      -9.536  11.220  66.565  1.00  0.00    -0.213 C  
HETATM   10  C   UNL     1      -6.738   5.745  69.152  1.00  0.00    -0.060 A  
HETATM   11  O   UNL     1     -12.932  12.514  65.432  1.00  0.00    -0.452 OA 
HETATM   12  O   UNL     1      -6.737   5.761  70.519  1.00  0.00    -0.045 OA 
HETATM   13  C   UNL     1     -10.617  11.781  65.567  1.00  0.00    -0.276 C  
HETATM   14  C   UNL     1      -7.441   6.711  68.415  1.00  0.00    -0.095 A  
HETATM   15  H   UNL     1      -7.236   6.440  70.958  1.00  0.00     0.000 HD 
HETATM   16  C   UNL     1      -8.290   7.754  69.099  1.00  0.00    -0.134 C  
HETATM   17  C   UNL     1      -8.750   8.942  68.291  1.00  0.00    -0.134 C  
HETATM   18  O   UNL     1      -8.647   7.673  70.272  1.00  0.00    -0.139 OA 
HETATM   19  C   UNL     1      -9.492   9.940  68.833  1.00  0.00    -0.170 C  
HETATM   20  C   UNL     1      -9.898  11.222  68.077  1.00  0.00    -0.178 C  
HETATM   21  O   UNL     1      -9.794   9.973  70.193  1.00  0.00    -0.330 OA 
HETATM   22  H   UNL     1     -10.314  10.672  70.572  1.00  0.00     0.000 HD 
HETATM   23  C   UNL     1     -11.355  11.702  68.262  1.00  0.00    -0.285 C  
HETATM   24  O   UNL     1      -9.135  12.263  68.736  1.00  0.00    -0.378 OA 
HETATM   25  O   UNL     1     -12.196  11.146  68.969  1.00  0.00    -0.469 OA 
HETATM   26  H   UNL     1      -9.385  13.052  68.270  1.00  0.00     0.000 HD 
HETATM   27  C   UNL     1     -11.790  12.886  67.462  1.00  0.00    -0.407 C  
HETATM   28  C   UNL     1     -11.737  12.618  66.152  1.00  0.00    -0.406 C  
ENDROOT
BRANCH   4  29
HETATM   29  C   UNL     1      -6.615   5.477  64.817  1.00  0.00    -0.043 C  
BRANCH  29  30
HETATM   30  N   UNL     1      -7.352   4.314  64.263  1.00  0.00    -0.068 NA 
HETATM   31  C   UNL     1      -6.616   3.065  64.494  1.00  0.00    -0.035 C  
BRANCH  30  32
HETATM   32  O   UNL     1      -8.533   4.234  65.146  1.00  0.00    -0.112 OA 
HETATM   33  C   UNL     1      -9.748   4.311  64.397  1.00  0.00    -0.118 C  
ENDBRANCH  30  32
ENDBRANCH  29  30
ENDBRANCH   4  29
BRANCH  27  34
HETATM   34  C   UNL     1     -11.310  14.280  67.705  1.00  0.00    -0.324 C  
HETATM   35  O   UNL     1     -11.216  15.133  66.827  1.00  0.00    -0.331 OA 
HETATM   36  H2  UNL     1     -11.126  13.961  69.747  1.00  0.00     0.000 HD 
HETATM   37  N   UNL     1     -11.020  14.626  68.980  1.00  0.00    -0.249 N  
HETATM   38  H1  UNL     1     -10.693  15.578  69.146  1.00  0.00     0.000 HD 
ENDBRANCH  27  34
BRANCH  13  39
HETATM   39  N   UNL     1      -9.908  12.350  64.394  1.00  0.00    -0.151 NA 
HETATM   40  C   UNL     1     -10.174  13.771  64.153  1.00  0.00     0.538 C  
HETATM   41  C   UNL     1     -10.142  11.590  63.168  1.00  0.00    -0.359 C  
ENDBRANCH  13  39
TORSDOF 5
ENDMDL
MODEL       59
REMARK 921   NORMALIZED FREE ENERGY PREDICTED BY IDOCK:   -4.12 KCAL/MOL
REMARK 922        TOTAL FREE ENERGY PREDICTED BY IDOCK:   -6.24 KCAL/MOL
REMARK 923 INTER-LIGAND FREE ENERGY PREDICTED BY IDOCK:   -6.05 KCAL/MOL
REMARK 924 INTRA-LIGAND FREE ENERGY PREDICTED BY IDOCK:   -0.19 KCAL/MOL
REMARK 927      BINDING AFFINITY PREDICTED BY RF-SCORE:    0.00 PKD
ROOT
HETATM    1  C   UNL     1      -8.480  10.673  67.621  1.00  0.00    -0.118 C  
HETATM    2  C   UNL     1      -9.288   9.466  68.090  1.00  0.00    -0.142 C  
HETATM    3  C   UNL     1      -8.427   8.310  68.491  1.00  0.00    -0.126 A  
HETATM    4  C   UNL     1      -8.908   6.984  68.341  1.00  0.00    -0.123 A  
HETATM    5  H   UNL     1     -11.893  15.793  67.650  1.00  0.00     0.000 HD 
HETATM    6  C   UNL     1      -8.104   5.927  68.794  1.00  0.00    -0.103 A  
HETATM    7  C   UNL     1      -9.481  11.789  67.420  1.00  0.00    -0.174 C  
HETATM    8  C   UNL     1      -6.868   6.168  69.387  1.00  0.00    -0.062 A  
HETATM    9  C   UNL     1      -8.862  13.125  66.985  1.00  0.00    -0.212 C  
HETATM   10  C   UNL     1      -6.414   7.478  69.558  1.00  0.00    -0.036 A  
HETATM   11  O   UNL     1     -11.047  16.082  67.970  1.00  0.00    -0.341 OA 
HETATM   12  O   UNL     1      -5.196   7.663  70.148  1.00  0.00    -0.023 OA 
HETATM   13  C   UNL     1     -10.096  14.101  66.928  1.00  0.00    -0.258 C  
HETATM   14  C   UNL     1      -7.183   8.567  69.120  1.00  0.00    -0.068 A  
HETATM   15  H   UNL     1      -4.887   8.554  70.264  1.00  0.00     0.000 HD 
HETATM   16  C   UNL     1      -6.735   9.989  69.358  1.00  0.00    -0.060 C  
HETATM   17  C   UNL     1      -7.424  11.092  68.593  1.00  0.00    -0.112 C  
HETATM   18  O   UNL     1      -5.857  10.295  70.160  1.00  0.00    -0.048 OA 
HETATM   19  C   UNL     1      -7.065  12.394  68.724  1.00  0.00    -0.098 C  
HETATM   20  C   UNL     1      -7.669  13.542  67.890  1.00  0.00    -0.153 C  
HETATM   21  O   UNL     1      -5.977  12.779  69.504  1.00  0.00    -0.095 OA 
HETATM   22  H   UNL     1      -5.727  13.691  69.596  1.00  0.00     0.000 HD 
HETATM   23  C   UNL     1      -8.023  14.839  68.653  1.00  0.00    -0.143 C  
HETATM   24  O   UNL     1      -6.569  13.964  67.045  1.00  0.00    -0.373 OA 
HETATM   25  O   UNL     1      -7.850  15.017  69.859  1.00  0.00    -0.114 OA 
HETATM   26  H   UNL     1      -6.941  14.671  66.531  1.00  0.00     0.000 HD 
HETATM   27  C   UNL     1      -8.695  15.924  67.878  1.00  0.00    -0.168 C  
HETATM   28  C   UNL     1      -9.888  15.517  67.428  1.00  0.00    -0.224 C  
ENDROOT
BRANCH   4  29
HETATM   29  C   UNL     1     -10.267   6.641  67.731  1.00  0.00    -0.170 C  
BRANCH  29  30
HETATM   30  N   UNL     1     -10.232   6.081  66.357  1.00  0.00    -0.121 NA 
HETATM   31  C   UNL     1      -8.860   6.052  65.835  1.00  0.00    -0.149 C  
BRANCH  30  32
HETATM   32  O   UNL     1     -10.589   4.666  66.579  1.00  0.00    -0.221 OA 
HETATM   33  C   UNL     1     -10.281   3.866  65.435  1.00  0.00    -0.042 C  
ENDBRANCH  30  32
ENDBRANCH  29  30
ENDBRANCH   4  29
BRANCH  27  34
HETATM   34  C   UNL     1      -8.018  16.740  66.825  1.00  0.00    -0.240 C  
HETATM   35  O   UNL     1      -8.565  17.109  65.789  1.00  0.00    -0.525 OA 
HETATM   36  H2  UNL     1      -6.271  16.891  67.933  1.00  0.00     0.000 HD 
HETATM   37  N   UNL     1      -6.749  17.138  67.066  1.00  0.00    -0.172 N  
HETATM   38  H1  UNL     1      -6.287  17.696  66.347  1.00  0.00     0.000 HD 
ENDBRANCH  27  34
BRANCH  13  39
HETATM   39  N   UNL     1     -10.736  13.955  65.598  1.00  0.00    -0.283 NA 
HETATM   40  C   UNL     1     -10.770  15.185  64.802  1.00  0.00    -0.319 C  
HETATM   41  C   UNL     1     -12.077  13.380  65.675  1.00  0.00    -0.434 C  
ENDBRANCH  13  39
TORSDOF 5
ENDMDL
MODEL       60
REMARK 921   NORMALIZED FREE ENERGY PREDICTED BY IDOCK:   -4.09 KCAL/MOL
REMARK 922        TOTAL FREE ENERGY PREDICTED BY IDOCK:   -6.19 KCAL/MOL
REMARK 923 INTER-LIGAND FREE ENERGY PREDICTED BY IDOCK:   -5.96 KCAL/MOL
REMARK 924 INTRA-LIGAND FREE ENERGY PREDICTED BY IDOCK:   -0.24 KCAL/MOL
REMARK 927      BINDING AFFINITY PREDICTED BY RF-SCORE:    0.00 PKD
ROOT
HETATM    1  C   UNL     1     -10.021   8.036  69.569  1.00  0.00    -0.186 C  
HETATM    2  C   UNL     1      -9.731   9.504  69.267  1.00  0.00    -0.180 C  
HETATM    3  C   UNL     1     -10.835  10.416  69.703  1.00  0.00    -0.320 A  
HETATM    4  C   UNL     1     -11.073  11.625  69.000  1.00  0.00    -0.297 A  
HETATM    5  H   UNL     1      -4.882   4.658  69.346  1.00  0.00     0.000 HD 
HETATM    6  C   UNL     1     -12.067  12.491  69.480  1.00  0.00    -0.248 A  
HETATM    7  C   UNL     1      -8.753   7.285  69.225  1.00  0.00    -0.137 C  
HETATM    8  C   UNL     1     -12.799  12.181  70.623  1.00  0.00    -0.031 A  
HETATM    9  C   UNL     1      -8.816   5.777  69.502  1.00  0.00    -0.118 C  
HETATM   10  C   UNL     1     -12.539  11.003  71.326  1.00  0.00    -0.412 A  
HETATM   11  O   UNL     1      -5.356   4.302  70.089  1.00  0.00    -0.007 OA 
HETATM   12  O   UNL     1     -13.281  10.745  72.444  1.00  0.00    -0.576 OA 
HETATM   13  C   UNL     1      -7.370   5.275  69.134  1.00  0.00    -0.062 C  
HETATM   14  C   UNL     1     -11.554  10.105  70.884  1.00  0.00    -0.459 A  
HETATM   15  H   UNL     1     -13.104   9.943  72.922  1.00  0.00     0.000 HD 
HETATM   16  C   UNL     1     -11.217   8.862  71.670  1.00  0.00    -0.345 C  
HETATM   17  C   UNL     1     -10.399   7.790  70.995  1.00  0.00    -0.215 C  
HETATM   18  O   UNL     1     -11.553   8.690  72.840  1.00  0.00    -0.103 OA 
HETATM   19  C   UNL     1     -10.076   6.629  71.618  1.00  0.00    -0.184 C  
HETATM   20  C   UNL     1      -9.332   5.463  70.935  1.00  0.00    -0.156 C  
HETATM   21  O   UNL     1     -10.559   6.319  72.886  1.00  0.00    -0.211 OA 
HETATM   22  H   UNL     1     -10.332   5.506  73.323  1.00  0.00     0.000 HD 
HETATM   23  C   UNL     1      -8.211   4.784  71.754  1.00  0.00    -0.109 C  
HETATM   24  O   UNL     1     -10.336   4.420  70.850  1.00  0.00    -0.113 OA 
HETATM   25  O   UNL     1      -7.884   5.099  72.899  1.00  0.00    -0.096 OA 
HETATM   26  H   UNL     1      -9.877   3.703  70.429  1.00  0.00     0.000 HD 
HETATM   27  C   UNL     1      -7.418   3.718  71.073  1.00  0.00    -0.040 C  
HETATM   28  C   UNL     1      -6.750   4.218  70.026  1.00  0.00    -0.033 C  
ENDROOT
BRANCH   4  29
HETATM   29  C   UNL     1     -10.289  12.050  67.758  1.00  0.00    -0.197 C  
BRANCH  29  30
HETATM   30  N   UNL     1     -10.151  13.514  67.555  1.00  0.00    -0.231 NA 
HETATM   31  C   UNL     1      -9.912  14.202  68.830  1.00  0.00    -0.183 C  
BRANCH  30  32
HETATM   32  O   UNL     1      -8.878  13.616  66.817  1.00  0.00    -0.214 OA 
HETATM   33  C   UNL     1      -7.783  13.131  67.598  1.00  0.00    -0.168 C  
ENDBRANCH  30  32
ENDBRANCH  29  30
ENDBRANCH   4  29
BRANCH  27  34
HETATM   34  C   UNL     1      -7.961   2.371  70.719  1.00  0.00    -0.045 C  
HETATM   35  O   UNL     1      -9.081   1.981  71.036  1.00  0.00    -0.069 OA 
HETATM   36  H2  UNL     1      -6.265   1.869  69.634  1.00  0.00     0.000 HD 
HETATM   37  N   UNL     1      -7.185   1.568  69.956  1.00  0.00    -0.033 N  
HETATM   38  H1  UNL     1      -7.556   0.648  69.714  1.00  0.00     0.000 HD 
ENDBRANCH  27  34
BRANCH  13  39
HETATM   39  N   UNL     1      -7.332   5.014  67.674  1.00  0.00    -0.077 NA 
HETATM   40  C   UNL     1      -7.513   3.607  67.303  1.00  0.00    -0.071 C  
HETATM   41  C   UNL     1      -6.129   5.542  67.035  1.00  0.00    -0.030 C  
ENDBRANCH  13  39
TORSDOF 5
ENDMDL
MODEL       61
REMARK 921   NORMALIZED FREE ENERGY PREDICTED BY IDOCK:   -4.05 KCAL/MOL
REMARK 922        TOTAL FREE ENERGY PREDICTED BY IDOCK:   -6.14 KCAL/MOL
REMARK 923 INTER-LIGAND FREE ENERGY PREDICTED BY IDOCK:   -6.82 KCAL/MOL
REMARK 924 INTRA-LIGAND FREE ENERGY PREDICTED BY IDOCK:    0.68 KCAL/MOL
REMARK 927      BINDING AFFINITY PREDICTED BY RF-SCORE:    0.00 PKD
ROOT
HETATM    1  C   UNL     1      -8.261  12.478  67.813  1.00  0.00    -0.166 C  
HETATM    2  C   UNL     1      -9.271  11.466  68.346  1.00  0.00    -0.183 C  
HETATM    3  C   UNL     1      -8.622  10.265  68.959  1.00  0.00    -0.162 A  
HETATM    4  C   UNL     1      -9.282   9.009  68.924  1.00  0.00    -0.140 A  
HETATM    5  H   UNL     1     -10.875  17.977  66.918  1.00  0.00     0.000 HD 
HETATM    6  C   UNL     1      -8.678   7.921  69.572  1.00  0.00    -0.134 A  
HETATM    7  C   UNL     1      -9.069  13.685  67.389  1.00  0.00    -0.222 C  
HETATM    8  C   UNL     1      -7.467   8.065  70.243  1.00  0.00    -0.072 A  
HETATM    9  C   UNL     1      -8.229  14.855  66.858  1.00  0.00    -0.178 C  
HETATM   10  C   UNL     1      -6.839   9.311  70.299  1.00  0.00    -0.071 A  
HETATM   11  O   UNL     1     -10.021  18.187  67.279  1.00  0.00    -0.305 OA 
HETATM   12  O   UNL     1      -5.654   9.404  70.973  1.00  0.00    -0.044 OA 
HETATM   13  C   UNL     1      -9.298  15.975  66.572  1.00  0.00    -0.268 C  
HETATM   14  C   UNL     1      -7.404  10.429  69.665  1.00  0.00    -0.156 A  
HETATM   15  H   UNL     1      -5.227  10.251  71.011  1.00  0.00     0.000 HD 
HETATM   16  C   UNL     1      -6.771  11.795  69.773  1.00  0.00     0.016 C  
HETATM   17  C   UNL     1      -7.230  12.872  68.822  1.00  0.00    -0.081 C  
HETATM   18  O   UNL     1      -5.919  12.080  70.611  1.00  0.00    -0.282 OA 
HETATM   19  C   UNL     1      -6.695  14.119  68.831  1.00  0.00    -0.103 C  
HETATM   20  C   UNL     1      -7.058  15.220  67.814  1.00  0.00    -0.160 C  
HETATM   21  O   UNL     1      -5.623  14.450  69.656  1.00  0.00    -0.092 OA 
HETATM   22  H   UNL     1      -5.248  15.323  69.662  1.00  0.00     0.000 HD 
HETATM   23  C   UNL     1      -7.273  16.641  68.381  1.00  0.00    -0.173 C  
HETATM   24  O   UNL     1      -5.848  15.373  67.029  1.00  0.00    -0.232 OA 
HETATM   25  O   UNL     1      -7.166  16.950  69.568  1.00  0.00    -0.160 OA 
HETATM   26  H   UNL     1      -6.073  16.051  66.403  1.00  0.00     0.000 HD 
HETATM   27  C   UNL     1      -7.718  17.697  67.424  1.00  0.00    -0.214 C  
HETATM   28  C   UNL     1      -8.921  17.402  66.917  1.00  0.00    -0.245 C  
ENDROOT
BRANCH   4  29
HETATM   29  C   UNL     1     -10.627   8.779  68.236  1.00  0.00    -0.142 C  
BRANCH  29  30
HETATM   30  N   UNL     1     -10.565   8.120  66.908  1.00  0.00    -0.311 NA 
HETATM   31  C   UNL     1      -9.188   7.737  66.573  1.00  0.00    -0.184 C  
BRANCH  30  32
HETATM   32  O   UNL     1     -11.271   6.846  67.149  1.00  0.00    -0.352 OA 
HETATM   33  C   UNL     1     -10.571   5.745  66.565  1.00  0.00    -0.229 C  
ENDBRANCH  30  32
ENDBRANCH  29  30
ENDBRANCH   4  29
BRANCH  27  34
HETATM   34  C   UNL     1      -6.852  18.269  66.348  1.00  0.00    -0.226 C  
HETATM   35  O   UNL     1      -7.251  18.533  65.218  1.00  0.00    -0.504 OA 
HETATM   36  H2  UNL     1      -5.210  18.398  67.610  1.00  0.00     0.000 HD 
HETATM   37  N   UNL     1      -5.571  18.561  66.670  1.00  0.00    -0.145 N  
HETATM   38  H1  UNL     1      -4.980  18.951  65.936  1.00  0.00     0.000 HD 
ENDBRANCH  27  34
BRANCH  13  39
HETATM   39  N   UNL     1      -9.852  15.745  65.215  1.00  0.00    -0.382 NA 
HETATM   40  C   UNL     1     -10.971  16.622  64.859  1.00  0.00    -0.150 C  
HETATM   41  C   UNL     1     -10.225  14.351  64.985  1.00  0.00    -0.374 C  
ENDBRANCH  13  39
TORSDOF 5
ENDMDL
MODEL       62
REMARK 921   NORMALIZED FREE ENERGY PREDICTED BY IDOCK:   -4.05 KCAL/MOL
REMARK 922        TOTAL FREE ENERGY PREDICTED BY IDOCK:   -6.14 KCAL/MOL
REMARK 923 INTER-LIGAND FREE ENERGY PREDICTED BY IDOCK:   -5.86 KCAL/MOL
REMARK 924 INTRA-LIGAND FREE ENERGY PREDICTED BY IDOCK:   -0.28 KCAL/MOL
REMARK 927      BINDING AFFINITY PREDICTED BY RF-SCORE:    0.00 PKD
ROOT
HETATM    1  C   UNL     1      -9.519  14.359  69.041  1.00  0.00    -0.042 C  
HETATM    2  C   UNL     1      -9.977  13.004  68.509  1.00  0.00    -0.174 C  
HETATM    3  C   UNL     1     -10.933  12.312  69.428  1.00  0.00    -0.092 A  
HETATM    4  C   UNL     1     -10.975  10.894  69.467  1.00  0.00    -0.306 A  
HETATM    5  H   UNL     1      -7.053  17.796  64.571  1.00  0.00     0.000 HD 
HETATM    6  C   UNL     1     -11.933  10.277  70.286  1.00  0.00    -0.348 A  
HETATM    7  C   UNL     1      -8.706  14.987  67.930  1.00  0.00    -0.155 C  
HETATM    8  C   UNL     1     -12.830  11.033  71.037  1.00  0.00    -0.442 A  
HETATM    9  C   UNL     1      -8.181  16.394  68.248  1.00  0.00    -0.177 C  
HETATM   10  C   UNL     1     -12.801  12.427  70.970  1.00  0.00    -0.155 A  
HETATM   11  O   UNL     1      -7.558  18.417  65.084  1.00  0.00     0.039 OA 
HETATM   12  O   UNL     1     -13.705  13.124  71.722  1.00  0.00    -0.326 OA 
HETATM   13  C   UNL     1      -7.454  16.824  66.918  1.00  0.00    -0.222 C  
HETATM   14  C   UNL     1     -11.861  13.089  70.165  1.00  0.00    -0.324 A  
HETATM   15  H   UNL     1     -13.685  14.073  71.677  1.00  0.00     0.000 HD 
HETATM   16  C   UNL     1     -11.862  14.592  70.032  1.00  0.00    -0.308 C  
HETATM   17  C   UNL     1     -10.651  15.257  69.427  1.00  0.00    -0.257 C  
HETATM   18  O   UNL     1     -12.810  15.300  70.368  1.00  0.00    -0.370 OA 
HETATM   19  C   UNL     1     -10.556  16.604  69.297  1.00  0.00    -0.343 C  
HETATM   20  C   UNL     1      -9.299  17.333  68.780  1.00  0.00    -0.239 C  
HETATM   21  O   UNL     1     -11.534  17.459  69.800  1.00  0.00     0.477 OA 
HETATM   22  H   UNL     1     -11.467  18.402  69.708  1.00  0.00     0.000 HD 
HETATM   23  C   UNL     1      -9.532  18.486  67.777  1.00  0.00    -0.289 C  
HETATM   24  O   UNL     1      -8.804  18.030  69.951  1.00  0.00     1.094 OA 
HETATM   25  O   UNL     1     -10.635  18.860  67.377  1.00  0.00    -0.422 OA 
HETATM   26  H   UNL     1      -8.029  18.479  69.633  1.00  0.00     0.000 HD 
HETATM   27  C   UNL     1      -8.321  19.138  67.195  1.00  0.00    -0.300 C  
HETATM   28  C   UNL     1      -7.611  18.264  66.473  1.00  0.00    -0.242 C  
ENDROOT
BRANCH   4  29
HETATM   29  C   UNL     1     -10.047   9.997  68.648  1.00  0.00    -0.172 C  
BRANCH  29  30
HETATM   30  N   UNL     1      -9.816   8.638  69.200  1.00  0.00    -0.180 NA 
HETATM   31  C   UNL     1      -9.161   7.772  68.212  1.00  0.00    -0.139 C  
BRANCH  30  32
HETATM   32  O   UNL     1      -8.793   8.883  70.235  1.00  0.00    -0.147 OA 
HETATM   33  C   UNL     1      -9.298   8.602  71.543  1.00  0.00    -0.249 C  
ENDBRANCH  30  32
ENDBRANCH  29  30
ENDBRANCH   4  29
BRANCH  27  34
HETATM   34  C   UNL     1      -7.392  20.015  67.970  1.00  0.00    -0.291 C  
HETATM   35  O   UNL     1      -6.896  19.700  69.049  1.00  0.00    -0.316 OA 
HETATM   36  H2  UNL     1      -7.393  21.477  66.498  1.00  0.00     0.000 HD 
HETATM   37  N   UNL     1      -7.038  21.195  67.413  1.00  0.00    -0.400 N  
HETATM   38  H1  UNL     1      -6.403  21.793  67.942  1.00  0.00     0.000 HD 
ENDBRANCH  27  34
BRANCH  13  39
HETATM   39  N   UNL     1      -6.071  16.289  66.957  1.00  0.00    -0.320 NA 
HETATM   40  C   UNL     1      -5.467  16.263  68.292  1.00  0.00    -0.108 C  
HETATM   41  C   UNL     1      -5.176  16.968  66.023  1.00  0.00     0.384 C  
ENDBRANCH  13  39
TORSDOF 5
ENDMDL
MODEL       63
REMARK 921   NORMALIZED FREE ENERGY PREDICTED BY IDOCK:   -3.99 KCAL/MOL
REMARK 922        TOTAL FREE ENERGY PREDICTED BY IDOCK:   -6.06 KCAL/MOL
REMARK 923 INTER-LIGAND FREE ENERGY PREDICTED BY IDOCK:   -5.73 KCAL/MOL
REMARK 924 INTRA-LIGAND FREE ENERGY PREDICTED BY IDOCK:   -0.33 KCAL/MOL
REMARK 927      BINDING AFFINITY PREDICTED BY RF-SCORE:    0.00 PKD
ROOT
HETATM    1  C   UNL     1      -9.161   8.889  66.602  1.00  0.00    -0.192 C  
HETATM    2  C   UNL     1      -8.032   8.398  67.503  1.00  0.00    -0.106 C  
HETATM    3  C   UNL     1      -7.661   6.971  67.246  1.00  0.00    -0.109 A  
HETATM    4  C   UNL     1      -7.152   6.171  68.302  1.00  0.00    -0.082 A  
HETATM    5  H   UNL     1      -9.431  15.036  66.509  1.00  0.00     0.000 HD 
HETATM    6  C   UNL     1      -6.747   4.860  68.010  1.00  0.00    -0.055 A  
HETATM    7  C   UNL     1      -9.291  10.372  66.871  1.00  0.00    -0.186 C  
HETATM    8  C   UNL     1      -6.830   4.354  66.716  1.00  0.00    -0.052 A  
HETATM    9  C   UNL     1     -10.356  11.079  66.021  1.00  0.00    -0.311 C  
HETATM   10  C   UNL     1      -7.304   5.157  65.677  1.00  0.00    -0.073 A  
HETATM   11  O   UNL     1      -9.602  14.787  65.608  1.00  0.00    -0.312 OA 
HETATM   12  O   UNL     1      -7.364   4.616  64.423  1.00  0.00    -0.064 OA 
HETATM   13  C   UNL     1     -10.221  12.590  66.445  1.00  0.00    -0.244 C  
HETATM   14  C   UNL     1      -7.722   6.475  65.920  1.00  0.00    -0.090 A  
HETATM   15  H   UNL     1      -7.686   5.163  63.716  1.00  0.00     0.000 HD 
HETATM   16  C   UNL     1      -8.174   7.375  64.796  1.00  0.00    -0.057 C  
HETATM   17  C   UNL     1      -8.906   8.645  65.148  1.00  0.00    -0.147 C  
HETATM   18  O   UNL     1      -7.953   7.137  63.610  1.00  0.00    -0.128 OA 
HETATM   19  C   UNL     1      -9.372   9.496  64.200  1.00  0.00     0.024 C  
HETATM   20  C   UNL     1     -10.214  10.752  64.508  1.00  0.00    -0.359 C  
HETATM   21  O   UNL     1      -9.284   9.200  62.843  1.00  0.00    -0.494 OA 
HETATM   22  H   UNL     1      -9.610   9.796  62.179  1.00  0.00     0.000 HD 
HETATM   23  C   UNL     1      -9.849  12.036  63.730  1.00  0.00    -0.269 C  
HETATM   24  O   UNL     1     -11.523  10.423  63.979  1.00  0.00     0.997 OA 
HETATM   25  O   UNL     1      -8.954  12.121  62.889  1.00  0.00     0.132 OA 
HETATM   26  H   UNL     1     -12.041  11.196  64.169  1.00  0.00     0.000 HD 
HETATM   27  C   UNL     1     -10.592  13.283  64.085  1.00  0.00    -0.331 C  
HETATM   28  C   UNL     1     -10.350  13.634  65.354  1.00  0.00    -0.332 C  
ENDROOT
BRANCH   4  29
HETATM   29  C   UNL     1      -7.000   6.666  69.741  1.00  0.00    -0.066 C  
BRANCH  29  30
HETATM   30  N   UNL     1      -6.113   5.852  70.609  1.00  0.00    -0.029 NA 
HETATM   31  C   UNL     1      -5.263   6.709  71.445  1.00  0.00    -0.026 C  
BRANCH  30  32
HETATM   32  O   UNL     1      -7.068   5.227  71.545  1.00  0.00    -0.062 OA 
HETATM   33  C   UNL     1      -7.870   6.209  72.204  1.00  0.00    -0.101 C  
ENDBRANCH  30  32
ENDBRANCH  29  30
ENDBRANCH   4  29
BRANCH  27  34
HETATM   34  C   UNL     1     -12.034  13.514  63.771  1.00  0.00    -0.422 C  
HETATM   35  O   UNL     1     -12.895  12.640  63.829  1.00  0.00    -0.710 OA 
HETATM   36  H2  UNL     1     -11.735  15.541  63.445  1.00  0.00     0.000 HD 
HETATM   37  N   UNL     1     -12.410  14.776  63.462  1.00  0.00    -0.992 N  
HETATM   38  H1  UNL     1     -13.395  14.933  63.248  1.00  0.00     0.000 HD 
ENDBRANCH  27  34
BRANCH  13  39
HETATM   39  N   UNL     1     -11.041  12.799  67.664  1.00  0.00    -0.247 NA 
HETATM   40  C   UNL     1     -10.279  13.215  68.845  1.00  0.00    -0.005 C  
HETATM   41  C   UNL     1     -11.870  11.643  67.994  1.00  0.00    -0.225 C  
ENDBRANCH  13  39
TORSDOF 5
ENDMDL
MODEL       64
REMARK 921   NORMALIZED FREE ENERGY PREDICTED BY IDOCK:   -3.88 KCAL/MOL
REMARK 922        TOTAL FREE ENERGY PREDICTED BY IDOCK:   -5.92 KCAL/MOL
REMARK 923 INTER-LIGAND FREE ENERGY PREDICTED BY IDOCK:   -5.28 KCAL/MOL
REMARK 924 INTRA-LIGAND FREE ENERGY PREDICTED BY IDOCK:   -0.63 KCAL/MOL
REMARK 927      BINDING AFFINITY PREDICTED BY RF-SCORE:    0.00 PKD
ROOT
HETATM    1  C   UNL     1      -8.750  10.452  69.621  1.00  0.00    -0.056 C  
HETATM    2  C   UNL     1      -9.289  10.820  68.241  1.00  0.00    -0.161 C  
HETATM    3  C   UNL     1      -8.794  12.148  67.759  1.00  0.00    -0.172 A  
HETATM    4  C   UNL     1      -9.599  12.930  66.891  1.00  0.00    -0.240 A  
HETATM    5  H   UNL     1      -9.403   4.436  70.738  1.00  0.00     0.000 HD 
HETATM    6  C   UNL     1      -9.074  14.135  66.401  1.00  0.00    -0.143 A  
HETATM    7  C   UNL     1      -9.204   9.031  69.877  1.00  0.00    -0.181 C  
HETATM    8  C   UNL     1      -7.792  14.554  66.746  1.00  0.00     0.324 A  
HETATM    9  C   UNL     1      -8.723   8.444  71.211  1.00  0.00    -0.203 C  
HETATM   10  C   UNL     1      -6.995  13.764  67.576  1.00  0.00    -0.145 A  
HETATM   11  O   UNL     1      -8.549   4.643  71.100  1.00  0.00    -0.107 OA 
HETATM   12  O   UNL     1      -5.742  14.215  67.883  1.00  0.00    -0.141 OA 
HETATM   13  C   UNL     1      -9.265   6.966  71.178  1.00  0.00    -0.154 C  
HETATM   14  C   UNL     1      -7.476  12.550  68.092  1.00  0.00    -0.117 A  
HETATM   15  H   UNL     1      -5.199  13.678  68.448  1.00  0.00     0.000 HD 
HETATM   16  C   UNL     1      -6.602  11.655  68.936  1.00  0.00    -0.079 C  
HETATM   17  C   UNL     1      -7.261  10.546  69.719  1.00  0.00    -0.152 C  
HETATM   18  O   UNL     1      -5.380  11.768  68.999  1.00  0.00    -0.050 OA 
HETATM   19  C   UNL     1      -6.555   9.714  70.525  1.00  0.00    -0.107 C  
HETATM   20  C   UNL     1      -7.195   8.634  71.421  1.00  0.00    -0.091 C  
HETATM   21  O   UNL     1      -5.192   9.894  70.750  1.00  0.00    -0.041 OA 
HETATM   22  H   UNL     1      -4.698   9.311  71.314  1.00  0.00     0.000 HD 
HETATM   23  C   UNL     1      -6.498   7.255  71.448  1.00  0.00    -0.036 C  
HETATM   24  O   UNL     1      -6.968   9.129  72.765  1.00  0.00    -0.306 OA 
HETATM   25  O   UNL     1      -5.478   6.969  70.820  1.00  0.00    -0.023 OA 
HETATM   26  H   UNL     1      -7.363   8.463  73.317  1.00  0.00     0.000 HD 
HETATM   27  C   UNL     1      -7.158   6.172  72.235  1.00  0.00    -0.084 C  
HETATM   28  C   UNL     1      -8.360   5.880  71.725  1.00  0.00    -0.119 C  
ENDROOT
BRANCH   4  29
HETATM   29  C   UNL     1     -11.002  12.523  66.442  1.00  0.00    -0.273 C  
BRANCH  29  30
HETATM   30  N   UNL     1     -11.321  12.784  65.016  1.00  0.00    -0.301 NA 
HETATM   31  C   UNL     1     -10.965  11.633  64.177  1.00  0.00    -0.376 C  
BRANCH  30  32
HETATM   32  O   UNL     1     -12.796  12.818  65.019  1.00  0.00    -0.743 OA 
HETATM   33  C   UNL     1     -13.286  14.156  65.136  1.00  0.00     0.192 C  
ENDBRANCH  30  32
ENDBRANCH  29  30
ENDBRANCH   4  29
BRANCH  27  34
HETATM   34  C   UNL     1      -7.233   6.152  73.728  1.00  0.00    -0.084 C  
HETATM   35  O   UNL     1      -6.411   6.694  74.461  1.00  0.00    -0.078 OA 
HETATM   36  H2  UNL     1      -9.033   5.120  73.716  1.00  0.00     0.000 HD 
HETATM   37  N   UNL     1      -8.304   5.546  74.289  1.00  0.00    -0.110 N  
HETATM   38  H1  UNL     1      -8.355   5.533  75.308  1.00  0.00     0.000 HD 
ENDBRANCH  27  34
BRANCH  13  39
HETATM   39  N   UNL     1     -10.662   6.977  71.676  1.00  0.00    -0.219 NA 
HETATM   40  C   UNL     1     -11.652   6.471  70.721  1.00  0.00    -0.377 C  
HETATM   41  C   UNL     1     -11.077   8.290  72.167  1.00  0.00    -0.328 C  
ENDBRANCH  13  39
TORSDOF 5
ENDMDL
MODEL       65
REMARK 921   NORMALIZED FREE ENERGY PREDICTED BY IDOCK:   -3.63 KCAL/MOL
REMARK 922        TOTAL FREE ENERGY PREDICTED BY IDOCK:   -5.60 KCAL/MOL
REMARK 923 INTER-LIGAND FREE ENERGY PREDICTED BY IDOCK:   -6.24 KCAL/MOL
REMARK 924 INTRA-LIGAND FREE ENERGY PREDICTED BY IDOCK:    0.64 KCAL/MOL
REMARK 927      BINDING AFFINITY PREDICTED BY RF-SCORE:    0.00 PKD
ROOT
HETATM    1  C   UNL     1     -10.193   8.879  67.364  1.00  0.00    -0.313 C  
HETATM    2  C   UNL     1      -9.697   7.729  68.236  1.00  0.00    -0.169 C  
HETATM    3  C   UNL     1      -9.321   6.518  67.442  1.00  0.00    -0.125 A  
HETATM    4  C   UNL     1      -9.453   5.227  68.015  1.00  0.00    -0.147 A  
HETATM    5  H   UNL     1     -10.066  14.216  70.425  1.00  0.00     0.000 HD 
HETATM    6  C   UNL     1      -9.024   4.119  67.270  1.00  0.00    -0.142 A  
HETATM    7  C   UNL     1     -10.364  10.060  68.294  1.00  0.00    -0.224 C  
HETATM    8  C   UNL     1      -8.471   4.276  66.002  1.00  0.00    -0.113 A  
HETATM    9  C   UNL     1     -10.820  11.352  67.601  1.00  0.00    -0.286 C  
HETATM   10  C   UNL     1      -8.316   5.553  65.457  1.00  0.00    -0.136 A  
HETATM   11  O   UNL     1      -9.773  14.448  69.552  1.00  0.00     0.094 OA 
HETATM   12  O   UNL     1      -7.764   5.656  64.211  1.00  0.00    -0.084 OA 
HETATM   13  C   UNL     1     -10.840  12.408  68.769  1.00  0.00    -0.226 C  
HETATM   14  C   UNL     1      -8.732   6.691  66.164  1.00  0.00    -0.154 A  
HETATM   15  H   UNL     1      -7.659   6.524  63.840  1.00  0.00     0.000 HD 
HETATM   16  C   UNL     1      -8.510   8.080  65.616  1.00  0.00    -0.149 C  
HETATM   17  C   UNL     1      -9.255   9.227  66.253  1.00  0.00    -0.236 C  
HETATM   18  O   UNL     1      -7.736   8.326  64.694  1.00  0.00    -0.102 OA 
HETATM   19  C   UNL     1      -9.137  10.501  65.804  1.00  0.00    -0.179 C  
HETATM   20  C   UNL     1      -9.954  11.688  66.355  1.00  0.00    -0.206 C  
HETATM   21  O   UNL     1      -8.392  10.813  64.669  1.00  0.00    -0.336 OA 
HETATM   22  H   UNL     1      -8.310  11.706  64.355  1.00  0.00     0.000 HD 
HETATM   23  C   UNL     1      -9.182  13.005  66.598  1.00  0.00    -0.219 C  
HETATM   24  O   UNL     1     -10.834  12.035  65.257  1.00  0.00    -0.277 OA 
HETATM   25  O   UNL     1      -7.983  13.171  66.376  1.00  0.00     0.528 OA 
HETATM   26  H   UNL     1     -11.337  12.766  65.597  1.00  0.00     0.000 HD 
HETATM   27  C   UNL     1      -9.938  14.133  67.220  1.00  0.00    -0.249 C  
HETATM   28  C   UNL     1     -10.350  13.807  68.451  1.00  0.00    -0.247 C  
ENDROOT
BRANCH   4  29
HETATM   29  C   UNL     1     -10.020   4.976  69.413  1.00  0.00    -0.220 C  
BRANCH  29  30
HETATM   30  N   UNL     1      -9.019   4.884  70.505  1.00  0.00    -0.117 NA 
HETATM   31  C   UNL     1      -7.677   5.226  70.019  1.00  0.00    -0.076 C  
BRANCH  30  32
HETATM   32  O   UNL     1      -9.406   6.002  71.388  1.00  0.00    -0.146 OA 
HETATM   33  C   UNL     1     -10.271   5.561  72.437  1.00  0.00    -0.196 C  
ENDBRANCH  30  32
ENDBRANCH  29  30
ENDBRANCH   4  29
BRANCH  27  34
HETATM   34  C   UNL     1     -11.013  14.903  66.524  1.00  0.00    -0.327 C  
HETATM   35  O   UNL     1     -12.211  14.763  66.752  1.00  0.00    -0.231 OA 
HETATM   36  H2  UNL     1      -9.640  16.025  65.446  1.00  0.00     0.000 HD 
HETATM   37  N   UNL     1     -10.627  15.846  65.634  1.00  0.00    -0.366 N  
HETATM   38  H1  UNL     1     -11.361  16.372  65.159  1.00  0.00     0.000 HD 
ENDBRANCH  27  34
BRANCH  13  39
HETATM   39  N   UNL     1     -12.149  12.306  69.458  1.00  0.00    -0.244 NA 
HETATM   40  C   UNL     1     -12.401  13.360  70.444  1.00  0.00    -0.312 C  
HETATM   41  C   UNL     1     -12.366  10.996  70.070  1.00  0.00    -0.305 C  
ENDBRANCH  13  39
TORSDOF 5
ENDMDL
MODEL       66
REMARK 921   NORMALIZED FREE ENERGY PREDICTED BY IDOCK:   -3.48 KCAL/MOL
REMARK 922        TOTAL FREE ENERGY PREDICTED BY IDOCK:   -5.41 KCAL/MOL
REMARK 923 INTER-LIGAND FREE ENERGY PREDICTED BY IDOCK:   -5.62 KCAL/MOL
REMARK 924 INTRA-LIGAND FREE ENERGY PREDICTED BY IDOCK:    0.21 KCAL/MOL
REMARK 927      BINDING AFFINITY PREDICTED BY RF-SCORE:    0.00 PKD
ROOT
HETATM    1  C   UNL     1      -7.990   8.018  68.196  1.00  0.00    -0.128 C  
HETATM    2  C   UNL     1      -7.851   6.530  67.886  1.00  0.00    -0.108 C  
HETATM    3  C   UNL     1      -7.531   5.712  69.097  1.00  0.00    -0.083 A  
HETATM    4  C   UNL     1      -6.772   4.520  68.965  1.00  0.00    -0.046 A  
HETATM    5  H   UNL     1     -10.918  10.977  63.664  1.00  0.00     0.000 HD 
HETATM    6  C   UNL     1      -6.552   3.740  70.110  1.00  0.00    -0.033 A  
HETATM    7  C   UNL     1      -8.473   8.665  66.916  1.00  0.00    -0.113 C  
HETATM    8  C   UNL     1      -7.072   4.114  71.346  1.00  0.00    -0.039 A  
HETATM    9  C   UNL     1      -8.724  10.175  67.024  1.00  0.00    -0.137 C  
HETATM   10  C   UNL     1      -7.843   5.273  71.461  1.00  0.00    -0.113 A  
HETATM   11  O   UNL     1     -11.264  11.374  64.455  1.00  0.00    -0.304 OA 
HETATM   12  O   UNL     1      -8.335   5.596  72.695  1.00  0.00    -0.116 OA 
HETATM   13  C   UNL     1      -9.281  10.558  65.602  1.00  0.00    -0.186 C  
HETATM   14  C   UNL     1      -8.090   6.086  70.345  1.00  0.00    -0.111 A  
HETATM   15  H   UNL     1      -8.859   6.384  72.774  1.00  0.00     0.000 HD 
HETATM   16  C   UNL     1      -8.975   7.304  70.442  1.00  0.00    -0.151 C  
HETATM   17  C   UNL     1      -8.942   8.304  69.313  1.00  0.00    -0.147 C  
HETATM   18  O   UNL     1      -9.741   7.510  71.381  1.00  0.00    -0.167 OA 
HETATM   19  C   UNL     1      -9.683   9.440  69.332  1.00  0.00    -0.177 C  
HETATM   20  C   UNL     1      -9.605  10.538  68.252  1.00  0.00    -0.158 C  
HETATM   21  O   UNL     1     -10.450   9.795  70.439  1.00  0.00    -0.263 OA 
HETATM   22  H   UNL     1     -10.969  10.591  70.452  1.00  0.00     0.000 HD 
HETATM   23  C   UNL     1     -10.948  11.132  67.771  1.00  0.00    -0.262 C  
HETATM   24  O   UNL     1      -8.997  11.656  68.946  1.00  0.00    -0.368 OA 
HETATM   25  O   UNL     1     -12.057  10.799  68.192  1.00  0.00    -0.493 OA 
HETATM   26  H   UNL     1      -8.948  12.333  68.281  1.00  0.00     0.000 HD 
HETATM   27  C   UNL     1     -10.895  12.127  66.659  1.00  0.00    -0.307 C  
HETATM   28  C   UNL     1     -10.409  11.568  65.544  1.00  0.00    -0.273 C  
ENDROOT
BRANCH   4  29
HETATM   29  C   UNL     1      -6.196   4.026  67.638  1.00  0.00    -0.036 C  
BRANCH  29  30
HETATM   30  N   UNL     1      -7.194   3.646  66.607  1.00  0.00    -0.066 NA 
HETATM   31  C   UNL     1      -7.401   4.736  65.647  1.00  0.00    -0.077 C  
BRANCH  30  32
HETATM   32  O   UNL     1      -6.486   2.594  65.850  1.00  0.00    -0.027 OA 
HETATM   33  C   UNL     1      -7.355   1.502  65.541  1.00  0.00    -0.053 C  
ENDBRANCH  30  32
ENDBRANCH  29  30
ENDBRANCH   4  29
BRANCH  27  34
HETATM   34  C   UNL     1     -10.347  13.510  66.802  1.00  0.00    -0.264 C  
HETATM   35  O   UNL     1     -10.370  14.149  67.851  1.00  0.00    -0.229 OA 
HETATM   36  H2  UNL     1      -9.664  13.543  64.844  1.00  0.00     0.000 HD 
HETATM   37  N   UNL     1      -9.743  14.056  65.722  1.00  0.00    -0.496 N  
HETATM   38  H1  UNL     1      -9.369  15.000  65.820  1.00  0.00     0.000 HD 
ENDBRANCH  27  34
BRANCH  13  39
HETATM   39  N   UNL     1      -8.124  10.805  64.707  1.00  0.00     0.007 NA 
HETATM   40  C   UNL     1      -8.060   9.923  63.538  1.00  0.00    -0.158 C  
HETATM   41  C   UNL     1      -6.845  10.780  65.415  1.00  0.00     0.066 C  
ENDBRANCH  13  39
TORSDOF 5
ENDMDL
MODEL       67
REMARK 921   NORMALIZED FREE ENERGY PREDICTED BY IDOCK:   -3.47 KCAL/MOL
REMARK 922        TOTAL FREE ENERGY PREDICTED BY IDOCK:   -5.39 KCAL/MOL
REMARK 923 INTER-LIGAND FREE ENERGY PREDICTED BY IDOCK:   -5.34 KCAL/MOL
REMARK 924 INTRA-LIGAND FREE ENERGY PREDICTED BY IDOCK:   -0.06 KCAL/MOL
REMARK 927      BINDING AFFINITY PREDICTED BY RF-SCORE:    0.00 PKD
ROOT
HETATM    1  C   UNL     1      -8.715  10.993  68.820  1.00  0.00    -0.146 C  
HETATM    2  C   UNL     1      -7.755   9.866  68.450  1.00  0.00    -0.084 C  
HETATM    3  C   UNL     1      -8.367   8.509  68.600  1.00  0.00    -0.123 A  
HETATM    4  C   UNL     1      -7.550   7.396  68.926  1.00  0.00    -0.103 A  
HETATM    5  H   UNL     1      -6.777  16.393  66.592  1.00  0.00     0.000 HD 
HETATM    6  C   UNL     1      -8.144   6.127  68.987  1.00  0.00    -0.112 A  
HETATM    7  C   UNL     1      -8.004  12.279  68.455  1.00  0.00    -0.152 C  
HETATM    8  C   UNL     1      -9.501   5.955  68.725  1.00  0.00    -0.143 A  
HETATM    9  C   UNL     1      -8.826  13.550  68.708  1.00  0.00     0.104 C  
HETATM   10  C   UNL     1     -10.292   7.051  68.376  1.00  0.00    -0.193 A  
HETATM   11  O   UNL     1      -7.718  16.418  66.463  1.00  0.00    -0.257 OA 
HETATM   12  O   UNL     1     -11.618   6.832  68.124  1.00  0.00    -0.469 OA 
HETATM   13  C   UNL     1      -7.892  14.702  68.177  1.00  0.00    -0.128 C  
HETATM   14  C   UNL     1      -9.743   8.341  68.302  1.00  0.00    -0.173 A  
HETATM   15  H   UNL     1     -12.156   7.577  67.886  1.00  0.00     0.000 HD 
HETATM   16  C   UNL     1     -10.571   9.523  67.862  1.00  0.00    -0.244 C  
HETATM   17  C   UNL     1     -10.029  10.908  68.111  1.00  0.00    -0.188 C  
HETATM   18  O   UNL     1     -11.653   9.413  67.288  1.00  0.00     0.773 OA 
HETATM   19  C   UNL     1     -10.720  12.025  67.773  1.00  0.00    -0.210 C  
HETATM   20  C   UNL     1     -10.254  13.459  68.100  1.00  0.00    -0.246 C  
HETATM   21  O   UNL     1     -12.013  11.960  67.261  1.00  0.00    -0.605 OA 
HETATM   22  H   UNL     1     -12.497  12.742  67.024  1.00  0.00     0.000 HD 
HETATM   23  C   UNL     1     -10.410  14.509  66.978  1.00  0.00    -0.263 C  
HETATM   24  O   UNL     1     -11.211  13.911  69.091  1.00  0.00    -0.253 OA 
HETATM   25  O   UNL     1     -10.883  14.285  65.863  1.00  0.00    -0.291 OA 
HETATM   26  H   UNL     1     -10.923  14.794  69.293  1.00  0.00     0.000 HD 
HETATM   27  C   UNL     1      -9.876  15.878  67.246  1.00  0.00    -0.234 C  
HETATM   28  C   UNL     1      -8.551  15.843  67.428  1.00  0.00    -0.172 C  
ENDROOT
BRANCH   4  29
HETATM   29  C   UNL     1      -6.048   7.499  69.195  1.00  0.00    -0.034 C  
BRANCH  29  30
HETATM   30  N   UNL     1      -5.168   7.237  68.029  1.00  0.00    -0.023 NA 
HETATM   31  C   UNL     1      -5.718   6.173  67.182  1.00  0.00    -0.016 C  
BRANCH  30  32
HETATM   32  O   UNL     1      -5.310   8.474  67.236  1.00  0.00    -0.036 OA 
HETATM   33  C   UNL     1      -5.661   8.185  65.881  1.00  0.00    -0.036 C  
ENDBRANCH  30  32
ENDBRANCH  29  30
ENDBRANCH   4  29
BRANCH  27  34
HETATM   34  C   UNL     1     -10.487  16.838  68.215  1.00  0.00    -0.341 C  
HETATM   35  O   UNL     1     -10.507  16.662  69.430  1.00  0.00    -0.308 OA 
HETATM   36  H2  UNL     1     -10.957  18.195  66.718  1.00  0.00     0.000 HD 
HETATM   37  N   UNL     1     -10.992  17.989  67.717  1.00  0.00    -0.220 N  
HETATM   38  H1  UNL     1     -11.409  18.645  68.379  1.00  0.00     0.000 HD 
ENDBRANCH  27  34
BRANCH  13  39
HETATM   39  N   UNL     1      -6.960  15.077  69.269  1.00  0.00    -0.142 NA 
HETATM   40  C   UNL     1      -6.856  16.519  69.511  1.00  0.00    -0.175 C  
HETATM   41  C   UNL     1      -5.625  14.508  69.093  1.00  0.00    -0.091 C  
ENDBRANCH  13  39
TORSDOF 5
ENDMDL
MODEL       68
REMARK 921   NORMALIZED FREE ENERGY PREDICTED BY IDOCK:   -3.31 KCAL/MOL
REMARK 922        TOTAL FREE ENERGY PREDICTED BY IDOCK:   -5.18 KCAL/MOL
REMARK 923 INTER-LIGAND FREE ENERGY PREDICTED BY IDOCK:   -5.15 KCAL/MOL
REMARK 924 INTRA-LIGAND FREE ENERGY PREDICTED BY IDOCK:   -0.03 KCAL/MOL
REMARK 927      BINDING AFFINITY PREDICTED BY RF-SCORE:    0.00 PKD
ROOT
HETATM    1  C   UNL     1      -8.503   5.306  67.497  1.00  0.00    -0.105 C  
HETATM    2  C   UNL     1      -7.415   4.775  66.568  1.00  0.00    -0.086 C  
HETATM    3  C   UNL     1      -7.863   3.595  65.765  1.00  0.00    -0.092 A  
HETATM    4  C   UNL     1      -6.920   2.613  65.365  1.00  0.00    -0.052 A  
HETATM    5  H   UNL     1      -7.215  11.013  69.408  1.00  0.00     0.000 HD 
HETATM    6  C   UNL     1      -7.359   1.558  64.552  1.00  0.00    -0.053 A  
HETATM    7  C   UNL     1      -7.950   6.580  68.097  1.00  0.00    -0.110 C  
HETATM    8  C   UNL     1      -8.685   1.476  64.135  1.00  0.00    -0.085 A  
HETATM    9  C   UNL     1      -8.917   7.309  69.041  1.00  0.00    -0.134 C  
HETATM   10  C   UNL     1      -9.601   2.462  64.508  1.00  0.00    -0.094 A  
HETATM   11  O   UNL     1      -8.152  11.032  69.251  1.00  0.00    -0.110 OA 
HETATM   12  O   UNL     1     -10.890   2.340  64.071  1.00  0.00    -0.426 OA 
HETATM   13  C   UNL     1      -8.125   8.608  69.447  1.00  0.00    -0.111 C  
HETATM   14  C   UNL     1      -9.208   3.537  65.322  1.00  0.00    -0.153 A  
HETATM   15  H   UNL     1     -11.513   3.011  64.325  1.00  0.00     0.000 HD 
HETATM   16  C   UNL     1     -10.170   4.644  65.677  1.00  0.00    -0.231 C  
HETATM   17  C   UNL     1      -9.796   5.582  66.798  1.00  0.00    -0.186 C  
HETATM   18  O   UNL     1     -11.229   4.835  65.084  1.00  0.00    -0.049 OA 
HETATM   19  C   UNL     1     -10.614   6.586  67.202  1.00  0.00    -0.328 C  
HETATM   20  C   UNL     1     -10.322   7.504  68.406  1.00  0.00    -0.195 C  
HETATM   21  O   UNL     1     -11.889   6.752  66.667  1.00  0.00    -0.146 OA 
HETATM   22  H   UNL     1     -12.462   7.455  66.949  1.00  0.00     0.000 HD 
HETATM   23  C   UNL     1     -10.600   9.011  68.210  1.00  0.00    -0.163 C  
HETATM   24  O   UNL     1     -11.328   7.122  69.378  1.00  0.00    -0.473 OA 
HETATM   25  O   UNL     1     -11.039   9.519  67.178  1.00  0.00    -0.078 OA 
HETATM   26  H   UNL     1     -11.148   7.687  70.120  1.00  0.00     0.000 HD 
HETATM   27  C   UNL     1     -10.233   9.924  69.333  1.00  0.00    -0.231 C  
HETATM   28  C   UNL     1      -8.913   9.898  69.554  1.00  0.00    -0.211 C  
ENDROOT
BRANCH   4  29
HETATM   29  C   UNL     1      -5.442   2.651  65.754  1.00  0.00    -0.016 C  
BRANCH  29  30
HETATM   30  N   UNL     1      -5.141   2.310  67.167  1.00  0.00    -0.004 NA 
HETATM   31  C   UNL     1      -5.146   3.510  68.012  1.00  0.00    -0.008 C  
BRANCH  30  32
HETATM   32  O   UNL     1      -6.336   1.546  67.574  1.00  0.00    -0.024 OA 
HETATM   33  C   UNL     1      -6.678   1.803  68.937  1.00  0.00    -0.029 C  
ENDBRANCH  30  32
ENDBRANCH  29  30
ENDBRANCH   4  29
BRANCH  27  34
HETATM   34  C   UNL     1     -10.955   9.972  70.640  1.00  0.00    -0.322 C  
HETATM   35  O   UNL     1     -10.873   9.099  71.499  1.00  0.00    -0.316 OA 
HETATM   36  H2  UNL     1     -11.755  11.843  70.236  1.00  0.00     0.000 HD 
HETATM   37  N   UNL     1     -11.694  11.074  70.904  1.00  0.00    -0.340 N  
HETATM   38  H1  UNL     1     -12.187  11.107  71.797  1.00  0.00     0.000 HD 
ENDBRANCH  27  34
BRANCH  13  39
HETATM   39  N   UNL     1      -7.247   8.271  70.594  1.00  0.00    -0.047 NA 
HETATM   40  C   UNL     1      -7.842   8.520  71.910  1.00  0.00    -0.111 C  
HETATM   41  C   UNL     1      -5.938   8.916  70.513  1.00  0.00    -0.033 C  
ENDBRANCH  13  39
TORSDOF 5
ENDMDL
MODEL       69
REMARK 921   NORMALIZED FREE ENERGY PREDICTED BY IDOCK:   -3.30 KCAL/MOL
REMARK 922        TOTAL FREE ENERGY PREDICTED BY IDOCK:   -5.17 KCAL/MOL
REMARK 923 INTER-LIGAND FREE ENERGY PREDICTED BY IDOCK:   -4.99 KCAL/MOL
REMARK 924 INTRA-LIGAND FREE ENERGY PREDICTED BY IDOCK:   -0.18 KCAL/MOL
REMARK 927      BINDING AFFINITY PREDICTED BY RF-SCORE:    0.00 PKD
ROOT
HETATM    1  C   UNL     1      -8.682   6.743  69.274  1.00  0.00    -0.135 C  
HETATM    2  C   UNL     1      -8.121   6.433  70.659  1.00  0.00    -0.113 C  
HETATM    3  C   UNL     1      -8.080   4.967  70.955  1.00  0.00    -0.092 A  
HETATM    4  C   UNL     1      -8.212   4.511  72.292  1.00  0.00    -0.109 A  
HETATM    5  H   UNL     1      -7.247  12.462  67.513  1.00  0.00     0.000 HD 
HETATM    6  C   UNL     1      -8.096   3.136  72.543  1.00  0.00    -0.064 A  
HETATM    7  C   UNL     1      -8.497   8.231  69.076  1.00  0.00    -0.131 C  
HETATM    8  C   UNL     1      -7.847   2.235  71.510  1.00  0.00    -0.040 A  
HETATM    9  C   UNL     1      -8.961   8.750  67.708  1.00  0.00    -0.140 C  
HETATM   10  C   UNL     1      -7.689   2.695  70.201  1.00  0.00    -0.043 A  
HETATM   11  O   UNL     1      -7.147  11.948  66.720  1.00  0.00    -0.107 OA 
HETATM   12  O   UNL     1      -7.442   1.774  69.223  1.00  0.00    -0.043 OA 
HETATM   13  C   UNL     1      -8.587  10.279  67.749  1.00  0.00    -0.118 C  
HETATM   14  C   UNL     1      -7.797   4.062  69.901  1.00  0.00    -0.052 A  
HETATM   15  H   UNL     1      -7.334   2.086  68.332  1.00  0.00     0.000 HD 
HETATM   16  C   UNL     1      -7.562   4.580  68.503  1.00  0.00    -0.064 C  
HETATM   17  C   UNL     1      -8.004   5.985  68.178  1.00  0.00    -0.110 C  
HETATM   18  O   UNL     1      -7.008   3.924  67.624  1.00  0.00    -0.053 OA 
HETATM   19  C   UNL     1      -7.858   6.519  66.940  1.00  0.00    -0.107 C  
HETATM   20  C   UNL     1      -8.385   7.910  66.533  1.00  0.00    -0.127 C  
HETATM   21  O   UNL     1      -7.376   5.768  65.870  1.00  0.00    -0.071 OA 
HETATM   22  H   UNL     1      -7.273   6.142  65.003  1.00  0.00     0.000 HD 
HETATM   23  C   UNL     1      -7.439   8.787  65.682  1.00  0.00    -0.085 C  
HETATM   24  O   UNL     1      -9.458   7.611  65.606  1.00  0.00    -0.392 OA 
HETATM   25  O   UNL     1      -6.316   8.451  65.304  1.00  0.00    -0.051 OA 
HETATM   26  H   UNL     1      -9.783   8.468  65.356  1.00  0.00     0.000 HD 
HETATM   27  C   UNL     1      -7.897  10.172  65.361  1.00  0.00    -0.142 C  
HETATM   28  C   UNL     1      -8.036  10.896  66.478  1.00  0.00    -0.154 C  
ENDROOT
BRANCH   4  29
HETATM   29  C   UNL     1      -8.454   5.439  73.483  1.00  0.00    -0.112 C  
BRANCH  29  30
HETATM   30  N   UNL     1      -9.871   5.611  73.886  1.00  0.00    -0.169 NA 
HETATM   31  C   UNL     1     -10.344   6.968  73.586  1.00  0.00    -0.373 C  
BRANCH  30  32
HETATM   32  O   UNL     1     -10.583   4.736  72.934  1.00  0.00    -0.196 OA 
HETATM   33  C   UNL     1     -11.464   3.838  73.612  1.00  0.00    -0.060 C  
ENDBRANCH  30  32
ENDBRANCH  29  30
ENDBRANCH   4  29
BRANCH  27  34
HETATM   34  C   UNL     1      -9.016  10.485  64.422  1.00  0.00    -0.211 C  
HETATM   35  O   UNL     1     -10.153  10.036  64.540  1.00  0.00    -0.243 OA 
HETATM   36  H2  UNL     1      -7.844  11.790  63.313  1.00  0.00     0.000 HD 
HETATM   37  N   UNL     1      -8.763  11.360  63.422  1.00  0.00    -0.434 N  
HETATM   38  H1  UNL     1      -9.528  11.574  62.781  1.00  0.00     0.000 HD 
ENDBRANCH  27  34
BRANCH  13  39
HETATM   39  N   UNL     1      -9.697  11.006  68.411  1.00  0.00    -0.173 NA 
HETATM   40  C   UNL     1     -11.006  10.359  68.289  1.00  0.00    -0.270 C  
HETATM   41  C   UNL     1      -9.794  12.401  67.985  1.00  0.00    -0.205 C  
ENDBRANCH  13  39
TORSDOF 5
ENDMDL
MODEL       70
REMARK 921   NORMALIZED FREE ENERGY PREDICTED BY IDOCK:   -3.18 KCAL/MOL
REMARK 922        TOTAL FREE ENERGY PREDICTED BY IDOCK:   -5.01 KCAL/MOL
REMARK 923 INTER-LIGAND FREE ENERGY PREDICTED BY IDOCK:   -4.49 KCAL/MOL
REMARK 924 INTRA-LIGAND FREE ENERGY PREDICTED BY IDOCK:   -0.52 KCAL/MOL
REMARK 927      BINDING AFFINITY PREDICTED BY RF-SCORE:    0.00 PKD
ROOT
HETATM    1  C   UNL     1      -8.403   9.689  68.443  1.00  0.00    -0.117 C  
HETATM    2  C   UNL     1      -8.207  10.880  67.509  1.00  0.00    -0.116 C  
HETATM    3  C   UNL     1      -7.924  12.153  68.243  1.00  0.00    -0.163 A  
HETATM    4  C   UNL     1      -8.327  13.395  67.687  1.00  0.00    -0.179 A  
HETATM    5  H   UNL     1      -7.849   4.362  65.412  1.00  0.00     0.000 HD 
HETATM    6  C   UNL     1      -7.981  14.573  68.365  1.00  0.00    -0.141 A  
HETATM    7  C   UNL     1      -8.509   8.474  67.548  1.00  0.00    -0.128 C  
HETATM    8  C   UNL     1      -7.251  14.533  69.550  1.00  0.00    -0.095 A  
HETATM    9  C   UNL     1      -8.667   7.145  68.300  1.00  0.00    -0.128 C  
HETATM   10  C   UNL     1      -6.833  13.308  70.075  1.00  0.00     0.420 A  
HETATM   11  O   UNL     1      -7.414   4.199  66.241  1.00  0.00    -0.082 OA 
HETATM   12  O   UNL     1      -6.116  13.320  71.238  1.00  0.00    -0.557 OA 
HETATM   13  C   UNL     1      -8.674   6.070  67.149  1.00  0.00    -0.109 C  
HETATM   14  C   UNL     1      -7.155  12.103  69.433  1.00  0.00     0.112 A  
HETATM   15  H   UNL     1      -5.831  12.487  71.596  1.00  0.00     0.000 HD 
HETATM   16  C   UNL     1      -6.653  10.778  69.953  1.00  0.00    -0.149 C  
HETATM   17  C   UNL     1      -7.287   9.516  69.423  1.00  0.00    -0.084 C  
HETATM   18  O   UNL     1      -5.738  10.674  70.766  1.00  0.00    -0.104 OA 
HETATM   19  C   UNL     1      -6.917   8.285  69.857  1.00  0.00    -0.044 C  
HETATM   20  C   UNL     1      -7.605   6.975  69.423  1.00  0.00    -0.099 C  
HETATM   21  O   UNL     1      -5.994   8.118  70.886  1.00  0.00    -0.033 OA 
HETATM   22  H   UNL     1      -5.734   7.256  71.190  1.00  0.00     0.000 HD 
HETATM   23  C   UNL     1      -6.678   5.786  69.086  1.00  0.00    -0.060 C  
HETATM   24  O   UNL     1      -8.272   6.524  70.628  1.00  0.00    -0.121 OA 
HETATM   25  O   UNL     1      -5.448   5.810  69.150  1.00  0.00    -0.004 OA 
HETATM   26  H   UNL     1      -8.696   5.717  70.360  1.00  0.00     0.000 HD 
HETATM   27  C   UNL     1      -7.324   4.541  68.572  1.00  0.00    -0.061 C  
HETATM   28  C   UNL     1      -7.937   4.771  67.405  1.00  0.00    -0.094 C  
ENDROOT
BRANCH   4  29
HETATM   29  C   UNL     1      -9.101  13.523  66.374  1.00  0.00    -0.044 C  
BRANCH  29  30
HETATM   30  N   UNL     1     -10.399  14.236  66.462  1.00  0.00    -0.274 NA 
HETATM   31  C   UNL     1     -10.412  15.417  65.590  1.00  0.00    -0.372 C  
BRANCH  30  32
HETATM   32  O   UNL     1     -11.332  13.282  65.831  1.00  0.00    -0.302 OA 
HETATM   33  C   UNL     1     -11.655  13.675  64.496  1.00  0.00    -0.390 C  
ENDBRANCH  30  32
ENDBRANCH  29  30
ENDBRANCH   4  29
BRANCH  27  34
HETATM   34  C   UNL     1      -8.168   3.633  69.407  1.00  0.00    -0.053 C  
HETATM   35  O   UNL     1      -9.202   3.104  69.009  1.00  0.00    -0.134 OA 
HETATM   36  H2  UNL     1      -6.849   3.723  71.006  1.00  0.00     0.000 HD 
HETATM   37  N   UNL     1      -7.726   3.340  70.651  1.00  0.00    -0.043 N  
HETATM   38  H1  UNL     1      -8.302   2.719  71.220  1.00  0.00     0.000 HD 
ENDBRANCH  27  34
BRANCH  13  39
HETATM   39  N   UNL     1     -10.061   5.955  66.636  1.00  0.00    -0.178 NA 
HETATM   40  C   UNL     1     -11.096   6.382  67.582  1.00  0.00    -0.289 C  
HETATM   41  C   UNL     1     -10.370   4.617  66.137  1.00  0.00    -0.275 C  
ENDBRANCH  13  39
TORSDOF 5
ENDMDL
MODEL       71
REMARK 921   NORMALIZED FREE ENERGY PREDICTED BY IDOCK:   -3.10 KCAL/MOL
REMARK 922        TOTAL FREE ENERGY PREDICTED BY IDOCK:   -4.91 KCAL/MOL
REMARK 923 INTER-LIGAND FREE ENERGY PREDICTED BY IDOCK:   -6.23 KCAL/MOL
REMARK 924 INTRA-LIGAND FREE ENERGY PREDICTED BY IDOCK:    1.31 KCAL/MOL
REMARK 927      BINDING AFFINITY PREDICTED BY RF-SCORE:    0.00 PKD
ROOT
HETATM    1  C   UNL     1      -9.682  13.703  67.022  1.00  0.00    -0.251 C  
HETATM    2  C   UNL     1      -8.709  14.871  66.888  1.00  0.00    -0.276 C  
HETATM    3  C   UNL     1      -9.262  16.153  67.428  1.00  0.00    -0.213 A  
HETATM    4  C   UNL     1      -8.853  17.391  66.868  1.00  0.00    -0.259 A  
HETATM    5  H   UNL     1      -6.788   8.307  66.403  1.00  0.00     0.000 HD 
HETATM    6  C   UNL     1      -9.334  18.575  67.445  1.00  0.00    -0.287 A  
HETATM    7  C   UNL     1      -8.913  12.473  66.592  1.00  0.00    -0.174 C  
HETATM    8  C   UNL     1     -10.184  18.544  68.547  1.00  0.00    -0.389 A  
HETATM    9  C   UNL     1      -9.706  11.163  66.695  1.00  0.00    -0.224 C  
HETATM   10  C   UNL     1     -10.558  17.322  69.111  1.00  0.00    -0.209 A  
HETATM   11  O   UNL     1      -7.413   8.152  67.102  1.00  0.00    -0.086 OA 
HETATM   12  O   UNL     1     -11.391  17.343  70.194  1.00  0.00     0.295 OA 
HETATM   13  C   UNL     1      -8.660  10.065  66.268  1.00  0.00    -0.129 C  
HETATM   14  C   UNL     1     -10.103  16.110  68.568  1.00  0.00    -0.241 A  
HETATM   15  H   UNL     1     -11.646  16.512  70.577  1.00  0.00     0.000 HD 
HETATM   16  C   UNL     1     -10.445  14.787  69.206  1.00  0.00    -0.224 C  
HETATM   17  C   UNL     1     -10.207  13.527  68.411  1.00  0.00    -0.245 C  
HETATM   18  O   UNL     1     -10.884  14.681  70.350  1.00  0.00    -0.076 OA 
HETATM   19  C   UNL     1     -10.513  12.298  68.897  1.00  0.00    -0.101 C  
HETATM   20  C   UNL     1     -10.384  10.994  68.084  1.00  0.00    -0.182 C  
HETATM   21  O   UNL     1     -11.152  12.134  70.123  1.00  0.00    -0.406 OA 
HETATM   22  H   UNL     1     -11.366  11.273  70.464  1.00  0.00     0.000 HD 
HETATM   23  C   UNL     1      -9.771   9.780  68.818  1.00  0.00    -0.161 C  
HETATM   24  O   UNL     1     -11.759  10.580  67.883  1.00  0.00    -0.714 OA 
HETATM   25  O   UNL     1      -9.394   9.781  69.991  1.00  0.00    -0.225 OA 
HETATM   26  H   UNL     1     -11.679   9.776  67.382  1.00  0.00     0.000 HD 
HETATM   27  C   UNL     1      -9.552   8.538  68.018  1.00  0.00    -0.168 C  
HETATM   28  C   UNL     1      -8.672   8.757  67.033  1.00  0.00    -0.123 C  
ENDROOT
BRANCH   4  29
HETATM   29  C   UNL     1      -7.897  17.508  65.680  1.00  0.00     0.426 C  
BRANCH  29  30
HETATM   30  N   UNL     1      -7.059  18.732  65.649  1.00  0.00    -0.465 NA 
HETATM   31  C   UNL     1      -7.784  19.882  66.203  1.00  0.00    -0.325 C  
BRANCH  30  32
HETATM   32  O   UNL     1      -6.008  18.426  66.639  1.00  0.00    -0.147 OA 
HETATM   33  C   UNL     1      -5.314  17.222  66.305  1.00  0.00    -0.121 C  
ENDBRANCH  30  32
ENDBRANCH  29  30
ENDBRANCH   4  29
BRANCH  27  34
HETATM   34  C   UNL     1     -10.654   7.664  67.514  1.00  0.00    -0.252 C  
HETATM   35  O   UNL     1     -11.624   7.330  68.189  1.00  0.00     0.523 OA 
HETATM   36  H2  UNL     1      -9.831   7.562  65.612  1.00  0.00     0.000 HD 
HETATM   37  N   UNL     1     -10.597   7.272  66.221  1.00  0.00    -0.199 N  
HETATM   38  H1  UNL     1     -11.350   6.675  65.877  1.00  0.00     0.000 HD 
ENDBRANCH  27  34
BRANCH  13  39
HETATM   39  N   UNL     1      -8.676   9.968  64.788  1.00  0.00    -0.171 NA 
HETATM   40  C   UNL     1      -9.946  10.351  64.167  1.00  0.00    -0.267 C  
HETATM   41  C   UNL     1      -8.267   8.651  64.304  1.00  0.00    -0.158 C  
ENDBRANCH  13  39
TORSDOF 5
ENDMDL
MODEL       72
REMARK 921   NORMALIZED FREE ENERGY PREDICTED BY IDOCK:   -2.88 KCAL/MOL
REMARK 922        TOTAL FREE ENERGY PREDICTED BY IDOCK:   -4.63 KCAL/MOL
REMARK 923 INTER-LIGAND FREE ENERGY PREDICTED BY IDOCK:   -5.95 KCAL/MOL
REMARK 924 INTRA-LIGAND FREE ENERGY PREDICTED BY IDOCK:    1.33 KCAL/MOL
REMARK 927      BINDING AFFINITY PREDICTED BY RF-SCORE:    0.00 PKD
ROOT
HETATM    1  C   UNL     1      -8.341  14.151  68.556  1.00  0.00    -0.155 C  
HETATM    2  C   UNL     1      -8.474  15.382  67.663  1.00  0.00    -0.173 C  
HETATM    3  C   UNL     1      -8.019  16.639  68.335  1.00  0.00    -0.205 A  
HETATM    4  C   UNL     1      -8.610  17.881  67.986  1.00  0.00    -0.256 A  
HETATM    5  H   UNL     1      -8.576   8.964  65.253  1.00  0.00     0.000 HD 
HETATM    6  C   UNL     1      -8.109  19.048  68.582  1.00  0.00    -0.397 A  
HETATM    7  C   UNL     1      -8.677  12.965  67.678  1.00  0.00    -0.185 C  
HETATM    8  C   UNL     1      -7.052  18.997  69.487  1.00  0.00    -0.127 A  
HETATM    9  C   UNL     1      -8.559  11.605  68.380  1.00  0.00    -0.156 C  
HETATM   10  C   UNL     1      -6.457  17.774  69.803  1.00  0.00    -0.058 A  
HETATM   11  O   UNL     1      -7.905   8.790  65.902  1.00  0.00    -0.098 OA 
HETATM   12  O   UNL     1      -5.421  17.775  70.694  1.00  0.00    -0.259 OA 
HETATM   13  C   UNL     1      -8.883  10.572  67.236  1.00  0.00    -0.136 C  
HETATM   14  C   UNL     1      -6.923  16.579  69.233  1.00  0.00    -0.227 A  
HETATM   15  H   UNL     1      -5.016  16.943  70.908  1.00  0.00     0.000 HD 
HETATM   16  C   UNL     1      -6.248  15.259  69.513  1.00  0.00    -0.131 C  
HETATM   17  C   UNL     1      -6.975  13.991  69.143  1.00  0.00    -0.103 C  
HETATM   18  O   UNL     1      -5.125  15.166  70.006  1.00  0.00    -0.095 OA 
HETATM   19  C   UNL     1      -6.453  12.763  69.386  1.00  0.00    -0.096 C  
HETATM   20  C   UNL     1      -7.201  11.440  69.119  1.00  0.00    -0.102 C  
HETATM   21  O   UNL     1      -5.256  12.599  70.078  1.00  0.00    -0.081 OA 
HETATM   22  H   UNL     1      -4.890  11.739  70.248  1.00  0.00     0.000 HD 
HETATM   23  C   UNL     1      -6.385  10.305  68.462  1.00  0.00    -0.051 C  
HETATM   24  O   UNL     1      -7.456  10.918  70.448  1.00  0.00    -0.359 OA 
HETATM   25  O   UNL     1      -5.196  10.380  68.151  1.00  0.00    -0.035 OA 
HETATM   26  H   UNL     1      -7.917  10.104  70.283  1.00  0.00     0.000 HD 
HETATM   27  C   UNL     1      -7.119   9.053  68.110  1.00  0.00    -0.078 C  
HETATM   28  C   UNL     1      -8.065   9.297  67.195  1.00  0.00    -0.109 C  
ENDROOT
BRANCH   4  29
HETATM   29  C   UNL     1      -9.750  18.022  66.978  1.00  0.00    -0.303 C  
BRANCH  29  30
HETATM   30  N   UNL     1     -10.172  16.768  66.306  1.00  0.00    -0.322 NA 
HETATM   31  C   UNL     1     -11.153  16.039  67.120  1.00  0.00    -0.104 C  
BRANCH  30  32
HETATM   32  O   UNL     1     -10.932  17.268  65.144  1.00  0.00    -0.555 OA 
HETATM   33  C   UNL     1     -11.620  16.207  64.477  1.00  0.00    -0.164 C  
ENDBRANCH  30  32
ENDBRANCH  29  30
ENDBRANCH   4  29
BRANCH  27  34
HETATM   34  C   UNL     1      -7.642   8.080  69.118  1.00  0.00    -0.097 C  
HETATM   35  O   UNL     1      -7.775   8.338  70.311  1.00  0.00    -0.079 OA 
HETATM   36  H2  UNL     1      -7.988   6.629  67.676  1.00  0.00     0.000 HD 
HETATM   37  N   UNL     1      -8.041   6.869  68.666  1.00  0.00    -0.119 N  
HETATM   38  H1  UNL     1      -8.398   6.206  69.354  1.00  0.00     0.000 HD 
ENDBRANCH  27  34
BRANCH  13  39
HETATM   39  N   UNL     1     -10.357  10.416  67.163  1.00  0.00    -0.225 NA 
HETATM   40  C   UNL     1     -10.982  11.075  66.013  1.00  0.00    -0.067 C  
HETATM   41  C   UNL     1     -11.031  10.826  68.393  1.00  0.00    -0.248 C  
ENDBRANCH  13  39
TORSDOF 5
ENDMDL
MODEL       73
REMARK 921   NORMALIZED FREE ENERGY PREDICTED BY IDOCK:   -2.83 KCAL/MOL
REMARK 922        TOTAL FREE ENERGY PREDICTED BY IDOCK:   -4.57 KCAL/MOL
REMARK 923 INTER-LIGAND FREE ENERGY PREDICTED BY IDOCK:   -4.20 KCAL/MOL
REMARK 924 INTRA-LIGAND FREE ENERGY PREDICTED BY IDOCK:   -0.36 KCAL/MOL
REMARK 927      BINDING AFFINITY PREDICTED BY RF-SCORE:    0.00 PKD
ROOT
HETATM    1  C   UNL     1     -10.218  12.733  67.987  1.00  0.00    -0.228 C  
HETATM    2  C   UNL     1      -9.528  11.551  68.662  1.00  0.00    -0.146 C  
HETATM    3  C   UNL     1      -9.668  10.277  67.889  1.00  0.00    -0.165 A  
HETATM    4  C   UNL     1      -9.686   9.034  68.572  1.00  0.00    -0.171 A  
HETATM    5  H   UNL     1      -8.188  18.087  70.242  1.00  0.00     0.000 HD 
HETATM    6  C   UNL     1      -9.746   7.856  67.813  1.00  0.00    -0.189 A  
HETATM    7  C   UNL     1      -9.839  13.952  68.798  1.00  0.00    -0.117 C  
HETATM    8  C   UNL     1      -9.778   7.899  66.421  1.00  0.00    -0.235 A  
HETATM    9  C   UNL     1     -10.400  15.274  68.256  1.00  0.00    -0.234 C  
HETATM   10  C   UNL     1      -9.730   9.126  65.756  1.00  0.00    -0.229 A  
HETATM   11  O   UNL     1      -8.275  18.251  69.311  1.00  0.00     0.012 OA 
HETATM   12  O   UNL     1      -9.759   9.116  64.389  1.00  0.00    -0.170 OA 
HETATM   13  C   UNL     1      -9.797  16.356  69.228  1.00  0.00    -0.240 C  
HETATM   14  C   UNL     1      -9.670  10.331  66.473  1.00  0.00    -0.243 A  
HETATM   15  H   UNL     1      -9.727   9.951  63.936  1.00  0.00     0.000 HD 
HETATM   16  C   UNL     1      -9.551  11.659  65.766  1.00  0.00    -0.232 C  
HETATM   17  C   UNL     1      -9.815  12.915  66.558  1.00  0.00    -0.254 C  
HETATM   18  O   UNL     1      -9.226  11.770  64.586  1.00  0.00     0.021 OA 
HETATM   19  C   UNL     1      -9.759  14.148  65.995  1.00  0.00    -0.274 C  
HETATM   20  C   UNL     1     -10.121  15.452  66.736  1.00  0.00    -0.262 C  
HETATM   21  O   UNL     1      -9.545  14.321  64.630  1.00  0.00    -0.402 OA 
HETATM   22  H   UNL     1      -9.505  15.185  64.236  1.00  0.00     0.000 HD 
HETATM   23  C   UNL     1      -9.177  16.656  66.518  1.00  0.00    -0.270 C  
HETATM   24  O   UNL     1     -11.342  15.886  66.087  1.00  0.00    -0.005 OA 
HETATM   25  O   UNL     1      -8.179  16.648  65.797  1.00  0.00    -0.344 OA 
HETATM   26  H   UNL     1     -11.565  16.688  66.544  1.00  0.00     0.000 HD 
HETATM   27  C   UNL     1      -9.460  17.895  67.303  1.00  0.00    -0.263 C  
HETATM   28  C   UNL     1      -9.337  17.664  68.615  1.00  0.00    -0.270 C  
ENDROOT
BRANCH   4  29
HETATM   29  C   UNL     1      -9.622   8.903  70.094  1.00  0.00    -0.180 C  
BRANCH  29  30
HETATM   30  N   UNL     1      -8.911   7.705  70.607  1.00  0.00    -0.144 NA 
HETATM   31  C   UNL     1      -7.610   8.070  71.182  1.00  0.00    -0.082 C  
BRANCH  30  32
HETATM   32  O   UNL     1      -9.743   7.307  71.759  1.00  0.00    -0.155 OA 
HETATM   33  C   UNL     1     -11.020   7.950  71.725  1.00  0.00    -0.243 C  
ENDBRANCH  30  32
ENDBRANCH  29  30
ENDBRANCH   4  29
BRANCH  27  34
HETATM   34  C   UNL     1     -10.636  18.785  67.062  1.00  0.00    -0.420 C  
HETATM   35  O   UNL     1     -11.685  18.718  67.696  1.00  0.00     0.805 OA 
HETATM   36  H2  UNL     1      -9.632  19.874  65.609  1.00  0.00     0.000 HD 
HETATM   37  N   UNL     1     -10.502  19.755  66.129  1.00  0.00    -0.504 N  
HETATM   38  H1  UNL     1     -11.305  20.363  65.966  1.00  0.00     0.000 HD 
ENDBRANCH  27  34
BRANCH  13  39
HETATM   39  N   UNL     1     -10.685  16.455  70.412  1.00  0.00    -0.149 NA 
HETATM   40  C   UNL     1     -12.007  15.847  70.233  1.00  0.00    -0.305 C  
HETATM   41  C   UNL     1     -10.834  17.826  70.894  1.00  0.00     2.085 C  
ENDBRANCH  13  39
TORSDOF 5
ENDMDL
MODEL       74
REMARK 921   NORMALIZED FREE ENERGY PREDICTED BY IDOCK:   -2.78 KCAL/MOL
REMARK 922        TOTAL FREE ENERGY PREDICTED BY IDOCK:   -4.50 KCAL/MOL
REMARK 923 INTER-LIGAND FREE ENERGY PREDICTED BY IDOCK:   -4.63 KCAL/MOL
REMARK 924 INTRA-LIGAND FREE ENERGY PREDICTED BY IDOCK:    0.13 KCAL/MOL
REMARK 927      BINDING AFFINITY PREDICTED BY RF-SCORE:    0.00 PKD
ROOT
HETATM    1  C   UNL     1      -8.602  12.104  69.083  1.00  0.00     0.550 C  
HETATM    2  C   UNL     1      -9.386  13.334  68.635  1.00  0.00    -0.001 C  
HETATM    3  C   UNL     1      -8.510  14.521  68.385  1.00  0.00    -0.163 A  
HETATM    4  C   UNL     1      -9.019  15.831  68.587  1.00  0.00    -0.204 A  
HETATM    5  H   UNL     1     -11.938   6.974  68.428  1.00  0.00     0.000 HD 
HETATM    6  C   UNL     1      -8.195  16.922  68.273  1.00  0.00    -0.222 A  
HETATM    7  C   UNL     1      -9.602  10.969  69.126  1.00  0.00    -0.081 C  
HETATM    8  C   UNL     1      -6.912  16.732  67.767  1.00  0.00    -0.151 A  
HETATM    9  C   UNL     1      -9.003   9.611  69.516  1.00  0.00    -0.203 C  
HETATM   10  C   UNL     1      -6.430  15.440  67.543  1.00  0.00    -0.144 A  
HETATM   11  O   UNL     1     -11.065   6.713  68.158  1.00  0.00    -0.257 OA 
HETATM   12  O   UNL     1      -5.166  15.305  67.040  1.00  0.00    -0.112 OA 
HETATM   13  C   UNL     1     -10.225   8.624  69.406  1.00  0.00    -0.210 C  
HETATM   14  C   UNL     1      -7.217  14.317  67.841  1.00  0.00    -0.166 A  
HETATM   15  H   UNL     1      -4.838  14.427  66.888  1.00  0.00     0.000 HD 
HETATM   16  C   UNL     1      -6.734  12.919  67.543  1.00  0.00    -0.154 C  
HETATM   17  C   UNL     1      -7.467  11.761  68.172  1.00  0.00    -0.098 C  
HETATM   18  O   UNL     1      -5.791  12.676  66.794  1.00  0.00    -0.196 OA 
HETATM   19  C   UNL     1      -7.083  10.474  67.980  1.00  0.00    -0.086 C  
HETATM   20  C   UNL     1      -7.736   9.266  68.683  1.00  0.00    -0.085 C  
HETATM   21  O   UNL     1      -5.932  10.152  67.266  1.00  0.00    -0.053 OA 
HETATM   22  H   UNL     1      -5.663   9.250  67.131  1.00  0.00     0.000 HD 
HETATM   23  C   UNL     1      -8.013   8.023  67.806  1.00  0.00    -0.127 C  
HETATM   24  O   UNL     1      -6.702   8.794  69.582  1.00  0.00    -0.039 OA 
HETATM   25  O   UNL     1      -7.742   7.931  66.608  1.00  0.00    -0.094 OA 
HETATM   26  H   UNL     1      -7.105   8.050  70.015  1.00  0.00     0.000 HD 
HETATM   27  C   UNL     1      -8.731   6.882  68.448  1.00  0.00    -0.124 C  
HETATM   28  C   UNL     1      -9.961   7.248  68.829  1.00  0.00    -0.166 C  
ENDROOT
BRANCH   4  29
HETATM   29  C   UNL     1     -10.427  16.120  69.108  1.00  0.00    -0.265 C  
BRANCH  29  30
HETATM   30  N   UNL     1     -11.349  16.765  68.141  1.00  0.00    -0.156 NA 
HETATM   31  C   UNL     1     -10.855  18.089  67.743  1.00  0.00    -0.228 C  
BRANCH  30  32
HETATM   32  O   UNL     1     -11.197  15.920  66.941  1.00  0.00    -0.168 OA 
HETATM   33  C   UNL     1     -10.890  16.705  65.787  1.00  0.00    -0.104 C  
ENDBRANCH  30  32
ENDBRANCH  29  30
ENDBRANCH   4  29
BRANCH  27  34
HETATM   34  C   UNL     1      -8.129   5.999  69.493  1.00  0.00    -0.107 C  
HETATM   35  O   UNL     1      -6.940   6.012  69.797  1.00  0.00    -0.062 OA 
HETATM   36  H2  UNL     1      -9.968   5.173  69.986  1.00  0.00     0.000 HD 
HETATM   37  N   UNL     1      -8.965   5.184  70.177  1.00  0.00    -0.117 N  
HETATM   38  H1  UNL     1      -8.554   4.581  70.890  1.00  0.00     0.000 HD 
ENDBRANCH  27  34
BRANCH  13  39
HETATM   39  N   UNL     1     -10.971   8.673  70.688  1.00  0.00    -0.235 NA 
HETATM   40  C   UNL     1     -11.550   9.981  71.005  1.00  0.00    -0.393 C  
HETATM   41  C   UNL     1     -10.181   8.195  71.820  1.00  0.00    -0.212 C  
ENDBRANCH  13  39
TORSDOF 5
ENDMDL
MODEL       75
REMARK 921   NORMALIZED FREE ENERGY PREDICTED BY IDOCK:   -2.39 KCAL/MOL
REMARK 922        TOTAL FREE ENERGY PREDICTED BY IDOCK:   -3.99 KCAL/MOL
REMARK 923 INTER-LIGAND FREE ENERGY PREDICTED BY IDOCK:   -5.40 KCAL/MOL
REMARK 924 INTRA-LIGAND FREE ENERGY PREDICTED BY IDOCK:    1.41 KCAL/MOL
REMARK 927      BINDING AFFINITY PREDICTED BY RF-SCORE:    0.00 PKD
ROOT
HETATM    1  C   UNL     1      -8.760  15.487  68.252  1.00  0.00    -0.170 C  
HETATM    2  C   UNL     1      -8.648  16.924  67.751  1.00  0.00    -0.208 C  
HETATM    3  C   UNL     1      -7.937  17.822  68.714  1.00  0.00    -0.240 A  
HETATM    4  C   UNL     1      -8.264  19.201  68.769  1.00  0.00    -0.382 A  
HETATM    5  H   UNL     1     -10.095  11.619  63.655  1.00  0.00     0.000 HD 
HETATM    6  C   UNL     1      -7.527  20.028  69.631  1.00  0.00     0.150 A  
HETATM    7  C   UNL     1      -9.344  14.693  67.104  1.00  0.00    -0.231 C  
HETATM    8  C   UNL     1      -6.493  19.514  70.409  1.00  0.00    -0.045 A  
HETATM    9  C   UNL     1      -9.499  13.192  67.387  1.00  0.00    -0.214 C  
HETATM   10  C   UNL     1      -6.158  18.161  70.327  1.00  0.00     0.038 A  
HETATM   11  O   UNL     1      -9.466  11.139  64.181  1.00  0.00    -0.220 OA 
HETATM   12  O   UNL     1      -5.133  17.705  71.108  1.00  0.00    -0.383 OA 
HETATM   13  C   UNL     1     -10.042  12.616  66.025  1.00  0.00    -0.262 C  
HETATM   14  C   UNL     1      -6.867  17.295  69.480  1.00  0.00    -0.080 A  
HETATM   15  H   UNL     1      -4.905  16.785  71.052  1.00  0.00     0.000 HD 
HETATM   16  C   UNL     1      -6.473  15.846  69.332  1.00  0.00    -0.167 C  
HETATM   17  C   UNL     1      -7.449  14.904  68.673  1.00  0.00    -0.124 C  
HETATM   18  O   UNL     1      -5.388  15.400  69.699  1.00  0.00    -0.098 OA 
HETATM   19  C   UNL     1      -7.189  13.581  68.526  1.00  0.00    -0.110 C  
HETATM   20  C   UNL     1      -8.196  12.562  67.954  1.00  0.00    -0.165 C  
HETATM   21  O   UNL     1      -6.042  12.996  69.059  1.00  0.00    -0.078 OA 
HETATM   22  H   UNL     1      -5.860  12.070  68.956  1.00  0.00     0.000 HD 
HETATM   23  C   UNL     1      -7.638  11.529  66.949  1.00  0.00    -0.151 C  
HETATM   24  O   UNL     1      -8.536  11.739  69.097  1.00  0.00    -0.360 OA 
HETATM   25  O   UNL     1      -6.462  11.458  66.589  1.00  0.00    -0.132 OA 
HETATM   26  H   UNL     1      -9.157  11.112  68.744  1.00  0.00     0.000 HD 
HETATM   27  C   UNL     1      -8.617  10.597  66.314  1.00  0.00    -0.156 C  
HETATM   28  C   UNL     1      -9.503  11.274  65.573  1.00  0.00    -0.229 C  
ENDROOT
BRANCH   4  29
HETATM   29  C   UNL     1      -9.362  19.845  67.923  1.00  0.00    -0.344 C  
BRANCH  29  30
HETATM   30  N   UNL     1      -9.018  20.087  66.500  1.00  0.00    -0.354 NA 
HETATM   31  C   UNL     1      -7.685  20.691  66.375  1.00  0.00     0.009 C  
BRANCH  30  32
HETATM   32  O   UNL     1      -8.872  18.718  65.968  1.00  0.00    -0.479 OA 
HETATM   33  C   UNL     1      -7.619  18.549  65.302  1.00  0.00     0.864 C  
ENDBRANCH  30  32
ENDBRANCH  29  30
ENDBRANCH   4  29
BRANCH  27  34
HETATM   34  C   UNL     1      -9.317   9.496  67.043  1.00  0.00    -0.148 C  
HETATM   35  O   UNL     1     -10.242   9.678  67.830  1.00  0.00    -0.174 OA 
HETATM   36  H2  UNL     1      -8.203   8.030  66.088  1.00  0.00     0.000 HD 
HETATM   37  N   UNL     1      -8.938   8.228  66.768  1.00  0.00    -0.140 N  
HETATM   38  H1  UNL     1      -9.416   7.476  67.265  1.00  0.00     0.000 HD 
ENDBRANCH  27  34
BRANCH  13  39
HETATM   39  N   UNL     1     -11.517  12.776  66.015  1.00  0.00    -0.331 NA 
HETATM   40  C   UNL     1     -11.977  14.158  65.859  1.00  0.00    -0.409 C  
HETATM   41  C   UNL     1     -12.160  12.170  67.179  1.00  0.00     0.125 C  
ENDBRANCH  13  39
TORSDOF 5
ENDMDL
MODEL       76
REMARK 921   NORMALIZED FREE ENERGY PREDICTED BY IDOCK:   -2.20 KCAL/MOL
REMARK 922        TOTAL FREE ENERGY PREDICTED BY IDOCK:   -3.74 KCAL/MOL
REMARK 923 INTER-LIGAND FREE ENERGY PREDICTED BY IDOCK:   -2.84 KCAL/MOL
REMARK 924 INTRA-LIGAND FREE ENERGY PREDICTED BY IDOCK:   -0.91 KCAL/MOL
REMARK 927      BINDING AFFINITY PREDICTED BY RF-SCORE:    0.00 PKD
ROOT
HETATM    1  C   UNL     1      -7.724   8.196  70.084  1.00  0.00    -0.085 C  
HETATM    2  C   UNL     1      -8.691   9.226  69.508  1.00  0.00    -0.146 C  
HETATM    3  C   UNL     1      -8.000  10.296  68.722  1.00  0.00    -0.113 A  
HETATM    4  C   UNL     1      -8.558  11.599  68.659  1.00  0.00    -0.086 A  
HETATM    5  H   UNL     1     -10.673   3.061  71.759  1.00  0.00     0.000 HD 
HETATM    6  C   UNL     1      -7.923  12.558  67.855  1.00  0.00    -0.157 A  
HETATM    7  C   UNL     1      -8.587   7.112  70.692  1.00  0.00    -0.143 C  
HETATM    8  C   UNL     1      -6.779  12.242  67.126  1.00  0.00    -0.105 A  
HETATM    9  C   UNL     1      -7.801   5.940  71.296  1.00  0.00    -0.112 C  
HETATM   10  C   UNL     1      -6.254  10.949  67.171  1.00  0.00    -0.069 A  
HETATM   11  O   UNL     1      -9.866   2.743  71.370  1.00  0.00    -0.160 OA 
HETATM   12  O   UNL     1      -5.132  10.687  66.436  1.00  0.00    -0.048 OA 
HETATM   13  C   UNL     1      -8.928   4.950  71.775  1.00  0.00    -0.135 C  
HETATM   14  C   UNL     1      -6.853   9.956  67.961  1.00  0.00    -0.072 A  
HETATM   15  H   UNL     1      -4.774   9.807  66.466  1.00  0.00     0.000 HD 
HETATM   16  C   UNL     1      -6.335   8.539  67.967  1.00  0.00    -0.056 C  
HETATM   17  C   UNL     1      -6.803   7.611  69.060  1.00  0.00    -0.057 C  
HETATM   18  O   UNL     1      -5.571   8.095  67.112  1.00  0.00    -0.036 OA 
HETATM   19  C   UNL     1      -6.365   6.331  69.157  1.00  0.00    -0.041 C  
HETATM   20  C   UNL     1      -6.735   5.379  70.313  1.00  0.00    -0.047 C  
HETATM   21  O   UNL     1      -5.385   5.825  68.307  1.00  0.00    -0.003 OA 
HETATM   22  H   UNL     1      -5.079   4.929  68.375  1.00  0.00     0.000 HD 
HETATM   23  C   UNL     1      -7.098   3.928  69.924  1.00  0.00    -0.042 C  
HETATM   24  O   UNL     1      -5.486   5.210  71.029  1.00  0.00    -0.004 OA 
HETATM   25  O   UNL     1      -7.103   3.486  68.775  1.00  0.00    -0.049 OA 
HETATM   26  H   UNL     1      -5.714   4.624  71.742  1.00  0.00     0.000 HD 
HETATM   27  C   UNL     1      -7.550   3.021  71.021  1.00  0.00    -0.036 C  
HETATM   28  C   UNL     1      -8.687   3.468  71.569  1.00  0.00    -0.088 C  
ENDROOT
BRANCH   4  29
HETATM   29  C   UNL     1      -9.828  12.013  69.402  1.00  0.00     0.719 C  
BRANCH  29  30
HETATM   30  N   UNL     1     -11.089  11.907  68.628  1.00  0.00    -0.228 NA 
HETATM   31  C   UNL     1     -11.990  10.911  69.220  1.00  0.00    -0.310 C  
BRANCH  30  32
HETATM   32  O   UNL     1     -11.733  13.210  68.884  1.00  0.00    -0.285 OA 
HETATM   33  C   UNL     1     -10.933  14.290  68.399  1.00  0.00    -0.253 C  
ENDBRANCH  30  32
ENDBRANCH  29  30
ENDBRANCH   4  29
BRANCH  27  34
HETATM   34  C   UNL     1      -6.653   2.498  72.095  1.00  0.00    -0.015 C  
HETATM   35  O   UNL     1      -5.427   2.557  72.051  1.00  0.00    -0.003 OA 
HETATM   36  H2  UNL     1      -8.254   1.954  73.298  1.00  0.00     0.000 HD 
HETATM   37  N   UNL     1      -7.238   1.983  73.201  1.00  0.00    -0.028 N  
HETATM   38  H1  UNL     1      -6.625   1.626  73.934  1.00  0.00     0.000 HD 
ENDBRANCH  27  34
BRANCH  13  39
HETATM   39  N   UNL     1      -9.362   5.369  73.130  1.00  0.00    -0.139 NA 
HETATM   40  C   UNL     1      -8.792   4.574  74.223  1.00  0.00    -0.108 C  
HETATM   41  C   UNL     1     -10.815   5.426  73.267  1.00  0.00    -0.298 C  
ENDBRANCH  13  39
TORSDOF 5
ENDMDL
MODEL       77
REMARK 921   NORMALIZED FREE ENERGY PREDICTED BY IDOCK:   -2.12 KCAL/MOL
REMARK 922        TOTAL FREE ENERGY PREDICTED BY IDOCK:   -3.64 KCAL/MOL
REMARK 923 INTER-LIGAND FREE ENERGY PREDICTED BY IDOCK:   -4.14 KCAL/MOL
REMARK 924 INTRA-LIGAND FREE ENERGY PREDICTED BY IDOCK:    0.50 KCAL/MOL
REMARK 927      BINDING AFFINITY PREDICTED BY RF-SCORE:    0.00 PKD
ROOT
HETATM    1  C   UNL     1      -9.256   8.384  68.772  1.00  0.00    -0.143 C  
HETATM    2  C   UNL     1     -10.348   8.131  69.808  1.00  0.00    -0.216 C  
HETATM    3  C   UNL     1     -11.019   9.389  70.264  1.00  0.00    -0.305 A  
HETATM    4  C   UNL     1     -11.549   9.471  71.578  1.00  0.00    -0.465 A  
HETATM    5  H   UNL     1      -7.797   3.218  65.763  1.00  0.00     0.000 HD 
HETATM    6  C   UNL     1     -12.235  10.637  71.948  1.00  0.00     0.116 A  
HETATM    7  C   UNL     1      -8.808   7.018  68.302  1.00  0.00    -0.126 C  
HETATM    8  C   UNL     1     -12.403  11.688  71.050  1.00  0.00    -0.405 A  
HETATM    9  C   UNL     1      -7.730   7.046  67.210  1.00  0.00    -0.109 C  
HETATM   10  C   UNL     1     -11.904  11.587  69.750  1.00  0.00    -0.357 A  
HETATM   11  O   UNL     1      -7.783   3.886  65.088  1.00  0.00    -0.080 OA 
HETATM   12  O   UNL     1     -12.097  12.644  68.905  1.00  0.00    -0.262 OA 
HETATM   13  C   UNL     1      -7.516   5.525  66.865  1.00  0.00    -0.088 C  
HETATM   14  C   UNL     1     -11.210  10.440  69.333  1.00  0.00    -0.314 A  
HETATM   15  H   UNL     1     -11.757  12.575  68.020  1.00  0.00     0.000 HD 
HETATM   16  C   UNL     1     -10.723  10.291  67.913  1.00  0.00    -0.264 C  
HETATM   17  C   UNL     1      -9.720   9.206  67.612  1.00  0.00    -0.198 C  
HETATM   18  O   UNL     1     -11.122  10.991  66.985  1.00  0.00    -0.288 OA 
HETATM   19  C   UNL     1      -9.208   9.020  66.369  1.00  0.00    -0.188 C  
HETATM   20  C   UNL     1      -8.107   7.993  66.036  1.00  0.00    -0.110 C  
HETATM   21  O   UNL     1      -9.510   9.881  65.317  1.00  0.00    -0.228 OA 
HETATM   22  H   UNL     1      -9.152   9.750  64.447  1.00  0.00     0.000 HD 
HETATM   23  C   UNL     1      -8.299   7.168  64.743  1.00  0.00     0.021 C  
HETATM   24  O   UNL     1      -6.958   8.818  65.716  1.00  0.00    -0.074 OA 
HETATM   25  O   UNL     1      -9.251   7.280  63.970  1.00  0.00     1.350 OA 
HETATM   26  H   UNL     1      -6.279   8.185  65.510  1.00  0.00     0.000 HD 
HETATM   27  C   UNL     1      -7.291   6.105  64.456  1.00  0.00    -0.069 C  
HETATM   28  C   UNL     1      -7.310   5.163  65.407  1.00  0.00    -0.072 C  
ENDROOT
BRANCH   4  29
HETATM   29  C   UNL     1     -11.434   8.348  72.609  1.00  0.00    -0.289 C  
BRANCH  29  30
HETATM   30  N   UNL     1     -10.446   7.286  72.294  1.00  0.00    -0.208 NA 
HETATM   31  C   UNL     1      -9.191   7.501  73.024  1.00  0.00    -0.183 C  
BRANCH  30  32
HETATM   32  O   UNL     1     -11.052   6.091  72.914  1.00  0.00    -0.253 OA 
HETATM   33  C   UNL     1     -10.082   5.062  73.117  1.00  0.00    -0.164 C  
ENDBRANCH  30  32
ENDBRANCH  29  30
ENDBRANCH   4  29
BRANCH  27  34
HETATM   34  C   UNL     1      -5.877   6.380  64.058  1.00  0.00    -0.023 C  
HETATM   35  O   UNL     1      -5.215   7.319  64.492  1.00  0.00    -0.028 OA 
HETATM   36  H2  UNL     1      -5.786   4.687  62.862  1.00  0.00     0.000 HD 
HETATM   37  N   UNL     1      -5.286   5.504  63.214  1.00  0.00    -0.013 N  
HETATM   38  H1  UNL     1      -4.321   5.692  62.942  1.00  0.00     0.000 HD 
ENDBRANCH  27  34
BRANCH  13  39
HETATM   39  N   UNL     1      -6.535   4.969  67.829  1.00  0.00    -0.044 NA 
HETATM   40  C   UNL     1      -7.115   4.540  69.106  1.00  0.00    -0.052 C  
HETATM   41  C   UNL     1      -5.411   5.869  68.075  1.00  0.00    -0.004 C  
ENDBRANCH  13  39
TORSDOF 5
ENDMDL
MODEL       78
REMARK 921   NORMALIZED FREE ENERGY PREDICTED BY IDOCK:   -1.83 KCAL/MOL
REMARK 922        TOTAL FREE ENERGY PREDICTED BY IDOCK:   -3.28 KCAL/MOL
REMARK 923 INTER-LIGAND FREE ENERGY PREDICTED BY IDOCK:   -4.86 KCAL/MOL
REMARK 924 INTRA-LIGAND FREE ENERGY PREDICTED BY IDOCK:    1.59 KCAL/MOL
REMARK 927      BINDING AFFINITY PREDICTED BY RF-SCORE:    0.00 PKD
ROOT
HETATM    1  C   UNL     1      -8.450  10.016  65.503  1.00  0.00    -0.155 C  
HETATM    2  C   UNL     1      -8.735   8.528  65.319  1.00  0.00    -0.175 C  
HETATM    3  C   UNL     1      -7.621   7.658  65.812  1.00  0.00    -0.088 A  
HETATM    4  C   UNL     1      -7.384   6.399  65.203  1.00  0.00    -0.077 A  
HETATM    5  H   UNL     1     -13.611  13.341  65.077  1.00  0.00     0.000 HD 
HETATM    6  C   UNL     1      -6.379   5.578  65.737  1.00  0.00    -0.039 A  
HETATM    7  C   UNL     1      -9.726  10.732  65.116  1.00  0.00    -0.319 C  
HETATM    8  C   UNL     1      -5.637   5.979  66.844  1.00  0.00    -0.012 A  
HETATM    9  C   UNL     1      -9.669  12.257  65.275  1.00  0.00    -0.131 C  
HETATM   10  C   UNL     1      -5.896   7.207  67.456  1.00  0.00    -0.025 A  
HETATM   11  O   UNL     1     -13.131  13.755  65.785  1.00  0.00    -0.493 OA 
HETATM   12  O   UNL     1      -5.143   7.554  68.542  1.00  0.00    -0.023 OA 
HETATM   13  C   UNL     1     -11.122  12.722  64.885  1.00  0.00    -0.292 C  
HETATM   14  C   UNL     1      -6.891   8.063  66.958  1.00  0.00    -0.073 A  
HETATM   15  H   UNL     1      -5.320   8.390  68.959  1.00  0.00     0.000 HD 
HETATM   16  C   UNL     1      -7.227   9.361  67.648  1.00  0.00    -0.083 C  
HETATM   17  C   UNL     1      -8.058  10.374  66.901  1.00  0.00    -0.118 C  
HETATM   18  O   UNL     1      -6.879   9.625  68.797  1.00  0.00    -0.051 OA 
HETATM   19  C   UNL     1      -8.381  11.578  67.435  1.00  0.00    -0.148 C  
HETATM   20  C   UNL     1      -9.140  12.684  66.673  1.00  0.00    -0.193 C  
HETATM   21  O   UNL     1      -7.886  11.988  68.671  1.00  0.00    -0.162 OA 
HETATM   22  H   UNL     1      -8.113  12.831  69.045  1.00  0.00     0.000 HD 
HETATM   23  C   UNL     1     -10.256  13.419  67.450  1.00  0.00    -0.237 C  
HETATM   24  O   UNL     1      -8.143  13.721  66.496  1.00  0.00    -0.239 OA 
HETATM   25  O   UNL     1     -10.568  13.192  68.619  1.00  0.00    -0.249 OA 
HETATM   26  H   UNL     1      -8.610  14.402  66.026  1.00  0.00     0.000 HD 
HETATM   27  C   UNL     1     -11.062  14.425  66.696  1.00  0.00    -0.326 C  
HETATM   28  C   UNL     1     -11.738  13.842  65.700  1.00  0.00    -0.347 C  
ENDROOT
BRANCH   4  29
HETATM   29  C   UNL     1      -8.178   5.875  64.006  1.00  0.00    -0.066 C  
BRANCH  29  30
HETATM   30  N   UNL     1      -7.411   5.055  63.036  1.00  0.00    -0.048 NA 
HETATM   31  C   UNL     1      -5.967   5.271  63.188  1.00  0.00    -0.021 C  
BRANCH  30  32
HETATM   32  O   UNL     1      -7.648   3.681  63.520  1.00  0.00    -0.061 OA 
HETATM   33  C   UNL     1      -7.813   2.767  62.433  1.00  0.00    -0.062 C  
ENDBRANCH  30  32
ENDBRANCH  29  30
ENDBRANCH   4  29
BRANCH  27  34
HETATM   34  C   UNL     1     -10.531  15.743  66.233  1.00  0.00    -0.309 C  
HETATM   35  O   UNL     1     -10.882  16.294  65.193  1.00  0.00    -0.477 OA 
HETATM   36  H2  UNL     1      -9.371  15.980  67.937  1.00  0.00     0.000 HD 
HETATM   37  N   UNL     1      -9.657  16.382  67.043  1.00  0.00    -0.232 N  
HETATM   38  H1  UNL     1      -9.294  17.282  66.727  1.00  0.00     0.000 HD 
ENDBRANCH  27  34
BRANCH  13  39
HETATM   39  N   UNL     1     -11.177  12.868  63.410  1.00  0.00    -0.314 NA 
HETATM   40  C   UNL     1     -12.504  13.195  62.880  1.00  0.00     0.499 C  
HETATM   41  C   UNL     1     -10.637  11.708  62.705  1.00  0.00     0.283 C  
ENDBRANCH  13  39
TORSDOF 5
ENDMDL
MODEL       79
REMARK 921   NORMALIZED FREE ENERGY PREDICTED BY IDOCK:   -1.55 KCAL/MOL
REMARK 922        TOTAL FREE ENERGY PREDICTED BY IDOCK:   -2.91 KCAL/MOL
REMARK 923 INTER-LIGAND FREE ENERGY PREDICTED BY IDOCK:   -4.28 KCAL/MOL
REMARK 924 INTRA-LIGAND FREE ENERGY PREDICTED BY IDOCK:    1.37 KCAL/MOL
REMARK 927      BINDING AFFINITY PREDICTED BY RF-SCORE:    0.00 PKD
ROOT
HETATM    1  C   UNL     1      -9.060  13.655  68.107  1.00  0.00    -0.195 C  
HETATM    2  C   UNL     1      -9.830  14.221  66.918  1.00  0.00    -0.264 C  
HETATM    3  C   UNL     1      -9.610  15.689  66.729  1.00  0.00    -0.257 A  
HETATM    4  C   UNL     1     -10.633  16.491  66.161  1.00  0.00    -0.239 A  
HETATM    5  H   UNL     1      -8.646   7.523  67.780  1.00  0.00     0.000 HD 
HETATM    6  C   UNL     1     -10.367  17.849  65.931  1.00  0.00    -0.259 A  
HETATM    7  C   UNL     1      -9.257  12.155  68.052  1.00  0.00    -0.194 C  
HETATM    8  C   UNL     1      -9.127  18.401  66.242  1.00  0.00    -0.213 A  
HETATM    9  C   UNL     1      -8.517  11.378  69.149  1.00  0.00     0.150 C  
HETATM   10  C   UNL     1      -8.115  17.599  66.774  1.00  0.00    -0.236 A  
HETATM   11  O   UNL     1      -7.792   7.792  68.098  1.00  0.00    -0.116 OA 
HETATM   12  O   UNL     1      -6.914  18.185  67.059  1.00  0.00    -0.187 OA 
HETATM   13  C   UNL     1      -8.831   9.873  68.809  1.00  0.00    -0.136 C  
HETATM   14  C   UNL     1      -8.335  16.235  67.022  1.00  0.00    -0.237 A  
HETATM   15  H   UNL     1      -6.226  17.640  67.421  1.00  0.00     0.000 HD 
HETATM   16  C   UNL     1      -7.230  15.343  67.534  1.00  0.00    -0.196 C  
HETATM   17  C   UNL     1      -7.602  13.988  68.082  1.00  0.00    -0.141 C  
HETATM   18  O   UNL     1      -6.042  15.654  67.504  1.00  0.00    -0.171 OA 
HETATM   19  C   UNL     1      -6.677  13.135  68.588  1.00  0.00    -0.096 C  
HETATM   20  C   UNL     1      -7.020  11.785  69.252  1.00  0.00    -0.065 C  
HETATM   21  O   UNL     1      -5.339  13.499  68.718  1.00  0.00    -0.069 OA 
HETATM   22  H   UNL     1      -4.691  12.901  69.073  1.00  0.00     0.000 HD 
HETATM   23  C   UNL     1      -6.127  10.582  68.873  1.00  0.00    -0.040 C  
HETATM   24  O   UNL     1      -6.690  11.997  70.647  1.00  0.00    -0.256 OA 
HETATM   25  O   UNL     1      -5.170  10.630  68.099  1.00  0.00    -0.038 OA 
HETATM   26  H   UNL     1      -6.902  11.166  71.055  1.00  0.00     0.000 HD 
HETATM   27  C   UNL     1      -6.505   9.250  69.433  1.00  0.00    -0.044 C  
HETATM   28  C   UNL     1      -7.707   8.871  68.985  1.00  0.00    -0.090 C  
ENDROOT
BRANCH   4  29
HETATM   29  C   UNL     1     -12.008  15.952  65.763  1.00  0.00     1.005 C  
BRANCH  29  30
HETATM   30  N   UNL     1     -12.015  14.973  64.647  1.00  0.00    -0.399 NA 
HETATM   31  C   UNL     1     -10.649  14.665  64.207  1.00  0.00     0.472 C  
BRANCH  30  32
HETATM   32  O   UNL     1     -12.496  13.742  65.303  1.00  0.00    -0.437 OA 
HETATM   33  C   UNL     1     -12.735  12.704  64.351  1.00  0.00    -0.332 C  
ENDBRANCH  30  32
ENDBRANCH  29  30
ENDBRANCH   4  29
BRANCH  27  34
HETATM   34  C   UNL     1      -6.372   8.882  70.875  1.00  0.00    -0.054 C  
HETATM   35  O   UNL     1      -5.936   9.640  71.737  1.00  0.00    -0.238 OA 
HETATM   36  H2  UNL     1      -7.225   7.015  70.573  1.00  0.00     0.000 HD 
HETATM   37  N   UNL     1      -6.815   7.660  71.249  1.00  0.00    -0.049 N  
HETATM   38  H1  UNL     1      -6.725   7.409  72.234  1.00  0.00     0.000 HD 
ENDBRANCH  27  34
BRANCH  13  39
HETATM   39  N   UNL     1     -10.133   9.524  69.427  1.00  0.00    -0.187 NA 
HETATM   40  C   UNL     1     -10.970  10.676  69.772  1.00  0.00    -0.280 C  
HETATM   41  C   UNL     1      -9.991   8.651  70.591  1.00  0.00    -0.192 C  
ENDBRANCH  13  39
TORSDOF 5
ENDMDL
MODEL       80
REMARK 921   NORMALIZED FREE ENERGY PREDICTED BY IDOCK:   -1.55 KCAL/MOL
REMARK 922        TOTAL FREE ENERGY PREDICTED BY IDOCK:   -2.91 KCAL/MOL
REMARK 923 INTER-LIGAND FREE ENERGY PREDICTED BY IDOCK:   -4.59 KCAL/MOL
REMARK 924 INTRA-LIGAND FREE ENERGY PREDICTED BY IDOCK:    1.68 KCAL/MOL
REMARK 927      BINDING AFFINITY PREDICTED BY RF-SCORE:    0.00 PKD
ROOT
HETATM    1  C   UNL     1      -8.741  10.647  67.889  1.00  0.00    -0.127 C  
HETATM    2  C   UNL     1      -7.944  11.909  68.203  1.00  0.00    -0.151 C  
HETATM    3  C   UNL     1      -8.780  13.150  68.160  1.00  0.00    -0.193 A  
HETATM    4  C   UNL     1      -8.190  14.388  67.796  1.00  0.00    -0.173 A  
HETATM    5  H   UNL     1      -5.742   5.598  69.731  1.00  0.00     0.000 HD 
HETATM    6  C   UNL     1      -8.985  15.543  67.836  1.00  0.00    -0.173 A  
HETATM    7  C   UNL     1      -7.799   9.489  68.139  1.00  0.00    -0.083 C  
HETATM    8  C   UNL     1     -10.318  15.485  68.233  1.00  0.00    -0.235 A  
HETATM    9  C   UNL     1      -8.425   8.105  67.922  1.00  0.00    -0.132 C  
HETATM   10  C   UNL     1     -10.883  14.267  68.618  1.00  0.00    -0.253 A  
HETATM   11  O   UNL     1      -6.649   5.417  69.949  1.00  0.00    -0.042 OA 
HETATM   12  O   UNL     1     -12.194  14.261  69.004  1.00  0.00    -0.482 OA 
HETATM   13  C   UNL     1      -7.269   7.112  68.320  1.00  0.00    -0.091 C  
HETATM   14  C   UNL     1     -10.128  13.084  68.594  1.00  0.00    -0.143 A  
HETATM   15  H   UNL     1     -12.579  13.433  69.266  1.00  0.00     0.000 HD 
HETATM   16  C   UNL     1     -10.706  11.774  69.071  1.00  0.00    -0.169 C  
HETATM   17  C   UNL     1      -9.974  10.502  68.723  1.00  0.00    -0.200 C  
HETATM   18  O   UNL     1     -11.728  11.693  69.749  1.00  0.00    -0.306 OA 
HETATM   19  C   UNL     1     -10.438   9.280  69.086  1.00  0.00    -0.217 C  
HETATM   20  C   UNL     1      -9.781   7.949  68.666  1.00  0.00    -0.158 C  
HETATM   21  O   UNL     1     -11.667   9.123  69.722  1.00  0.00    -0.434 OA 
HETATM   22  H   UNL     1     -11.992   8.267  69.976  1.00  0.00     0.000 HD 
HETATM   23  C   UNL     1      -9.652   6.866  69.761  1.00  0.00    -0.154 C  
HETATM   24  O   UNL     1     -10.747   7.364  67.756  1.00  0.00    -0.351 OA 
HETATM   25  O   UNL     1     -10.041   6.989  70.924  1.00  0.00    -0.193 OA 
HETATM   26  H   UNL     1     -10.342   6.545  67.498  1.00  0.00     0.000 HD 
HETATM   27  C   UNL     1      -8.934   5.609  69.396  1.00  0.00    -0.124 C  
HETATM   28  C   UNL     1      -7.656   5.865  69.089  1.00  0.00    -0.090 C  
ENDROOT
BRANCH   4  29
HETATM   29  C   UNL     1      -6.726  14.538  67.381  1.00  0.00     0.009 C  
BRANCH  29  30
HETATM   30  N   UNL     1      -6.453  15.576  66.356  1.00  0.00     1.104 NA 
HETATM   31  C   UNL     1      -7.579  16.510  66.238  1.00  0.00    -0.122 C  
BRANCH  30  32
HETATM   32  O   UNL     1      -5.367  16.360  66.977  1.00  0.00    -0.295 OA 
HETATM   33  C   UNL     1      -5.843  17.620  67.457  1.00  0.00    -0.139 C  
ENDBRANCH  30  32
ENDBRANCH  29  30
ENDBRANCH   4  29
BRANCH  27  34
HETATM   34  C   UNL     1      -9.475   4.580  68.457  1.00  0.00    -0.152 C  
HETATM   35  O   UNL     1      -9.895   3.483  68.814  1.00  0.00    -0.040 OA 
HETATM   36  H2  UNL     1      -9.257   5.829  66.815  1.00  0.00     0.000 HD 
HETATM   37  N   UNL     1      -9.555   4.912  67.148  1.00  0.00    -0.148 N  
HETATM   38  H1  UNL     1      -9.925   4.210  66.507  1.00  0.00     0.000 HD 
ENDBRANCH  27  34
BRANCH  13  39
HETATM   39  N   UNL     1      -6.403   6.916  67.132  1.00  0.00    -0.043 NA 
HETATM   40  C   UNL     1      -6.884   7.574  65.914  1.00  0.00    -0.057 C  
HETATM   41  C   UNL     1      -6.130   5.507  66.857  1.00  0.00    -0.030 C  
ENDBRANCH  13  39
TORSDOF 5
ENDMDL
MODEL       81
REMARK 921   NORMALIZED FREE ENERGY PREDICTED BY IDOCK:   -1.06 KCAL/MOL
REMARK 922        TOTAL FREE ENERGY PREDICTED BY IDOCK:   -2.27 KCAL/MOL
REMARK 923 INTER-LIGAND FREE ENERGY PREDICTED BY IDOCK:   -1.66 KCAL/MOL
REMARK 924 INTRA-LIGAND FREE ENERGY PREDICTED BY IDOCK:   -0.61 KCAL/MOL
REMARK 927      BINDING AFFINITY PREDICTED BY RF-SCORE:    0.00 PKD
ROOT
HETATM    1  C   UNL     1      -7.452   7.997  69.603  1.00  0.00    -0.091 C  
HETATM    2  C   UNL     1      -6.646   9.152  69.016  1.00  0.00    -0.047 C  
HETATM    3  C   UNL     1      -6.256  10.169  70.042  1.00  0.00    -0.076 A  
HETATM    4  C   UNL     1      -6.096  11.528  69.666  1.00  0.00    -0.114 A  
HETATM    5  H   UNL     1      -7.519   3.162  65.796  1.00  0.00     0.000 HD 
HETATM    6  C   UNL     1      -5.659  12.441  70.637  1.00  0.00    -0.168 A  
HETATM    7  C   UNL     1      -7.615   6.994  68.482  1.00  0.00    -0.115 C  
HETATM    8  C   UNL     1      -5.377  12.029  71.937  1.00  0.00     0.298 A  
HETATM    9  C   UNL     1      -8.369   5.717  68.879  1.00  0.00    -0.101 C  
HETATM   10  C   UNL     1      -5.508  10.684  72.291  1.00  0.00     0.456 A  
HETATM   11  O   UNL     1      -7.429   2.772  66.658  1.00  0.00    -0.069 OA 
HETATM   12  O   UNL     1      -5.216  10.328  73.577  1.00  0.00    -0.325 OA 
HETATM   13  C   UNL     1      -8.322   4.841  67.571  1.00  0.00    -0.104 C  
HETATM   14  C   UNL     1      -5.943   9.733  71.354  1.00  0.00     0.005 A  
HETATM   15  H   UNL     1      -5.305   9.413  73.818  1.00  0.00     0.000 HD 
HETATM   16  C   UNL     1      -6.025   8.268  71.704  1.00  0.00    -0.040 C  
HETATM   17  C   UNL     1      -6.794   7.355  70.782  1.00  0.00    -0.048 C  
HETATM   18  O   UNL     1      -5.477   7.777  72.689  1.00  0.00    -0.036 OA 
HETATM   19  C   UNL     1      -6.943   6.031  71.036  1.00  0.00    -0.068 C  
HETATM   20  C   UNL     1      -7.804   5.080  70.180  1.00  0.00    -0.067 C  
HETATM   21  O   UNL     1      -6.472   5.454  72.213  1.00  0.00    -0.051 OA 
HETATM   22  H   UNL     1      -6.576   4.526  72.391  1.00  0.00     0.000 HD 
HETATM   23  C   UNL     1      -7.195   3.696  69.859  1.00  0.00    -0.042 C  
HETATM   24  O   UNL     1      -8.911   4.744  71.052  1.00  0.00    -0.120 OA 
HETATM   25  O   UNL     1      -6.093   3.305  70.243  1.00  0.00    -0.021 OA 
HETATM   26  H   UNL     1      -9.442   4.158  70.524  1.00  0.00     0.000 HD 
HETATM   27  C   UNL     1      -7.975   2.802  68.952  1.00  0.00    -0.062 C  
HETATM   28  C   UNL     1      -8.102   3.351  67.738  1.00  0.00    -0.080 C  
ENDROOT
BRANCH   4  29
HETATM   29  C   UNL     1      -6.354  12.051  68.253  1.00  0.00    -0.052 C  
BRANCH  29  30
HETATM   30  N   UNL     1      -7.632  12.780  68.062  1.00  0.00    -0.118 NA 
HETATM   31  C   UNL     1      -7.722  13.341  66.708  1.00  0.00     0.510 C  
BRANCH  30  32
HETATM   32  O   UNL     1      -8.629  11.693  68.095  1.00  0.00    -0.145 OA 
HETATM   33  C   UNL     1      -9.088  11.367  66.781  1.00  0.00    -0.176 C  
ENDBRANCH  30  32
ENDBRANCH  29  30
ENDBRANCH   4  29
BRANCH  27  34
HETATM   34  C   UNL     1      -9.258   2.138  69.335  1.00  0.00    -0.118 C  
HETATM   35  O   UNL     1      -9.613   1.955  70.496  1.00  0.00    -0.118 OA 
HETATM   36  H2  UNL     1      -9.857   1.946  67.358  1.00  0.00     0.000 HD 
HETATM   37  N   UNL     1     -10.093   1.774  68.336  1.00  0.00     0.162 N  
HETATM   38  H1  UNL     1     -10.969   1.321  68.597  1.00  0.00     0.000 HD 
ENDBRANCH  27  34
BRANCH  13  39
HETATM   39  N   UNL     1      -9.454   5.250  66.704  1.00  0.00    -0.136 NA 
HETATM   40  C   UNL     1     -10.509   5.997  67.394  1.00  0.00    -0.246 C  
HETATM   41  C   UNL     1     -10.040   4.130  65.972  1.00  0.00    -0.140 C  
ENDBRANCH  13  39
TORSDOF 5
ENDMDL
MODEL       82
REMARK 921   NORMALIZED FREE ENERGY PREDICTED BY IDOCK:   -0.57 KCAL/MOL
REMARK 922        TOTAL FREE ENERGY PREDICTED BY IDOCK:   -1.64 KCAL/MOL
REMARK 923 INTER-LIGAND FREE ENERGY PREDICTED BY IDOCK:   -2.16 KCAL/MOL
REMARK 924 INTRA-LIGAND FREE ENERGY PREDICTED BY IDOCK:    0.52 KCAL/MOL
REMARK 927      BINDING AFFINITY PREDICTED BY RF-SCORE:    0.00 PKD
ROOT
HETATM    1  C   UNL     1      -8.791  14.942  68.394  1.00  0.00    -0.178 C  
HETATM    2  C   UNL     1      -9.507  16.194  67.897  1.00  0.00    -0.214 C  
HETATM    3  C   UNL     1      -8.655  17.421  67.977  1.00  0.00    -0.240 A  
HETATM    4  C   UNL     1      -9.258  18.689  68.180  1.00  0.00    -0.340 A  
HETATM    5  H   UNL     1     -11.638   9.834  66.476  1.00  0.00     0.000 HD 
HETATM    6  C   UNL     1      -8.436  19.827  68.177  1.00  0.00    -0.327 A  
HETATM    7  C   UNL     1      -9.719  13.786  68.090  1.00  0.00    -0.227 C  
HETATM    8  C   UNL     1      -7.064  19.721  67.970  1.00  0.00    -0.312 A  
HETATM    9  C   UNL     1      -9.162  12.408  68.475  1.00  0.00    -0.077 C  
HETATM   10  C   UNL     1      -6.482  18.472  67.741  1.00  0.00    -0.209 A  
HETATM   11  O   UNL     1     -10.714   9.624  66.394  1.00  0.00    -0.075 OA 
HETATM   12  O   UNL     1      -5.131  18.421  67.539  1.00  0.00    -0.142 OA 
HETATM   13  C   UNL     1     -10.278  11.411  67.985  1.00  0.00    -0.185 C  
HETATM   14  C   UNL     1      -7.263  17.306  67.735  1.00  0.00    -0.169 A  
HETATM   15  H   UNL     1      -4.736  17.571  67.383  1.00  0.00     0.000 HD 
HETATM   16  C   UNL     1      -6.658  15.959  67.423  1.00  0.00    -0.188 C  
HETATM   17  C   UNL     1      -7.461  14.724  67.746  1.00  0.00    -0.178 C  
HETATM   18  O   UNL     1      -5.556  15.818  66.897  1.00  0.00    -0.255 OA 
HETATM   19  C   UNL     1      -6.982  13.474  67.526  1.00  0.00    -0.145 C  
HETATM   20  C   UNL     1      -7.722  12.183  67.933  1.00  0.00    -0.134 C  
HETATM   21  O   UNL     1      -5.683  13.256  67.074  1.00  0.00    -0.374 OA 
HETATM   22  H   UNL     1      -5.348  12.380  66.919  1.00  0.00     0.000 HD 
HETATM   23  C   UNL     1      -7.729  11.034  66.899  1.00  0.00    -0.140 C  
HETATM   24  O   UNL     1      -6.903  11.643  69.000  1.00  0.00    -0.090 OA 
HETATM   25  O   UNL     1      -7.185  11.076  65.796  1.00  0.00    -0.045 OA 
HETATM   26  H   UNL     1      -7.359  10.848  69.251  1.00  0.00     0.000 HD 
HETATM   27  C   UNL     1      -8.521   9.815  67.240  1.00  0.00    -0.125 C  
HETATM   28  C   UNL     1      -9.822  10.110  67.355  1.00  0.00    -0.187 C  
ENDROOT
BRANCH   4  29
HETATM   29  C   UNL     1     -10.760  18.890  68.382  1.00  0.00     0.107 C  
BRANCH  29  30
HETATM   30  N   UNL     1     -11.506  19.385  67.199  1.00  0.00     0.289 NA 
HETATM   31  C   UNL     1     -11.113  20.760  66.865  1.00  0.00     2.145 C  
BRANCH  30  32
HETATM   32  O   UNL     1     -10.964  18.553  66.107  1.00  0.00    -0.104 OA 
HETATM   33  C   UNL     1     -10.598  19.351  64.978  1.00  0.00     1.093 C  
ENDBRANCH  30  32
ENDBRANCH  29  30
ENDBRANCH   4  29
BRANCH  27  34
HETATM   34  C   UNL     1      -8.137   8.840  68.306  1.00  0.00    -0.114 C  
HETATM   35  O   UNL     1      -7.579   9.157  69.353  1.00  0.00    -0.074 OA 
HETATM   36  H2  UNL     1      -8.984   7.246  67.284  1.00  0.00     0.000 HD 
HETATM   37  N   UNL     1      -8.481   7.546  68.119  1.00  0.00    -0.124 N  
HETATM   38  H1  UNL     1      -8.218   6.880  68.847  1.00  0.00     0.000 HD 
ENDBRANCH  27  34
BRANCH  13  39
HETATM   39  N   UNL     1     -11.301  11.306  69.054  1.00  0.00    -0.250 NA 
HETATM   40  C   UNL     1     -11.763  12.593  69.582  1.00  0.00    -0.303 C  
HETATM   41  C   UNL     1     -10.882  10.442  70.156  1.00  0.00    -0.271 C  
ENDBRANCH  13  39
TORSDOF 5
ENDMDL
MODEL       83
REMARK 921   NORMALIZED FREE ENERGY PREDICTED BY IDOCK:   -0.25 KCAL/MOL
REMARK 922        TOTAL FREE ENERGY PREDICTED BY IDOCK:   -1.23 KCAL/MOL
REMARK 923 INTER-LIGAND FREE ENERGY PREDICTED BY IDOCK:   -1.11 KCAL/MOL
REMARK 924 INTRA-LIGAND FREE ENERGY PREDICTED BY IDOCK:   -0.13 KCAL/MOL
REMARK 927      BINDING AFFINITY PREDICTED BY RF-SCORE:    0.00 PKD
ROOT
HETATM    1  C   UNL     1      -8.447   9.624  67.530  1.00  0.00    -0.125 C  
HETATM    2  C   UNL     1      -7.794  10.726  68.360  1.00  0.00    -0.120 C  
HETATM    3  C   UNL     1      -8.739  11.837  68.696  1.00  0.00    -0.059 A  
HETATM    4  C   UNL     1      -8.246  13.156  68.870  1.00  0.00     0.223 A  
HETATM    5  H   UNL     1      -5.111   4.455  67.668  1.00  0.00     0.000 HD 
HETATM    6  C   UNL     1      -9.147  14.160  69.255  1.00  0.00     0.350 A  
HETATM    7  C   UNL     1      -7.418   8.519  67.427  1.00  0.00    -0.093 C  
HETATM    8  C   UNL     1     -10.492  13.873  69.474  1.00  0.00     0.200 A  
HETATM    9  C   UNL     1      -7.895   7.280  66.658  1.00  0.00    -0.102 C  
HETATM   10  C   UNL     1     -10.963  12.566  69.330  1.00  0.00    -0.080 A  
HETATM   11  O   UNL     1      -6.009   4.147  67.717  1.00  0.00    -0.025 OA 
HETATM   12  O   UNL     1     -12.290  12.334  69.559  1.00  0.00    -0.125 OA 
HETATM   13  C   UNL     1      -6.679   6.286  66.772  1.00  0.00    -0.061 C  
HETATM   14  C   UNL     1     -10.100  11.529  68.945  1.00  0.00    -0.144 A  
HETATM   15  H   UNL     1     -12.611  11.445  69.462  1.00  0.00     0.000 HD 
HETATM   16  C   UNL     1     -10.581  10.102  68.851  1.00  0.00    -0.215 C  
HETATM   17  C   UNL     1      -9.712   9.101  68.131  1.00  0.00    -0.174 C  
HETATM   18  O   UNL     1     -11.633   9.709  69.351  1.00  0.00     0.004 OA 
HETATM   19  C   UNL     1     -10.081   7.805  67.975  1.00  0.00    -0.186 C  
HETATM   20  C   UNL     1      -9.276   6.771  67.160  1.00  0.00    -0.134 C  
HETATM   21  O   UNL     1     -11.329   7.344  68.388  1.00  0.00    -0.345 OA 
HETATM   22  H   UNL     1     -11.587   6.436  68.279  1.00  0.00     0.000 HD 
HETATM   23  C   UNL     1      -9.117   5.369  67.789  1.00  0.00    -0.108 C  
HETATM   24  O   UNL     1     -10.121   6.509  66.012  1.00  0.00    -0.400 OA 
HETATM   25  O   UNL     1      -9.590   5.023  68.872  1.00  0.00    -0.130 OA 
HETATM   26  H   UNL     1      -9.625   5.873  65.510  1.00  0.00     0.000 HD 
HETATM   27  C   UNL     1      -8.261   4.387  67.058  1.00  0.00    -0.101 C  
HETATM   28  C   UNL     1      -6.996   4.819  66.989  1.00  0.00    -0.057 C  
ENDROOT
BRANCH   4  29
HETATM   29  C   UNL     1      -6.779  13.543  68.681  1.00  0.00    -0.094 C  
BRANCH  29  30
HETATM   30  N   UNL     1      -6.381  13.894  67.295  1.00  0.00    -0.220 NA 
HETATM   31  C   UNL     1      -5.931  15.289  67.213  1.00  0.00     0.278 C  
BRANCH  30  32
HETATM   32  O   UNL     1      -5.163  13.084  67.096  1.00  0.00    -0.340 OA 
HETATM   33  C   UNL     1      -5.289  12.226  65.959  1.00  0.00     1.743 C  
ENDBRANCH  30  32
ENDBRANCH  29  30
ENDBRANCH   4  29
BRANCH  27  34
HETATM   34  C   UNL     1      -8.641   3.752  65.760  1.00  0.00    -0.112 C  
HETATM   35  O   UNL     1      -8.922   2.563  65.638  1.00  0.00    -0.131 OA 
HETATM   36  H2  UNL     1      -8.548   5.557  64.742  1.00  0.00     0.000 HD 
HETATM   37  N   UNL     1      -8.732   4.555  64.676  1.00  0.00    -0.141 N  
HETATM   38  H1  UNL     1      -8.991   4.121  63.790  1.00  0.00     0.000 HD 
ENDBRANCH  27  34
BRANCH  13  39
HETATM   39  N   UNL     1      -5.723   6.603  65.684  1.00  0.00    -0.029 NA 
HETATM   40  C   UNL     1      -6.105   7.750  64.854  1.00  0.00    -0.041 C  
HETATM   41  C   UNL     1      -5.434   5.452  64.831  1.00  0.00    -0.013 C  
ENDBRANCH  13  39
TORSDOF 5
ENDMDL
MODEL       84
REMARK 921   NORMALIZED FREE ENERGY PREDICTED BY IDOCK:    0.15 KCAL/MOL
REMARK 922        TOTAL FREE ENERGY PREDICTED BY IDOCK:   -0.71 KCAL/MOL
REMARK 923 INTER-LIGAND FREE ENERGY PREDICTED BY IDOCK:   -3.32 KCAL/MOL
REMARK 924 INTRA-LIGAND FREE ENERGY PREDICTED BY IDOCK:    2.61 KCAL/MOL
REMARK 927      BINDING AFFINITY PREDICTED BY RF-SCORE:    0.00 PKD
ROOT
HETATM    1  C   UNL     1     -10.651  10.769  69.645  1.00  0.00    -0.222 C  
HETATM    2  C   UNL     1     -10.606  10.195  71.058  1.00  0.00     0.197 C  
HETATM    3  C   UNL     1     -10.420   8.710  71.076  1.00  0.00    -0.276 A  
HETATM    4  C   UNL     1     -10.962   7.942  72.139  1.00  0.00    -0.339 A  
HETATM    5  H   UNL     1      -9.700  16.849  69.677  1.00  0.00     0.000 HD 
HETATM    6  C   UNL     1     -10.706   6.563  72.163  1.00  0.00    -0.249 A  
HETATM    7  C   UNL     1     -10.672  12.273  69.810  1.00  0.00     0.542 C  
HETATM    8  C   UNL     1      -9.931   5.958  71.176  1.00  0.00    -0.236 A  
HETATM    9  C   UNL     1     -10.672  13.055  68.489  1.00  0.00    -0.275 C  
HETATM   10  C   UNL     1      -9.377   6.726  70.150  1.00  0.00    -0.159 A  
HETATM   11  O   UNL     1      -9.220  16.548  68.915  1.00  0.00    -0.247 OA 
HETATM   12  O   UNL     1      -8.621   6.087  69.208  1.00  0.00    -0.116 OA 
HETATM   13  C   UNL     1     -10.619  14.559  68.953  1.00  0.00    -0.249 C  
HETATM   14  C   UNL     1      -9.605   8.109  70.084  1.00  0.00    -0.168 A  
HETATM   15  H   UNL     1      -8.243   6.610  68.510  1.00  0.00     0.000 HD 
HETATM   16  C   UNL     1      -8.958   8.961  69.019  1.00  0.00    -0.137 C  
HETATM   17  C   UNL     1      -9.487  10.356  68.801  1.00  0.00    -0.175 C  
HETATM   18  O   UNL     1      -8.007   8.584  68.338  1.00  0.00    -0.114 OA 
HETATM   19  C   UNL     1      -8.983  11.178  67.847  1.00  0.00    -0.143 C  
HETATM   20  C   UNL     1      -9.558  12.572  67.519  1.00  0.00    -0.187 C  
HETATM   21  O   UNL     1      -8.010  10.748  66.949  1.00  0.00    -0.123 OA 
HETATM   22  H   UNL     1      -7.657  11.324  66.281  1.00  0.00     0.000 HD 
HETATM   23  C   UNL     1      -8.533  13.707  67.298  1.00  0.00    -0.194 C  
HETATM   24  O   UNL     1     -10.131  12.402  66.199  1.00  0.00    -0.237 OA 
HETATM   25  O   UNL     1      -7.310  13.574  67.354  1.00  0.00    -0.165 OA 
HETATM   26  H   UNL     1     -10.485  13.261  65.997  1.00  0.00     0.000 HD 
HETATM   27  C   UNL     1      -9.075  15.081  67.074  1.00  0.00    -0.249 C  
HETATM   28  C   UNL     1      -9.750  15.505  68.148  1.00  0.00    -0.208 C  
ENDROOT
BRANCH   4  29
HETATM   29  C   UNL     1     -11.794   8.537  73.275  1.00  0.00     1.251 C  
BRANCH  29  30
HETATM   30  N   UNL     1     -12.964   9.348  72.857  1.00  0.00    -0.048 NA 
HETATM   31  C   UNL     1     -12.886   9.691  71.431  1.00  0.00    -0.379 C  
BRANCH  30  32
HETATM   32  O   UNL     1     -14.076   8.383  72.960  1.00  0.00    -0.087 OA 
HETATM   33  C   UNL     1     -14.405   7.829  71.684  1.00  0.00    -0.481 C  
ENDBRANCH  30  32
ENDBRANCH  29  30
ENDBRANCH   4  29
BRANCH  27  34
HETATM   34  C   UNL     1      -9.795  15.503  65.834  1.00  0.00    -0.353 C  
HETATM   35  O   UNL     1      -9.712  14.912  64.761  1.00  0.00     0.004 OA 
HETATM   36  H2  UNL     1     -10.760  17.058  66.812  1.00  0.00     0.000 HD 
HETATM   37  N   UNL     1     -10.628  16.564  65.928  1.00  0.00    -0.306 N  
HETATM   38  H1  UNL     1     -11.120  16.852  65.082  1.00  0.00     0.000 HD 
ENDBRANCH  27  34
BRANCH  13  39
HETATM   39  N   UNL     1     -12.007  15.005  69.227  1.00  0.00    -0.305 NA 
HETATM   40  C   UNL     1     -12.576  15.885  68.202  1.00  0.00     1.509 C  
HETATM   41  C   UNL     1     -12.154  15.621  70.544  1.00  0.00    -0.395 C  
ENDBRANCH  13  39
TORSDOF 5
ENDMDL
MODEL       85
REMARK 921   NORMALIZED FREE ENERGY PREDICTED BY IDOCK:    0.32 KCAL/MOL
REMARK 922        TOTAL FREE ENERGY PREDICTED BY IDOCK:   -0.49 KCAL/MOL
REMARK 923 INTER-LIGAND FREE ENERGY PREDICTED BY IDOCK:   -3.03 KCAL/MOL
REMARK 924 INTRA-LIGAND FREE ENERGY PREDICTED BY IDOCK:    2.54 KCAL/MOL
REMARK 927      BINDING AFFINITY PREDICTED BY RF-SCORE:    0.00 PKD
ROOT
HETATM    1  C   UNL     1      -8.293   6.565  68.075  1.00  0.00    -0.116 C  
HETATM    2  C   UNL     1      -7.104   5.707  67.651  1.00  0.00    -0.071 C  
HETATM    3  C   UNL     1      -7.490   4.298  67.327  1.00  0.00    -0.077 A  
HETATM    4  C   UNL     1      -6.562   3.245  67.534  1.00  0.00    -0.038 A  
HETATM    5  H   UNL     1      -6.957  12.562  67.716  1.00  0.00     0.000 HD 
HETATM    6  C   UNL     1      -6.931   1.946  67.152  1.00  0.00    -0.039 A  
HETATM    7  C   UNL     1      -7.761   7.976  68.199  1.00  0.00    -0.118 C  
HETATM    8  C   UNL     1      -8.172   1.692  66.573  1.00  0.00    -0.080 A  
HETATM    9  C   UNL     1      -8.820   9.021  68.577  1.00  0.00    -0.134 C  
HETATM   10  C   UNL     1      -9.067   2.739  66.345  1.00  0.00    -0.125 A  
HETATM   11  O   UNL     1      -7.851  12.508  67.400  1.00  0.00    -0.158 OA 
HETATM   12  O   UNL     1     -10.271   2.441  65.771  1.00  0.00     0.335 OA 
HETATM   13  C   UNL     1      -8.022  10.378  68.559  1.00  0.00    -0.114 C  
HETATM   14  C   UNL     1      -8.744   4.055  66.711  1.00  0.00    -0.116 A  
HETATM   15  H   UNL     1     -10.880   3.153  65.616  1.00  0.00     0.000 HD 
HETATM   16  C   UNL     1      -9.674   5.205  66.411  1.00  0.00    -0.173 C  
HETATM   17  C   UNL     1      -9.429   6.522  67.104  1.00  0.00    -0.150 C  
HETATM   18  O   UNL     1     -10.605   5.129  65.612  1.00  0.00    -0.074 OA 
HETATM   19  C   UNL     1     -10.233   7.598  66.914  1.00  0.00    -0.294 C  
HETATM   20  C   UNL     1     -10.085   8.930  67.677  1.00  0.00    -0.218 C  
HETATM   21  O   UNL     1     -11.388   7.522  66.139  1.00  0.00     1.288 OA 
HETATM   22  H   UNL     1     -11.951   8.275  66.006  1.00  0.00     0.000 HD 
HETATM   23  C   UNL     1     -10.222  10.223  66.842  1.00  0.00    -0.230 C  
HETATM   24  O   UNL     1     -11.262   8.973  68.522  1.00  0.00    -0.445 OA 
HETATM   25  O   UNL     1     -10.449  10.261  65.632  1.00  0.00    -0.200 OA 
HETATM   26  H   UNL     1     -11.170   9.793  68.992  1.00  0.00     0.000 HD 
HETATM   27  C   UNL     1      -9.987  11.518  67.547  1.00  0.00    -0.207 C  
HETATM   28  C   UNL     1      -8.727  11.594  67.993  1.00  0.00    -0.157 C  
ENDROOT
BRANCH   4  29
HETATM   29  C   UNL     1      -5.170   3.448  68.133  1.00  0.00    -0.012 C  
BRANCH  29  30
HETATM   30  N   UNL     1      -5.129   4.168  69.430  1.00  0.00     0.000 NA 
HETATM   31  C   UNL     1      -5.295   5.614  69.237  1.00  0.00    -0.004 C  
BRANCH  30  32
HETATM   32  O   UNL     1      -6.374   3.721  70.085  1.00  0.00    -0.026 OA 
HETATM   33  C   UNL     1      -6.752   4.605  71.142  1.00  0.00    -0.031 C  
ENDBRANCH  30  32
ENDBRANCH  29  30
ENDBRANCH   4  29
BRANCH  27  34
HETATM   34  C   UNL     1     -10.912  12.093  68.571  1.00  0.00    -0.238 C  
HETATM   35  O   UNL     1     -11.792  11.448  69.134  1.00  0.00    -0.299 OA 
HETATM   36  H2  UNL     1      -9.972  13.941  68.519  1.00  0.00     0.000 HD 
HETATM   37  N   UNL     1     -10.720  13.382  68.931  1.00  0.00    -0.352 N  
HETATM   38  H1  UNL     1     -11.351  13.774  69.630  1.00  0.00     0.000 HD 
ENDBRANCH  27  34
BRANCH  13  39
HETATM   39  N   UNL     1      -7.371  10.545  69.882  1.00  0.00    -0.143 NA 
HETATM   40  C   UNL     1      -6.028  11.130  69.829  1.00  0.00    -0.095 C  
HETATM   41  C   UNL     1      -7.339   9.307  70.658  1.00  0.00    -0.123 C  
ENDBRANCH  13  39
TORSDOF 5
ENDMDL
MODEL       86
REMARK 921   NORMALIZED FREE ENERGY PREDICTED BY IDOCK:    1.47 KCAL/MOL
REMARK 922        TOTAL FREE ENERGY PREDICTED BY IDOCK:    0.99 KCAL/MOL
REMARK 923 INTER-LIGAND FREE ENERGY PREDICTED BY IDOCK:    0.95 KCAL/MOL
REMARK 924 INTRA-LIGAND FREE ENERGY PREDICTED BY IDOCK:    0.04 KCAL/MOL
REMARK 927      BINDING AFFINITY PREDICTED BY RF-SCORE:    0.00 PKD
ROOT
HETATM    1  C   UNL     1      -9.577  13.604  68.677  1.00  0.00    -0.100 C  
HETATM    2  C   UNL     1      -8.479  14.662  68.746  1.00  0.00    -0.161 C  
HETATM    3  C   UNL     1      -9.016  16.045  68.935  1.00  0.00    -0.239 A  
HETATM    4  C   UNL     1      -8.306  17.157  68.412  1.00  0.00    -0.251 A  
HETATM    5  H   UNL     1      -7.304   7.964  69.623  1.00  0.00     0.000 HD 
HETATM    6  C   UNL     1      -8.800  18.445  68.669  1.00  0.00    -0.306 A  
HETATM    7  C   UNL     1      -8.865  12.269  68.657  1.00  0.00     0.022 C  
HETATM    8  C   UNL     1      -9.953  18.635  69.427  1.00  0.00     0.029 A  
HETATM    9  C   UNL     1      -9.801  11.052  68.633  1.00  0.00    -0.197 C  
HETATM   10  C   UNL     1     -10.629  17.536  69.963  1.00  0.00     0.728 A  
HETATM   11  O   UNL     1      -8.131   7.957  70.090  1.00  0.00    -0.111 OA 
HETATM   12  O   UNL     1     -11.753  17.774  70.703  1.00  0.00     2.254 OA 
HETATM   13  C   UNL     1      -8.813   9.828  68.694  1.00  0.00    -0.126 C  
HETATM   14  C   UNL     1     -10.174  16.229  69.732  1.00  0.00    -0.169 A  
HETATM   15  H   UNL     1     -12.213  17.027  71.068  1.00  0.00     0.000 HD 
HETATM   16  C   UNL     1     -10.856  15.039  70.360  1.00  0.00    -0.149 C  
HETATM   17  C   UNL     1     -10.531  13.666  69.826  1.00  0.00     0.612 C  
HETATM   18  O   UNL     1     -11.643  15.129  71.300  1.00  0.00    -0.313 OA 
HETATM   19  C   UNL     1     -11.120  12.544  70.312  1.00  0.00     0.926 C  
HETATM   20  C   UNL     1     -10.898  11.133  69.731  1.00  0.00    -0.090 C  
HETATM   21  O   UNL     1     -12.129  12.604  71.271  1.00  0.00    -0.266 OA 
HETATM   22  H   UNL     1     -12.541  11.818  71.611  1.00  0.00     0.000 HD 
HETATM   23  C   UNL     1     -10.698   9.989  70.751  1.00  0.00    -0.202 C  
HETATM   24  O   UNL     1     -12.178  10.804  69.135  1.00  0.00    -0.633 OA 
HETATM   25  O   UNL     1     -10.714  10.125  71.975  1.00  0.00     1.288 OA 
HETATM   26  H   UNL     1     -12.041   9.935  68.777  1.00  0.00     0.000 HD 
HETATM   27  C   UNL     1     -10.388   8.635  70.205  1.00  0.00    -0.219 C  
HETATM   28  C   UNL     1      -9.222   8.644  69.547  1.00  0.00    -0.150 C  
ENDROOT
BRANCH   4  29
HETATM   29  C   UNL     1      -7.017  17.032  67.599  1.00  0.00    -0.143 C  
BRANCH  29  30
HETATM   30  N   UNL     1      -5.804  17.613  68.226  1.00  0.00    -0.158 NA 
HETATM   31  C   UNL     1      -5.739  19.062  68.004  1.00  0.00    -0.195 C  
BRANCH  30  32
HETATM   32  O   UNL     1      -6.082  17.456  69.667  1.00  0.00    -0.239 OA 
HETATM   33  C   UNL     1      -5.151  16.562  70.282  1.00  0.00    -0.190 C  
ENDBRANCH  30  32
ENDBRANCH  29  30
ENDBRANCH   4  29
BRANCH  27  34
HETATM   34  C   UNL     1     -11.370   7.788  69.463  1.00  0.00     0.230 C  
HETATM   35  O   UNL     1     -11.255   7.486  68.278  1.00  0.00     0.157 OA 
HETATM   36  H2  UNL     1     -12.522   7.474  71.159  1.00  0.00     0.000 HD 
HETATM   37  N   UNL     1     -12.412   7.284  70.163  1.00  0.00    -0.283 N  
HETATM   38  H1  UNL     1     -13.083   6.705  69.656  1.00  0.00     0.000 HD 
ENDBRANCH  27  34
BRANCH  13  39
HETATM   39  N   UNL     1      -8.371   9.526  67.310  1.00  0.00    -0.124 NA 
HETATM   40  C   UNL     1      -9.345   9.872  66.272  1.00  0.00    -0.176 C  
HETATM   41  C   UNL     1      -7.944   8.138  67.143  1.00  0.00    -0.105 C  
ENDBRANCH  13  39
TORSDOF 5
ENDMDL
MODEL       87
REMARK 921   NORMALIZED FREE ENERGY PREDICTED BY IDOCK:    4.36 KCAL/MOL
REMARK 922        TOTAL FREE ENERGY PREDICTED BY IDOCK:    4.73 KCAL/MOL
REMARK 923 INTER-LIGAND FREE ENERGY PREDICTED BY IDOCK:    3.95 KCAL/MOL
REMARK 924 INTRA-LIGAND FREE ENERGY PREDICTED BY IDOCK:    0.78 KCAL/MOL
REMARK 927      BINDING AFFINITY PREDICTED BY RF-SCORE:    0.00 PKD
ROOT
HETATM    1  C   UNL     1     -10.107  13.352  68.763  1.00  0.00    -0.094 C  
HETATM    2  C   UNL     1     -11.198  13.654  69.786  1.00  0.00    -0.092 C  
HETATM    3  C   UNL     1     -11.058  15.012  70.401  1.00  0.00    -0.263 A  
HETATM    4  C   UNL     1     -11.511  15.238  71.726  1.00  0.00    -0.494 A  
HETATM    5  H   UNL     1     -11.690   8.635  65.141  1.00  0.00     0.000 HD 
HETATM    6  C   UNL     1     -11.432  16.539  72.245  1.00  0.00    -0.016 A  
HETATM    7  C   UNL     1     -10.489  12.034  68.127  1.00  0.00    -0.218 C  
HETATM    8  C   UNL     1     -10.932  17.589  71.480  1.00  0.00     2.022 A  
HETATM    9  C   UNL     1      -9.534  11.563  67.022  1.00  0.00    -0.193 C  
HETATM   10  C   UNL     1     -10.515  17.364  70.166  1.00  0.00     0.716 A  
HETATM   11  O   UNL     1     -11.267   9.246  64.548  1.00  0.00     5.396 OA 
HETATM   12  O   UNL     1     -10.035  18.427  69.454  1.00  0.00    -0.195 OA 
HETATM   13  C   UNL     1     -10.204  10.238  66.497  1.00  0.00    -0.226 C  
HETATM   14  C   UNL     1     -10.575  16.079  69.603  1.00  0.00    -0.311 A  
HETATM   15  H   UNL     1      -9.753  18.273  68.560  1.00  0.00     0.000 HD 
HETATM   16  C   UNL     1     -10.192  15.834  68.164  1.00  0.00    -0.230 C  
HETATM   17  C   UNL     1      -9.967  14.412  67.717  1.00  0.00    -0.226 C  
HETATM   18  O   UNL     1     -10.077  16.733  67.333  1.00  0.00    -0.263 OA 
HETATM   19  C   UNL     1      -9.592  14.104  66.450  1.00  0.00    -0.293 C  
HETATM   20  C   UNL     1      -9.251  12.677  65.975  1.00  0.00     0.020 C  
HETATM   21  O   UNL     1      -9.301  15.091  65.512  1.00  0.00    -0.443 OA 
HETATM   22  H   UNL     1      -9.039  14.876  64.625  1.00  0.00     0.000 HD 
HETATM   23  C   UNL     1      -9.815  12.253  64.599  1.00  0.00    -0.100 C  
HETATM   24  O   UNL     1      -7.824  12.731  65.727  1.00  0.00     1.145 OA 
HETATM   25  O   UNL     1     -10.498  12.970  63.866  1.00  0.00    -0.392 OA 
HETATM   26  H   UNL     1      -7.614  11.851  65.435  1.00  0.00     0.000 HD 
HETATM   27  C   UNL     1      -9.575  10.844  64.168  1.00  0.00    -0.321 C  
HETATM   28  C   UNL     1     -10.170   9.984  65.003  1.00  0.00    -0.026 C  
ENDROOT
BRANCH   4  29
HETATM   29  C   UNL     1     -12.103  14.145  72.617  1.00  0.00     0.325 C  
BRANCH  29  30
HETATM   30  N   UNL     1     -13.260  14.553  73.451  1.00  0.00    -0.518 NA 
HETATM   31  C   UNL     1     -13.822  15.826  72.986  1.00  0.00    -0.421 C  
BRANCH  30  32
HETATM   32  O   UNL     1     -14.275  13.536  73.110  1.00  0.00     0.137 OA 
HETATM   33  C   UNL     1     -13.956  12.874  71.885  1.00  0.00     0.132 C  
ENDBRANCH  30  32
ENDBRANCH  29  30
ENDBRANCH   4  29
BRANCH  27  34
HETATM   34  C   UNL     1      -8.237  10.308  63.773  1.00  0.00    -0.153 C  
HETATM   35  O   UNL     1      -7.219  10.450  64.445  1.00  0.00    -0.104 OA 
HETATM   36  H2  UNL     1      -8.999   9.400  62.071  1.00  0.00     0.000 HD 
HETATM   37  N   UNL     1      -8.169   9.578  62.637  1.00  0.00    -0.138 N  
HETATM   38  H1  UNL     1      -7.255   9.212  62.367  1.00  0.00     0.000 HD 
ENDBRANCH  27  34
BRANCH  13  39
HETATM   39  N   UNL     1      -9.759   9.123  67.369  1.00  0.00    -0.154 NA 
HETATM   40  C   UNL     1     -10.822   8.524  68.180  1.00  0.00     0.066 C  
HETATM   41  C   UNL     1      -8.632   9.488  68.224  1.00  0.00    -0.120 C  
ENDBRANCH  13  39
TORSDOF 5
ENDMDL
MODEL       88
REMARK 921   NORMALIZED FREE ENERGY PREDICTED BY IDOCK:    4.40 KCAL/MOL
REMARK 922        TOTAL FREE ENERGY PREDICTED BY IDOCK:    4.78 KCAL/MOL
REMARK 923 INTER-LIGAND FREE ENERGY PREDICTED BY IDOCK:    3.43 KCAL/MOL
REMARK 924 INTRA-LIGAND FREE ENERGY PREDICTED BY IDOCK:    1.35 KCAL/MOL
REMARK 927      BINDING AFFINITY PREDICTED BY RF-SCORE:    0.00 PKD
ROOT
HETATM    1  C   UNL     1      -9.064   7.900  67.427  1.00  0.00    -0.146 C  
HETATM    2  C   UNL     1      -9.976   8.507  68.490  1.00  0.00    -0.201 C  
HETATM    3  C   UNL     1     -10.303   9.943  68.224  1.00  0.00    -0.232 A  
HETATM    4  C   UNL     1     -10.559  10.822  69.308  1.00  0.00    -0.261 A  
HETATM    5  H   UNL     1      -9.179   1.751  67.635  1.00  0.00     0.000 HD 
HETATM    6  C   UNL     1     -10.934  12.143  69.021  1.00  0.00    -0.255 A  
HETATM    7  C   UNL     1      -8.975   6.425  67.751  1.00  0.00    -0.113 C  
HETATM    8  C   UNL     1     -11.062  12.584  67.706  1.00  0.00    -0.291 A  
HETATM    9  C   UNL     1      -8.129   5.610  66.763  1.00  0.00    -0.102 C  
HETATM   10  C   UNL     1     -10.837  11.704  66.645  1.00  0.00    -0.283 A  
HETATM   11  O   UNL     1      -9.163   1.947  66.706  1.00  0.00    -0.090 OA 
HETATM   12  O   UNL     1     -10.980  12.183  65.373  1.00  0.00    -0.285 OA 
HETATM   13  C   UNL     1      -8.272   4.132  67.290  1.00  0.00    -0.099 C  
HETATM   14  C   UNL     1     -10.460  10.374  66.883  1.00  0.00    -0.300 A  
HETATM   15  H   UNL     1     -10.827  11.585  64.651  1.00  0.00     0.000 HD 
HETATM   16  C   UNL     1     -10.279   9.395  65.748  1.00  0.00     0.046 C  
HETATM   17  C   UNL     1      -9.570   8.095  66.033  1.00  0.00    -0.113 C  
HETATM   18  O   UNL     1     -10.701   9.594  64.611  1.00  0.00     1.466 OA 
HETATM   19  C   UNL     1      -9.338   7.172  65.065  1.00  0.00     1.145 C  
HETATM   20  C   UNL     1      -8.529   5.877  65.285  1.00  0.00    -0.144 C  
HETATM   21  O   UNL     1      -9.660   7.413  63.732  1.00  0.00     2.117 OA 
HETATM   22  H   UNL     1      -9.498   6.766  63.055  1.00  0.00     0.000 HD 
HETATM   23  C   UNL     1      -9.107   4.587  64.661  1.00  0.00    -0.151 C  
HETATM   24  O   UNL     1      -7.324   6.092  64.509  1.00  0.00    -0.060 OA 
HETATM   25  O   UNL     1     -10.146   4.526  64.003  1.00  0.00     0.032 OA 
HETATM   26  H   UNL     1      -6.826   5.294  64.644  1.00  0.00     0.000 HD 
HETATM   27  C   UNL     1      -8.386   3.310  64.945  1.00  0.00    -0.094 C  
HETATM   28  C   UNL     1      -8.408   3.034  66.254  1.00  0.00    -0.098 C  
ENDROOT
BRANCH   4  29
HETATM   29  C   UNL     1     -10.471  10.404  70.776  1.00  0.00     0.510 C  
BRANCH  29  30
HETATM   30  N   UNL     1      -9.108  10.091  71.273  1.00  0.00     0.842 NA 
HETATM   31  C   UNL     1      -8.980   8.666  71.598  1.00  0.00    -0.235 C  
BRANCH  30  32
HETATM   32  O   UNL     1      -8.275  10.289  70.071  1.00  0.00    -0.120 OA 
HETATM   33  C   UNL     1      -7.289  11.301  70.283  1.00  0.00     1.178 C  
ENDBRANCH  30  32
ENDBRANCH  29  30
ENDBRANCH   4  29
BRANCH  27  34
HETATM   34  C   UNL     1      -7.043   2.967  64.387  1.00  0.00    -0.056 C  
HETATM   35  O   UNL     1      -6.637   1.818  64.240  1.00  0.00    -0.021 OA 
HETATM   36  H2  UNL     1      -6.579   4.958  64.032  1.00  0.00     0.000 HD 
HETATM   37  N   UNL     1      -6.263   3.990  63.969  1.00  0.00    -0.021 N  
HETATM   38  H1  UNL     1      -5.346   3.755  63.587  1.00  0.00     0.000 HD 
ENDBRANCH  27  34
BRANCH  13  39
HETATM   39  N   UNL     1      -7.254   3.922  68.348  1.00  0.00    -0.054 NA 
HETATM   40  C   UNL     1      -7.679   4.330  69.690  1.00  0.00    -0.053 C  
HETATM   41  C   UNL     1      -5.969   4.540  68.029  1.00  0.00    -0.027 C  
ENDBRANCH  13  39
TORSDOF 5
ENDMDL
MODEL       89
REMARK 921   NORMALIZED FREE ENERGY PREDICTED BY IDOCK:    5.34 KCAL/MOL
REMARK 922        TOTAL FREE ENERGY PREDICTED BY IDOCK:    5.99 KCAL/MOL
REMARK 923 INTER-LIGAND FREE ENERGY PREDICTED BY IDOCK:    5.47 KCAL/MOL
REMARK 924 INTRA-LIGAND FREE ENERGY PREDICTED BY IDOCK:    0.53 KCAL/MOL
REMARK 927      BINDING AFFINITY PREDICTED BY RF-SCORE:    0.00 PKD
ROOT
HETATM    1  C   UNL     1     -10.406  11.122  68.627  1.00  0.00    -0.219 C  
HETATM    2  C   UNL     1     -11.841  11.631  68.715  1.00  0.00    -0.387 C  
HETATM    3  C   UNL     1     -11.929  13.038  69.217  1.00  0.00    -0.331 A  
HETATM    4  C   UNL     1     -13.071  13.459  69.946  1.00  0.00     0.836 A  
HETATM    5  H   UNL     1     -10.024   6.136  65.039  1.00  0.00     0.000 HD 
HETATM    6  C   UNL     1     -13.153  14.804  70.338  1.00  0.00    -0.189 A  
HETATM    7  C   UNL     1     -10.487   9.769  67.953  1.00  0.00    -0.288 C  
HETATM    8  C   UNL     1     -12.147  15.710  70.015  1.00  0.00    -0.379 A  
HETATM    9  C   UNL     1      -9.128   9.094  67.723  1.00  0.00    -0.135 C  
HETATM   10  C   UNL     1     -11.040  15.294  69.271  1.00  0.00    -0.274 A  
HETATM   11  O   UNL     1      -9.246   6.635  64.819  1.00  0.00     0.633 OA 
HETATM   12  O   UNL     1     -10.081  16.221  68.975  1.00  0.00    -0.232 OA 
HETATM   13  C   UNL     1      -9.501   7.771  66.954  1.00  0.00    -0.187 C  
HETATM   14  C   UNL     1     -10.913  13.959  68.856  1.00  0.00    -0.290 A  
HETATM   15  H   UNL     1      -9.328  15.938  68.469  1.00  0.00     0.000 HD 
HETATM   16  C   UNL     1      -9.757  13.511  67.997  1.00  0.00    -0.228 C  
HETATM   17  C   UNL     1      -9.501  12.031  67.857  1.00  0.00    -0.196 C  
HETATM   18  O   UNL     1      -9.028  14.290  67.385  1.00  0.00    -0.182 OA 
HETATM   19  C   UNL     1      -8.467  11.543  67.128  1.00  0.00    -0.158 C  
HETATM   20  C   UNL     1      -8.105  10.046  67.041  1.00  0.00    -0.117 C  
HETATM   21  O   UNL     1      -7.524  12.382  66.541  1.00  0.00    -0.353 OA 
HETATM   22  H   UNL     1      -6.800  12.040  66.030  1.00  0.00     0.000 HD 
HETATM   23  C   UNL     1      -7.744   9.503  65.639  1.00  0.00    -0.101 C  
HETATM   24  O   UNL     1      -6.844   9.957  67.749  1.00  0.00    -0.078 OA 
HETATM   25  O   UNL     1      -7.716  10.176  64.608  1.00  0.00    -0.143 OA 
HETATM   26  H   UNL     1      -6.621   9.035  67.695  1.00  0.00     0.000 HD 
HETATM   27  C   UNL     1      -7.484   8.037  65.522  1.00  0.00    -0.081 C  
HETATM   28  C   UNL     1      -8.581   7.335  65.831  1.00  0.00    -0.149 C  
ENDROOT
BRANCH   4  29
HETATM   29  C   UNL     1     -14.231  12.533  70.311  1.00  0.00     5.476 C  
BRANCH  29  30
HETATM   30  N   UNL     1     -13.902  11.431  71.250  1.00  0.00     0.951 NA 
HETATM   31  C   UNL     1     -14.086  10.122  70.611  1.00  0.00     1.174 C  
BRANCH  30  32
HETATM   32  O   UNL     1     -12.443  11.577  71.416  1.00  0.00    -0.316 OA 
HETATM   33  C   UNL     1     -11.911  10.555  72.261  1.00  0.00     1.782 C  
ENDBRANCH  30  32
ENDBRANCH  29  30
ENDBRANCH   4  29
BRANCH  27  34
HETATM   34  C   UNL     1      -6.281   7.354  66.086  1.00  0.00    -0.041 C  
HETATM   35  O   UNL     1      -5.220   7.925  66.325  1.00  0.00    -0.024 OA 
HETATM   36  H2  UNL     1      -7.275   5.541  66.259  1.00  0.00     0.000 HD 
HETATM   37  N   UNL     1      -6.398   6.044  66.401  1.00  0.00    -0.040 N  
HETATM   38  H1  UNL     1      -5.577   5.578  66.787  1.00  0.00     0.000 HD 
ENDBRANCH  27  34
BRANCH  13  39
HETATM   39  N   UNL     1      -9.853   6.739  67.960  1.00  0.00    -0.134 NA 
HETATM   40  C   UNL     1     -11.292   6.571  68.180  1.00  0.00     0.002 C  
HETATM   41  C   UNL     1      -9.179   6.944  69.241  1.00  0.00    -0.139 C  
ENDBRANCH  13  39
TORSDOF 5
ENDMDL
MODEL       90
REMARK 921   NORMALIZED FREE ENERGY PREDICTED BY IDOCK:    7.87 KCAL/MOL
REMARK 922        TOTAL FREE ENERGY PREDICTED BY IDOCK:    9.27 KCAL/MOL
REMARK 923 INTER-LIGAND FREE ENERGY PREDICTED BY IDOCK:   10.15 KCAL/MOL
REMARK 924 INTRA-LIGAND FREE ENERGY PREDICTED BY IDOCK:   -0.88 KCAL/MOL
REMARK 927      BINDING AFFINITY PREDICTED BY RF-SCORE:    0.00 PKD
ROOT
HETATM    1  C   UNL     1      -8.371  11.528  69.426  1.00  0.00     0.500 C  
HETATM    2  C   UNL     1      -9.028  10.460  70.295  1.00  0.00     0.652 C  
HETATM    3  C   UNL     1      -8.067   9.805  71.236  1.00  0.00     0.948 A  
HETATM    4  C   UNL     1      -8.273   8.458  71.633  1.00  0.00    -0.195 A  
HETATM    5  H   UNL     1     -12.574  15.254  66.911  1.00  0.00     0.000 HD 
HETATM    6  C   UNL     1      -7.394   7.898  72.573  1.00  0.00    -0.108 A  
HETATM    7  C   UNL     1      -9.497  12.196  68.668  1.00  0.00    -0.052 C  
HETATM    8  C   UNL     1      -6.350   8.643  73.114  1.00  0.00    -0.072 A  
HETATM    9  C   UNL     1      -9.052  13.348  67.756  1.00  0.00    -0.202 C  
HETATM   10  C   UNL     1      -6.173   9.977  72.741  1.00  0.00     1.202 A  
HETATM   11  O   UNL     1     -11.865  15.840  67.150  1.00  0.00     0.193 OA 
HETATM   12  O   UNL     1      -5.137  10.669  73.303  1.00  0.00    -0.330 OA 
HETATM   13  C   UNL     1     -10.406  13.894  67.166  1.00  0.00    -0.265 C  
HETATM   14  C   UNL     1      -7.026  10.581  71.804  1.00  0.00     2.699 A  
HETATM   15  H   UNL     1      -5.016  11.576  73.049  1.00  0.00     0.000 HD 
HETATM   16  C   UNL     1      -6.886  12.039  71.441  1.00  0.00     4.289 C  
HETATM   17  C   UNL     1      -7.604  12.542  70.213  1.00  0.00     2.777 C  
HETATM   18  O   UNL     1      -6.239  12.843  72.109  1.00  0.00     1.019 OA 
HETATM   19  C   UNL     1      -7.509  13.830  69.799  1.00  0.00     0.595 C  
HETATM   20  C   UNL     1      -8.139  14.365  68.496  1.00  0.00    -0.146 C  
HETATM   21  O   UNL     1      -6.669  14.743  70.431  1.00  0.00    -0.235 OA 
HETATM   22  H   UNL     1      -6.603  15.646  70.141  1.00  0.00     0.000 HD 
HETATM   23  C   UNL     1      -8.850  15.734  68.584  1.00  0.00    -0.199 C  
HETATM   24  O   UNL     1      -6.993  14.658  67.658  1.00  0.00    -0.161 OA 
HETATM   25  O   UNL     1      -8.938  16.420  69.603  1.00  0.00     0.014 OA 
HETATM   26  H   UNL     1      -7.381  14.987  66.856  1.00  0.00     0.000 HD 
HETATM   27  C   UNL     1      -9.547  16.221  67.356  1.00  0.00    -0.230 C  
HETATM   28  C   UNL     1     -10.545  15.396  67.018  1.00  0.00    -0.309 C  
ENDROOT
BRANCH   4  29
HETATM   29  C   UNL     1      -9.414   7.586  71.109  1.00  0.00    -0.158 C  
BRANCH  29  30
HETATM   30  N   UNL     1     -10.339   7.052  72.139  1.00  0.00    -0.191 NA 
HETATM   31  C   UNL     1     -11.453   7.977  72.377  1.00  0.00    -0.389 C  
BRANCH  30  32
HETATM   32  O   UNL     1     -10.942   5.890  71.456  1.00  0.00    -0.259 OA 
HETATM   33  C   UNL     1     -10.231   4.686  71.752  1.00  0.00    -0.172 C  
ENDBRANCH  30  32
ENDBRANCH  29  30
ENDBRANCH   4  29
BRANCH  27  34
HETATM   34  C   UNL     1      -8.840  16.678  66.121  1.00  0.00    -0.288 C  
HETATM   35  O   UNL     1      -9.347  16.674  65.002  1.00  0.00     0.497 OA 
HETATM   36  H2  UNL     1      -7.149  17.238  67.183  1.00  0.00     0.000 HD 
HETATM   37  N   UNL     1      -7.591  17.177  66.266  1.00  0.00    -0.308 N  
HETATM   38  H1  UNL     1      -7.109  17.489  65.423  1.00  0.00     0.000 HD 
ENDBRANCH  27  34
BRANCH  13  39
HETATM   39  N   UNL     1     -10.753  13.076  65.978  1.00  0.00    -0.272 NA 
HETATM   40  C   UNL     1     -10.366  13.672  64.696  1.00  0.00    -0.384 C  
HETATM   41  C   UNL     1     -12.165  12.701  65.942  1.00  0.00    -0.307 C  
ENDBRANCH  13  39
TORSDOF 5
ENDMDL
MODEL       91
REMARK 921   NORMALIZED FREE ENERGY PREDICTED BY IDOCK:    8.66 KCAL/MOL
REMARK 922        TOTAL FREE ENERGY PREDICTED BY IDOCK:   10.29 KCAL/MOL
REMARK 923 INTER-LIGAND FREE ENERGY PREDICTED BY IDOCK:    9.74 KCAL/MOL
REMARK 924 INTRA-LIGAND FREE ENERGY PREDICTED BY IDOCK:    0.55 KCAL/MOL
REMARK 927      BINDING AFFINITY PREDICTED BY RF-SCORE:    0.00 PKD
ROOT
HETATM    1  C   UNL     1     -10.932  14.995  69.392  1.00  0.00    -0.275 C  
HETATM    2  C   UNL     1     -11.820  13.759  69.288  1.00  0.00    -0.392 C  
HETATM    3  C   UNL     1     -12.270  13.253  70.622  1.00  0.00    -0.417 A  
HETATM    4  C   UNL     1     -12.525  11.869  70.805  1.00  0.00    -0.384 A  
HETATM    5  H   UNL     1     -10.569  17.940  64.000  1.00  0.00     0.000 HD 
HETATM    6  C   UNL     1     -13.014  11.439  72.047  1.00  0.00    -0.378 A  
HETATM    7  C   UNL     1     -10.711  15.467  67.971  1.00  0.00    -0.283 C  
HETATM    8  C   UNL     1     -13.256  12.345  73.077  1.00  0.00     2.097 A  
HETATM    9  C   UNL     1      -9.868  16.744  67.851  1.00  0.00    -0.257 C  
HETATM   10  C   UNL     1     -13.031  13.709  72.879  1.00  0.00    -0.028 A  
HETATM   11  O   UNL     1     -10.625  18.641  64.639  1.00  0.00     0.630 OA 
HETATM   12  O   UNL     1     -13.286  14.558  73.919  1.00  0.00    -0.039 OA 
HETATM   13  C   UNL     1      -9.867  17.040  66.304  1.00  0.00    -0.294 C  
HETATM   14  C   UNL     1     -12.540  14.186  71.654  1.00  0.00    -0.420 A  
HETATM   15  H   UNL     1     -13.133  15.486  73.784  1.00  0.00     0.000 HD 
HETATM   16  C   UNL     1     -12.355  15.663  71.405  1.00  0.00    -0.426 C  
HETATM   17  C   UNL     1     -11.534  16.089  70.214  1.00  0.00    -0.369 C  
HETATM   18  O   UNL     1     -12.860  16.535  72.109  1.00  0.00     0.086 OA 
HETATM   19  C   UNL     1     -11.294  17.395  69.933  1.00  0.00     1.495 C  
HETATM   20  C   UNL     1     -10.377  17.875  68.789  1.00  0.00    -0.307 C  
HETATM   21  O   UNL     1     -11.713  18.416  70.782  1.00  0.00     4.258 OA 
HETATM   22  H   UNL     1     -11.545  19.330  70.584  1.00  0.00     0.000 HD 
HETATM   23  C   UNL     1     -10.893  19.060  67.942  1.00  0.00    -0.202 C  
HETATM   24  O   UNL     1      -9.242  18.452  69.481  1.00  0.00     0.259 OA 
HETATM   25  O   UNL     1     -11.963  19.643  68.122  1.00  0.00     1.869 OA 
HETATM   26  H   UNL     1      -8.677  18.748  68.776  1.00  0.00     0.000 HD 
HETATM   27  C   UNL     1     -10.063  19.475  66.772  1.00  0.00    -0.519 C  
HETATM   28  C   UNL     1      -9.984  18.488  65.872  1.00  0.00    -0.085 C  
ENDROOT
BRANCH   4  29
HETATM   29  C   UNL     1     -12.315  10.819  69.713  1.00  0.00    -0.236 C  
BRANCH  29  30
HETATM   30  N   UNL     1     -10.951  10.758  69.133  1.00  0.00    -0.225 NA 
HETATM   31  C   UNL     1     -10.096   9.837  69.891  1.00  0.00    -0.251 C  
BRANCH  30  32
HETATM   32  O   UNL     1     -11.183  10.091  67.837  1.00  0.00    -0.254 OA 
HETATM   33  C   UNL     1     -12.318   9.225  67.894  1.00  0.00     5.645 C  
ENDBRANCH  30  32
ENDBRANCH  29  30
ENDBRANCH   4  29
BRANCH  27  34
HETATM   34  C   UNL     1      -8.734  20.150  66.889  1.00  0.00    -0.329 C  
HETATM   35  O   UNL     1      -7.706  19.729  66.366  1.00  0.00    -0.272 OA 
HETATM   36  H2  UNL     1      -9.527  21.729  67.976  1.00  0.00     0.000 HD 
HETATM   37  N   UNL     1      -8.687  21.321  67.563  1.00  0.00    -0.184 N  
HETATM   38  H1  UNL     1      -7.780  21.782  67.642  1.00  0.00     0.000 HD 
ENDBRANCH  27  34
BRANCH  13  39
HETATM   39  N   UNL     1      -8.773  16.250  65.687  1.00  0.00    -0.213 NA 
HETATM   40  C   UNL     1      -8.705  14.855  66.131  1.00  0.00     0.190 C  
HETATM   41  C   UNL     1      -7.464  16.881  65.840  1.00  0.00     0.248 C  
ENDBRANCH  13  39
TORSDOF 5
ENDMDL
MODEL       92
REMARK 921   NORMALIZED FREE ENERGY PREDICTED BY IDOCK:    9.32 KCAL/MOL
REMARK 922        TOTAL FREE ENERGY PREDICTED BY IDOCK:   11.14 KCAL/MOL
REMARK 923 INTER-LIGAND FREE ENERGY PREDICTED BY IDOCK:    9.09 KCAL/MOL
REMARK 924 INTRA-LIGAND FREE ENERGY PREDICTED BY IDOCK:    2.05 KCAL/MOL
REMARK 927      BINDING AFFINITY PREDICTED BY RF-SCORE:    0.00 PKD
ROOT
HETATM    1  C   UNL     1      -9.506   8.216  69.722  1.00  0.00    -0.159 C  
HETATM    2  C   UNL     1      -9.904   7.430  70.968  1.00  0.00    -0.179 C  
HETATM    3  C   UNL     1     -11.116   7.990  71.645  1.00  0.00    -0.300 A  
HETATM    4  C   UNL     1     -11.269   7.852  73.049  1.00  0.00    -0.346 A  
HETATM    5  H   UNL     1      -5.710   4.950  66.144  1.00  0.00     0.000 HD 
HETATM    6  C   UNL     1     -12.450   8.323  73.641  1.00  0.00     3.062 A  
HETATM    7  C   UNL     1      -8.386   7.429  69.077  1.00  0.00    -0.126 C  
HETATM    8  C   UNL     1     -13.456   8.905  72.874  1.00  0.00    -0.077 A  
HETATM    9  C   UNL     1      -7.863   8.031  67.766  1.00  0.00    -0.126 C  
HETATM   10  C   UNL     1     -13.310   9.010  71.489  1.00  0.00    -0.339 A  
HETATM   11  O   UNL     1      -6.285   5.387  65.527  1.00  0.00    -0.032 OA 
HETATM   12  O   UNL     1     -14.327   9.585  70.779  1.00  0.00    -0.256 OA 
HETATM   13  C   UNL     1      -6.783   6.989  67.288  1.00  0.00    -0.067 C  
HETATM   14  C   UNL     1     -12.146   8.553  70.851  1.00  0.00    -0.159 A  
HETATM   15  H   UNL     1     -14.228   9.656  69.836  1.00  0.00     0.000 HD 
HETATM   16  C   UNL     1     -12.004   8.600  69.350  1.00  0.00     1.430 C  
HETATM   17  C   UNL     1     -10.631   8.404  68.756  1.00  0.00    -0.154 C  
HETATM   18  O   UNL     1     -12.953   8.765  68.586  1.00  0.00     5.723 OA 
HETATM   19  C   UNL     1     -10.409   8.460  67.419  1.00  0.00    -0.285 C  
HETATM   20  C   UNL     1      -9.011   8.368  66.773  1.00  0.00    -0.145 C  
HETATM   21  O   UNL     1     -11.420   8.795  66.521  1.00  0.00     1.163 OA 
HETATM   22  H   UNL     1     -11.264   8.833  65.585  1.00  0.00     0.000 HD 
HETATM   23  C   UNL     1      -8.888   7.480  65.514  1.00  0.00     0.024 C  
HETATM   24  O   UNL     1      -8.792   9.699  66.243  1.00  0.00    -0.145 OA 
HETATM   25  O   UNL     1      -9.817   6.860  64.995  1.00  0.00     1.601 OA 
HETATM   26  H   UNL     1      -7.931   9.642  65.846  1.00  0.00     0.000 HD 
HETATM   27  C   UNL     1      -7.523   7.305  64.934  1.00  0.00    -0.091 C  
HETATM   28  C   UNL     1      -6.713   6.689  65.804  1.00  0.00    -0.048 C  
ENDROOT
BRANCH   4  29
HETATM   29  C   UNL     1     -10.225   7.196  73.954  1.00  0.00    -0.315 C  
BRANCH  29  30
HETATM   30  N   UNL     1      -9.746   5.861  73.519  1.00  0.00    -0.155 NA 
HETATM   31  C   UNL     1     -10.192   4.813  74.445  1.00  0.00    -0.261 C  
BRANCH  30  32
HETATM   32  O   UNL     1     -10.516   5.633  72.280  1.00  0.00    -0.199 OA 
HETATM   33  C   UNL     1     -11.356   4.482  72.394  1.00  0.00     0.332 C  
ENDBRANCH  30  32
ENDBRANCH  29  30
ENDBRANCH   4  29
BRANCH  27  34
HETATM   34  C   UNL     1      -6.769   8.387  64.232  1.00  0.00    -0.067 C  
HETATM   35  O   UNL     1      -7.305   9.336  63.666  1.00  0.00    -0.098 OA 
HETATM   36  H2  UNL     1      -4.933   7.589  64.776  1.00  0.00     0.000 HD 
HETATM   37  N   UNL     1      -5.419   8.337  64.279  1.00  0.00    -0.044 N  
HETATM   38  H1  UNL     1      -4.904   9.076  63.800  1.00  0.00     0.000 HD 
ENDBRANCH  27  34
BRANCH  13  39
HETATM   39  N   UNL     1      -5.501   7.315  67.959  1.00  0.00    -0.024 NA 
HETATM   40  C   UNL     1      -5.413   6.867  69.352  1.00  0.00    -0.015 C  
HETATM   41  C   UNL     1      -5.164   8.734  67.875  1.00  0.00    -0.035 C  
ENDBRANCH  13  39
TORSDOF 5
ENDMDL
MODEL       93
REMARK 921   NORMALIZED FREE ENERGY PREDICTED BY IDOCK:   15.01 KCAL/MOL
REMARK 922        TOTAL FREE ENERGY PREDICTED BY IDOCK:   18.50 KCAL/MOL
REMARK 923 INTER-LIGAND FREE ENERGY PREDICTED BY IDOCK:   18.25 KCAL/MOL
REMARK 924 INTRA-LIGAND FREE ENERGY PREDICTED BY IDOCK:    0.25 KCAL/MOL
REMARK 927      BINDING AFFINITY PREDICTED BY RF-SCORE:    0.00 PKD
ROOT
HETATM    1  C   UNL     1      -9.507   7.492  70.473  1.00  0.00    -0.164 C  
HETATM    2  C   UNL     1     -10.289   8.515  69.654  1.00  0.00    -0.218 C  
HETATM    3  C   UNL     1      -9.402   9.459  68.904  1.00  0.00    -0.154 A  
HETATM    4  C   UNL     1      -9.843  10.780  68.633  1.00  0.00    -0.187 A  
HETATM    5  H   UNL     1     -13.063   2.732  72.075  1.00  0.00     0.000 HD 
HETATM    6  C   UNL     1      -9.018  11.615  67.866  1.00  0.00    -0.170 A  
HETATM    7  C   UNL     1     -10.536   6.527  71.021  1.00  0.00    -0.275 C  
HETATM    8  C   UNL     1      -7.797  11.161  67.371  1.00  0.00    -0.121 A  
HETATM    9  C   UNL     1      -9.948   5.377  71.849  1.00  0.00    -0.233 C  
HETATM   10  C   UNL     1      -7.384   9.851  67.618  1.00  0.00    -0.090 A  
HETATM   11  O   UNL     1     -12.230   2.330  71.857  1.00  0.00     3.237 OA 
HETATM   12  O   UNL     1      -6.180   9.451  67.108  1.00  0.00    -0.062 OA 
HETATM   13  C   UNL     1     -11.208   4.507  72.217  1.00  0.00     0.326 C  
HETATM   14  C   UNL     1      -8.175   8.978  68.380  1.00  0.00    -0.116 A  
HETATM   15  H   UNL     1      -5.899   8.559  67.275  1.00  0.00     0.000 HD 
HETATM   16  C   UNL     1      -7.772   7.541  68.599  1.00  0.00    -0.119 C  
HETATM   17  C   UNL     1      -8.479   6.755  69.675  1.00  0.00    -0.133 C  
HETATM   18  O   UNL     1      -6.915   6.970  67.927  1.00  0.00    -0.077 OA 
HETATM   19  C   UNL     1      -8.159   5.468  69.957  1.00  0.00    -0.090 C  
HETATM   20  C   UNL     1      -8.781   4.659  71.114  1.00  0.00    -0.116 C  
HETATM   21  O   UNL     1      -7.095   4.823  69.332  1.00  0.00    -0.050 OA 
HETATM   22  H   UNL     1      -6.872   3.921  69.529  1.00  0.00     0.000 HD 
HETATM   23  C   UNL     1      -9.184   3.200  70.799  1.00  0.00    -0.135 C  
HETATM   24  O   UNL     1      -7.681   4.489  72.042  1.00  0.00    -0.084 OA 
HETATM   25  O   UNL     1      -9.035   2.647  69.709  1.00  0.00    -0.081 OA 
HETATM   26  H   UNL     1      -8.064   3.991  72.755  1.00  0.00     0.000 HD 
HETATM   27  C   UNL     1      -9.874   2.435  71.880  1.00  0.00    -0.229 C  
HETATM   28  C   UNL     1     -11.048   3.000  72.187  1.00  0.00     1.060 C  
ENDROOT
BRANCH   4  29
HETATM   29  C   UNL     1     -11.183  11.340  69.113  1.00  0.00    -0.273 C  
BRANCH  29  30
HETATM   30  N   UNL     1     -12.379  10.863  68.376  1.00  0.00    -0.245 NA 
HETATM   31  C   UNL     1     -13.505  11.790  68.541  1.00  0.00     5.924 C  
BRANCH  30  32
HETATM   32  O   UNL     1     -11.965  11.006  66.966  1.00  0.00    -0.141 OA 
HETATM   33  C   UNL     1     -12.128   9.780  66.249  1.00  0.00     6.158 C  
ENDBRANCH  30  32
ENDBRANCH  29  30
ENDBRANCH   4  29
BRANCH  27  34
HETATM   34  C   UNL     1      -9.204   1.969  73.132  1.00  0.00    -0.069 C  
HETATM   35  O   UNL     1      -7.992   2.027  73.320  1.00  0.00    -0.044 OA 
HETATM   36  H2  UNL     1     -11.011   1.489  74.032  1.00  0.00     0.000 HD 
HETATM   37  N   UNL     1      -9.995   1.513  74.130  1.00  0.00    -0.077 N  
HETATM   38  H1  UNL     1      -9.538   1.196  74.984  1.00  0.00     0.000 HD 
ENDBRANCH  27  34
BRANCH  13  39
HETATM   39  N   UNL     1     -11.823   5.083  73.438  1.00  0.00     0.005 NA 
HETATM   40  C   UNL     1     -13.219   4.695  73.657  1.00  0.00     4.196 C  
HETATM   41  C   UNL     1     -11.699   6.538  73.501  1.00  0.00     1.094 C  
ENDBRANCH  13  39
TORSDOF 5
ENDMDL
MODEL       94
REMARK 921   NORMALIZED FREE ENERGY PREDICTED BY IDOCK:   15.96 KCAL/MOL
REMARK 922        TOTAL FREE ENERGY PREDICTED BY IDOCK:   19.72 KCAL/MOL
REMARK 923 INTER-LIGAND FREE ENERGY PREDICTED BY IDOCK:   19.77 KCAL/MOL
REMARK 924 INTRA-LIGAND FREE ENERGY PREDICTED BY IDOCK:   -0.06 KCAL/MOL
REMARK 927      BINDING AFFINITY PREDICTED BY RF-SCORE:    0.00 PKD
ROOT
HETATM    1  C   UNL     1      -8.838  11.552  68.726  1.00  0.00    -0.047 C  
HETATM    2  C   UNL     1      -9.428  10.327  68.034  1.00  0.00    -0.156 C  
HETATM    3  C   UNL     1      -9.992   9.331  68.998  1.00  0.00    -0.187 A  
HETATM    4  C   UNL     1      -9.992   7.950  68.669  1.00  0.00    -0.201 A  
HETATM    5  H   UNL     1      -8.142  16.223  64.779  1.00  0.00     0.000 HD 
HETATM    6  C   UNL     1     -10.594   7.052  69.563  1.00  0.00    -0.253 A  
HETATM    7  C   UNL     1      -8.473  12.517  67.619  1.00  0.00    -0.171 C  
HETATM    8  C   UNL     1     -11.188   7.499  70.741  1.00  0.00    -0.287 A  
HETATM    9  C   UNL     1      -7.896  13.853  68.107  1.00  0.00    -0.147 C  
HETATM   10  C   UNL     1     -11.209   8.863  71.042  1.00  0.00    -0.281 A  
HETATM   11  O   UNL     1      -8.448  16.641  65.575  1.00  0.00    -0.173 OA 
HETATM   12  O   UNL     1     -11.807   9.253  72.208  1.00  0.00    -0.276 OA 
HETATM   13  C   UNL     1      -7.685  14.670  66.778  1.00  0.00     0.423 C  
HETATM   14  C   UNL     1     -10.620   9.799  70.179  1.00  0.00    -0.337 A  
HETATM   15  H   UNL     1     -11.822  10.180  72.413  1.00  0.00     0.000 HD 
HETATM   16  C   UNL     1     -10.694  11.280  70.459  1.00  0.00     1.280 C  
HETATM   17  C   UNL     1      -9.781  12.200  69.688  1.00  0.00     1.453 C  
HETATM   18  O   UNL     1     -11.478  11.777  71.266  1.00  0.00     1.069 OA 
HETATM   19  C   UNL     1      -9.762  13.540  69.898  1.00  0.00     1.953 C  
HETATM   20  C   UNL     1      -8.776  14.506  69.209  1.00  0.00     0.116 C  
HETATM   21  O   UNL     1     -10.519  14.135  70.904  1.00  0.00     0.736 OA 
HETATM   22  H   UNL     1     -10.506  15.074  71.050  1.00  0.00     0.000 HD 
HETATM   23  C   UNL     1      -9.364  15.836  68.685  1.00  0.00    -0.206 C  
HETATM   24  O   UNL     1      -7.917  14.946  70.291  1.00  0.00    -0.239 OA 
HETATM   25  O   UNL     1     -10.544  16.174  68.787  1.00  0.00    -0.248 OA 
HETATM   26  H   UNL     1      -7.310  15.541  69.866  1.00  0.00     0.000 HD 
HETATM   27  C   UNL     1      -8.443  16.739  67.932  1.00  0.00    -0.200 C  
HETATM   28  C   UNL     1      -8.012  16.150  66.810  1.00  0.00    -0.272 C  
ENDROOT
BRANCH   4  29
HETATM   29  C   UNL     1      -9.390   7.387  67.382  1.00  0.00    -0.132 C  
BRANCH  29  30
HETATM   30  N   UNL     1      -9.844   8.032  66.125  1.00  0.00    -0.084 NA 
HETATM   31  C   UNL     1      -8.761   8.077  65.135  1.00  0.00     0.019 C  
BRANCH  30  32
HETATM   32  O   UNL     1     -10.811   7.052  65.593  1.00  0.00     2.209 OA 
HETATM   33  C   UNL     1     -10.153   6.015  64.862  1.00  0.00     2.031 C  
ENDBRANCH  30  32
ENDBRANCH  29  30
ENDBRANCH   4  29
BRANCH  27  34
HETATM   34  C   UNL     1      -7.318  17.496  68.560  1.00  0.00    -0.243 C  
HETATM   35  O   UNL     1      -6.135  17.190  68.435  1.00  0.00    -0.141 OA 
HETATM   36  H2  UNL     1      -8.596  18.927  69.347  1.00  0.00     0.000 HD 
HETATM   37  N   UNL     1      -7.630  18.613  69.255  1.00  0.00    -0.090 N  
HETATM   38  H1  UNL     1      -6.861  19.130  69.684  1.00  0.00     0.000 HD 
ENDBRANCH  27  34
BRANCH  13  39
HETATM   39  N   UNL     1      -6.365  14.296  66.214  1.00  0.00     3.453 NA 
HETATM   40  C   UNL     1      -6.381  13.097  65.372  1.00  0.00     8.768 C  
HETATM   41  C   UNL     1      -5.328  14.167  67.236  1.00  0.00     0.634 C  
ENDBRANCH  13  39
TORSDOF 5
ENDMDL
MODEL       95
REMARK 921   NORMALIZED FREE ENERGY PREDICTED BY IDOCK:   16.95 KCAL/MOL
REMARK 922        TOTAL FREE ENERGY PREDICTED BY IDOCK:   21.00 KCAL/MOL
REMARK 923 INTER-LIGAND FREE ENERGY PREDICTED BY IDOCK:   16.97 KCAL/MOL
REMARK 924 INTRA-LIGAND FREE ENERGY PREDICTED BY IDOCK:    4.02 KCAL/MOL
REMARK 927      BINDING AFFINITY PREDICTED BY RF-SCORE:    0.00 PKD
ROOT
HETATM    1  C   UNL     1      -9.111   7.435  67.794  1.00  0.00    -0.129 C  
HETATM    2  C   UNL     1      -9.273   7.910  69.235  1.00  0.00    -0.148 C  
HETATM    3  C   UNL     1      -9.641   9.357  69.332  1.00  0.00    -0.177 A  
HETATM    4  C   UNL     1      -9.234  10.117  70.459  1.00  0.00     0.498 A  
HETATM    5  H   UNL     1      -9.309   1.294  67.434  1.00  0.00     0.000 HD 
HETATM    6  C   UNL     1      -9.658  11.451  70.552  1.00  0.00     3.725 A  
HETATM    7  C   UNL     1      -8.911   5.937  67.872  1.00  0.00    -0.105 C  
HETATM    8  C   UNL     1     -10.467  12.019  69.571  1.00  0.00     0.358 A  
HETATM    9  C   UNL     1      -8.770   5.245  66.509  1.00  0.00    -0.115 C  
HETATM   10  C   UNL     1     -10.888  11.255  68.480  1.00  0.00    -0.205 A  
HETATM   11  O   UNL     1      -9.796   1.583  66.671  1.00  0.00     0.438 OA 
HETATM   12  O   UNL     1     -11.684  11.856  67.546  1.00  0.00    -0.483 OA 
HETATM   13  C   UNL     1      -8.654   3.719  66.882  1.00  0.00    -0.108 C  
HETATM   14  C   UNL     1     -10.490   9.917  68.343  1.00  0.00    -0.239 A  
HETATM   15  H   UNL     1     -11.971  11.337  66.804  1.00  0.00     0.000 HD 
HETATM   16  C   UNL     1     -10.991   9.062  67.205  1.00  0.00     0.137 C  
HETATM   17  C   UNL     1     -10.287   7.756  66.929  1.00  0.00    -0.396 C  
HETATM   18  O   UNL     1     -11.957   9.363  66.509  1.00  0.00     3.305 OA 
HETATM   19  C   UNL     1     -10.654   6.941  65.908  1.00  0.00     1.561 C  
HETATM   20  C   UNL     1      -9.902   5.650  65.524  1.00  0.00     0.336 C  
HETATM   21  O   UNL     1     -11.642   7.307  64.997  1.00  0.00     7.755 OA 
HETATM   22  H   UNL     1     -11.898   6.735  64.283  1.00  0.00     0.000 HD 
HETATM   23  C   UNL     1     -10.772   4.416  65.195  1.00  0.00    -0.113 C  
HETATM   24  O   UNL     1      -9.309   5.970  64.240  1.00  0.00     0.187 OA 
HETATM   25  O   UNL     1     -12.003   4.397  65.208  1.00  0.00     0.914 OA 
HETATM   26  H   UNL     1      -8.846   5.175  64.004  1.00  0.00     0.000 HD 
HETATM   27  C   UNL     1     -10.058   3.134  64.914  1.00  0.00     0.127 C  
HETATM   28  C   UNL     1      -9.372   2.728  65.989  1.00  0.00    -0.016 C  
ENDROOT
BRANCH   4  29
HETATM   29  C   UNL     1      -8.374   9.556  71.591  1.00  0.00     0.975 C  
BRANCH  29  30
HETATM   30  N   UNL     1      -8.495   8.096  71.827  1.00  0.00    -0.131 NA 
HETATM   31  C   UNL     1      -8.677   7.805  73.254  1.00  0.00    -0.207 C  
BRANCH  30  32
HETATM   32  O   UNL     1      -9.793   7.777  71.200  1.00  0.00    -0.169 OA 
HETATM   33  C   UNL     1     -10.247   6.476  71.578  1.00  0.00    -0.192 C  
ENDBRANCH  30  32
ENDBRANCH  29  30
ENDBRANCH   4  29
BRANCH  27  34
HETATM   34  C   UNL     1      -9.250   2.881  63.683  1.00  0.00    -0.097 C  
HETATM   35  O   UNL     1      -8.418   1.983  63.584  1.00  0.00    -0.080 OA 
HETATM   36  H2  UNL     1     -10.214   4.385  62.627  1.00  0.00     0.000 HD 
HETATM   37  N   UNL     1      -9.500   3.656  62.603  1.00  0.00    -0.098 N  
HETATM   38  H1  UNL     1      -8.949   3.482  61.762  1.00  0.00     0.000 HD 
ENDBRANCH  27  34
BRANCH  13  39
HETATM   39  N   UNL     1      -7.232   3.428  67.187  1.00  0.00    -0.058 NA 
HETATM   40  C   UNL     1      -6.666   4.232  68.274  1.00  0.00    -0.047 C  
HETATM   41  C   UNL     1      -6.371   3.515  66.009  1.00  0.00    -0.032 C  
ENDBRANCH  13  39
TORSDOF 5
ENDMDL
MODEL       96
REMARK 921   NORMALIZED FREE ENERGY PREDICTED BY IDOCK:   31.62 KCAL/MOL
REMARK 922        TOTAL FREE ENERGY PREDICTED BY IDOCK:   39.96 KCAL/MOL
REMARK 923 INTER-LIGAND FREE ENERGY PREDICTED BY IDOCK:   36.22 KCAL/MOL
REMARK 924 INTRA-LIGAND FREE ENERGY PREDICTED BY IDOCK:    3.74 KCAL/MOL
REMARK 927      BINDING AFFINITY PREDICTED BY RF-SCORE:    0.00 PKD
ROOT
HETATM    1  C   UNL     1     -10.374  14.344  67.044  1.00  0.00    -0.263 C  
HETATM    2  C   UNL     1     -11.304  15.068  68.014  1.00  0.00    -0.339 C  
HETATM    3  C   UNL     1     -10.867  16.470  68.301  1.00  0.00    -0.352 A  
HETATM    4  C   UNL     1     -11.162  17.060  69.558  1.00  0.00     0.384 A  
HETATM    5  H   UNL     1     -13.088   9.372  64.641  1.00  0.00     0.000 HD 
HETATM    6  C   UNL     1     -10.802  18.399  69.767  1.00  0.00     1.683 A  
HETATM    7  C   UNL     1     -11.044  13.023  66.736  1.00  0.00    -0.316 C  
HETATM    8  C   UNL     1     -10.180  19.141  68.766  1.00  0.00    -0.360 A  
HETATM    9  C   UNL     1     -10.284  12.147  65.730  1.00  0.00    -0.282 C  
HETATM   10  C   UNL     1      -9.920  18.562  67.522  1.00  0.00    -0.332 A  
HETATM   11  O   UNL     1     -12.610   9.745  63.910  1.00  0.00     8.663 OA 
HETATM   12  O   UNL     1      -9.311  19.332  66.571  1.00  0.00    -0.324 OA 
HETATM   13  C   UNL     1     -11.227  10.900  65.544  1.00  0.00     0.271 C  
HETATM   14  C   UNL     1     -10.261  17.225  67.266  1.00  0.00    -0.320 A  
HETATM   15  H   UNL     1      -9.135  18.939  65.724  1.00  0.00     0.000 HD 
HETATM   16  C   UNL     1     -10.047  16.608  65.906  1.00  0.00    -0.320 C  
HETATM   17  C   UNL     1     -10.126  15.107  65.782  1.00  0.00    -0.373 C  
HETATM   18  O   UNL     1      -9.837  17.267  64.890  1.00  0.00     0.621 OA 
HETATM   19  C   UNL     1      -9.918  14.467  64.604  1.00  0.00     0.331 C  
HETATM   20  C   UNL     1      -9.886  12.933  64.449  1.00  0.00     0.002 C  
HETATM   21  O   UNL     1      -9.527  15.154  63.457  1.00  0.00     5.106 OA 
HETATM   22  H   UNL     1      -9.381  14.706  62.632  1.00  0.00     0.000 HD 
HETATM   23  C   UNL     1     -10.628  12.346  63.227  1.00  0.00    -0.192 C  
HETATM   24  O   UNL     1      -8.498  12.649  64.142  1.00  0.00     1.804 OA 
HETATM   25  O   UNL     1     -11.223  13.010  62.378  1.00  0.00     1.903 OA 
HETATM   26  H   UNL     1      -8.479  11.704  64.048  1.00  0.00     0.000 HD 
HETATM   27  C   UNL     1     -10.687  10.858  63.116  1.00  0.00     0.177 C  
HETATM   28  C   UNL     1     -11.362  10.331  64.145  1.00  0.00     3.028 C  
ENDROOT
BRANCH   4  29
HETATM   29  C   UNL     1     -11.871  16.321  70.693  1.00  0.00    -0.071 C  
BRANCH  29  30
HETATM   30  N   UNL     1     -11.612  16.842  72.058  1.00  0.00    -0.084 NA 
HETATM   31  C   UNL     1     -10.282  16.438  72.533  1.00  0.00     5.502 C  
BRANCH  30  32
HETATM   32  O   UNL     1     -11.514  18.297  71.833  1.00  0.00     2.676 OA 
HETATM   33  C   UNL     1     -10.209  18.787  72.151  1.00  0.00     4.337 C  
ENDBRANCH  30  32
ENDBRANCH  29  30
ENDBRANCH   4  29
BRANCH  27  34
HETATM   34  C   UNL     1      -9.508   9.996  62.801  1.00  0.00    -0.192 C  
HETATM   35  O   UNL     1      -9.592   8.815  62.475  1.00  0.00     0.917 OA 
HETATM   36  H2  UNL     1      -8.176  11.568  63.048  1.00  0.00     0.000 HD 
HETATM   37  N   UNL     1      -8.287  10.578  62.825  1.00  0.00    -0.171 N  
HETATM   38  H1  UNL     1      -7.482   9.990  62.609  1.00  0.00     0.000 HD 
ENDBRANCH  27  34
BRANCH  13  39
HETATM   39  N   UNL     1     -10.927   9.931  66.627  1.00  0.00     0.044 NA 
HETATM   40  C   UNL     1      -9.520   9.894  67.036  1.00  0.00    -0.160 C  
HETATM   41  C   UNL     1     -11.388   8.579  66.320  1.00  0.00     3.219 C  
ENDBRANCH  13  39
TORSDOF 5
ENDMDL
MODEL       97
REMARK 921   NORMALIZED FREE ENERGY PREDICTED BY IDOCK:   32.18 KCAL/MOL
REMARK 922        TOTAL FREE ENERGY PREDICTED BY IDOCK:   40.69 KCAL/MOL
REMARK 923 INTER-LIGAND FREE ENERGY PREDICTED BY IDOCK:   38.73 KCAL/MOL
REMARK 924 INTRA-LIGAND FREE ENERGY PREDICTED BY IDOCK:    1.96 KCAL/MOL
REMARK 927      BINDING AFFINITY PREDICTED BY RF-SCORE:    0.00 PKD
ROOT
HETATM    1  C   UNL     1     -11.532   9.091  67.564  1.00  0.00     1.362 C  
HETATM    2  C   UNL     1     -11.227   7.596  67.514  1.00  0.00     0.335 C  
HETATM    3  C   UNL     1     -10.784   7.139  66.160  1.00  0.00     1.128 A  
HETATM    4  C   UNL     1     -11.059   5.813  65.736  1.00  0.00     1.072 A  
HETATM    5  H   UNL     1     -11.657  11.149  73.363  1.00  0.00     0.000 HD 
HETATM    6  C   UNL     1     -10.566   5.395  64.491  1.00  0.00     1.964 A  
HETATM    7  C   UNL     1     -11.796   9.411  69.019  1.00  0.00     0.906 C  
HETATM    8  C   UNL     1      -9.815   6.252  63.691  1.00  0.00     3.453 A  
HETATM    9  C   UNL     1     -12.083  10.892  69.300  1.00  0.00    -0.332 C  
HETATM   10  C   UNL     1      -9.524   7.546  64.128  1.00  0.00     2.732 A  
HETATM   11  O   UNL     1     -11.222  11.845  72.883  1.00  0.00     8.134 OA 
HETATM   12  O   UNL     1      -8.781   8.348  63.308  1.00  0.00    -0.424 OA 
HETATM   13  C   UNL     1     -12.240  10.946  70.866  1.00  0.00    -0.381 C  
HETATM   14  C   UNL     1      -9.996   8.009  65.366  1.00  0.00     1.436 A  
HETATM   15  H   UNL     1      -8.582   9.228  63.606  1.00  0.00     0.000 HD 
HETATM   16  C   UNL     1      -9.633   9.381  65.880  1.00  0.00    -0.270 C  
HETATM   17  C   UNL     1     -10.418   9.940  67.040  1.00  0.00    -0.296 C  
HETATM   18  O   UNL     1      -8.714  10.054  65.418  1.00  0.00    -0.144 OA 
HETATM   19  C   UNL     1     -10.178  11.176  67.546  1.00  0.00    -0.186 C  
HETATM   20  C   UNL     1     -11.019  11.829  68.661  1.00  0.00    -0.224 C  
HETATM   21  O   UNL     1      -9.253  12.038  66.963  1.00  0.00    -0.183 OA 
HETATM   22  H   UNL     1      -9.084  12.904  67.318  1.00  0.00     0.000 HD 
HETATM   23  C   UNL     1     -10.240  12.566  69.773  1.00  0.00     1.382 C  
HETATM   24  O   UNL     1     -11.702  12.913  67.982  1.00  0.00    -0.321 OA 
HETATM   25  O   UNL     1      -9.014  12.674  69.823  1.00  0.00     1.818 OA 
HETATM   26  H   UNL     1     -12.221  13.315  68.669  1.00  0.00     0.000 HD 
HETATM   27  C   UNL     1     -11.035  13.122  70.909  1.00  0.00     2.626 C  
HETATM   28  C   UNL     1     -11.647  12.142  71.585  1.00  0.00     2.731 C  
ENDROOT
BRANCH   4  29
HETATM   29  C   UNL     1     -11.847   4.804  66.572  1.00  0.00     4.530 C  
BRANCH  29  30
HETATM   30  N   UNL     1     -11.077   3.630  67.054  1.00  0.00     3.753 NA 
HETATM   31  C   UNL     1      -9.896   3.393  66.215  1.00  0.00     0.158 C  
BRANCH  30  32
HETATM   32  O   UNL     1     -10.544   4.105  68.346  1.00  0.00     0.675 OA 
HETATM   33  C   UNL     1     -11.149   5.340  68.735  1.00  0.00     0.765 C  
ENDBRANCH  30  32
ENDBRANCH  29  30
ENDBRANCH   4  29
BRANCH  27  34
HETATM   34  C   UNL     1     -11.954  14.294  70.791  1.00  0.00    -0.320 C  
HETATM   35  O   UNL     1     -12.199  14.866  69.732  1.00  0.00    -0.309 OA 
HETATM   36  H2  UNL     1     -12.450  14.228  72.804  1.00  0.00     0.000 HD 
HETATM   37  N   UNL     1     -12.591  14.702  71.912  1.00  0.00    -0.328 N  
HETATM   38  H1  UNL     1     -13.219  15.502  71.831  1.00  0.00     0.000 HD 
ENDBRANCH  27  34
BRANCH  13  39
HETATM   39  N   UNL     1     -13.644  10.602  71.199  1.00  0.00     0.083 NA 
HETATM   40  C   UNL     1     -14.378  11.658  71.902  1.00  0.00     1.771 C  
HETATM   41  C   UNL     1     -13.759   9.346  71.936  1.00  0.00    -0.368 C  
ENDBRANCH  13  39
TORSDOF 5
ENDMDL
MODEL       98
REMARK 921   NORMALIZED FREE ENERGY PREDICTED BY IDOCK:   32.34 KCAL/MOL
REMARK 922        TOTAL FREE ENERGY PREDICTED BY IDOCK:   40.89 KCAL/MOL
REMARK 923 INTER-LIGAND FREE ENERGY PREDICTED BY IDOCK:   32.21 KCAL/MOL
REMARK 924 INTRA-LIGAND FREE ENERGY PREDICTED BY IDOCK:    8.67 KCAL/MOL
REMARK 927      BINDING AFFINITY PREDICTED BY RF-SCORE:    0.00 PKD
ROOT
HETATM    1  C   UNL     1      -9.363  10.351  68.507  1.00  0.00    -0.160 C  
HETATM    2  C   UNL     1      -8.830   8.943  68.759  1.00  0.00    -0.137 C  
HETATM    3  C   UNL     1      -9.603   7.890  68.030  1.00  0.00    -0.168 A  
HETATM    4  C   UNL     1      -9.709   6.584  68.577  1.00  0.00    -0.129 A  
HETATM    5  H   UNL     1      -5.219  14.621  70.077  1.00  0.00     0.000 HD 
HETATM    6  C   UNL     1     -10.379   5.602  67.833  1.00  0.00    -0.260 A  
HETATM    7  C   UNL     1      -8.380  11.291  69.170  1.00  0.00     0.067 C  
HETATM    8  C   UNL     1     -10.921   5.892  66.583  1.00  0.00    -0.228 A  
HETATM    9  C   UNL     1      -8.710  12.779  68.994  1.00  0.00     0.494 C  
HETATM   10  C   UNL     1     -10.788   7.171  66.040  1.00  0.00     1.911 A  
HETATM   11  O   UNL     1      -5.603  14.960  69.277  1.00  0.00    -0.093 OA 
HETATM   12  O   UNL     1     -11.334   7.405  64.809  1.00  0.00     8.510 OA 
HETATM   13  C   UNL     1      -7.508  13.509  69.702  1.00  0.00     0.596 C  
HETATM   14  C   UNL     1     -10.126   8.187  66.747  1.00  0.00    -0.365 A  
HETATM   15  H   UNL     1     -11.243   8.276  64.439  1.00  0.00     0.000 HD 
HETATM   16  C   UNL     1      -9.917   9.554  66.143  1.00  0.00    -0.272 C  
HETATM   17  C   UNL     1      -9.498  10.681  67.055  1.00  0.00    -0.187 C  
HETATM   18  O   UNL     1     -10.045   9.790  64.944  1.00  0.00    -0.184 OA 
HETATM   19  C   UNL     1      -9.316  11.946  66.601  1.00  0.00    -0.205 C  
HETATM   20  C   UNL     1      -8.990  13.149  67.510  1.00  0.00    -0.197 C  
HETATM   21  O   UNL     1      -9.596  12.300  65.284  1.00  0.00    -0.415 OA 
HETATM   22  H   UNL     1      -9.468  13.186  64.966  1.00  0.00     0.000 HD 
HETATM   23  C   UNL     1      -7.903  14.124  67.004  1.00  0.00     0.100 C  
HETATM   24  O   UNL     1     -10.192  13.958  67.451  1.00  0.00    -0.248 OA 
HETATM   25  O   UNL     1      -7.297  14.012  65.937  1.00  0.00     3.060 OA 
HETATM   26  H   UNL     1      -9.990  14.698  68.011  1.00  0.00     0.000 HD 
HETATM   27  C   UNL     1      -7.508  15.239  67.915  1.00  0.00    -0.157 C  
HETATM   28  C   UNL     1      -6.967  14.762  69.043  1.00  0.00    -0.118 C  
ENDROOT
BRANCH   4  29
HETATM   29  C   UNL     1      -9.112   6.181  69.925  1.00  0.00    -0.143 C  
BRANCH  29  30
HETATM   30  N   UNL     1      -7.782   6.760  70.238  1.00  0.00    -0.099 NA 
HETATM   31  C   UNL     1      -6.824   6.494  69.158  1.00  0.00    -0.065 C  
BRANCH  30  32
HETATM   32  O   UNL     1      -8.042   8.211  70.174  1.00  0.00    -0.108 OA 
HETATM   33  C   UNL     1      -6.912   8.920  69.660  1.00  0.00    -0.054 C  
ENDBRANCH  30  32
ENDBRANCH  29  30
ENDBRANCH   4  29
BRANCH  27  34
HETATM   34  C   UNL     1      -8.387  16.403  68.239  1.00  0.00    -0.189 C  
HETATM   35  O   UNL     1      -9.354  16.739  67.561  1.00  0.00    -0.227 OA 
HETATM   36  H2  UNL     1      -7.358  16.812  69.993  1.00  0.00     0.000 HD 
HETATM   37  N   UNL     1      -8.125  17.083  69.378  1.00  0.00     0.101 N  
HETATM   38  H1  UNL     1      -8.726  17.878  69.599  1.00  0.00     0.000 HD 
ENDBRANCH  27  34
BRANCH  13  39
HETATM   39  N   UNL     1      -7.815  13.602  71.150  1.00  0.00     4.227 NA 
HETATM   40  C   UNL     1      -6.689  14.030  71.985  1.00  0.00     2.313 C  
HETATM   41  C   UNL     1      -8.387  12.370  71.688  1.00  0.00    15.242 C  
ENDBRANCH  13  39
TORSDOF 5
ENDMDL
MODEL       99
REMARK 921   NORMALIZED FREE ENERGY PREDICTED BY IDOCK:   43.27 KCAL/MOL
REMARK 922        TOTAL FREE ENERGY PREDICTED BY IDOCK:   55.02 KCAL/MOL
REMARK 923 INTER-LIGAND FREE ENERGY PREDICTED BY IDOCK:   53.34 KCAL/MOL
REMARK 924 INTRA-LIGAND FREE ENERGY PREDICTED BY IDOCK:    1.67 KCAL/MOL
REMARK 927      BINDING AFFINITY PREDICTED BY RF-SCORE:    0.00 PKD
ROOT
HETATM    1  C   UNL     1     -10.208  14.506  68.947  1.00  0.00    -0.229 C  
HETATM    2  C   UNL     1      -9.700  15.775  68.267  1.00  0.00    -0.201 C  
HETATM    3  C   UNL     1      -9.803  16.984  69.143  1.00  0.00    -0.198 A  
HETATM    4  C   UNL     1      -9.999  18.264  68.562  1.00  0.00    -0.413 A  
HETATM    5  H   UNL     1      -8.210   9.465  66.038  1.00  0.00     0.000 HD 
HETATM    6  C   UNL     1     -10.018  19.384  69.406  1.00  0.00    -0.210 A  
HETATM    7  C   UNL     1      -9.879  13.371  68.002  1.00  0.00    -0.229 C  
HETATM    8  C   UNL     1      -9.839  19.251  70.781  1.00  0.00     1.883 A  
HETATM    9  C   UNL     1     -10.271  11.981  68.522  1.00  0.00    -0.218 C  
HETATM   10  C   UNL     1      -9.617  17.991  71.341  1.00  0.00     6.656 A  
HETATM   11  O   UNL     1      -8.147   9.237  66.958  1.00  0.00    -0.110 OA 
HETATM   12  O   UNL     1      -9.444  17.913  72.695  1.00  0.00     9.658 OA 
HETATM   13  C   UNL     1      -9.754  11.008  67.397  1.00  0.00    -0.168 C  
HETATM   14  C   UNL     1      -9.590  16.841  70.537  1.00  0.00     2.356 A  
HETATM   15  H   UNL     1      -9.293  17.056  73.076  1.00  0.00     0.000 HD 
HETATM   16  C   UNL     1      -9.286  15.483  71.120  1.00  0.00     2.654 C  
HETATM   17  C   UNL     1      -9.587  14.263  70.286  1.00  0.00     1.692 C  
HETATM   18  O   UNL     1      -8.783  15.322  72.230  1.00  0.00     5.252 OA 
HETATM   19  C   UNL     1      -9.372  13.005  70.743  1.00  0.00     8.037 C  
HETATM   20  C   UNL     1      -9.759  11.728  69.968  1.00  0.00     2.284 C  
HETATM   21  O   UNL     1      -8.947  12.762  72.047  1.00  0.00    16.256 OA 
HETATM   22  H   UNL     1      -8.796  11.880  72.367  1.00  0.00     0.000 HD 
HETATM   23  C   UNL     1      -8.721  10.583  69.960  1.00  0.00     0.487 C  
HETATM   24  O   UNL     1     -10.841  11.167  70.754  1.00  0.00     0.117 OA 
HETATM   25  O   UNL     1      -7.629  10.617  70.528  1.00  0.00     0.122 OA 
HETATM   26  H   UNL     1     -11.079  10.381  70.276  1.00  0.00     0.000 HD 
HETATM   27  C   UNL     1      -9.040   9.379  69.136  1.00  0.00    -0.148 C  
HETATM   28  C   UNL     1      -9.128   9.701  67.840  1.00  0.00    -0.125 C  
ENDROOT
BRANCH   4  29
HETATM   29  C   UNL     1     -10.170  18.494  67.060  1.00  0.00    -0.380 C  
BRANCH  29  30
HETATM   30  N   UNL     1      -9.023  19.142  66.375  1.00  0.00    -0.339 NA 
HETATM   31  C   UNL     1      -8.319  20.058  67.280  1.00  0.00    -0.332 C  
BRANCH  30  32
HETATM   32  O   UNL     1      -8.094  18.013  66.170  1.00  0.00    -0.420 OA 
HETATM   33  C   UNL     1      -8.798  16.774  66.053  1.00  0.00    -0.183 C  
ENDBRANCH  30  32
ENDBRANCH  29  30
ENDBRANCH   4  29
BRANCH  27  34
HETATM   34  C   UNL     1     -10.110   8.393  69.478  1.00  0.00    -0.200 C  
HETATM   35  O   UNL     1     -10.522   8.200  70.618  1.00  0.00    -0.204 OA 
HETATM   36  H2  UNL     1     -10.406   7.884  67.488  1.00  0.00     0.000 HD 
HETATM   37  N   UNL     1     -10.689   7.723  68.456  1.00  0.00    -0.394 N  
HETATM   38  H1  UNL     1     -11.419   7.050  68.689  1.00  0.00     0.000 HD 
ENDBRANCH  27  34
BRANCH  13  39
HETATM   39  N   UNL     1     -10.801  10.921  66.350  1.00  0.00    -0.195 NA 
HETATM   40  C   UNL     1     -10.452  11.576  65.086  1.00  0.00    -0.286 C  
HETATM   41  C   UNL     1     -12.103  11.397  66.810  1.00  0.00     1.076 C  
ENDBRANCH  13  39
TORSDOF 5
ENDMDL
MODEL      100
REMARK 921   NORMALIZED FREE ENERGY PREDICTED BY IDOCK:   43.76 KCAL/MOL
REMARK 922        TOTAL FREE ENERGY PREDICTED BY IDOCK:   55.65 KCAL/MOL
REMARK 923 INTER-LIGAND FREE ENERGY PREDICTED BY IDOCK:   55.54 KCAL/MOL
REMARK 924 INTRA-LIGAND FREE ENERGY PREDICTED BY IDOCK:    0.10 KCAL/MOL
REMARK 927      BINDING AFFINITY PREDICTED BY RF-SCORE:    0.00 PKD
ROOT
HETATM    1  C   UNL     1     -10.647  14.341  69.296  1.00  0.00    -0.160 C  
HETATM    2  C   UNL     1      -9.875  15.596  69.693  1.00  0.00    -0.280 C  
HETATM    3  C   UNL     1     -10.248  16.101  71.052  1.00  0.00     1.335 A  
HETATM    4  C   UNL     1     -10.165  17.488  71.338  1.00  0.00     3.908 A  
HETATM    5  H   UNL     1      -7.910  11.430  64.614  1.00  0.00     0.000 HD 
HETATM    6  C   UNL     1     -10.452  17.918  72.643  1.00  0.00     4.731 A  
HETATM    7  C   UNL     1     -10.036  13.875  67.992  1.00  0.00    -0.244 C  
HETATM    8  C   UNL     1     -10.799  17.010  73.639  1.00  0.00     3.783 A  
HETATM    9  C   UNL     1     -10.646  12.582  67.433  1.00  0.00    -0.242 C  
HETATM   10  C   UNL     1     -10.850  15.643  73.356  1.00  0.00     2.464 A  
HETATM   11  O   UNL     1      -8.201  10.726  65.181  1.00  0.00    -0.137 OA 
HETATM   12  O   UNL     1     -11.192  14.791  74.368  1.00  0.00     0.714 OA 
HETATM   13  C   UNL     1      -9.787  12.299  66.144  1.00  0.00    -0.243 C  
HETATM   14  C   UNL     1     -10.572  15.165  72.066  1.00  0.00     1.062 A  
HETATM   15  H   UNL     1     -11.226  13.861  74.176  1.00  0.00     0.000 HD 
HETATM   16  C   UNL     1     -10.557  13.687  71.764  1.00  0.00     5.798 C  
HETATM   17  C   UNL     1     -10.575  13.253  70.319  1.00  0.00     1.729 C  
HETATM   18  O   UNL     1     -10.506  12.819  72.633  1.00  0.00    10.946 OA 
HETATM   19  C   UNL     1     -10.593  11.945  69.958  1.00  0.00     1.064 C  
HETATM   20  C   UNL     1     -10.715  11.455  68.501  1.00  0.00    -0.201 C  
HETATM   21  O   UNL     1     -10.690  10.926  70.903  1.00  0.00     0.141 OA 
HETATM   22  H   UNL     1     -10.702  10.010  70.650  1.00  0.00     0.000 HD 
HETATM   23  C   UNL     1      -9.792  10.287  68.085  1.00  0.00    -0.148 C  
HETATM   24  O   UNL     1     -12.031  10.850  68.454  1.00  0.00    -0.701 OA 
HETATM   25  O   UNL     1      -8.988   9.725  68.829  1.00  0.00    -0.126 OA 
HETATM   26  H   UNL     1     -12.106  10.548  67.556  1.00  0.00     0.000 HD 
HETATM   27  C   UNL     1      -9.830   9.864  66.653  1.00  0.00    -0.265 C  
HETATM   28  C   UNL     1      -9.420  10.857  65.854  1.00  0.00    -0.207 C  
ENDROOT
BRANCH   4  29
HETATM   29  C   UNL     1      -9.759  18.542  70.308  1.00  0.00     1.736 C  
BRANCH  29  30
HETATM   30  N   UNL     1      -8.655  19.446  70.715  1.00  0.00     2.295 NA 
HETATM   31  C   UNL     1      -7.685  19.616  69.626  1.00  0.00     0.192 C  
BRANCH  30  32
HETATM   32  O   UNL     1      -9.335  20.750  70.832  1.00  0.00     1.412 OA 
HETATM   33  C   UNL     1      -9.378  21.194  72.190  1.00  0.00     3.347 C  
ENDBRANCH  30  32
ENDBRANCH  29  30
ENDBRANCH   4  29
BRANCH  27  34
HETATM   34  C   UNL     1     -10.988   9.162  66.020  1.00  0.00     1.591 C  
HETATM   35  O   UNL     1     -10.879   8.158  65.322  1.00  0.00     3.938 OA 
HETATM   36  H2  UNL     1     -12.365  10.442  66.899  1.00  0.00     0.000 HD 
HETATM   37  N   UNL     1     -12.226   9.636  66.288  1.00  0.00     5.945 N  
HETATM   38  H1  UNL     1     -13.016   9.156  65.856  1.00  0.00     0.000 HD 
ENDBRANCH  27  34
BRANCH  13  39
HETATM   39  N   UNL     1     -10.375  13.071  65.022  1.00  0.00    -0.317 NA 
HETATM   40  C   UNL     1     -11.792  12.796  64.771  1.00  0.00    -0.374 C  
HETATM   41  C   UNL     1      -9.618  12.929  63.780  1.00  0.00     1.055 C  
ENDBRANCH  13  39
TORSDOF 5
ENDMDL
