MODEL        1
REMARK 921   NORMALIZED FREE ENERGY PREDICTED BY IDOCK:   -7.17 KCAL/MOL
REMARK 922        TOTAL FREE ENERGY PREDICTED BY IDOCK:   -8.47 KCAL/MOL
REMARK 923 INTER-LIGAND FREE ENERGY PREDICTED BY IDOCK:   -8.01 KCAL/MOL
REMARK 924 INTRA-LIGAND FREE ENERGY PREDICTED BY IDOCK:   -0.46 KCAL/MOL
REMARK 927      BINDING AFFINITY PREDICTED BY RF-SCORE:    0.00 PKD
ROOT
HETATM    1  N   UNL     1     -10.069  14.582  69.788  1.00  0.00    -0.414 NA 
HETATM    2  H1  UNL     1      -9.940  13.574  69.700  1.00  0.00     0.000 HD 
HETATM    3  C   UNL     1      -9.589  15.198  68.529  1.00  0.00    -0.214 C  
HETATM    4  H2  UNL     1     -11.027  14.844  70.020  1.00  0.00     0.000 HD 
ENDROOT
BRANCH   3   5
HETATM    5  C   UNL     1      -9.786  16.738  68.663  1.00  0.00    -0.259 C  
HETATM    6  N   UNL     1     -10.423  20.081  66.852  1.00  0.00    -0.439 NA 
HETATM    7  N   UNL     1      -8.662  17.532  68.610  1.00  0.00    -0.278 N  
HETATM    8  O   UNL     1     -10.908  17.224  68.816  1.00  0.00    -0.285 OA 
HETATM    9  C   UNL     1      -9.697  19.574  67.609  1.00  0.00    -0.344 C  
HETATM   10  C   UNL     1      -8.731  19.013  68.574  1.00  0.00    -0.357 C  
HETATM   11  C   UNL     1      -7.319  17.127  68.930  1.00  0.00    -0.241 C  
HETATM   12  C   UNL     1      -7.295  19.427  68.172  1.00  0.00    -0.330 C  
HETATM   13  C   UNL     1      -6.224  17.033  67.922  1.00  0.00    -0.147 C  
HETATM   14  C   UNL     1      -6.418  18.317  68.688  1.00  0.00    -0.227 C  
ENDBRANCH   3   5
BRANCH   3  15
HETATM   15  C   UNL     1     -10.298  14.587  67.267  1.00  0.00    -0.260 C  
HETATM   16  C   UNL     1     -12.601  14.435  65.367  1.00  0.00    -0.339 C  
HETATM   17  C   UNL     1     -11.544  12.230  65.900  1.00  0.00    -0.450 C  
HETATM   18  C   UNL     1     -11.692  14.006  67.665  1.00  0.00    -0.412 C  
HETATM   19  C   UNL     1     -11.235  14.983  64.925  1.00  0.00    -0.416 C  
HETATM   20  C   UNL     1     -10.171  12.771  65.470  1.00  0.00    -0.293 C  
HETATM   21  C   UNL     1     -10.528  15.624  66.133  1.00  0.00    -0.327 C  
HETATM   22  C   UNL     1      -9.465  13.410  66.683  1.00  0.00    -0.264 C  
HETATM   23  O   UNL     1     -11.418  15.970  63.918  1.00  0.00    -1.188 OA 
HETATM   24  C   UNL     1     -10.369  13.834  64.382  1.00  0.00    -0.168 C  
HETATM   25  H   UNL     1     -10.573  16.308  63.645  1.00  0.00     0.000 HD 
HETATM   26  C   UNL     1     -12.406  13.373  66.456  1.00  0.00    -0.354 C  
ENDBRANCH   3  15
TORSDOF 2
ENDMDL
MODEL        2
REMARK 921   NORMALIZED FREE ENERGY PREDICTED BY IDOCK:   -6.91 KCAL/MOL
REMARK 922        TOTAL FREE ENERGY PREDICTED BY IDOCK:   -8.18 KCAL/MOL
REMARK 923 INTER-LIGAND FREE ENERGY PREDICTED BY IDOCK:   -7.48 KCAL/MOL
REMARK 924 INTRA-LIGAND FREE ENERGY PREDICTED BY IDOCK:   -0.71 KCAL/MOL
REMARK 927      BINDING AFFINITY PREDICTED BY RF-SCORE:    0.00 PKD
ROOT
HETATM    1  N   UNL     1     -12.935  12.746  64.968  1.00  0.00    -0.828 NA 
HETATM    2  H1  UNL     1     -13.269  11.784  65.022  1.00  0.00     0.000 HD 
HETATM    3  C   UNL     1     -12.108  12.992  66.172  1.00  0.00    -0.409 C  
HETATM    4  H2  UNL     1     -12.444  12.950  64.098  1.00  0.00     0.000 HD 
ENDROOT
BRANCH   3   5
HETATM    5  C   UNL     1     -11.597  14.462  66.090  1.00  0.00    -0.369 C  
HETATM    6  N   UNL     1      -8.548  16.817  65.944  1.00  0.00    -0.502 NA 
HETATM    7  N   UNL     1     -11.392  15.135  67.274  1.00  0.00    -0.330 N  
HETATM    8  O   UNL     1     -11.390  15.003  65.001  1.00  0.00    -0.370 OA 
HETATM    9  C   UNL     1      -9.536  16.634  66.534  1.00  0.00    -0.266 C  
HETATM   10  C   UNL     1     -10.768  16.478  67.333  1.00  0.00    -0.260 C  
HETATM   11  C   UNL     1     -12.028  14.851  68.534  1.00  0.00    -0.241 C  
HETATM   12  C   UNL     1     -10.438  16.652  68.835  1.00  0.00    -0.322 C  
HETATM   13  C   UNL     1     -11.300  14.328  69.725  1.00  0.00    -0.279 C  
HETATM   14  C   UNL     1     -11.465  15.817  69.552  1.00  0.00    -0.356 C  
ENDBRANCH   3   5
BRANCH   3  15
HETATM   15  C   UNL     1     -10.952  11.938  66.318  1.00  0.00    -0.345 C  
HETATM   16  C   UNL     1      -8.421  10.669  65.357  1.00  0.00    -0.162 C  
HETATM   17  C   UNL     1     -10.065   9.076  66.372  1.00  0.00    -0.351 C  
HETATM   18  C   UNL     1     -10.882  11.040  65.041  1.00  0.00    -0.194 C  
HETATM   19  C   UNL     1      -8.454  11.517  66.637  1.00  0.00    -0.172 C  
HETATM   20  C   UNL     1     -10.112   9.925  67.653  1.00  0.00    -0.241 C  
HETATM   21  C   UNL     1      -9.553  12.588  66.512  1.00  0.00    -0.242 C  
HETATM   22  C   UNL     1     -11.216  10.993  67.525  1.00  0.00    -0.372 C  
HETATM   23  O   UNL     1      -7.199  12.162  66.815  1.00  0.00    -0.358 OA 
HETATM   24  C   UNL     1      -8.757  10.618  67.847  1.00  0.00    -0.127 C  
HETATM   25  H   UNL     1      -7.219  12.686  67.607  1.00  0.00     0.000 HD 
HETATM   26  C   UNL     1      -9.776   9.976  65.160  1.00  0.00    -0.380 C  
ENDBRANCH   3  15
TORSDOF 2
ENDMDL
MODEL        3
REMARK 921   NORMALIZED FREE ENERGY PREDICTED BY IDOCK:   -6.90 KCAL/MOL
REMARK 922        TOTAL FREE ENERGY PREDICTED BY IDOCK:   -8.16 KCAL/MOL
REMARK 923 INTER-LIGAND FREE ENERGY PREDICTED BY IDOCK:   -7.96 KCAL/MOL
REMARK 924 INTRA-LIGAND FREE ENERGY PREDICTED BY IDOCK:   -0.20 KCAL/MOL
REMARK 927      BINDING AFFINITY PREDICTED BY RF-SCORE:    0.00 PKD
ROOT
HETATM    1  N   UNL     1      -7.398  15.405  67.251  1.00  0.00    -0.208 NA 
HETATM    2  H1  UNL     1      -6.935  15.844  68.047  1.00  0.00     0.000 HD 
HETATM    3  C   UNL     1      -8.828  15.789  67.308  1.00  0.00    -0.195 C  
HETATM    4  H2  UNL     1      -6.959  15.630  66.359  1.00  0.00     0.000 HD 
ENDROOT
BRANCH   3   5
HETATM    5  C   UNL     1      -9.535  15.117  66.093  1.00  0.00    -0.319 C  
HETATM    6  N   UNL     1     -12.709  14.911  63.916  1.00  0.00    -0.685 NA 
HETATM    7  N   UNL     1     -10.266  13.974  66.332  1.00  0.00    -0.284 N  
HETATM    8  O   UNL     1      -9.438  15.591  64.959  1.00  0.00    -0.076 OA 
HETATM    9  C   UNL     1     -11.980  14.247  64.534  1.00  0.00    -0.462 C  
HETATM   10  C   UNL     1     -11.105  13.331  65.293  1.00  0.00    -0.288 C  
HETATM   11  C   UNL     1     -10.078  13.057  67.426  1.00  0.00    -0.231 C  
HETATM   12  C   UNL     1     -11.972  12.336  66.101  1.00  0.00    -0.323 C  
HETATM   13  C   UNL     1     -11.073  12.865  68.520  1.00  0.00    -0.299 C  
HETATM   14  C   UNL     1     -11.132  11.981  67.299  1.00  0.00    -0.341 C  
ENDBRANCH   3   5
BRANCH   3  15
HETATM   15  C   UNL     1      -9.017  17.348  67.355  1.00  0.00    -0.232 C  
HETATM   16  C   UNL     1      -7.930  20.115  67.675  1.00  0.00    -0.327 C  
HETATM   17  C   UNL     1     -10.194  19.763  68.683  1.00  0.00    -0.515 C  
HETATM   18  C   UNL     1      -8.505  17.908  68.721  1.00  0.00    -0.212 C  
HETATM   19  C   UNL     1      -8.455  19.614  66.321  1.00  0.00    -0.360 C  
HETATM   20  C   UNL     1     -10.726  19.250  67.335  1.00  0.00    -0.594 C  
HETATM   21  C   UNL     1      -8.250  18.091  66.226  1.00  0.00    -0.242 C  
HETATM   22  C   UNL     1     -10.522  17.724  67.245  1.00  0.00    -0.356 C  
HETATM   23  O   UNL     1      -7.738  20.244  65.268  1.00  0.00    -0.444 OA 
HETATM   24  C   UNL     1      -9.954  19.931  66.198  1.00  0.00    -0.593 C  
HETATM   25  H   UNL     1      -8.063  19.934  64.431  1.00  0.00     0.000 HD 
HETATM   26  C   UNL     1      -8.700  19.432  68.814  1.00  0.00    -0.377 C  
ENDBRANCH   3  15
TORSDOF 2
ENDMDL
MODEL        4
REMARK 921   NORMALIZED FREE ENERGY PREDICTED BY IDOCK:   -6.87 KCAL/MOL
REMARK 922        TOTAL FREE ENERGY PREDICTED BY IDOCK:   -8.13 KCAL/MOL
REMARK 923 INTER-LIGAND FREE ENERGY PREDICTED BY IDOCK:   -7.50 KCAL/MOL
REMARK 924 INTRA-LIGAND FREE ENERGY PREDICTED BY IDOCK:   -0.63 KCAL/MOL
REMARK 927      BINDING AFFINITY PREDICTED BY RF-SCORE:    0.00 PKD
ROOT
HETATM    1  N   UNL     1     -12.793  12.849  64.613  1.00  0.00    -0.740 NA 
HETATM    2  H1  UNL     1     -13.124  11.884  64.622  1.00  0.00     0.000 HD 
HETATM    3  C   UNL     1     -12.105  13.089  65.903  1.00  0.00    -0.444 C  
HETATM    4  H2  UNL     1     -12.212  13.064  63.804  1.00  0.00     0.000 HD 
ENDROOT
BRANCH   3   5
HETATM    5  C   UNL     1     -11.600  14.563  65.889  1.00  0.00    -0.349 C  
HETATM    6  N   UNL     1      -8.562  16.935  65.853  1.00  0.00    -0.517 NA 
HETATM    7  N   UNL     1     -11.398  15.180  67.104  1.00  0.00    -0.323 N  
HETATM    8  O   UNL     1     -11.396  15.155  64.827  1.00  0.00    -0.400 OA 
HETATM    9  C   UNL     1      -9.548  16.721  66.434  1.00  0.00    -0.281 C  
HETATM   10  C   UNL     1     -10.779  16.522  67.225  1.00  0.00    -0.243 C  
HETATM   11  C   UNL     1     -12.032  14.835  68.349  1.00  0.00    -0.235 C  
HETATM   12  C   UNL     1     -10.449  16.627  68.733  1.00  0.00    -0.324 C  
HETATM   13  C   UNL     1     -11.301  14.260  69.514  1.00  0.00    -0.315 C  
HETATM   14  C   UNL     1     -11.472  15.754  69.411  1.00  0.00    -0.357 C  
ENDBRANCH   3   5
BRANCH   3  15
HETATM   15  C   UNL     1     -10.963  12.042  66.165  1.00  0.00    -0.343 C  
HETATM   16  C   UNL     1     -10.001   9.226  66.454  1.00  0.00    -0.356 C  
HETATM   17  C   UNL     1      -8.925  10.860  68.016  1.00  0.00    -0.145 C  
HETATM   18  C   UNL     1     -11.337  11.136  67.382  1.00  0.00    -0.329 C  
HETATM   19  C   UNL     1      -9.582  10.095  65.258  1.00  0.00    -0.277 C  
HETATM   20  C   UNL     1      -8.511  11.741  66.827  1.00  0.00    -0.177 C  
HETATM   21  C   UNL     1     -10.698  11.110  64.950  1.00  0.00    -0.318 C  
HETATM   22  C   UNL     1      -9.629  12.758  66.524  1.00  0.00    -0.257 C  
HETATM   23  O   UNL     1      -9.378   9.272  64.117  1.00  0.00    -0.416 OA 
HETATM   24  C   UNL     1      -8.288  10.853  65.597  1.00  0.00    -0.105 C  
HETATM   25  H   UNL     1      -9.119   9.809  63.378  1.00  0.00     0.000 HD 
HETATM   26  C   UNL     1     -10.226  10.113  67.686  1.00  0.00    -0.246 C  
ENDBRANCH   3  15
TORSDOF 2
ENDMDL
MODEL        5
REMARK 921   NORMALIZED FREE ENERGY PREDICTED BY IDOCK:   -6.82 KCAL/MOL
REMARK 922        TOTAL FREE ENERGY PREDICTED BY IDOCK:   -8.08 KCAL/MOL
REMARK 923 INTER-LIGAND FREE ENERGY PREDICTED BY IDOCK:   -7.64 KCAL/MOL
REMARK 924 INTRA-LIGAND FREE ENERGY PREDICTED BY IDOCK:   -0.44 KCAL/MOL
REMARK 927      BINDING AFFINITY PREDICTED BY RF-SCORE:    0.00 PKD
ROOT
HETATM    1  N   UNL     1     -12.395  14.114  68.970  1.00  0.00    -0.537 NA 
HETATM    2  H1  UNL     1     -12.794  15.026  69.192  1.00  0.00     0.000 HD 
HETATM    3  C   UNL     1     -11.801  14.213  67.617  1.00  0.00    -0.392 C  
HETATM    4  H2  UNL     1     -11.734  13.785  69.674  1.00  0.00     0.000 HD 
ENDROOT
BRANCH   3   5
HETATM    5  C   UNL     1     -11.192  12.819  67.277  1.00  0.00    -0.295 C  
HETATM    6  N   UNL     1      -8.092  10.850  66.107  1.00  0.00    -0.164 NA 
HETATM    7  N   UNL     1     -11.310  12.369  65.981  1.00  0.00    -0.335 N  
HETATM    8  O   UNL     1     -10.629  12.144  68.141  1.00  0.00    -0.202 OA 
HETATM    9  C   UNL     1      -9.221  11.004  65.869  1.00  0.00    -0.199 C  
HETATM   10  C   UNL     1     -10.645  11.136  65.500  1.00  0.00    -0.225 C  
HETATM   11  C   UNL     1     -12.315  12.768  65.031  1.00  0.00    -0.499 C  
HETATM   12  C   UNL     1     -10.773  11.238  63.961  1.00  0.00    -0.444 C  
HETATM   13  C   UNL     1     -12.018  13.554  63.799  1.00  0.00    -0.475 C  
HETATM   14  C   UNL     1     -12.023  12.048  63.734  1.00  0.00    -0.588 C  
ENDBRANCH   3   5
BRANCH   3  15
HETATM   15  C   UNL     1     -10.763  15.388  67.514  1.00  0.00    -0.295 C  
HETATM   16  C   UNL     1     -10.067  18.225  66.878  1.00  0.00    -0.377 C  
HETATM   17  C   UNL     1      -8.308  16.557  66.253  1.00  0.00    -0.364 C  
HETATM   18  C   UNL     1     -10.735  15.951  66.057  1.00  0.00    -0.289 C  
HETATM   19  C   UNL     1     -10.049  17.702  68.323  1.00  0.00    -0.362 C  
HETATM   20  C   UNL     1      -8.291  16.019  67.694  1.00  0.00    -0.164 C  
HETATM   21  C   UNL     1     -11.084  16.572  68.468  1.00  0.00    -0.335 C  
HETATM   22  C   UNL     1      -9.326  14.885  67.834  1.00  0.00    -0.191 C  
HETATM   23  O   UNL     1     -10.385  18.755  69.216  1.00  0.00    -0.476 OA 
HETATM   24  C   UNL     1      -8.652  17.156  68.658  1.00  0.00    -0.260 C  
HETATM   25  H   UNL     1     -10.374  18.432  70.109  1.00  0.00     0.000 HD 
HETATM   26  C   UNL     1      -9.708  17.089  65.911  1.00  0.00    -0.170 C  
ENDBRANCH   3  15
TORSDOF 2
ENDMDL
MODEL        6
REMARK 921   NORMALIZED FREE ENERGY PREDICTED BY IDOCK:   -6.79 KCAL/MOL
REMARK 922        TOTAL FREE ENERGY PREDICTED BY IDOCK:   -8.04 KCAL/MOL
REMARK 923 INTER-LIGAND FREE ENERGY PREDICTED BY IDOCK:   -7.40 KCAL/MOL
REMARK 924 INTRA-LIGAND FREE ENERGY PREDICTED BY IDOCK:   -0.65 KCAL/MOL
REMARK 927      BINDING AFFINITY PREDICTED BY RF-SCORE:    0.00 PKD
ROOT
HETATM    1  N   UNL     1     -11.410  16.350  64.323  1.00  0.00    -1.293 NA 
HETATM    2  H1  UNL     1     -10.978  17.067  63.738  1.00  0.00     0.000 HD 
HETATM    3  C   UNL     1     -10.418  15.970  65.355  1.00  0.00    -0.392 C  
HETATM    4  H2  UNL     1     -12.304  16.641  64.716  1.00  0.00     0.000 HD 
ENDROOT
BRANCH   3   5
HETATM    5  C   UNL     1     -11.077  14.875  66.247  1.00  0.00    -0.340 C  
HETATM    6  N   UNL     1     -12.350  13.903  69.754  1.00  0.00    -0.316 NA 
HETATM    7  N   UNL     1     -10.243  13.981  66.883  1.00  0.00    -0.257 N  
HETATM    8  O   UNL     1     -12.302  14.810  66.373  1.00  0.00    -0.161 OA 
HETATM    9  C   UNL     1     -11.646  13.535  68.902  1.00  0.00    -0.323 C  
HETATM   10  C   UNL     1     -10.736  12.994  67.872  1.00  0.00    -0.235 C  
HETATM   11  C   UNL     1      -8.915  13.616  66.468  1.00  0.00    -0.047 C  
HETATM   12  C   UNL     1      -9.438  12.485  68.544  1.00  0.00    -0.100 C  
HETATM   13  C   UNL     1      -7.687  13.959  67.241  1.00  0.00    -0.104 C  
HETATM   14  C   UNL     1      -8.375  12.640  67.489  1.00  0.00    -0.177 C  
ENDBRANCH   3   5
BRANCH   3  15
HETATM   15  C   UNL     1      -9.909  17.213  66.169  1.00  0.00    -0.280 C  
HETATM   16  C   UNL     1      -8.313  18.421  68.390  1.00  0.00    -0.328 C  
HETATM   17  C   UNL     1     -10.505  19.548  67.951  1.00  0.00    -0.552 C  
HETATM   18  C   UNL     1     -10.297  17.063  67.675  1.00  0.00    -0.332 C  
HETATM   19  C   UNL     1      -7.916  18.622  66.920  1.00  0.00    -0.242 C  
HETATM   20  C   UNL     1     -10.121  19.743  66.475  1.00  0.00    -0.589 C  
HETATM   21  C   UNL     1      -8.368  17.401  66.098  1.00  0.00    -0.217 C  
HETATM   22  C   UNL     1     -10.578  18.520  65.656  1.00  0.00    -0.143 C  
HETATM   23  O   UNL     1      -6.504  18.750  66.819  1.00  0.00    -0.185 OA 
HETATM   24  C   UNL     1      -8.597  19.884  66.367  1.00  0.00    -0.386 C  
HETATM   25  H   UNL     1      -6.258  18.874  65.910  1.00  0.00     0.000 HD 
HETATM   26  C   UNL     1      -9.837  18.278  68.501  1.00  0.00    -0.400 C  
ENDBRANCH   3  15
TORSDOF 2
ENDMDL
MODEL        7
REMARK 921   NORMALIZED FREE ENERGY PREDICTED BY IDOCK:   -6.73 KCAL/MOL
REMARK 922        TOTAL FREE ENERGY PREDICTED BY IDOCK:   -7.97 KCAL/MOL
REMARK 923 INTER-LIGAND FREE ENERGY PREDICTED BY IDOCK:   -7.32 KCAL/MOL
REMARK 924 INTRA-LIGAND FREE ENERGY PREDICTED BY IDOCK:   -0.65 KCAL/MOL
REMARK 927      BINDING AFFINITY PREDICTED BY RF-SCORE:    0.00 PKD
ROOT
HETATM    1  N   UNL     1     -11.405  16.689  64.311  1.00  0.00    -1.364 NA 
HETATM    2  H1  UNL     1     -10.991  17.468  63.798  1.00  0.00     0.000 HD 
HETATM    3  C   UNL     1     -10.415  16.255  65.324  1.00  0.00    -0.300 C  
HETATM    4  H2  UNL     1     -12.315  16.914  64.712  1.00  0.00     0.000 HD 
ENDROOT
BRANCH   3   5
HETATM    5  C   UNL     1     -11.047  15.066  66.107  1.00  0.00    -0.329 C  
HETATM    6  N   UNL     1     -12.515  13.816  69.445  1.00  0.00    -0.162 NA 
HETATM    7  N   UNL     1     -10.194  14.214  66.774  1.00  0.00    -0.259 N  
HETATM    8  O   UNL     1     -12.268  14.893  66.124  1.00  0.00    -0.100 OA 
HETATM    9  C   UNL     1     -11.715  13.552  68.642  1.00  0.00    -0.354 C  
HETATM   10  C   UNL     1     -10.679  13.141  67.673  1.00  0.00    -0.238 C  
HETATM   11  C   UNL     1      -8.809  13.982  66.460  1.00  0.00    -0.020 C  
HETATM   12  C   UNL     1      -9.401  12.708  68.433  1.00  0.00    -0.148 C  
HETATM   13  C   UNL     1      -7.684  14.387  67.351  1.00  0.00    -0.207 C  
HETATM   14  C   UNL     1      -8.272  13.005  67.481  1.00  0.00    -0.181 C  
ENDBRANCH   3   5
BRANCH   3  15
HETATM   15  C   UNL     1      -9.962  17.441  66.250  1.00  0.00    -0.306 C  
HETATM   16  C   UNL     1     -10.577  19.744  68.054  1.00  0.00    -0.439 C  
HETATM   17  C   UNL     1      -8.595  20.088  66.565  1.00  0.00    -0.366 C  
HETATM   18  C   UNL     1     -10.571  18.784  65.736  1.00  0.00    -0.321 C  
HETATM   19  C   UNL     1      -9.946  18.452  68.595  1.00  0.00    -0.387 C  
HETATM   20  C   UNL     1      -7.960  18.791  67.092  1.00  0.00    -0.254 C  
HETATM   21  C   UNL     1     -10.401  17.262  67.730  1.00  0.00    -0.356 C  
HETATM   22  C   UNL     1      -8.415  17.603  66.222  1.00  0.00    -0.237 C  
HETATM   23  O   UNL     1     -10.368  18.238  69.935  1.00  0.00    -0.030 OA 
HETATM   24  C   UNL     1      -8.413  18.562  68.539  1.00  0.00    -0.354 C  
HETATM   25  H   UNL     1      -9.978  17.440  70.269  1.00  0.00     0.000 HD 
HETATM   26  C   UNL     1     -10.126  19.975  66.605  1.00  0.00    -0.607 C  
ENDBRANCH   3  15
TORSDOF 2
ENDMDL
MODEL        8
REMARK 921   NORMALIZED FREE ENERGY PREDICTED BY IDOCK:   -6.69 KCAL/MOL
REMARK 922        TOTAL FREE ENERGY PREDICTED BY IDOCK:   -7.94 KCAL/MOL
REMARK 923 INTER-LIGAND FREE ENERGY PREDICTED BY IDOCK:   -7.36 KCAL/MOL
REMARK 924 INTRA-LIGAND FREE ENERGY PREDICTED BY IDOCK:   -0.58 KCAL/MOL
REMARK 927      BINDING AFFINITY PREDICTED BY RF-SCORE:    0.00 PKD
ROOT
HETATM    1  N   UNL     1     -12.670  13.234  64.545  1.00  0.00    -0.671 NA 
HETATM    2  H1  UNL     1     -13.113  12.315  64.543  1.00  0.00     0.000 HD 
HETATM    3  C   UNL     1     -12.061  13.426  65.882  1.00  0.00    -0.439 C  
HETATM    4  H2  UNL     1     -12.005  13.359  63.782  1.00  0.00     0.000 HD 
ENDROOT
BRANCH   3   5
HETATM    5  C   UNL     1     -11.385  14.830  65.884  1.00  0.00    -0.331 C  
HETATM    6  N   UNL     1      -8.087  16.824  65.967  1.00  0.00    -0.423 NA 
HETATM    7  N   UNL     1     -11.160  15.428  67.104  1.00  0.00    -0.318 N  
HETATM    8  O   UNL     1     -11.068  15.384  64.830  1.00  0.00    -0.416 OA 
HETATM    9  C   UNL     1      -9.114  16.733  66.507  1.00  0.00    -0.273 C  
HETATM   10  C   UNL     1     -10.391  16.688  67.247  1.00  0.00    -0.298 C  
HETATM   11  C   UNL     1     -11.881  15.171  68.323  1.00  0.00    -0.250 C  
HETATM   12  C   UNL     1     -10.113  16.765  68.767  1.00  0.00    -0.286 C  
HETATM   13  C   UNL     1     -11.271  14.522  69.519  1.00  0.00    -0.300 C  
HETATM   14  C   UNL     1     -11.259  16.025  69.404  1.00  0.00    -0.349 C  
ENDBRANCH   3   5
BRANCH   3  15
HETATM   15  C   UNL     1     -11.076  12.259  66.252  1.00  0.00    -0.342 C  
HETATM   16  C   UNL     1      -9.202  10.911  68.152  1.00  0.00    -0.158 C  
HETATM   17  C   UNL     1      -8.513  10.791  65.749  1.00  0.00    -0.174 C  
HETATM   18  C   UNL     1      -9.672  12.839  66.618  1.00  0.00    -0.252 C  
HETATM   19  C   UNL     1     -10.560  10.289  67.793  1.00  0.00    -0.250 C  
HETATM   20  C   UNL     1      -9.873  10.178  65.378  1.00  0.00    -0.375 C  
HETATM   21  C   UNL     1     -11.562  11.410  67.460  1.00  0.00    -0.298 C  
HETATM   22  C   UNL     1     -10.872  11.304  65.042  1.00  0.00    -0.285 C  
HETATM   23  O   UNL     1     -11.052   9.543  68.899  1.00  0.00    -0.419 OA 
HETATM   24  C   UNL     1     -10.402   9.371  66.570  1.00  0.00    -0.268 C  
HETATM   25  H   UNL     1     -11.891   9.159  68.676  1.00  0.00     0.000 HD 
HETATM   26  C   UNL     1      -8.671  11.721  66.961  1.00  0.00    -0.181 C  
ENDBRANCH   3  15
TORSDOF 2
ENDMDL
MODEL        9
REMARK 921   NORMALIZED FREE ENERGY PREDICTED BY IDOCK:   -6.68 KCAL/MOL
REMARK 922        TOTAL FREE ENERGY PREDICTED BY IDOCK:   -7.92 KCAL/MOL
REMARK 923 INTER-LIGAND FREE ENERGY PREDICTED BY IDOCK:   -7.39 KCAL/MOL
REMARK 924 INTRA-LIGAND FREE ENERGY PREDICTED BY IDOCK:   -0.53 KCAL/MOL
REMARK 927      BINDING AFFINITY PREDICTED BY RF-SCORE:    0.00 PKD
ROOT
HETATM    1  N   UNL     1     -11.135  15.786  64.423  1.00  0.00    -0.852 NA 
HETATM    2  H1  UNL     1     -10.567  16.397  63.836  1.00  0.00     0.000 HD 
HETATM    3  C   UNL     1     -10.314  15.419  65.600  1.00  0.00    -0.372 C  
HETATM    4  H2  UNL     1     -12.033  16.198  64.675  1.00  0.00     0.000 HD 
ENDROOT
BRANCH   3   5
HETATM    5  C   UNL     1     -11.182  14.486  66.496  1.00  0.00    -0.344 C  
HETATM    6  N   UNL     1     -12.523  13.740  70.033  1.00  0.00    -0.286 NA 
HETATM    7  N   UNL     1     -10.562  13.402  67.078  1.00  0.00    -0.263 N  
HETATM    8  O   UNL     1     -12.381  14.710  66.672  1.00  0.00    -0.258 OA 
HETATM    9  C   UNL     1     -11.958  13.242  69.145  1.00  0.00    -0.296 C  
HETATM   10  C   UNL     1     -11.240  12.531  68.068  1.00  0.00    -0.270 C  
HETATM   11  C   UNL     1      -9.374  12.745  66.601  1.00  0.00    -0.242 C  
HETATM   12  C   UNL     1     -10.077  11.709  68.674  1.00  0.00    -0.206 C  
HETATM   13  C   UNL     1      -8.073  12.765  67.329  1.00  0.00    -0.172 C  
HETATM   14  C   UNL     1      -9.046  11.640  67.579  1.00  0.00    -0.172 C  
ENDBRANCH   3   5
BRANCH   3  15
HETATM   15  C   UNL     1      -9.773  16.684  66.358  1.00  0.00    -0.306 C  
HETATM   16  C   UNL     1      -8.206  19.230  66.430  1.00  0.00    -0.329 C  
HETATM   17  C   UNL     1      -8.061  17.859  68.519  1.00  0.00    -0.305 C  
HETATM   18  C   UNL     1      -8.212  16.725  66.286  1.00  0.00    -0.359 C  
HETATM   19  C   UNL     1      -9.738  19.231  66.538  1.00  0.00    -0.367 C  
HETATM   20  C   UNL     1      -9.594  17.846  68.630  1.00  0.00    -0.331 C  
HETATM   21  C   UNL     1     -10.304  18.022  65.772  1.00  0.00    -0.178 C  
HETATM   22  C   UNL     1     -10.157  16.631  67.865  1.00  0.00    -0.270 C  
HETATM   23  O   UNL     1     -10.256  20.425  65.966  1.00  0.00    -0.507 OA 
HETATM   24  C   UNL     1     -10.153  19.135  68.015  1.00  0.00    -0.482 C  
HETATM   25  H   UNL     1     -11.204  20.426  66.033  1.00  0.00     0.000 HD 
HETATM   26  C   UNL     1      -7.644  17.940  67.043  1.00  0.00    -0.224 C  
ENDBRANCH   3  15
TORSDOF 2
ENDMDL
MODEL       10
REMARK 921   NORMALIZED FREE ENERGY PREDICTED BY IDOCK:   -6.68 KCAL/MOL
REMARK 922        TOTAL FREE ENERGY PREDICTED BY IDOCK:   -7.92 KCAL/MOL
REMARK 923 INTER-LIGAND FREE ENERGY PREDICTED BY IDOCK:   -7.38 KCAL/MOL
REMARK 924 INTRA-LIGAND FREE ENERGY PREDICTED BY IDOCK:   -0.54 KCAL/MOL
REMARK 927      BINDING AFFINITY PREDICTED BY RF-SCORE:    0.00 PKD
ROOT
HETATM    1  N   UNL     1     -12.173  15.645  69.323  1.00  0.00    -0.565 NA 
HETATM    2  H1  UNL     1     -12.417  16.631  69.426  1.00  0.00     0.000 HD 
HETATM    3  C   UNL     1     -11.535  15.487  67.995  1.00  0.00    -0.308 C  
HETATM    4  H2  UNL     1     -11.597  15.294  70.087  1.00  0.00     0.000 HD 
ENDROOT
BRANCH   3   5
HETATM    5  C   UNL     1     -11.164  13.982  67.837  1.00  0.00    -0.273 C  
HETATM    6  N   UNL     1      -8.487  11.409  66.801  1.00  0.00    -0.160 NA 
HETATM    7  N   UNL     1     -11.451  13.377  66.634  1.00  0.00    -0.330 N  
HETATM    8  O   UNL     1     -10.637  13.357  68.759  1.00  0.00    -0.245 OA 
HETATM    9  C   UNL     1      -9.598  11.701  66.609  1.00  0.00    -0.204 C  
HETATM   10  C   UNL     1     -11.013  11.999  66.308  1.00  0.00    -0.299 C  
HETATM   11  C   UNL     1     -12.462  13.788  65.695  1.00  0.00    -0.503 C  
HETATM   12  C   UNL     1     -11.250  11.900  64.782  1.00  0.00    -0.356 C  
HETATM   13  C   UNL     1     -12.155  14.335  64.342  1.00  0.00    -0.490 C  
HETATM   14  C   UNL     1     -12.383  12.854  64.508  1.00  0.00    -0.483 C  
ENDBRANCH   3   5
BRANCH   3  15
HETATM   15  C   UNL     1     -10.310  16.454  67.812  1.00  0.00    -0.287 C  
HETATM   16  C   UNL     1      -8.747  18.436  66.209  1.00  0.00    -0.209 C  
HETATM   17  C   UNL     1      -7.351  16.842  67.543  1.00  0.00    -0.177 C  
HETATM   18  C   UNL     1      -9.510  16.067  66.527  1.00  0.00    -0.297 C  
HETATM   19  C   UNL     1      -9.492  18.851  67.487  1.00  0.00    -0.302 C  
HETATM   20  C   UNL     1      -8.098  17.244  68.825  1.00  0.00    -0.242 C  
HETATM   21  C   UNL     1     -10.723  17.946  67.676  1.00  0.00    -0.343 C  
HETATM   22  C   UNL     1      -9.328  16.333  69.013  1.00  0.00    -0.254 C  
HETATM   23  O   UNL     1      -9.924  20.200  67.371  1.00  0.00    -0.390 OA 
HETATM   24  C   UNL     1      -8.561  18.700  68.701  1.00  0.00    -0.338 C  
HETATM   25  H   UNL     1     -10.384  20.457  68.162  1.00  0.00     0.000 HD 
HETATM   26  C   UNL     1      -8.284  16.978  66.330  1.00  0.00    -0.326 C  
ENDBRANCH   3  15
TORSDOF 2
ENDMDL
MODEL       11
REMARK 921   NORMALIZED FREE ENERGY PREDICTED BY IDOCK:   -6.62 KCAL/MOL
REMARK 922        TOTAL FREE ENERGY PREDICTED BY IDOCK:   -7.86 KCAL/MOL
REMARK 923 INTER-LIGAND FREE ENERGY PREDICTED BY IDOCK:   -7.28 KCAL/MOL
REMARK 924 INTRA-LIGAND FREE ENERGY PREDICTED BY IDOCK:   -0.57 KCAL/MOL
REMARK 927      BINDING AFFINITY PREDICTED BY RF-SCORE:    0.00 PKD
ROOT
HETATM    1  N   UNL     1     -11.383  16.759  64.168  1.00  0.00    -1.400 NA 
HETATM    2  H1  UNL     1     -12.242  16.474  63.697  1.00  0.00     0.000 HD 
HETATM    3  C   UNL     1     -11.254  15.926  65.387  1.00  0.00    -0.100 C  
HETATM    4  H2  UNL     1     -10.562  16.713  63.564  1.00  0.00     0.000 HD 
ENDROOT
BRANCH   3   5
HETATM    5  C   UNL     1      -9.943  16.361  66.107  1.00  0.00    -0.339 C  
HETATM    6  N   UNL     1      -6.355  15.399  67.139  1.00  0.00    -0.272 NA 
HETATM    7  N   UNL     1      -9.834  16.094  67.454  1.00  0.00    -0.235 N  
HETATM    8  O   UNL     1      -9.038  16.929  65.491  1.00  0.00    -0.414 OA 
HETATM    9  C   UNL     1      -7.356  15.803  67.577  1.00  0.00    -0.178 C  
HETATM   10  C   UNL     1      -8.583  16.320  68.215  1.00  0.00    -0.196 C  
HETATM   11  C   UNL     1     -10.925  15.915  68.375  1.00  0.00    -0.331 C  
HETATM   12  C   UNL     1      -8.833  15.568  69.544  1.00  0.00    -0.229 C  
HETATM   13  C   UNL     1     -11.237  14.617  69.039  1.00  0.00    -0.287 C  
HETATM   14  C   UNL     1     -10.327  15.603  69.728  1.00  0.00    -0.309 C  
ENDBRANCH   3   5
BRANCH   3  15
HETATM   15  C   UNL     1     -11.305  14.391  65.059  1.00  0.00    -0.373 C  
HETATM   16  C   UNL     1     -10.508  12.033  63.401  1.00  0.00    -0.474 C  
HETATM   17  C   UNL     1     -12.879  11.988  64.204  1.00  0.00    -0.283 C  
HETATM   18  C   UNL     1     -11.805  14.172  63.595  1.00  0.00     0.086 C  
HETATM   19  C   UNL     1     -10.022  12.193  64.850  1.00  0.00    -0.212 C  
HETATM   20  C   UNL     1     -12.402  12.159  65.655  1.00  0.00     0.149 C  
HETATM   21  C   UNL     1      -9.924  13.691  65.192  1.00  0.00    -0.218 C  
HETATM   22  C   UNL     1     -12.309  13.659  65.996  1.00  0.00    -0.493 C  
HETATM   23  O   UNL     1      -8.737  11.602  64.990  1.00  0.00    -0.369 OA 
HETATM   24  C   UNL     1     -11.017  11.518  65.808  1.00  0.00    -0.305 C  
HETATM   25  H   UNL     1      -8.436  11.700  65.886  1.00  0.00     0.000 HD 
HETATM   26  C   UNL     1     -11.893  12.675  63.246  1.00  0.00    -0.504 C  
ENDBRANCH   3  15
TORSDOF 2
ENDMDL
MODEL       12
REMARK 921   NORMALIZED FREE ENERGY PREDICTED BY IDOCK:   -6.61 KCAL/MOL
REMARK 922        TOTAL FREE ENERGY PREDICTED BY IDOCK:   -7.84 KCAL/MOL
REMARK 923 INTER-LIGAND FREE ENERGY PREDICTED BY IDOCK:   -7.39 KCAL/MOL
REMARK 924 INTRA-LIGAND FREE ENERGY PREDICTED BY IDOCK:   -0.45 KCAL/MOL
REMARK 927      BINDING AFFINITY PREDICTED BY RF-SCORE:    0.00 PKD
ROOT
HETATM    1  N   UNL     1     -13.030  13.754  65.319  1.00  0.00    -0.754 NA 
HETATM    2  H1  UNL     1     -13.193  14.684  64.933  1.00  0.00     0.000 HD 
HETATM    3  C   UNL     1     -11.564  13.540  65.348  1.00  0.00    -0.316 C  
HETATM    4  H2  UNL     1     -13.472  13.615  66.227  1.00  0.00     0.000 HD 
ENDROOT
BRANCH   3   5
HETATM    5  C   UNL     1     -11.316  12.119  65.937  1.00  0.00    -0.356 C  
HETATM    6  N   UNL     1      -9.044   9.867  68.088  1.00  0.00    -0.121 NA 
HETATM    7  N   UNL     1     -10.581  11.234  65.180  1.00  0.00    -0.292 N  
HETATM    8  O   UNL     1     -11.768  11.799  67.038  1.00  0.00    -0.555 OA 
HETATM    9  C   UNL     1      -9.548   9.923  67.039  1.00  0.00    -0.175 C  
HETATM   10  C   UNL     1     -10.150   9.911  65.691  1.00  0.00    -0.237 C  
HETATM   11  C   UNL     1     -10.424  11.264  63.749  1.00  0.00    -0.399 C  
HETATM   12  C   UNL     1      -9.094   9.455  64.656  1.00  0.00    -0.228 C  
HETATM   13  C   UNL     1      -9.131  11.557  63.068  1.00  0.00    -0.148 C  
HETATM   14  C   UNL     1      -9.502  10.127  63.371  1.00  0.00    -0.308 C  
ENDBRANCH   3   5
BRANCH   3  15
HETATM   15  C   UNL     1     -10.819  14.679  66.134  1.00  0.00    -0.321 C  
HETATM   16  C   UNL     1      -8.642  16.714  66.368  1.00  0.00    -0.345 C  
HETATM   17  C   UNL     1      -9.206  15.543  68.507  1.00  0.00    -0.197 C  
HETATM   18  C   UNL     1      -9.317  14.299  66.331  1.00  0.00    -0.270 C  
HETATM   19  C   UNL     1     -10.112  17.131  66.209  1.00  0.00    -0.320 C  
HETATM   20  C   UNL     1     -10.681  15.946  68.351  1.00  0.00    -0.281 C  
HETATM   21  C   UNL     1     -10.864  16.052  65.409  1.00  0.00    -0.340 C  
HETATM   22  C   UNL     1     -11.432  14.862  67.552  1.00  0.00    -0.361 C  
HETATM   23  O   UNL     1     -10.186  18.364  65.506  1.00  0.00    -0.522 OA 
HETATM   24  C   UNL     1     -10.761  17.278  67.595  1.00  0.00    -0.307 C  
HETATM   25  H   UNL     1     -11.095  18.622  65.408  1.00  0.00     0.000 HD 
HETATM   26  C   UNL     1      -8.560  15.381  67.123  1.00  0.00    -0.235 C  
ENDBRANCH   3  15
TORSDOF 2
ENDMDL
MODEL       13
REMARK 921   NORMALIZED FREE ENERGY PREDICTED BY IDOCK:   -6.58 KCAL/MOL
REMARK 922        TOTAL FREE ENERGY PREDICTED BY IDOCK:   -7.81 KCAL/MOL
REMARK 923 INTER-LIGAND FREE ENERGY PREDICTED BY IDOCK:   -7.76 KCAL/MOL
REMARK 924 INTRA-LIGAND FREE ENERGY PREDICTED BY IDOCK:   -0.05 KCAL/MOL
REMARK 927      BINDING AFFINITY PREDICTED BY RF-SCORE:    0.00 PKD
ROOT
HETATM    1  N   UNL     1     -11.043  16.608  64.449  1.00  0.00    -1.251 NA 
HETATM    2  H1  UNL     1     -11.961  16.181  64.323  1.00  0.00     0.000 HD 
HETATM    3  C   UNL     1     -10.637  16.371  65.854  1.00  0.00    -0.285 C  
HETATM    4  H2  UNL     1     -10.354  16.279  63.773  1.00  0.00     0.000 HD 
ENDROOT
BRANCH   3   5
HETATM    5  C   UNL     1      -9.235  17.023  66.045  1.00  0.00    -0.142 C  
HETATM    6  N   UNL     1      -6.208  17.545  68.375  1.00  0.00    -0.171 NA 
HETATM    7  N   UNL     1      -9.188  18.294  66.574  1.00  0.00    -0.295 N  
HETATM    8  O   UNL     1      -8.206  16.423  65.729  1.00  0.00    -0.187 OA 
HETATM    9  C   UNL     1      -6.981  18.134  67.733  1.00  0.00    -0.207 C  
HETATM   10  C   UNL     1      -7.917  18.960  66.944  1.00  0.00    -0.256 C  
HETATM   11  C   UNL     1     -10.241  19.274  66.525  1.00  0.00    -0.435 C  
HETATM   12  C   UNL     1      -8.381  20.170  67.790  1.00  0.00    -0.304 C  
HETATM   13  C   UNL     1     -10.981  19.751  67.729  1.00  0.00    -0.157 C  
HETATM   14  C   UNL     1      -9.754  20.498  67.268  1.00  0.00    -0.600 C  
ENDBRANCH   3   5
BRANCH   3  15
HETATM   15  C   UNL     1     -10.670  14.845  66.227  1.00  0.00    -0.320 C  
HETATM   16  C   UNL     1      -9.366  12.162  66.424  1.00  0.00    -0.225 C  
HETATM   17  C   UNL     1     -11.778  12.101  65.758  1.00  0.00    -0.391 C  
HETATM   18  C   UNL     1     -10.312  13.980  64.977  1.00  0.00    -0.432 C  
HETATM   19  C   UNL     1      -9.734  12.966  67.680  1.00  0.00    -0.212 C  
HETATM   20  C   UNL     1     -12.155  12.914  67.008  1.00  0.00    -0.296 C  
HETATM   21  C   UNL     1      -9.673  14.471  67.358  1.00  0.00    -0.222 C  
HETATM   22  C   UNL     1     -12.097  14.420  66.680  1.00  0.00    -0.392 C  
HETATM   23  O   UNL     1      -8.808  12.678  68.720  1.00  0.00    -0.381 OA 
HETATM   24  C   UNL     1     -11.157  12.601  68.130  1.00  0.00    -0.285 C  
HETATM   25  H   UNL     1      -9.035  13.175  69.496  1.00  0.00     0.000 HD 
HETATM   26  C   UNL     1     -10.361  12.475  65.298  1.00  0.00    -0.310 C  
ENDBRANCH   3  15
TORSDOF 2
ENDMDL
MODEL       14
REMARK 921   NORMALIZED FREE ENERGY PREDICTED BY IDOCK:   -6.56 KCAL/MOL
REMARK 922        TOTAL FREE ENERGY PREDICTED BY IDOCK:   -7.79 KCAL/MOL
REMARK 923 INTER-LIGAND FREE ENERGY PREDICTED BY IDOCK:   -7.22 KCAL/MOL
REMARK 924 INTRA-LIGAND FREE ENERGY PREDICTED BY IDOCK:   -0.57 KCAL/MOL
REMARK 927      BINDING AFFINITY PREDICTED BY RF-SCORE:    0.00 PKD
ROOT
HETATM    1  N   UNL     1     -11.952  15.694  69.440  1.00  0.00    -0.456 NA 
HETATM    2  H1  UNL     1     -12.165  16.684  69.564  1.00  0.00     0.000 HD 
HETATM    3  C   UNL     1     -11.403  15.530  68.074  1.00  0.00    -0.330 C  
HETATM    4  H2  UNL     1     -11.338  15.324  70.165  1.00  0.00     0.000 HD 
ENDROOT
BRANCH   3   5
HETATM    5  C   UNL     1     -11.079  14.018  67.886  1.00  0.00    -0.255 C  
HETATM    6  N   UNL     1      -8.524  11.388  66.693  1.00  0.00    -0.168 NA 
HETATM    7  N   UNL     1     -11.442  13.430  66.694  1.00  0.00    -0.330 N  
HETATM    8  O   UNL     1     -10.521  13.371  68.775  1.00  0.00    -0.242 OA 
HETATM    9  C   UNL     1      -9.636  11.709  66.561  1.00  0.00    -0.209 C  
HETATM   10  C   UNL     1     -11.056  12.045  66.336  1.00  0.00    -0.318 C  
HETATM   11  C   UNL     1     -12.489  13.875  65.811  1.00  0.00    -0.495 C  
HETATM   12  C   UNL     1     -11.373  11.966  64.823  1.00  0.00    -0.344 C  
HETATM   13  C   UNL     1     -12.238  14.427  64.449  1.00  0.00    -0.481 C  
HETATM   14  C   UNL     1     -12.495  12.950  64.616  1.00  0.00    -0.499 C  
ENDBRANCH   3   5
BRANCH   3  15
HETATM   15  C   UNL     1     -10.169  16.468  67.820  1.00  0.00    -0.278 C  
HETATM   16  C   UNL     1      -8.330  18.672  68.658  1.00  0.00    -0.344 C  
HETATM   17  C   UNL     1      -8.869  18.639  66.214  1.00  0.00    -0.227 C  
HETATM   18  C   UNL     1     -10.611  17.965  67.889  1.00  0.00    -0.387 C  
HETATM   19  C   UNL     1      -7.846  17.217  68.571  1.00  0.00    -0.257 C  
HETATM   20  C   UNL     1      -8.396  17.179  66.119  1.00  0.00    -0.258 C  
HETATM   21  C   UNL     1      -9.025  16.269  68.853  1.00  0.00    -0.248 C  
HETATM   22  C   UNL     1      -9.581  16.233  66.398  1.00  0.00    -0.316 C  
HETATM   23  O   UNL     1      -6.830  16.992  69.539  1.00  0.00    -0.226 OA 
HETATM   24  C   UNL     1      -7.298  16.938  67.162  1.00  0.00    -0.213 C  
HETATM   25  H   UNL     1      -6.530  16.093  69.485  1.00  0.00     0.000 HD 
HETATM   26  C   UNL     1      -9.431  18.915  67.617  1.00  0.00    -0.340 C  
ENDBRANCH   3  15
TORSDOF 2
ENDMDL
MODEL       15
REMARK 921   NORMALIZED FREE ENERGY PREDICTED BY IDOCK:   -6.56 KCAL/MOL
REMARK 922        TOTAL FREE ENERGY PREDICTED BY IDOCK:   -7.79 KCAL/MOL
REMARK 923 INTER-LIGAND FREE ENERGY PREDICTED BY IDOCK:   -7.17 KCAL/MOL
REMARK 924 INTRA-LIGAND FREE ENERGY PREDICTED BY IDOCK:   -0.62 KCAL/MOL
REMARK 927      BINDING AFFINITY PREDICTED BY RF-SCORE:    0.00 PKD
ROOT
HETATM    1  N   UNL     1     -13.239  13.984  65.851  1.00  0.00    -0.577 NA 
HETATM    2  H1  UNL     1     -13.427  14.919  65.490  1.00  0.00     0.000 HD 
HETATM    3  C   UNL     1     -11.792  13.725  65.669  1.00  0.00    -0.365 C  
HETATM    4  H2  UNL     1     -13.549  13.858  66.815  1.00  0.00     0.000 HD 
ENDROOT
BRANCH   3   5
HETATM    5  C   UNL     1     -11.505  12.296  66.220  1.00  0.00    -0.380 C  
HETATM    6  N   UNL     1      -9.128  10.033  68.243  1.00  0.00    -0.122 NA 
HETATM    7  N   UNL     1     -10.787  11.435  65.420  1.00  0.00    -0.261 N  
HETATM    8  O   UNL     1     -11.912  11.950  67.331  1.00  0.00    -0.603 OA 
HETATM    9  C   UNL     1      -9.671  10.103  67.215  1.00  0.00    -0.167 C  
HETATM   10  C   UNL     1     -10.322  10.108  65.890  1.00  0.00    -0.151 C  
HETATM   11  C   UNL     1     -10.684  11.494  63.985  1.00  0.00    -0.384 C  
HETATM   12  C   UNL     1      -9.299   9.685  64.808  1.00  0.00    -0.286 C  
HETATM   13  C   UNL     1      -9.420  11.816  63.263  1.00  0.00    -0.194 C  
HETATM   14  C   UNL     1      -9.763  10.376  63.552  1.00  0.00    -0.333 C  
ENDBRANCH   3   5
BRANCH   3  15
HETATM   15  C   UNL     1     -10.906  14.839  66.334  1.00  0.00    -0.322 C  
HETATM   16  C   UNL     1     -10.520  17.622  67.357  1.00  0.00    -0.356 C  
HETATM   17  C   UNL     1      -8.517  16.643  66.219  1.00  0.00    -0.355 C  
HETATM   18  C   UNL     1     -10.820  16.086  65.397  1.00  0.00    -0.340 C  
HETATM   19  C   UNL     1     -10.565  16.418  68.312  1.00  0.00    -0.318 C  
HETATM   20  C   UNL     1      -8.560  15.430  67.162  1.00  0.00    -0.235 C  
HETATM   21  C   UNL     1     -11.457  15.320  67.705  1.00  0.00    -0.312 C  
HETATM   22  C   UNL     1      -9.451  14.331  66.550  1.00  0.00    -0.306 C  
HETATM   23  O   UNL     1     -11.110  16.820  69.561  1.00  0.00    -0.330 OA 
HETATM   24  C   UNL     1      -9.145  15.864  68.512  1.00  0.00    -0.200 C  
HETATM   25  H   UNL     1     -11.137  16.076  70.151  1.00  0.00     0.000 HD 
HETATM   26  C   UNL     1      -9.936  17.189  66.005  1.00  0.00    -0.270 C  
ENDBRANCH   3  15
TORSDOF 2
ENDMDL
MODEL       16
REMARK 921   NORMALIZED FREE ENERGY PREDICTED BY IDOCK:   -6.44 KCAL/MOL
REMARK 922        TOTAL FREE ENERGY PREDICTED BY IDOCK:   -7.66 KCAL/MOL
REMARK 923 INTER-LIGAND FREE ENERGY PREDICTED BY IDOCK:   -7.18 KCAL/MOL
REMARK 924 INTRA-LIGAND FREE ENERGY PREDICTED BY IDOCK:   -0.47 KCAL/MOL
REMARK 927      BINDING AFFINITY PREDICTED BY RF-SCORE:    0.00 PKD
ROOT
HETATM    1  N   UNL     1     -12.264  15.469  69.154  1.00  0.00    -0.598 NA 
HETATM    2  H1  UNL     1     -12.734  14.578  69.319  1.00  0.00     0.000 HD 
HETATM    3  C   UNL     1     -10.941  15.165  68.560  1.00  0.00    -0.262 C  
HETATM    4  H2  UNL     1     -12.817  16.114  68.590  1.00  0.00     0.000 HD 
ENDROOT
BRANCH   3   5
HETATM    5  C   UNL     1     -10.224  16.525  68.310  1.00  0.00    -0.268 C  
HETATM    6  N   UNL     1      -8.350  18.772  65.800  1.00  0.00    -0.392 NA 
HETATM    7  N   UNL     1      -8.872  16.591  68.567  1.00  0.00    -0.219 N  
HETATM    8  O   UNL     1     -10.847  17.506  67.900  1.00  0.00    -0.374 OA 
HETATM    9  C   UNL     1      -8.254  18.314  66.866  1.00  0.00    -0.247 C  
HETATM   10  C   UNL     1      -8.052  17.778  68.227  1.00  0.00    -0.283 C  
HETATM   11  C   UNL     1      -8.137  15.749  69.474  1.00  0.00    -0.137 C  
HETATM   12  C   UNL     1      -6.600  17.260  68.370  1.00  0.00    -0.174 C  
HETATM   13  C   UNL     1      -7.111  14.762  69.032  1.00  0.00    -0.127 C  
HETATM   14  C   UNL     1      -6.685  16.162  69.397  1.00  0.00    -0.205 C  
ENDBRANCH   3   5
BRANCH   3  15
HETATM   15  C   UNL     1     -11.066  14.279  67.269  1.00  0.00    -0.315 C  
HETATM   16  C   UNL     1     -12.703  12.872  65.199  1.00  0.00    -0.443 C  
HETATM   17  C   UNL     1     -10.628  11.654  65.891  1.00  0.00    -0.318 C  
HETATM   18  C   UNL     1     -11.910  13.000  67.576  1.00  0.00    -0.408 C  
HETATM   19  C   UNL     1     -11.859  14.107  64.847  1.00  0.00    -0.402 C  
HETATM   20  C   UNL     1      -9.777  12.889  65.552  1.00  0.00    -0.076 C  
HETATM   21  C   UNL     1     -11.749  15.018  66.084  1.00  0.00    -0.091 C  
HETATM   22  C   UNL     1      -9.666  13.796  66.793  1.00  0.00    -0.277 C  
HETATM   23  O   UNL     1     -12.486  14.830  63.796  1.00  0.00    -1.045 OA 
HETATM   24  C   UNL     1     -10.451  13.667  64.415  1.00  0.00    -0.322 C  
HETATM   25  H   UNL     1     -11.964  15.593  63.578  1.00  0.00     0.000 HD 
HETATM   26  C   UNL     1     -12.031  12.093  66.338  1.00  0.00    -0.201 C  
ENDBRANCH   3  15
TORSDOF 2
ENDMDL
MODEL       17
REMARK 921   NORMALIZED FREE ENERGY PREDICTED BY IDOCK:   -6.44 KCAL/MOL
REMARK 922        TOTAL FREE ENERGY PREDICTED BY IDOCK:   -7.65 KCAL/MOL
REMARK 923 INTER-LIGAND FREE ENERGY PREDICTED BY IDOCK:   -7.14 KCAL/MOL
REMARK 924 INTRA-LIGAND FREE ENERGY PREDICTED BY IDOCK:   -0.51 KCAL/MOL
REMARK 927      BINDING AFFINITY PREDICTED BY RF-SCORE:    0.00 PKD
ROOT
HETATM    1  N   UNL     1     -11.825  13.289  69.382  1.00  0.00    -0.319 NA 
HETATM    2  H1  UNL     1     -12.162  14.150  69.812  1.00  0.00     0.000 HD 
HETATM    3  C   UNL     1     -11.572  13.583  67.952  1.00  0.00    -0.342 C  
HETATM    4  H2  UNL     1     -11.014  12.894  69.858  1.00  0.00     0.000 HD 
ENDROOT
BRANCH   3   5
HETATM    5  C   UNL     1     -11.058  12.267  67.294  1.00  0.00    -0.275 C  
HETATM    6  N   UNL     1      -8.167  10.484  65.470  1.00  0.00    -0.163 NA 
HETATM    7  N   UNL     1     -11.315  12.080  65.953  1.00  0.00    -0.341 N  
HETATM    8  O   UNL     1     -10.449  11.422  67.954  1.00  0.00    -0.175 OA 
HETATM    9  C   UNL     1      -9.306  10.710  65.378  1.00  0.00    -0.210 C  
HETATM   10  C   UNL     1     -10.750  10.948  65.182  1.00  0.00    -0.139 C  
HETATM   11  C   UNL     1     -12.384  12.682  65.201  1.00  0.00    -0.484 C  
HETATM   12  C   UNL     1     -11.015  11.351  63.711  1.00  0.00    -0.448 C  
HETATM   13  C   UNL     1     -12.166  13.685  64.119  1.00  0.00    -0.450 C  
HETATM   14  C   UNL     1     -12.243  12.220  63.768  1.00  0.00    -0.642 C  
ENDBRANCH   3   5
BRANCH   3  15
HETATM   15  C   UNL     1     -10.592  14.796  67.765  1.00  0.00    -0.257 C  
HETATM   16  C   UNL     1      -8.626  16.356  66.139  1.00  0.00    -0.343 C  
HETATM   17  C   UNL     1      -8.104  16.251  68.585  1.00  0.00    -0.213 C  
HETATM   18  C   UNL     1      -9.154  14.279  67.443  1.00  0.00    -0.199 C  
HETATM   19  C   UNL     1     -10.020  16.916  66.461  1.00  0.00    -0.301 C  
HETATM   20  C   UNL     1      -9.501  16.801  68.918  1.00  0.00    -0.246 C  
HETATM   21  C   UNL     1     -11.015  15.751  66.614  1.00  0.00    -0.179 C  
HETATM   22  C   UNL     1     -10.493  15.632  69.073  1.00  0.00    -0.229 C  
HETATM   23  O   UNL     1     -10.453  17.759  65.401  1.00  0.00    -0.641 OA 
HETATM   24  C   UNL     1      -9.967  17.712  67.775  1.00  0.00    -0.315 C  
HETATM   25  H   UNL     1     -11.315  18.105  65.601  1.00  0.00     0.000 HD 
HETATM   26  C   UNL     1      -8.159  15.442  67.280  1.00  0.00    -0.228 C  
ENDBRANCH   3  15
TORSDOF 2
ENDMDL
MODEL       18
REMARK 921   NORMALIZED FREE ENERGY PREDICTED BY IDOCK:   -6.42 KCAL/MOL
REMARK 922        TOTAL FREE ENERGY PREDICTED BY IDOCK:   -7.63 KCAL/MOL
REMARK 923 INTER-LIGAND FREE ENERGY PREDICTED BY IDOCK:   -7.13 KCAL/MOL
REMARK 924 INTRA-LIGAND FREE ENERGY PREDICTED BY IDOCK:   -0.50 KCAL/MOL
REMARK 927      BINDING AFFINITY PREDICTED BY RF-SCORE:    0.00 PKD
ROOT
HETATM    1  N   UNL     1     -10.841  13.822  69.734  1.00  0.00    -0.445 NA 
HETATM    2  H1  UNL     1     -10.755  12.821  69.558  1.00  0.00     0.000 HD 
HETATM    3  C   UNL     1     -10.104  14.522  68.655  1.00  0.00    -0.244 C  
HETATM    4  H2  UNL     1     -11.809  14.131  69.822  1.00  0.00     0.000 HD 
ENDROOT
BRANCH   3   5
HETATM    5  C   UNL     1     -10.235  16.051  68.924  1.00  0.00    -0.231 C  
HETATM    6  N   UNL     1     -10.946  19.539  67.444  1.00  0.00    -0.421 NA 
HETATM    7  N   UNL     1      -9.097  16.819  68.811  1.00  0.00    -0.259 N  
HETATM    8  O   UNL     1     -11.318  16.552  69.231  1.00  0.00    -0.258 OA 
HETATM    9  C   UNL     1     -10.162  18.957  68.079  1.00  0.00    -0.388 C  
HETATM   10  C   UNL     1      -9.120  18.298  68.892  1.00  0.00    -0.145 C  
HETATM   11  C   UNL     1      -7.741  16.356  68.954  1.00  0.00    -0.230 C  
HETATM   12  C   UNL     1      -7.721  18.706  68.370  1.00  0.00    -0.331 C  
HETATM   13  C   UNL     1      -6.763  16.313  67.831  1.00  0.00    -0.151 C  
HETATM   14  C   UNL     1      -6.832  17.538  68.707  1.00  0.00    -0.233 C  
ENDBRANCH   3   5
BRANCH   3  15
HETATM   15  C   UNL     1     -10.604  14.094  67.228  1.00  0.00    -0.277 C  
HETATM   16  C   UNL     1     -10.088  13.101  64.456  1.00  0.00    -0.244 C  
HETATM   17  C   UNL     1     -11.898  14.822  64.625  1.00  0.00    -0.442 C  
HETATM   18  C   UNL     1      -9.897  14.956  66.134  1.00  0.00    -0.332 C  
HETATM   19  C   UNL     1     -10.817  12.233  65.493  1.00  0.00    -0.282 C  
HETATM   20  C   UNL     1     -12.629  13.966  65.672  1.00  0.00    -0.553 C  
HETATM   21  C   UNL     1     -10.322  12.601  66.904  1.00  0.00    -0.244 C  
HETATM   22  C   UNL     1     -12.133  14.340  67.083  1.00  0.00    -0.412 C  
HETATM   23  O   UNL     1     -10.539  10.861  65.249  1.00  0.00    -0.261 OA 
HETATM   24  C   UNL     1     -12.331  12.485  65.406  1.00  0.00    -0.426 C  
HETATM   25  H   UNL     1     -10.990  10.325  65.890  1.00  0.00     0.000 HD 
HETATM   26  C   UNL     1     -10.383  14.583  64.721  1.00  0.00    -0.319 C  
ENDBRANCH   3  15
TORSDOF 2
ENDMDL
MODEL       19
REMARK 921   NORMALIZED FREE ENERGY PREDICTED BY IDOCK:   -6.37 KCAL/MOL
REMARK 922        TOTAL FREE ENERGY PREDICTED BY IDOCK:   -7.58 KCAL/MOL
REMARK 923 INTER-LIGAND FREE ENERGY PREDICTED BY IDOCK:   -7.58 KCAL/MOL
REMARK 924 INTRA-LIGAND FREE ENERGY PREDICTED BY IDOCK:    0.00 KCAL/MOL
REMARK 927      BINDING AFFINITY PREDICTED BY RF-SCORE:    0.00 PKD
ROOT
HETATM    1  N   UNL     1     -11.102  16.610  64.433  1.00  0.00    -1.251 NA 
HETATM    2  H1  UNL     1     -12.020  16.177  64.338  1.00  0.00     0.000 HD 
HETATM    3  C   UNL     1     -10.635  16.352  65.816  1.00  0.00    -0.315 C  
HETATM    4  H2  UNL     1     -10.439  16.300  63.723  1.00  0.00     0.000 HD 
ENDROOT
BRANCH   3   5
HETATM    5  C   UNL     1      -9.232  17.014  65.961  1.00  0.00    -0.142 C  
HETATM    6  N   UNL     1      -6.174  17.635  68.224  1.00  0.00    -0.174 NA 
HETATM    7  N   UNL     1      -9.182  18.306  66.438  1.00  0.00    -0.290 N  
HETATM    8  O   UNL     1      -8.206  16.404  65.654  1.00  0.00    -0.036 OA 
HETATM    9  C   UNL     1      -6.957  18.197  67.570  1.00  0.00    -0.198 C  
HETATM   10  C   UNL     1      -7.907  18.988  66.763  1.00  0.00    -0.251 C  
HETATM   11  C   UNL     1     -10.238  19.281  66.364  1.00  0.00    -0.449 C  
HETATM   12  C   UNL     1      -8.362  20.230  67.566  1.00  0.00    -0.365 C  
HETATM   13  C   UNL     1     -10.961  19.803  67.559  1.00  0.00    -0.287 C  
HETATM   14  C   UNL     1      -9.744  20.534  67.051  1.00  0.00    -0.548 C  
ENDBRANCH   3   5
BRANCH   3  15
HETATM   15  C   UNL     1     -10.639  14.820  66.162  1.00  0.00    -0.314 C  
HETATM   16  C   UNL     1     -11.378  11.990  65.538  1.00  0.00    -0.381 C  
HETATM   17  C   UNL     1     -11.500  12.587  67.966  1.00  0.00    -0.368 C  
HETATM   18  C   UNL     1     -12.108  14.290  66.226  1.00  0.00    -0.433 C  
HETATM   19  C   UNL     1      -9.917  12.463  65.495  1.00  0.00    -0.243 C  
HETATM   20  C   UNL     1     -10.041  13.072  67.931  1.00  0.00    -0.235 C  
HETATM   21  C   UNL     1      -9.874  13.956  65.121  1.00  0.00    -0.135 C  
HETATM   22  C   UNL     1     -10.003  14.568  67.559  1.00  0.00    -0.224 C  
HETATM   23  O   UNL     1      -9.202  11.720  64.516  1.00  0.00    -0.419 OA 
HETATM   24  C   UNL     1      -9.270  12.269  66.876  1.00  0.00    -0.209 C  
HETATM   25  H   UNL     1      -8.299  12.012  64.490  1.00  0.00     0.000 HD 
HETATM   26  C   UNL     1     -12.152  12.794  66.591  1.00  0.00    -0.316 C  
ENDBRANCH   3  15
TORSDOF 2
ENDMDL
MODEL       20
REMARK 921   NORMALIZED FREE ENERGY PREDICTED BY IDOCK:   -6.37 KCAL/MOL
REMARK 922        TOTAL FREE ENERGY PREDICTED BY IDOCK:   -7.58 KCAL/MOL
REMARK 923 INTER-LIGAND FREE ENERGY PREDICTED BY IDOCK:   -6.99 KCAL/MOL
REMARK 924 INTRA-LIGAND FREE ENERGY PREDICTED BY IDOCK:   -0.58 KCAL/MOL
REMARK 927      BINDING AFFINITY PREDICTED BY RF-SCORE:    0.00 PKD
ROOT
HETATM    1  N   UNL     1      -7.411  13.773  67.039  1.00  0.00    -0.300 NA 
HETATM    2  H1  UNL     1      -7.203  13.247  66.190  1.00  0.00     0.000 HD 
HETATM    3  C   UNL     1      -8.578  14.638  66.745  1.00  0.00    -0.162 C  
HETATM    4  H2  UNL     1      -7.552  13.177  67.854  1.00  0.00     0.000 HD 
ENDROOT
BRANCH   3   5
HETATM    5  C   UNL     1      -8.895  15.442  68.042  1.00  0.00    -0.165 C  
HETATM    6  N   UNL     1     -11.505  16.317  70.740  1.00  0.00    -0.377 NA 
HETATM    7  N   UNL     1      -9.397  16.716  67.897  1.00  0.00    -0.219 N  
HETATM    8  O   UNL     1      -8.697  14.954  69.156  1.00  0.00    -0.193 OA 
HETATM    9  C   UNL     1     -10.776  16.811  69.978  1.00  0.00    -0.049 C  
HETATM   10  C   UNL     1      -9.878  17.521  69.045  1.00  0.00    -0.225 C  
HETATM   11  C   UNL     1      -9.220  17.575  66.756  1.00  0.00    -0.265 C  
HETATM   12  C   UNL     1     -10.646  18.682  68.370  1.00  0.00    -0.132 C  
HETATM   13  C   UNL     1     -10.332  17.981  65.850  1.00  0.00    -0.274 C  
HETATM   14  C   UNL     1      -9.980  18.853  67.029  1.00  0.00    -0.389 C  
ENDBRANCH   3   5
BRANCH   3  15
HETATM   15  C   UNL     1      -9.802  13.813  66.208  1.00  0.00    -0.314 C  
HETATM   16  C   UNL     1     -12.709  13.552  65.561  1.00  0.00    -0.493 C  
HETATM   17  C   UNL     1     -11.658  11.477  66.487  1.00  0.00    -0.063 C  
HETATM   18  C   UNL     1     -10.913  13.730  67.303  1.00  0.00    -0.302 C  
HETATM   19  C   UNL     1     -11.645  13.596  64.454  1.00  0.00    -0.393 C  
HETATM   20  C   UNL     1     -10.582  11.519  65.389  1.00  0.00    -0.336 C  
HETATM   21  C   UNL     1     -10.444  14.431  64.935  1.00  0.00    -0.448 C  
HETATM   22  C   UNL     1      -9.380  12.353  65.875  1.00  0.00    -0.066 C  
HETATM   23  O   UNL     1     -12.192  14.201  63.289  1.00  0.00    -1.061 OA 
HETATM   24  C   UNL     1     -11.173  12.169  64.132  1.00  0.00    -0.433 C  
HETATM   25  H   UNL     1     -11.534  14.228  62.605  1.00  0.00     0.000 HD 
HETATM   26  C   UNL     1     -12.120  12.904  66.821  1.00  0.00    -0.335 C  
ENDBRANCH   3  15
TORSDOF 2
ENDMDL
MODEL       21
REMARK 921   NORMALIZED FREE ENERGY PREDICTED BY IDOCK:   -6.34 KCAL/MOL
REMARK 922        TOTAL FREE ENERGY PREDICTED BY IDOCK:   -7.54 KCAL/MOL
REMARK 923 INTER-LIGAND FREE ENERGY PREDICTED BY IDOCK:   -7.18 KCAL/MOL
REMARK 924 INTRA-LIGAND FREE ENERGY PREDICTED BY IDOCK:   -0.37 KCAL/MOL
REMARK 927      BINDING AFFINITY PREDICTED BY RF-SCORE:    0.00 PKD
ROOT
HETATM    1  N   UNL     1      -9.652  15.231  70.017  1.00  0.00    -0.449 NA 
HETATM    2  H1  UNL     1      -9.334  14.309  70.316  1.00  0.00     0.000 HD 
HETATM    3  C   UNL     1      -9.299  15.373  68.585  1.00  0.00    -0.202 C  
HETATM    4  H2  UNL     1     -10.641  15.392  70.202  1.00  0.00     0.000 HD 
ENDROOT
BRANCH   3   5
HETATM    5  C   UNL     1      -9.784  16.781  68.127  1.00  0.00    -0.247 C  
HETATM    6  N   UNL     1     -10.860  19.025  65.183  1.00  0.00    -0.348 NA 
HETATM    7  N   UNL     1      -8.823  17.710  67.792  1.00  0.00    -0.237 N  
HETATM    8  O   UNL     1     -10.985  17.053  68.072  1.00  0.00    -0.360 OA 
HETATM    9  C   UNL     1     -10.122  18.989  66.083  1.00  0.00    -0.406 C  
HETATM   10  C   UNL     1      -9.158  19.027  67.201  1.00  0.00    -0.283 C  
HETATM   11  C   UNL     1      -7.462  17.730  68.257  1.00  0.00    -0.247 C  
HETATM   12  C   UNL     1      -7.792  19.545  66.689  1.00  0.00    -0.300 C  
HETATM   13  C   UNL     1      -6.285  17.495  67.372  1.00  0.00    -0.158 C  
HETATM   14  C   UNL     1      -6.775  18.903  67.596  1.00  0.00    -0.218 C  
ENDBRANCH   3   5
BRANCH   3  15
HETATM   15  C   UNL     1      -9.881  14.200  67.716  1.00  0.00    -0.231 C  
HETATM   16  C   UNL     1     -11.834  13.133  65.719  1.00  0.00    -0.442 C  
HETATM   17  C   UNL     1     -11.256  11.542  67.563  1.00  0.00    -0.360 C  
HETATM   18  C   UNL     1     -11.399  14.003  68.031  1.00  0.00    -0.320 C  
HETATM   19  C   UNL     1     -10.342  13.280  65.379  1.00  0.00    -0.306 C  
HETATM   20  C   UNL     1      -9.761  11.691  67.238  1.00  0.00    -0.192 C  
HETATM   21  C   UNL     1      -9.748  14.448  66.187  1.00  0.00    -0.335 C  
HETATM   22  C   UNL     1      -9.169  12.859  68.052  1.00  0.00    -0.212 C  
HETATM   23  O   UNL     1     -10.193  13.554  63.992  1.00  0.00    -0.723 OA 
HETATM   24  C   UNL     1      -9.599  11.983  65.741  1.00  0.00    -0.227 C  
HETATM   25  H   UNL     1      -9.271  13.644  63.783  1.00  0.00     0.000 HD 
HETATM   26  C   UNL     1     -11.998  12.842  67.217  1.00  0.00    -0.371 C  
ENDBRANCH   3  15
TORSDOF 2
ENDMDL
MODEL       22
REMARK 921   NORMALIZED FREE ENERGY PREDICTED BY IDOCK:   -6.31 KCAL/MOL
REMARK 922        TOTAL FREE ENERGY PREDICTED BY IDOCK:   -7.51 KCAL/MOL
REMARK 923 INTER-LIGAND FREE ENERGY PREDICTED BY IDOCK:   -7.21 KCAL/MOL
REMARK 924 INTRA-LIGAND FREE ENERGY PREDICTED BY IDOCK:   -0.30 KCAL/MOL
REMARK 927      BINDING AFFINITY PREDICTED BY RF-SCORE:    0.00 PKD
ROOT
HETATM    1  N   UNL     1     -10.384  17.087  65.379  1.00  0.00    -0.641 NA 
HETATM    2  H1  UNL     1      -9.689  17.264  64.654  1.00  0.00     0.000 HD 
HETATM    3  C   UNL     1      -9.661  16.565  66.562  1.00  0.00    -0.272 C  
HETATM    4  H2  UNL     1     -10.959  17.902  65.589  1.00  0.00     0.000 HD 
ENDROOT
BRANCH   3   5
HETATM    5  C   UNL     1     -10.723  16.294  67.669  1.00  0.00    -0.311 C  
HETATM    6  N   UNL     1     -11.397  15.678  71.415  1.00  0.00    -0.382 NA 
HETATM    7  N   UNL     1     -11.044  14.982  67.940  1.00  0.00    -0.295 N  
HETATM    8  O   UNL     1     -11.260  17.223  68.277  1.00  0.00    -0.187 OA 
HETATM    9  C   UNL     1     -11.606  15.227  70.361  1.00  0.00    -0.308 C  
HETATM   10  C   UNL     1     -11.922  14.590  69.067  1.00  0.00    -0.299 C  
HETATM   11  C   UNL     1     -10.905  13.870  67.037  1.00  0.00    -0.285 C  
HETATM   12  C   UNL     1     -11.702  13.061  69.176  1.00  0.00    -0.378 C  
HETATM   13  C   UNL     1      -9.936  12.756  67.245  1.00  0.00    -0.219 C  
HETATM   14  C   UNL     1     -11.340  12.627  67.780  1.00  0.00    -0.349 C  
ENDBRANCH   3   5
BRANCH   3  15
HETATM   15  C   UNL     1      -8.513  17.533  67.024  1.00  0.00    -0.252 C  
HETATM   16  C   UNL     1      -6.453  19.623  66.450  1.00  0.00    -0.193 C  
HETATM   17  C   UNL     1      -5.761  17.916  68.146  1.00  0.00    -0.158 C  
HETATM   18  C   UNL     1      -7.210  17.243  66.212  1.00  0.00    -0.335 C  
HETATM   19  C   UNL     1      -7.705  19.941  67.283  1.00  0.00    -0.276 C  
HETATM   20  C   UNL     1      -7.016  18.221  68.980  1.00  0.00    -0.266 C  
HETATM   21  C   UNL     1      -8.863  19.034  66.829  1.00  0.00    -0.321 C  
HETATM   22  C   UNL     1      -8.172  17.308  68.525  1.00  0.00    -0.267 C  
HETATM   23  O   UNL     1      -8.076  21.299  67.086  1.00  0.00    -0.655 OA 
HETATM   24  C   UNL     1      -7.415  19.686  68.771  1.00  0.00    -0.364 C  
HETATM   25  H   UNL     1      -8.850  21.496  67.601  1.00  0.00     0.000 HD 
HETATM   26  C   UNL     1      -6.053  18.156  66.657  1.00  0.00    -0.196 C  
ENDBRANCH   3  15
TORSDOF 2
ENDMDL
MODEL       23
REMARK 921   NORMALIZED FREE ENERGY PREDICTED BY IDOCK:   -6.23 KCAL/MOL
REMARK 922        TOTAL FREE ENERGY PREDICTED BY IDOCK:   -7.42 KCAL/MOL
REMARK 923 INTER-LIGAND FREE ENERGY PREDICTED BY IDOCK:   -6.85 KCAL/MOL
REMARK 924 INTRA-LIGAND FREE ENERGY PREDICTED BY IDOCK:   -0.57 KCAL/MOL
REMARK 927      BINDING AFFINITY PREDICTED BY RF-SCORE:    0.00 PKD
ROOT
HETATM    1  N   UNL     1     -10.898   9.960  67.926  1.00  0.00    -0.353 NA 
HETATM    2  H1  UNL     1     -11.897  10.157  67.979  1.00  0.00     0.000 HD 
HETATM    3  C   UNL     1     -10.420  10.453  66.614  1.00  0.00    -0.215 C  
HETATM    4  H2  UNL     1     -10.373  10.343  68.712  1.00  0.00     0.000 HD 
ENDROOT
BRANCH   3   5
HETATM    5  C   UNL     1      -8.894  10.150  66.533  1.00  0.00    -0.140 C  
HETATM    6  N   UNL     1      -5.325  11.590  66.315  1.00  0.00    -0.286 NA 
HETATM    7  N   UNL     1      -8.338   9.997  65.282  1.00  0.00    -0.146 N  
HETATM    8  O   UNL     1      -8.212  10.047  67.555  1.00  0.00    -0.113 OA 
HETATM    9  C   UNL     1      -6.040  10.835  65.791  1.00  0.00    -0.116 C  
HETATM   10  C   UNL     1      -6.878   9.857  65.069  1.00  0.00    -0.126 C  
HETATM   11  C   UNL     1      -9.034   9.601  64.086  1.00  0.00    -0.229 C  
HETATM   12  C   UNL     1      -6.720  10.066  63.543  1.00  0.00    -0.135 C  
HETATM   13  C   UNL     1      -9.241  10.504  62.917  1.00  0.00    -0.318 C  
HETATM   14  C   UNL     1      -8.029   9.608  62.956  1.00  0.00    -0.134 C  
ENDBRANCH   3   5
BRANCH   3  15
HETATM   15  C   UNL     1     -10.767  11.970  66.394  1.00  0.00    -0.294 C  
HETATM   16  C   UNL     1     -10.417  14.557  64.937  1.00  0.00    -0.435 C  
HETATM   17  C   UNL     1     -10.755  14.790  67.407  1.00  0.00    -0.281 C  
HETATM   18  C   UNL     1      -9.471  12.836  66.497  1.00  0.00    -0.253 C  
HETATM   19  C   UNL     1     -11.723  13.753  64.835  1.00  0.00    -0.363 C  
HETATM   20  C   UNL     1     -12.056  13.977  67.316  1.00  0.00    -0.405 C  
HETATM   21  C   UNL     1     -11.412  12.255  65.009  1.00  0.00    -0.386 C  
HETATM   22  C   UNL     1     -11.742  12.478  67.494  1.00  0.00    -0.439 C  
HETATM   23  O   UNL     1     -12.312  13.958  63.558  1.00  0.00    -0.976 OA 
HETATM   24  C   UNL     1     -12.694  14.200  65.940  1.00  0.00    -0.387 C  
HETATM   25  H   UNL     1     -13.119  13.461  63.495  1.00  0.00     0.000 HD 
HETATM   26  C   UNL     1      -9.777  14.334  66.314  1.00  0.00    -0.321 C  
ENDBRANCH   3  15
TORSDOF 2
ENDMDL
MODEL       24
REMARK 921   NORMALIZED FREE ENERGY PREDICTED BY IDOCK:   -6.22 KCAL/MOL
REMARK 922        TOTAL FREE ENERGY PREDICTED BY IDOCK:   -7.41 KCAL/MOL
REMARK 923 INTER-LIGAND FREE ENERGY PREDICTED BY IDOCK:   -6.79 KCAL/MOL
REMARK 924 INTRA-LIGAND FREE ENERGY PREDICTED BY IDOCK:   -0.61 KCAL/MOL
REMARK 927      BINDING AFFINITY PREDICTED BY RF-SCORE:    0.00 PKD
ROOT
HETATM    1  N   UNL     1     -12.577  12.770  65.564  1.00  0.00    -0.610 NA 
HETATM    2  H1  UNL     1     -12.501  13.563  64.927  1.00  0.00     0.000 HD 
HETATM    3  C   UNL     1     -11.218  12.494  66.086  1.00  0.00    -0.321 C  
HETATM    4  H2  UNL     1     -13.267  12.914  66.301  1.00  0.00     0.000 HD 
ENDROOT
BRANCH   3   5
HETATM    5  C   UNL     1     -11.335  11.281  67.058  1.00  0.00    -0.187 C  
HETATM    6  N   UNL     1     -10.140   9.648  70.339  1.00  0.00    -0.265 NA 
HETATM    7  N   UNL     1     -10.503  10.205  66.840  1.00  0.00    -0.234 N  
HETATM    8  O   UNL     1     -12.147  11.286  67.985  1.00  0.00    -0.638 OA 
HETATM    9  C   UNL     1     -10.273   9.427  69.203  1.00  0.00    -0.202 C  
HETATM   10  C   UNL     1     -10.412   9.063  67.779  1.00  0.00    -0.245 C  
HETATM   11  C   UNL     1      -9.896   9.840  65.586  1.00  0.00    -0.301 C  
HETATM   12  C   UNL     1      -9.140   8.316  67.309  1.00  0.00    -0.157 C  
HETATM   13  C   UNL     1      -8.428   9.905  65.332  1.00  0.00    -0.155 C  
HETATM   14  C   UNL     1      -9.038   8.621  65.838  1.00  0.00    -0.259 C  
ENDBRANCH   3   5
BRANCH   3  15
HETATM   15  C   UNL     1     -10.573  13.764  66.749  1.00  0.00    -0.273 C  
HETATM   16  C   UNL     1     -10.016  15.485  69.129  1.00  0.00    -0.246 C  
HETATM   17  C   UNL     1     -10.431  16.746  67.007  1.00  0.00    -0.285 C  
HETATM   18  C   UNL     1     -11.674  14.614  67.460  1.00  0.00    -0.403 C  
HETATM   19  C   UNL     1      -8.897  14.691  68.438  1.00  0.00    -0.181 C  
HETATM   20  C   UNL     1      -9.320  15.949  66.303  1.00  0.00    -0.357 C  
HETATM   21  C   UNL     1      -9.491  13.417  67.808  1.00  0.00    -0.210 C  
HETATM   22  C   UNL     1      -9.919  14.676  65.671  1.00  0.00    -0.381 C  
HETATM   23  O   UNL     1      -7.914  14.319  69.394  1.00  0.00    -0.348 OA 
HETATM   24  C   UNL     1      -8.258  15.550  67.335  1.00  0.00    -0.199 C  
HETATM   25  H   UNL     1      -7.222  13.828  68.967  1.00  0.00     0.000 HD 
HETATM   26  C   UNL     1     -11.081  15.883  68.099  1.00  0.00    -0.338 C  
ENDBRANCH   3  15
TORSDOF 2
ENDMDL
MODEL       25
REMARK 921   NORMALIZED FREE ENERGY PREDICTED BY IDOCK:   -6.22 KCAL/MOL
REMARK 922        TOTAL FREE ENERGY PREDICTED BY IDOCK:   -7.40 KCAL/MOL
REMARK 923 INTER-LIGAND FREE ENERGY PREDICTED BY IDOCK:   -6.91 KCAL/MOL
REMARK 924 INTRA-LIGAND FREE ENERGY PREDICTED BY IDOCK:   -0.49 KCAL/MOL
REMARK 927      BINDING AFFINITY PREDICTED BY RF-SCORE:    0.00 PKD
ROOT
HETATM    1  N   UNL     1     -10.973  12.283  69.568  1.00  0.00    -0.462 NA 
HETATM    2  H1  UNL     1     -10.311  11.879  70.230  1.00  0.00     0.000 HD 
HETATM    3  C   UNL     1     -10.274  12.405  68.267  1.00  0.00    -0.229 C  
HETATM    4  H2  UNL     1     -11.845  11.758  69.505  1.00  0.00     0.000 HD 
ENDROOT
BRANCH   3   5
HETATM    5  C   UNL     1     -11.286  13.022  67.255  1.00  0.00    -0.289 C  
HETATM    6  N   UNL     1     -12.490  13.202  63.598  1.00  0.00    -0.735 NA 
HETATM    7  N   UNL     1     -10.935  14.204  66.641  1.00  0.00    -0.299 N  
HETATM    8  O   UNL     1     -12.364  12.472  67.019  1.00  0.00    -0.403 OA 
HETATM    9  C   UNL     1     -12.152  13.878  64.484  1.00  0.00    -0.443 C  
HETATM   10  C   UNL     1     -11.739  14.809  65.553  1.00  0.00    -0.274 C  
HETATM   11  C   UNL     1     -10.008  15.182  67.147  1.00  0.00    -0.237 C  
HETATM   12  C   UNL     1     -10.794  15.885  64.967  1.00  0.00    -0.444 C  
HETATM   13  C   UNL     1      -8.695  15.481  66.507  1.00  0.00    -0.340 C  
HETATM   14  C   UNL     1      -9.910  16.286  66.119  1.00  0.00    -0.358 C  
ENDBRANCH   3   5
BRANCH   3  15
HETATM   15  C   UNL     1      -9.674  11.033  67.790  1.00  0.00    -0.183 C  
HETATM   16  C   UNL     1      -8.947   8.175  68.281  1.00  0.00    -0.136 C  
HETATM   17  C   UNL     1      -7.316   9.436  66.860  1.00  0.00    -0.090 C  
HETATM   18  C   UNL     1      -8.507  10.603  68.735  1.00  0.00    -0.149 C  
HETATM   19  C   UNL     1     -10.081   8.557  67.317  1.00  0.00    -0.251 C  
HETATM   20  C   UNL     1      -8.446   9.832  65.896  1.00  0.00    -0.136 C  
HETATM   21  C   UNL     1     -10.717   9.881  67.778  1.00  0.00    -0.332 C  
HETATM   22  C   UNL     1      -9.078  11.160  66.359  1.00  0.00    -0.198 C  
HETATM   23  O   UNL     1     -11.074   7.540  67.321  1.00  0.00    -0.551 OA 
HETATM   24  C   UNL     1      -9.517   8.734  65.898  1.00  0.00    -0.278 C  
HETATM   25  H   UNL     1     -11.775   7.777  66.725  1.00  0.00     0.000 HD 
HETATM   26  C   UNL     1      -7.875   9.274  68.281  1.00  0.00    -0.098 C  
ENDBRANCH   3  15
TORSDOF 2
ENDMDL
MODEL       26
REMARK 921   NORMALIZED FREE ENERGY PREDICTED BY IDOCK:   -6.19 KCAL/MOL
REMARK 922        TOTAL FREE ENERGY PREDICTED BY IDOCK:   -7.37 KCAL/MOL
REMARK 923 INTER-LIGAND FREE ENERGY PREDICTED BY IDOCK:   -6.83 KCAL/MOL
REMARK 924 INTRA-LIGAND FREE ENERGY PREDICTED BY IDOCK:   -0.55 KCAL/MOL
REMARK 927      BINDING AFFINITY PREDICTED BY RF-SCORE:    0.00 PKD
ROOT
HETATM    1  N   UNL     1     -10.160  10.067  64.355  1.00  0.00    -0.430 NA 
HETATM    2  H1  UNL     1     -10.041  10.655  63.531  1.00  0.00     0.000 HD 
HETATM    3  C   UNL     1      -9.701  10.852  65.525  1.00  0.00    -0.233 C  
HETATM    4  H2  UNL     1     -11.111   9.713  64.460  1.00  0.00     0.000 HD 
ENDROOT
BRANCH   3   5
HETATM    5  C   UNL     1      -9.883   9.952  66.784  1.00  0.00    -0.201 C  
HETATM    6  N   UNL     1     -11.439   9.586  70.292  1.00  0.00    -0.237 NA 
HETATM    7  N   UNL     1      -8.949  10.067  67.791  1.00  0.00    -0.131 N  
HETATM    8  O   UNL     1     -10.826   9.164  66.872  1.00  0.00    -0.147 OA 
HETATM    9  C   UNL     1     -10.423   9.506  69.730  1.00  0.00    -0.231 C  
HETATM   10  C   UNL     1      -9.095   9.381  69.097  1.00  0.00    -0.148 C  
HETATM   11  C   UNL     1      -7.594  10.530  67.645  1.00  0.00    -0.093 C  
HETATM   12  C   UNL     1      -8.031  10.072  69.983  1.00  0.00    -0.166 C  
HETATM   13  C   UNL     1      -7.091  11.804  68.234  1.00  0.00    -0.079 C  
HETATM   14  C   UNL     1      -6.964  10.523  69.020  1.00  0.00    -0.076 C  
ENDBRANCH   3   5
BRANCH   3  15
HETATM   15  C   UNL     1     -10.441  12.233  65.634  1.00  0.00    -0.293 C  
HETATM   16  C   UNL     1     -10.818  15.081  64.804  1.00  0.00    -0.375 C  
HETATM   17  C   UNL     1     -11.153  14.656  67.248  1.00  0.00    -0.331 C  
HETATM   18  C   UNL     1      -9.418  13.363  65.979  1.00  0.00    -0.105 C  
HETATM   19  C   UNL     1     -11.866  14.006  64.474  1.00  0.00    -0.434 C  
HETATM   20  C   UNL     1     -12.195  13.572  66.927  1.00  0.00    -0.377 C  
HETATM   21  C   UNL     1     -11.167  12.643  64.323  1.00  0.00    -0.410 C  
HETATM   22  C   UNL     1     -11.493  12.207  66.780  1.00  0.00    -0.418 C  
HETATM   23  O   UNL     1     -12.515  14.332  63.252  1.00  0.00    -1.133 OA 
HETATM   24  C   UNL     1     -12.898  13.924  65.610  1.00  0.00    -0.467 C  
HETATM   25  H   UNL     1     -13.163  13.667  63.048  1.00  0.00     0.000 HD 
HETATM   26  C   UNL     1     -10.112  14.729  66.120  1.00  0.00    -0.312 C  
ENDBRANCH   3  15
TORSDOF 2
ENDMDL
MODEL       27
REMARK 921   NORMALIZED FREE ENERGY PREDICTED BY IDOCK:   -6.19 KCAL/MOL
REMARK 922        TOTAL FREE ENERGY PREDICTED BY IDOCK:   -7.37 KCAL/MOL
REMARK 923 INTER-LIGAND FREE ENERGY PREDICTED BY IDOCK:   -6.94 KCAL/MOL
REMARK 924 INTRA-LIGAND FREE ENERGY PREDICTED BY IDOCK:   -0.43 KCAL/MOL
REMARK 927      BINDING AFFINITY PREDICTED BY RF-SCORE:    0.00 PKD
ROOT
HETATM    1  N   UNL     1     -11.017  12.180  69.609  1.00  0.00    -0.466 NA 
HETATM    2  H1  UNL     1     -10.365  11.808  70.299  1.00  0.00     0.000 HD 
HETATM    3  C   UNL     1     -10.336  12.139  68.294  1.00  0.00    -0.212 C  
HETATM    4  H2  UNL     1     -11.916  11.698  69.608  1.00  0.00     0.000 HD 
ENDROOT
BRANCH   3   5
HETATM    5  C   UNL     1     -11.333  12.708  67.240  1.00  0.00    -0.318 C  
HETATM    6  N   UNL     1     -12.419  12.795  63.542  1.00  0.00    -0.731 NA 
HETATM    7  N   UNL     1     -11.000  13.892  66.620  1.00  0.00    -0.299 N  
HETATM    8  O   UNL     1     -12.383  12.120  66.977  1.00  0.00    -0.379 OA 
HETATM    9  C   UNL     1     -12.133  13.495  64.428  1.00  0.00    -0.420 C  
HETATM   10  C   UNL     1     -11.787  14.454  65.496  1.00  0.00    -0.357 C  
HETATM   11  C   UNL     1     -10.123  14.908  67.141  1.00  0.00    -0.240 C  
HETATM   12  C   UNL     1     -10.858  15.553  64.925  1.00  0.00    -0.447 C  
HETATM   13  C   UNL     1      -8.800  15.241  66.540  1.00  0.00    -0.335 C  
HETATM   14  C   UNL     1     -10.027  15.999  66.099  1.00  0.00    -0.347 C  
ENDBRANCH   3   5
BRANCH   3  15
HETATM   15  C   UNL     1      -9.814  10.699  67.945  1.00  0.00    -0.181 C  
HETATM   16  C   UNL     1     -10.210   7.977  66.773  1.00  0.00    -0.367 C  
HETATM   17  C   UNL     1      -8.832   8.021  68.863  1.00  0.00    -0.141 C  
HETATM   18  C   UNL     1     -10.744   9.622  68.590  1.00  0.00    -0.233 C  
HETATM   19  C   UNL     1      -9.260   8.996  66.126  1.00  0.00    -0.216 C  
HETATM   20  C   UNL     1      -7.882   9.048  68.227  1.00  0.00    -0.100 C  
HETATM   21  C   UNL     1      -9.764  10.421  66.417  1.00  0.00    -0.250 C  
HETATM   22  C   UNL     1      -8.388  10.474  68.524  1.00  0.00    -0.129 C  
HETATM   23  O   UNL     1      -9.230   8.794  64.719  1.00  0.00    -0.428 OA 
HETATM   24  C   UNL     1      -7.847   8.829  66.709  1.00  0.00    -0.097 C  
HETATM   25  H   UNL     1      -8.642   9.424  64.319  1.00  0.00     0.000 HD 
HETATM   26  C   UNL     1     -10.248   8.196  68.292  1.00  0.00    -0.245 C  
ENDBRANCH   3  15
TORSDOF 2
ENDMDL
MODEL       28
REMARK 921   NORMALIZED FREE ENERGY PREDICTED BY IDOCK:   -6.15 KCAL/MOL
REMARK 922        TOTAL FREE ENERGY PREDICTED BY IDOCK:   -7.33 KCAL/MOL
REMARK 923 INTER-LIGAND FREE ENERGY PREDICTED BY IDOCK:   -7.82 KCAL/MOL
REMARK 924 INTRA-LIGAND FREE ENERGY PREDICTED BY IDOCK:    0.49 KCAL/MOL
REMARK 927      BINDING AFFINITY PREDICTED BY RF-SCORE:    0.00 PKD
ROOT
HETATM    1  N   UNL     1     -11.803  16.093  64.055  1.00  0.00    -1.293 NA 
HETATM    2  H1  UNL     1     -11.374  16.878  63.564  1.00  0.00     0.000 HD 
HETATM    3  C   UNL     1     -10.791  15.560  64.997  1.00  0.00    -0.450 C  
HETATM    4  H2  UNL     1     -12.682  16.338  64.510  1.00  0.00     0.000 HD 
ENDROOT
BRANCH   3   5
HETATM    5  C   UNL     1     -11.445  14.361  65.747  1.00  0.00    -0.335 C  
HETATM    6  N   UNL     1     -11.101  11.723  68.537  1.00  0.00    -0.220 NA 
HETATM    7  N   UNL     1     -11.214  13.096  65.253  1.00  0.00    -0.288 N  
HETATM    8  O   UNL     1     -12.148  14.541  66.744  1.00  0.00    -0.395 OA 
HETATM    9  C   UNL     1     -11.339  11.828  67.402  1.00  0.00    -0.311 C  
HETATM   10  C   UNL     1     -11.653  11.869  65.960  1.00  0.00    -0.227 C  
HETATM   11  C   UNL     1     -10.867  12.763  63.896  1.00  0.00    -0.411 C  
HETATM   12  C   UNL     1     -10.884  10.742  65.230  1.00  0.00    -0.064 C  
HETATM   13  C   UNL     1      -9.543  12.206  63.498  1.00  0.00     0.003 C  
HETATM   14  C   UNL     1     -10.673  11.265  63.833  1.00  0.00    -0.451 C  
ENDBRANCH   3   5
BRANCH   3  15
HETATM   15  C   UNL     1     -10.240  16.671  65.961  1.00  0.00    -0.366 C  
HETATM   16  C   UNL     1     -10.655  18.989  67.804  1.00  0.00    -0.488 C  
HETATM   17  C   UNL     1      -8.611  19.154  66.368  1.00  0.00    -0.335 C  
HETATM   18  C   UNL     1     -10.692  18.082  65.465  1.00  0.00     0.035 C  
HETATM   19  C   UNL     1     -10.176  17.626  68.328  1.00  0.00    -0.374 C  
HETATM   20  C   UNL     1      -8.129  17.786  66.879  1.00  0.00    -0.251 C  
HETATM   21  C   UNL     1     -10.732  16.509  67.426  1.00  0.00    -0.260 C  
HETATM   22  C   UNL     1      -8.684  16.670  65.971  1.00  0.00    -0.239 C  
HETATM   23  O   UNL     1     -10.652  17.430  69.653  1.00  0.00    -0.347 OA 
HETATM   24  C   UNL     1      -8.640  17.576  68.310  1.00  0.00    -0.266 C  
HETATM   25  H   UNL     1     -10.356  16.588  69.977  1.00  0.00     0.000 HD 
HETATM   26  C   UNL     1     -10.147  19.201  66.372  1.00  0.00    -0.488 C  
ENDBRANCH   3  15
TORSDOF 2
ENDMDL
MODEL       29
REMARK 921   NORMALIZED FREE ENERGY PREDICTED BY IDOCK:   -6.14 KCAL/MOL
REMARK 922        TOTAL FREE ENERGY PREDICTED BY IDOCK:   -7.32 KCAL/MOL
REMARK 923 INTER-LIGAND FREE ENERGY PREDICTED BY IDOCK:   -6.82 KCAL/MOL
REMARK 924 INTRA-LIGAND FREE ENERGY PREDICTED BY IDOCK:   -0.50 KCAL/MOL
REMARK 927      BINDING AFFINITY PREDICTED BY RF-SCORE:    0.00 PKD
ROOT
HETATM    1  N   UNL     1     -12.158  16.206  69.071  1.00  0.00    -0.310 NA 
HETATM    2  H1  UNL     1     -12.524  17.158  69.064  1.00  0.00     0.000 HD 
HETATM    3  C   UNL     1     -11.362  16.031  67.834  1.00  0.00    -0.218 C  
HETATM    4  H2  UNL     1     -11.633  15.986  69.917  1.00  0.00     0.000 HD 
ENDROOT
BRANCH   3   5
HETATM    5  C   UNL     1     -10.804  14.577  67.845  1.00  0.00    -0.256 C  
HETATM    6  N   UNL     1      -7.867  12.240  66.964  1.00  0.00    -0.145 NA 
HETATM    7  N   UNL     1     -11.071  13.781  66.752  1.00  0.00    -0.304 N  
HETATM    8  O   UNL     1     -10.150  14.154  68.801  1.00  0.00    -0.230 OA 
HETATM    9  C   UNL     1      -9.015  12.363  66.814  1.00  0.00    -0.205 C  
HETATM   10  C   UNL     1     -10.471  12.438  66.577  1.00  0.00    -0.230 C  
HETATM   11  C   UNL     1     -12.175  13.932  65.841  1.00  0.00    -0.467 C  
HETATM   12  C   UNL     1     -10.772  12.103  65.096  1.00  0.00    -0.333 C  
HETATM   13  C   UNL     1     -12.015  14.323  64.411  1.00  0.00    -0.476 C  
HETATM   14  C   UNL     1     -12.035  12.861  64.782  1.00  0.00    -0.445 C  
ENDBRANCH   3   5
BRANCH   3  15
HETATM   15  C   UNL     1     -10.246  17.127  67.693  1.00  0.00    -0.329 C  
HETATM   16  C   UNL     1      -7.378  17.971  67.733  1.00  0.00    -0.213 C  
HETATM   17  C   UNL     1      -8.971  19.651  68.684  1.00  0.00    -0.335 C  
HETATM   18  C   UNL     1      -9.398  17.200  69.003  1.00  0.00    -0.143 C  
HETATM   19  C   UNL     1      -8.185  17.946  66.426  1.00  0.00    -0.255 C  
HETATM   20  C   UNL     1      -9.791  19.625  67.384  1.00  0.00    -0.489 C  
HETATM   21  C   UNL     1      -9.267  16.855  66.516  1.00  0.00    -0.295 C  
HETATM   22  C   UNL     1     -10.876  18.533  67.480  1.00  0.00    -0.337 C  
HETATM   23  O   UNL     1      -7.321  17.652  65.336  1.00  0.00    -0.297 OA 
HETATM   24  C   UNL     1      -8.859  19.311  66.208  1.00  0.00    -0.341 C  
HETATM   25  H   UNL     1      -7.821  17.637  64.528  1.00  0.00     0.000 HD 
HETATM   26  C   UNL     1      -8.309  18.284  68.912  1.00  0.00    -0.165 C  
ENDBRANCH   3  15
TORSDOF 2
ENDMDL
MODEL       30
REMARK 921   NORMALIZED FREE ENERGY PREDICTED BY IDOCK:   -6.14 KCAL/MOL
REMARK 922        TOTAL FREE ENERGY PREDICTED BY IDOCK:   -7.31 KCAL/MOL
REMARK 923 INTER-LIGAND FREE ENERGY PREDICTED BY IDOCK:   -6.98 KCAL/MOL
REMARK 924 INTRA-LIGAND FREE ENERGY PREDICTED BY IDOCK:   -0.34 KCAL/MOL
REMARK 927      BINDING AFFINITY PREDICTED BY RF-SCORE:    0.00 PKD
ROOT
HETATM    1  N   UNL     1      -9.657  13.797  69.011  1.00  0.00    -0.404 NA 
HETATM    2  H1  UNL     1     -10.090  14.703  68.833  1.00  0.00     0.000 HD 
HETATM    3  C   UNL     1     -10.582  12.760  68.495  1.00  0.00    -0.252 C  
HETATM    4  H2  UNL     1      -8.717  13.721  68.624  1.00  0.00     0.000 HD 
ENDROOT
BRANCH   3   5
HETATM    5  C   UNL     1      -9.921  11.375  68.767  1.00  0.00    -0.177 C  
HETATM    6  N   UNL     1      -9.507   7.717  67.626  1.00  0.00    -0.141 NA 
HETATM    7  N   UNL     1     -10.600  10.490  69.574  1.00  0.00    -0.237 N  
HETATM    8  O   UNL     1      -8.826  11.087  68.279  1.00  0.00    -0.132 OA 
HETATM    9  C   UNL     1      -9.787   8.358  68.556  1.00  0.00    -0.173 C  
HETATM   10  C   UNL     1     -10.151   9.094  69.784  1.00  0.00    -0.199 C  
HETATM   11  C   UNL     1     -11.578  10.831  70.575  1.00  0.00    -0.330 C  
HETATM   12  C   UNL     1     -11.377   8.421  70.447  1.00  0.00    -0.178 C  
HETATM   13  C   UNL     1     -13.022  10.478  70.468  1.00  0.00    -0.289 C  
HETATM   14  C   UNL     1     -12.079   9.537  71.174  1.00  0.00    -0.429 C  
ENDBRANCH   3   5
BRANCH   3  15
HETATM   15  C   UNL     1     -10.943  12.992  66.984  1.00  0.00    -0.289 C  
HETATM   16  C   UNL     1     -10.204  13.047  64.088  1.00  0.00    -0.263 C  
HETATM   17  C   UNL     1     -11.788  14.853  64.792  1.00  0.00    -0.385 C  
HETATM   18  C   UNL     1      -9.998  14.073  66.368  1.00  0.00    -0.301 C  
HETATM   19  C   UNL     1     -11.165  11.987  64.647  1.00  0.00    -0.326 C  
HETATM   20  C   UNL     1     -12.751  13.800  65.365  1.00  0.00    -0.513 C  
HETATM   21  C   UNL     1     -10.814  11.707  66.120  1.00  0.00    -0.343 C  
HETATM   22  C   UNL     1     -12.398  13.526  66.841  1.00  0.00    -0.289 C  
HETATM   23  O   UNL     1     -11.034  10.783  63.904  1.00  0.00    -0.406 OA 
HETATM   24  C   UNL     1     -12.611  12.502  64.561  1.00  0.00    -0.503 C  
HETATM   25  H   UNL     1     -11.628  10.128  64.250  1.00  0.00     0.000 HD 
HETATM   26  C   UNL     1     -10.341  14.347  64.892  1.00  0.00    -0.419 C  
ENDBRANCH   3  15
TORSDOF 2
ENDMDL
MODEL       31
REMARK 921   NORMALIZED FREE ENERGY PREDICTED BY IDOCK:   -6.11 KCAL/MOL
REMARK 922        TOTAL FREE ENERGY PREDICTED BY IDOCK:   -7.29 KCAL/MOL
REMARK 923 INTER-LIGAND FREE ENERGY PREDICTED BY IDOCK:   -7.01 KCAL/MOL
REMARK 924 INTRA-LIGAND FREE ENERGY PREDICTED BY IDOCK:   -0.27 KCAL/MOL
REMARK 927      BINDING AFFINITY PREDICTED BY RF-SCORE:    0.00 PKD
ROOT
HETATM    1  N   UNL     1      -9.200  13.382  68.937  1.00  0.00    -0.381 NA 
HETATM    2  H1  UNL     1      -9.503  14.347  68.802  1.00  0.00     0.000 HD 
HETATM    3  C   UNL     1     -10.311  12.507  68.493  1.00  0.00    -0.222 C  
HETATM    4  H2  UNL     1      -8.317  13.172  68.473  1.00  0.00     0.000 HD 
ENDROOT
BRANCH   3   5
HETATM    5  C   UNL     1      -9.848  11.034  68.699  1.00  0.00    -0.193 C  
HETATM    6  N   UNL     1     -10.096   7.376  67.507  1.00  0.00    -0.174 NA 
HETATM    7  N   UNL     1     -10.585  10.247  69.557  1.00  0.00    -0.228 N  
HETATM    8  O   UNL     1      -8.855  10.592  68.118  1.00  0.00    -0.129 OA 
HETATM    9  C   UNL     1     -10.195   8.036  68.461  1.00  0.00    -0.207 C  
HETATM   10  C   UNL     1     -10.338   8.795  69.720  1.00  0.00    -0.211 C  
HETATM   11  C   UNL     1     -11.411  10.713  70.640  1.00  0.00    -0.281 C  
HETATM   12  C   UNL     1     -11.593   8.303  70.482  1.00  0.00    -0.133 C  
HETATM   13  C   UNL     1     -12.897  10.586  70.655  1.00  0.00    -0.407 C  
HETATM   14  C   UNL     1     -12.053   9.499  71.273  1.00  0.00    -0.443 C  
ENDBRANCH   3   5
BRANCH   3  15
HETATM   15  C   UNL     1     -10.754  12.821  67.019  1.00  0.00    -0.272 C  
HETATM   16  C   UNL     1     -12.656  12.524  64.731  1.00  0.00    -0.493 C  
HETATM   17  C   UNL     1     -10.242  12.614  64.074  1.00  0.00    -0.363 C  
HETATM   18  C   UNL     1     -10.916  11.492  66.214  1.00  0.00    -0.328 C  
HETATM   19  C   UNL     1     -12.502  13.860  65.475  1.00  0.00    -0.511 C  
HETATM   20  C   UNL     1     -10.076  13.945  64.824  1.00  0.00    -0.247 C  
HETATM   21  C   UNL     1     -12.104  13.587  66.937  1.00  0.00    -0.417 C  
HETATM   22  C   UNL     1      -9.674  13.668  66.286  1.00  0.00    -0.295 C  
HETATM   23  O   UNL     1     -13.738  14.562  65.456  1.00  0.00    -0.367 OA 
HETATM   24  C   UNL     1     -11.408  14.705  64.801  1.00  0.00    -0.398 C  
HETATM   25  H   UNL     1     -13.643  15.388  65.915  1.00  0.00     0.000 HD 
HETATM   26  C   UNL     1     -11.324  11.762  64.754  1.00  0.00    -0.313 C  
ENDBRANCH   3  15
TORSDOF 2
ENDMDL
MODEL       32
REMARK 921   NORMALIZED FREE ENERGY PREDICTED BY IDOCK:   -6.05 KCAL/MOL
REMARK 922        TOTAL FREE ENERGY PREDICTED BY IDOCK:   -7.22 KCAL/MOL
REMARK 923 INTER-LIGAND FREE ENERGY PREDICTED BY IDOCK:   -6.77 KCAL/MOL
REMARK 924 INTRA-LIGAND FREE ENERGY PREDICTED BY IDOCK:   -0.45 KCAL/MOL
REMARK 927      BINDING AFFINITY PREDICTED BY RF-SCORE:    0.00 PKD
ROOT
HETATM    1  N   UNL     1     -10.388  18.448  65.580  1.00  0.00    -0.591 NA 
HETATM    2  H1  UNL     1      -9.759  18.790  64.854  1.00  0.00     0.000 HD 
HETATM    3  C   UNL     1      -9.638  17.448  66.376  1.00  0.00    -0.276 C  
HETATM    4  H2  UNL     1     -10.784  19.195  66.150  1.00  0.00     0.000 HD 
ENDROOT
BRANCH   3   5
HETATM    5  C   UNL     1     -10.599  16.925  67.485  1.00  0.00    -0.307 C  
HETATM    6  N   UNL     1     -10.932  15.375  70.999  1.00  0.00    -0.322 NA 
HETATM    7  N   UNL     1     -10.959  15.596  67.444  1.00  0.00    -0.312 N  
HETATM    8  O   UNL     1     -11.023  17.678  68.364  1.00  0.00    -0.215 OA 
HETATM    9  C   UNL     1     -11.267  15.219  69.895  1.00  0.00    -0.288 C  
HETATM   10  C   UNL     1     -11.741  14.947  68.523  1.00  0.00    -0.310 C  
HETATM   11  C   UNL     1     -10.968  14.754  66.278  1.00  0.00    -0.330 C  
HETATM   12  C   UNL     1     -11.592  13.438  68.213  1.00  0.00    -0.379 C  
HETATM   13  C   UNL     1     -10.042  13.600  66.088  1.00  0.00    -0.311 C  
HETATM   14  C   UNL     1     -11.392  13.372  66.722  1.00  0.00    -0.353 C  
ENDBRANCH   3   5
BRANCH   3  15
HETATM   15  C   UNL     1      -8.294  18.034  66.940  1.00  0.00    -0.263 C  
HETATM   16  C   UNL     1      -6.746  19.503  69.034  1.00  0.00    -0.363 C  
HETATM   17  C   UNL     1      -6.013  19.960  66.685  1.00  0.00    -0.179 C  
HETATM   18  C   UNL     1      -8.440  19.570  67.185  1.00  0.00    -0.329 C  
HETATM   19  C   UNL     1      -6.547  17.997  68.802  1.00  0.00    -0.233 C  
HETATM   20  C   UNL     1      -5.821  18.454  66.440  1.00  0.00    -0.193 C  
HETATM   21  C   UNL     1      -7.860  17.384  68.284  1.00  0.00    -0.247 C  
HETATM   22  C   UNL     1      -7.137  17.844  65.917  1.00  0.00    -0.298 C  
HETATM   23  O   UNL     1      -6.195  17.368  70.027  1.00  0.00    -0.203 OA 
HETATM   24  C   UNL     1      -5.438  17.776  67.761  1.00  0.00    -0.141 C  
HETATM   25  H   UNL     1      -6.072  16.437  69.884  1.00  0.00     0.000 HD 
HETATM   26  C   UNL     1      -7.131  20.184  67.714  1.00  0.00    -0.330 C  
ENDBRANCH   3  15
TORSDOF 2
ENDMDL
MODEL       33
REMARK 921   NORMALIZED FREE ENERGY PREDICTED BY IDOCK:   -6.02 KCAL/MOL
REMARK 922        TOTAL FREE ENERGY PREDICTED BY IDOCK:   -7.18 KCAL/MOL
REMARK 923 INTER-LIGAND FREE ENERGY PREDICTED BY IDOCK:   -6.64 KCAL/MOL
REMARK 924 INTRA-LIGAND FREE ENERGY PREDICTED BY IDOCK:   -0.54 KCAL/MOL
REMARK 927      BINDING AFFINITY PREDICTED BY RF-SCORE:    0.00 PKD
ROOT
HETATM    1  N   UNL     1      -7.530  15.622  69.464  1.00  0.00    -0.213 NA 
HETATM    2  H1  UNL     1      -7.443  16.393  70.126  1.00  0.00     0.000 HD 
HETATM    3  C   UNL     1      -8.874  15.720  68.850  1.00  0.00    -0.220 C  
HETATM    4  H2  UNL     1      -6.777  15.599  68.777  1.00  0.00     0.000 HD 
ENDROOT
BRANCH   3   5
HETATM    5  C   UNL     1      -9.008  14.542  67.839  1.00  0.00    -0.187 C  
HETATM    6  N   UNL     1     -10.369  13.346  64.437  1.00  0.00    -0.403 NA 
HETATM    7  N   UNL     1     -10.097  13.708  67.970  1.00  0.00    -0.243 N  
HETATM    8  O   UNL     1      -8.164  14.362  66.959  1.00  0.00    -0.189 OA 
HETATM    9  C   UNL     1     -10.367  13.072  65.569  1.00  0.00    -0.294 C  
HETATM   10  C   UNL     1     -10.414  12.649  66.983  1.00  0.00    -0.232 C  
HETATM   11  C   UNL     1     -10.852  13.480  69.173  1.00  0.00    -0.134 C  
HETATM   12  C   UNL     1     -11.860  12.239  67.354  1.00  0.00    -0.327 C  
HETATM   13  C   UNL     1     -12.269  13.909  69.350  1.00  0.00    -0.338 C  
HETATM   14  C   UNL     1     -11.973  12.525  68.828  1.00  0.00    -0.283 C  
ENDBRANCH   3   5
BRANCH   3  15
HETATM   15  C   UNL     1      -9.124  17.129  68.201  1.00  0.00    -0.247 C  
HETATM   16  C   UNL     1      -8.742  19.104  65.989  1.00  0.00    -0.104 C  
HETATM   17  C   UNL     1      -8.771  20.104  68.283  1.00  0.00    -0.092 C  
HETATM   18  C   UNL     1      -7.760  17.837  67.918  1.00  0.00    -0.225 C  
HETATM   19  C   UNL     1     -10.110  18.456  66.255  1.00  0.00    -0.392 C  
HETATM   20  C   UNL     1     -10.134  19.451  68.563  1.00  0.00    -0.527 C  
HETATM   21  C   UNL     1      -9.901  17.054  66.858  1.00  0.00    -0.273 C  
HETATM   22  C   UNL     1      -9.921  18.049  69.170  1.00  0.00    -0.201 C  
HETATM   23  O   UNL     1     -10.826  18.332  65.033  1.00  0.00    -0.679 OA 
HETATM   24  C   UNL     1     -10.908  19.319  67.245  1.00  0.00    -0.554 C  
HETATM   25  H   UNL     1     -11.671  17.931  65.198  1.00  0.00     0.000 HD 
HETATM   26  C   UNL     1      -7.966  19.234  67.306  1.00  0.00    -0.285 C  
ENDBRANCH   3  15
TORSDOF 2
ENDMDL
MODEL       34
REMARK 921   NORMALIZED FREE ENERGY PREDICTED BY IDOCK:   -5.99 KCAL/MOL
REMARK 922        TOTAL FREE ENERGY PREDICTED BY IDOCK:   -7.15 KCAL/MOL
REMARK 923 INTER-LIGAND FREE ENERGY PREDICTED BY IDOCK:   -6.84 KCAL/MOL
REMARK 924 INTRA-LIGAND FREE ENERGY PREDICTED BY IDOCK:   -0.31 KCAL/MOL
REMARK 927      BINDING AFFINITY PREDICTED BY RF-SCORE:    0.00 PKD
ROOT
HETATM    1  N   UNL     1      -8.070  14.356  69.705  1.00  0.00    -0.315 NA 
HETATM    2  H1  UNL     1      -7.804  13.420  69.399  1.00  0.00     0.000 HD 
HETATM    3  C   UNL     1      -8.339  15.156  68.487  1.00  0.00    -0.158 C  
HETATM    4  H2  UNL     1      -8.849  14.355  70.363  1.00  0.00     0.000 HD 
ENDROOT
BRANCH   3   5
HETATM    5  C   UNL     1      -8.744  16.586  68.955  1.00  0.00    -0.247 C  
HETATM    6  N   UNL     1     -10.533  19.885  68.073  1.00  0.00    -0.399 NA 
HETATM    7  N   UNL     1      -7.862  17.614  68.703  1.00  0.00    -0.284 N  
HETATM    8  O   UNL     1      -9.813  16.786  69.534  1.00  0.00    -0.143 OA 
HETATM    9  C   UNL     1      -9.516  19.471  68.462  1.00  0.00    -0.386 C  
HETATM   10  C   UNL     1      -8.197  19.035  68.961  1.00  0.00    -0.188 C  
HETATM   11  C   UNL     1      -6.442  17.488  68.511  1.00  0.00    -0.186 C  
HETATM   12  C   UNL     1      -7.080  19.805  68.216  1.00  0.00    -0.336 C  
HETATM   13  C   UNL     1      -5.758  17.758  67.213  1.00  0.00    -0.157 C  
HETATM   14  C   UNL     1      -5.900  18.870  68.223  1.00  0.00    -0.215 C  
ENDBRANCH   3   5
BRANCH   3  15
HETATM   15  C   UNL     1      -9.411  14.476  67.562  1.00  0.00    -0.193 C  
HETATM   16  C   UNL     1     -12.146  14.361  66.360  1.00  0.00    -0.390 C  
HETATM   17  C   UNL     1     -11.174  12.131  66.950  1.00  0.00    -0.375 C  
HETATM   18  C   UNL     1     -10.690  14.129  68.389  1.00  0.00    -0.264 C  
HETATM   19  C   UNL     1     -10.909  14.673  65.503  1.00  0.00    -0.345 C  
HETATM   20  C   UNL     1      -9.927  12.439  66.104  1.00  0.00    -0.267 C  
HETATM   21  C   UNL     1      -9.851  15.376  66.373  1.00  0.00    -0.301 C  
HETATM   22  C   UNL     1      -8.869  13.139  66.979  1.00  0.00    -0.212 C  
HETATM   23  O   UNL     1     -11.274  15.535  64.433  1.00  0.00    -0.689 OA 
HETATM   24  C   UNL     1     -10.321  13.366  64.947  1.00  0.00    -0.382 C  
HETATM   25  H   UNL     1     -10.510  15.727  63.904  1.00  0.00     0.000 HD 
HETATM   26  C   UNL     1     -11.754  13.435  67.519  1.00  0.00    -0.406 C  
ENDBRANCH   3  15
TORSDOF 2
ENDMDL
MODEL       35
REMARK 921   NORMALIZED FREE ENERGY PREDICTED BY IDOCK:   -5.97 KCAL/MOL
REMARK 922        TOTAL FREE ENERGY PREDICTED BY IDOCK:   -7.13 KCAL/MOL
REMARK 923 INTER-LIGAND FREE ENERGY PREDICTED BY IDOCK:   -6.50 KCAL/MOL
REMARK 924 INTRA-LIGAND FREE ENERGY PREDICTED BY IDOCK:   -0.63 KCAL/MOL
REMARK 927      BINDING AFFINITY PREDICTED BY RF-SCORE:    0.00 PKD
ROOT
HETATM    1  N   UNL     1      -5.787  15.321  67.533  1.00  0.00    -0.333 NA 
HETATM    2  H1  UNL     1      -6.216  14.593  66.962  1.00  0.00     0.000 HD 
HETATM    3  C   UNL     1      -6.447  16.600  67.182  1.00  0.00    -0.188 C  
HETATM    4  H2  UNL     1      -5.818  15.116  68.531  1.00  0.00     0.000 HD 
ENDROOT
BRANCH   3   5
HETATM    5  C   UNL     1      -5.791  17.713  68.054  1.00  0.00    -0.154 C  
HETATM    6  N   UNL     1      -6.281  20.358  70.814  1.00  0.00    -0.542 NA 
HETATM    7  N   UNL     1      -5.795  18.998  67.559  1.00  0.00    -0.175 N  
HETATM    8  O   UNL     1      -5.283  17.448  69.145  1.00  0.00    -0.152 OA 
HETATM    9  C   UNL     1      -5.876  20.232  69.729  1.00  0.00    -0.348 C  
HETATM   10  C   UNL     1      -5.341  20.162  68.355  1.00  0.00    -0.209 C  
HETATM   11  C   UNL     1      -5.880  19.375  66.172  1.00  0.00    -0.164 C  
HETATM   12  C   UNL     1      -5.850  21.374  67.538  1.00  0.00    -0.421 C  
HETATM   13  C   UNL     1      -7.051  20.083  65.581  1.00  0.00    -0.338 C  
HETATM   14  C   UNL     1      -5.891  20.885  66.114  1.00  0.00    -0.277 C  
ENDBRANCH   3   5
BRANCH   3  15
HETATM   15  C   UNL     1      -8.007  16.521  67.343  1.00  0.00    -0.175 C  
HETATM   16  C   UNL     1     -10.733  17.729  67.121  1.00  0.00    -0.222 C  
HETATM   17  C   UNL     1     -10.406  16.259  69.120  1.00  0.00    -0.272 C  
HETATM   18  C   UNL     1      -8.508  17.668  68.278  1.00  0.00    -0.271 C  
HETATM   19  C   UNL     1     -10.292  16.579  66.203  1.00  0.00    -0.334 C  
HETATM   20  C   UNL     1      -9.952  15.105  68.211  1.00  0.00    -0.223 C  
HETATM   21  C   UNL     1      -8.768  16.650  65.994  1.00  0.00    -0.239 C  
HETATM   22  C   UNL     1      -8.426  15.177  68.006  1.00  0.00    -0.148 C  
HETATM   23  O   UNL     1     -10.938  16.699  64.943  1.00  0.00    -0.642 OA 
HETATM   24  C   UNL     1     -10.652  15.232  66.852  1.00  0.00    -0.304 C  
HETATM   25  H   UNL     1     -10.666  15.987  64.376  1.00  0.00     0.000 HD 
HETATM   26  C   UNL     1     -10.033  17.605  68.481  1.00  0.00    -0.368 C  
ENDBRANCH   3  15
TORSDOF 2
ENDMDL
MODEL       36
REMARK 921   NORMALIZED FREE ENERGY PREDICTED BY IDOCK:   -5.97 KCAL/MOL
REMARK 922        TOTAL FREE ENERGY PREDICTED BY IDOCK:   -7.13 KCAL/MOL
REMARK 923 INTER-LIGAND FREE ENERGY PREDICTED BY IDOCK:   -7.53 KCAL/MOL
REMARK 924 INTRA-LIGAND FREE ENERGY PREDICTED BY IDOCK:    0.40 KCAL/MOL
REMARK 927      BINDING AFFINITY PREDICTED BY RF-SCORE:    0.00 PKD
ROOT
HETATM    1  N   UNL     1      -9.891   9.795  66.659  1.00  0.00    -0.202 NA 
HETATM    2  H1  UNL     1      -9.210  10.126  65.976  1.00  0.00     0.000 HD 
HETATM    3  C   UNL     1     -10.160  10.916  67.590  1.00  0.00    -0.179 C  
HETATM    4  H2  UNL     1     -10.737   9.420  66.231  1.00  0.00     0.000 HD 
ENDROOT
BRANCH   3   5
HETATM    5  C   UNL     1     -11.200  10.410  68.635  1.00  0.00    -0.248 C  
HETATM    6  N   UNL     1     -13.151  11.164  71.872  1.00  0.00    -0.478 NA 
HETATM    7  N   UNL     1     -10.726   9.698  69.714  1.00  0.00    -0.232 N  
HETATM    8  O   UNL     1     -12.403  10.637  68.494  1.00  0.00    -0.317 OA 
HETATM    9  C   UNL     1     -12.460  10.363  71.387  1.00  0.00    -0.415 C  
HETATM   10  C   UNL     1     -11.593   9.296  70.848  1.00  0.00    -0.301 C  
HETATM   11  C   UNL     1      -9.497   8.951  69.767  1.00  0.00    -0.170 C  
HETATM   12  C   UNL     1     -10.580   8.854  71.931  1.00  0.00    -0.419 C  
HETATM   13  C   UNL     1      -8.340   9.329  70.628  1.00  0.00    -0.245 C  
HETATM   14  C   UNL     1      -9.379   8.374  71.160  1.00  0.00    -0.223 C  
ENDBRANCH   3   5
BRANCH   3  15
HETATM   15  C   UNL     1     -10.618  12.213  66.832  1.00  0.00    -0.257 C  
HETATM   16  C   UNL     1     -10.537  14.035  64.463  1.00  0.00    -0.332 C  
HETATM   17  C   UNL     1     -10.717  15.204  66.669  1.00  0.00    -0.310 C  
HETATM   18  C   UNL     1      -9.376  13.092  66.477  1.00  0.00    -0.222 C  
HETATM   19  C   UNL     1     -11.791  13.213  64.797  1.00  0.00    -0.369 C  
HETATM   20  C   UNL     1     -11.966  14.379  67.016  1.00  0.00    -0.424 C  
HETATM   21  C   UNL     1     -11.374  11.913  65.509  1.00  0.00    -0.334 C  
HETATM   22  C   UNL     1     -11.545  13.080  67.732  1.00  0.00    -0.385 C  
HETATM   23  O   UNL     1     -12.480  12.883  63.598  1.00  0.00    -0.652 OA 
HETATM   24  C   UNL     1     -12.711  14.025  65.723  1.00  0.00    -0.487 C  
HETATM   25  H   UNL     1     -13.255  12.375  63.804  1.00  0.00     0.000 HD 
HETATM   26  C   UNL     1      -9.789  14.388  65.756  1.00  0.00    -0.330 C  
ENDBRANCH   3  15
TORSDOF 2
ENDMDL
MODEL       37
REMARK 921   NORMALIZED FREE ENERGY PREDICTED BY IDOCK:   -5.97 KCAL/MOL
REMARK 922        TOTAL FREE ENERGY PREDICTED BY IDOCK:   -7.12 KCAL/MOL
REMARK 923 INTER-LIGAND FREE ENERGY PREDICTED BY IDOCK:   -6.51 KCAL/MOL
REMARK 924 INTRA-LIGAND FREE ENERGY PREDICTED BY IDOCK:   -0.61 KCAL/MOL
REMARK 927      BINDING AFFINITY PREDICTED BY RF-SCORE:    0.00 PKD
ROOT
HETATM    1  N   UNL     1     -12.159  11.290  68.135  1.00  0.00    -0.667 NA 
HETATM    2  H1  UNL     1     -12.832  12.027  68.344  1.00  0.00     0.000 HD 
HETATM    3  C   UNL     1     -11.338  11.756  66.993  1.00  0.00    -0.321 C  
HETATM    4  H2  UNL     1     -11.600  11.018  68.943  1.00  0.00     0.000 HD 
ENDROOT
BRANCH   3   5
HETATM    5  C   UNL     1     -10.309  10.630  66.673  1.00  0.00    -0.241 C  
HETATM    6  N   UNL     1      -6.597   9.614  66.461  1.00  0.00    -0.070 NA 
HETATM    7  N   UNL     1      -9.865  10.521  65.374  1.00  0.00    -0.254 N  
HETATM    8  O   UNL     1      -9.913   9.863  67.553  1.00  0.00    -0.168 OA 
HETATM    9  C   UNL     1      -7.580   9.623  65.837  1.00  0.00    -0.103 C  
HETATM   10  C   UNL     1      -8.779   9.594  64.976  1.00  0.00    -0.175 C  
HETATM   11  C   UNL     1     -10.561  10.971  64.197  1.00  0.00    -0.342 C  
HETATM   12  C   UNL     1      -8.407  10.070  63.552  1.00  0.00    -0.171 C  
HETATM   13  C   UNL     1     -10.084  12.091  63.336  1.00  0.00    -0.437 C  
HETATM   14  C   UNL     1      -9.674  10.677  63.008  1.00  0.00    -0.362 C  
ENDBRANCH   3   5
BRANCH   3  15
HETATM   15  C   UNL     1     -10.668  13.149  67.279  1.00  0.00    -0.262 C  
HETATM   16  C   UNL     1     -10.806  15.982  68.222  1.00  0.00    -0.319 C  
HETATM   17  C   UNL     1      -9.305  15.612  66.253  1.00  0.00    -0.358 C  
HETATM   18  C   UNL     1     -11.413  14.273  66.489  1.00  0.00    -0.368 C  
HETATM   19  C   UNL     1     -10.034  14.914  69.011  1.00  0.00    -0.235 C  
HETATM   20  C   UNL     1      -8.533  14.534  67.031  1.00  0.00    -0.222 C  
HETATM   21  C   UNL     1     -10.688  13.539  68.783  1.00  0.00    -0.261 C  
HETATM   22  C   UNL     1      -9.189  13.159  66.797  1.00  0.00    -0.232 C  
HETATM   23  O   UNL     1     -10.076  15.221  70.398  1.00  0.00    -0.481 OA 
HETATM   24  C   UNL     1      -8.575  14.867  68.528  1.00  0.00    -0.162 C  
HETATM   25  H   UNL     1      -9.598  14.561  70.886  1.00  0.00     0.000 HD 
HETATM   26  C   UNL     1     -10.766  15.650  66.724  1.00  0.00    -0.300 C  
ENDBRANCH   3  15
TORSDOF 2
ENDMDL
MODEL       38
REMARK 921   NORMALIZED FREE ENERGY PREDICTED BY IDOCK:   -5.93 KCAL/MOL
REMARK 922        TOTAL FREE ENERGY PREDICTED BY IDOCK:   -7.09 KCAL/MOL
REMARK 923 INTER-LIGAND FREE ENERGY PREDICTED BY IDOCK:   -6.73 KCAL/MOL
REMARK 924 INTRA-LIGAND FREE ENERGY PREDICTED BY IDOCK:   -0.36 KCAL/MOL
REMARK 927      BINDING AFFINITY PREDICTED BY RF-SCORE:    0.00 PKD
ROOT
HETATM    1  N   UNL     1     -10.536  11.483  65.737  1.00  0.00    -0.258 NA 
HETATM    2  H1  UNL     1      -9.876  11.876  65.067  1.00  0.00     0.000 HD 
HETATM    3  C   UNL     1     -10.046  11.829  67.091  1.00  0.00    -0.203 C  
HETATM    4  H2  UNL     1     -11.498  11.781  65.572  1.00  0.00     0.000 HD 
ENDROOT
BRANCH   3   5
HETATM    5  C   UNL     1     -11.055  11.227  68.115  1.00  0.00    -0.259 C  
HETATM    6  N   UNL     1     -12.876  11.657  71.486  1.00  0.00    -0.401 NA 
HETATM    7  N   UNL     1     -10.553  10.400  69.096  1.00  0.00    -0.213 N  
HETATM    8  O   UNL     1     -12.259  11.481  68.045  1.00  0.00    -0.582 OA 
HETATM    9  C   UNL     1     -12.214  10.904  70.893  1.00  0.00    -0.381 C  
HETATM   10  C   UNL     1     -11.384   9.890  70.213  1.00  0.00    -0.291 C  
HETATM   11  C   UNL     1      -9.334   9.638  69.024  1.00  0.00    -0.159 C  
HETATM   12  C   UNL     1     -10.339   9.326  71.205  1.00  0.00    -0.397 C  
HETATM   13  C   UNL     1      -8.141   9.911  69.875  1.00  0.00    -0.200 C  
HETATM   14  C   UNL     1      -9.174   8.917  70.343  1.00  0.00    -0.222 C  
ENDBRANCH   3   5
BRANCH   3  15
HETATM   15  C   UNL     1      -9.831  13.375  67.263  1.00  0.00    -0.233 C  
HETATM   16  C   UNL     1      -8.646  15.974  66.379  1.00  0.00    -0.369 C  
HETATM   17  C   UNL     1      -8.745  15.666  68.861  1.00  0.00    -0.215 C  
HETATM   18  C   UNL     1      -8.306  13.696  67.372  1.00  0.00    -0.198 C  
HETATM   19  C   UNL     1     -10.157  15.712  66.287  1.00  0.00    -0.299 C  
HETATM   20  C   UNL     1     -10.256  15.392  68.778  1.00  0.00    -0.217 C  
HETATM   21  C   UNL     1     -10.402  14.206  66.080  1.00  0.00    -0.304 C  
HETATM   22  C   UNL     1     -10.497  13.883  68.574  1.00  0.00    -0.253 C  
HETATM   23  O   UNL     1     -10.699  16.425  65.183  1.00  0.00    -0.579 OA 
HETATM   24  C   UNL     1     -10.841  16.163  67.588  1.00  0.00    -0.297 C  
HETATM   25  H   UNL     1     -11.633  16.263  65.126  1.00  0.00     0.000 HD 
HETATM   26  C   UNL     1      -8.058  15.202  67.568  1.00  0.00    -0.196 C  
ENDBRANCH   3  15
TORSDOF 2
ENDMDL
MODEL       39
REMARK 921   NORMALIZED FREE ENERGY PREDICTED BY IDOCK:   -5.87 KCAL/MOL
REMARK 922        TOTAL FREE ENERGY PREDICTED BY IDOCK:   -7.01 KCAL/MOL
REMARK 923 INTER-LIGAND FREE ENERGY PREDICTED BY IDOCK:   -6.79 KCAL/MOL
REMARK 924 INTRA-LIGAND FREE ENERGY PREDICTED BY IDOCK:   -0.22 KCAL/MOL
REMARK 927      BINDING AFFINITY PREDICTED BY RF-SCORE:    0.00 PKD
ROOT
HETATM    1  N   UNL     1     -11.197  12.472  69.481  1.00  0.00    -0.467 NA 
HETATM    2  H1  UNL     1     -10.571  12.146  70.218  1.00  0.00     0.000 HD 
HETATM    3  C   UNL     1     -10.458  12.374  68.201  1.00  0.00    -0.219 C  
HETATM    4  H2  UNL     1     -12.089  11.977  69.466  1.00  0.00     0.000 HD 
ENDROOT
BRANCH   3   5
HETATM    5  C   UNL     1     -11.414  12.873  67.076  1.00  0.00    -0.339 C  
HETATM    6  N   UNL     1     -12.234  12.892  63.310  1.00  0.00    -0.643 NA 
HETATM    7  N   UNL     1     -11.122  14.079  66.478  1.00  0.00    -0.309 N  
HETATM    8  O   UNL     1     -12.398  12.212  66.739  1.00  0.00    -0.429 OA 
HETATM    9  C   UNL     1     -12.063  13.608  64.212  1.00  0.00    -0.434 C  
HETATM   10  C   UNL     1     -11.863  14.586  65.300  1.00  0.00    -0.358 C  
HETATM   11  C   UNL     1     -10.359  15.153  67.058  1.00  0.00    -0.271 C  
HETATM   12  C   UNL     1     -10.977  15.750  64.794  1.00  0.00    -0.410 C  
HETATM   13  C   UNL     1      -9.023  15.581  66.553  1.00  0.00    -0.348 C  
HETATM   14  C   UNL     1     -10.265  16.251  66.023  1.00  0.00    -0.376 C  
ENDBRANCH   3   5
BRANCH   3  15
HETATM   15  C   UNL     1      -9.904  10.925  67.951  1.00  0.00    -0.189 C  
HETATM   16  C   UNL     1      -8.000   9.035  66.630  1.00  0.00    -0.100 C  
HETATM   17  C   UNL     1     -10.325   8.150  66.903  1.00  0.00    -0.401 C  
HETATM   18  C   UNL     1      -9.961  10.586  66.427  1.00  0.00    -0.271 C  
HETATM   19  C   UNL     1      -7.930   9.316  68.140  1.00  0.00    -0.099 C  
HETATM   20  C   UNL     1     -10.269   8.436  68.412  1.00  0.00    -0.239 C  
HETATM   21  C   UNL     1      -8.432  10.745  68.416  1.00  0.00    -0.137 C  
HETATM   22  C   UNL     1     -10.776   9.867  68.686  1.00  0.00    -0.256 C  
HETATM   23  O   UNL     1      -6.585   9.203  68.585  1.00  0.00    -0.053 OA 
HETATM   24  C   UNL     1      -8.818   8.312  68.894  1.00  0.00    -0.140 C  
HETATM   25  H   UNL     1      -6.542   9.377  69.518  1.00  0.00     0.000 HD 
HETATM   26  C   UNL     1      -9.451   9.161  66.146  1.00  0.00    -0.309 C  
ENDBRANCH   3  15
TORSDOF 2
ENDMDL
MODEL       40
REMARK 921   NORMALIZED FREE ENERGY PREDICTED BY IDOCK:   -5.86 KCAL/MOL
REMARK 922        TOTAL FREE ENERGY PREDICTED BY IDOCK:   -7.01 KCAL/MOL
REMARK 923 INTER-LIGAND FREE ENERGY PREDICTED BY IDOCK:   -6.59 KCAL/MOL
REMARK 924 INTRA-LIGAND FREE ENERGY PREDICTED BY IDOCK:   -0.42 KCAL/MOL
REMARK 927      BINDING AFFINITY PREDICTED BY RF-SCORE:    0.00 PKD
ROOT
HETATM    1  N   UNL     1      -7.790  12.033  68.703  1.00  0.00    -0.233 NA 
HETATM    2  H1  UNL     1      -7.802  13.047  68.809  1.00  0.00     0.000 HD 
HETATM    3  C   UNL     1      -9.199  11.584  68.612  1.00  0.00    -0.132 C  
HETATM    4  H2  UNL     1      -7.220  11.720  67.918  1.00  0.00     0.000 HD 
ENDROOT
BRANCH   3   5
HETATM    5  C   UNL     1      -9.181  10.034  68.451  1.00  0.00    -0.131 C  
HETATM    6  N   UNL     1     -10.820   6.936  66.847  1.00  0.00    -0.354 NA 
HETATM    7  N   UNL     1      -9.902   9.289  69.358  1.00  0.00    -0.168 N  
HETATM    8  O   UNL     1      -8.539   9.497  67.547  1.00  0.00    -0.125 OA 
HETATM    9  C   UNL     1     -10.484   7.363  67.878  1.00  0.00    -0.205 C  
HETATM   10  C   UNL     1     -10.086   7.825  69.222  1.00  0.00    -0.199 C  
HETATM   11  C   UNL     1     -10.266   9.692  70.691  1.00  0.00    -0.278 C  
HETATM   12  C   UNL     1     -11.216   7.512  70.233  1.00  0.00    -0.253 C  
HETATM   13  C   UNL     1     -11.671   9.951  71.118  1.00  0.00    -0.478 C  
HETATM   14  C   UNL     1     -11.084   8.573  71.294  1.00  0.00    -0.320 C  
ENDBRANCH   3   5
BRANCH   3  15
HETATM   15  C   UNL     1      -9.978  12.320  67.464  1.00  0.00    -0.201 C  
HETATM   16  C   UNL     1     -10.092  14.275  65.204  1.00  0.00    -0.353 C  
HETATM   17  C   UNL     1     -12.155  14.198  66.618  1.00  0.00    -0.480 C  
HETATM   18  C   UNL     1      -9.902  13.867  67.672  1.00  0.00    -0.236 C  
HETATM   19  C   UNL     1     -10.204  12.762  64.959  1.00  0.00    -0.272 C  
HETATM   20  C   UNL     1     -12.270  12.682  66.388  1.00  0.00    -0.174 C  
HETATM   21  C   UNL     1      -9.418  12.009  66.048  1.00  0.00    -0.229 C  
HETATM   22  C   UNL     1     -11.485  11.932  67.482  1.00  0.00    -0.396 C  
HETATM   23  O   UNL     1      -9.655  12.441  63.687  1.00  0.00    -0.659 OA 
HETATM   24  C   UNL     1     -11.680  12.337  65.015  1.00  0.00    -0.405 C  
HETATM   25  H   UNL     1      -9.725  11.506  63.536  1.00  0.00     0.000 HD 
HETATM   26  C   UNL     1     -10.679  14.622  66.578  1.00  0.00    -0.312 C  
ENDBRANCH   3  15
TORSDOF 2
ENDMDL
MODEL       41
REMARK 921   NORMALIZED FREE ENERGY PREDICTED BY IDOCK:   -5.86 KCAL/MOL
REMARK 922        TOTAL FREE ENERGY PREDICTED BY IDOCK:   -7.00 KCAL/MOL
REMARK 923 INTER-LIGAND FREE ENERGY PREDICTED BY IDOCK:   -6.44 KCAL/MOL
REMARK 924 INTRA-LIGAND FREE ENERGY PREDICTED BY IDOCK:   -0.56 KCAL/MOL
REMARK 927      BINDING AFFINITY PREDICTED BY RF-SCORE:    0.00 PKD
ROOT
HETATM    1  N   UNL     1      -7.292  11.316  65.636  1.00  0.00    -0.323 NA 
HETATM    2  H1  UNL     1      -6.834  10.496  65.238  1.00  0.00     0.000 HD 
HETATM    3  C   UNL     1      -8.742  11.018  65.707  1.00  0.00    -0.174 C  
HETATM    4  H2  UNL     1      -6.898  11.597  66.534  1.00  0.00     0.000 HD 
ENDROOT
BRANCH   3   5
HETATM    5  C   UNL     1      -9.441  12.271  66.315  1.00  0.00    -0.231 C  
HETATM    6  N   UNL     1     -12.161  13.613  68.695  1.00  0.00    -0.349 NA 
HETATM    7  N   UNL     1     -10.525  12.788  65.640  1.00  0.00    -0.273 N  
HETATM    8  O   UNL     1      -9.033  12.782  67.360  1.00  0.00    -0.177 OA 
HETATM    9  C   UNL     1     -11.780  13.702  67.598  1.00  0.00    -0.363 C  
HETATM   10  C   UNL     1     -11.364  13.878  66.192  1.00  0.00    -0.320 C  
HETATM   11  C   UNL     1     -10.801  12.641  64.235  1.00  0.00    -0.379 C  
HETATM   12  C   UNL     1     -12.611  13.866  65.276  1.00  0.00    -0.508 C  
HETATM   13  C   UNL     1     -11.954  11.861  63.700  1.00  0.00    -0.578 C  
HETATM   14  C   UNL     1     -12.113  13.339  63.957  1.00  0.00    -0.508 C  
ENDBRANCH   3   5
BRANCH   3  15
HETATM   15  C   UNL     1      -9.033   9.695  66.502  1.00  0.00    -0.171 C  
HETATM   16  C   UNL     1     -10.678   7.253  67.020  1.00  0.00    -0.406 C  
HETATM   17  C   UNL     1      -9.750   8.339  69.076  1.00  0.00    -0.167 C  
HETATM   18  C   UNL     1     -10.463   9.750  67.128  1.00  0.00    -0.316 C  
HETATM   19  C   UNL     1      -9.261   7.153  66.434  1.00  0.00    -0.157 C  
HETATM   20  C   UNL     1      -8.330   8.252  68.493  1.00  0.00    -0.129 C  
HETATM   21  C   UNL     1      -8.958   8.421  65.615  1.00  0.00    -0.183 C  
HETATM   22  C   UNL     1      -8.028   9.525  67.677  1.00  0.00    -0.106 C  
HETATM   23  O   UNL     1      -9.177   6.019  65.580  1.00  0.00    -0.355 OA 
HETATM   24  C   UNL     1      -8.238   7.028  67.574  1.00  0.00    -0.116 C  
HETATM   25  H   UNL     1      -8.301   5.957  65.218  1.00  0.00     0.000 HD 
HETATM   26  C   UNL     1     -10.773   8.479  67.939  1.00  0.00    -0.148 C  
ENDBRANCH   3  15
TORSDOF 2
ENDMDL
MODEL       42
REMARK 921   NORMALIZED FREE ENERGY PREDICTED BY IDOCK:   -5.85 KCAL/MOL
REMARK 922        TOTAL FREE ENERGY PREDICTED BY IDOCK:   -7.00 KCAL/MOL
REMARK 923 INTER-LIGAND FREE ENERGY PREDICTED BY IDOCK:   -6.40 KCAL/MOL
REMARK 924 INTRA-LIGAND FREE ENERGY PREDICTED BY IDOCK:   -0.60 KCAL/MOL
REMARK 927      BINDING AFFINITY PREDICTED BY RF-SCORE:    0.00 PKD
ROOT
HETATM    1  N   UNL     1     -10.619  11.302  65.989  1.00  0.00    -0.264 NA 
HETATM    2  H1  UNL     1      -9.956  11.729  65.342  1.00  0.00     0.000 HD 
HETATM    3  C   UNL     1     -10.159  11.619  67.361  1.00  0.00    -0.198 C  
HETATM    4  H2  UNL     1     -11.583  11.584  65.816  1.00  0.00     0.000 HD 
ENDROOT
BRANCH   3   5
HETATM    5  C   UNL     1     -11.172  10.967  68.350  1.00  0.00    -0.285 C  
HETATM    6  N   UNL     1     -13.147  11.312  71.642  1.00  0.00    -0.454 NA 
HETATM    7  N   UNL     1     -10.663  10.176  69.357  1.00  0.00    -0.222 N  
HETATM    8  O   UNL     1     -12.385  11.149  68.230  1.00  0.00    -0.532 OA 
HETATM    9  C   UNL     1     -12.421  10.595  71.082  1.00  0.00    -0.418 C  
HETATM   10  C   UNL     1     -11.506   9.626  70.444  1.00  0.00    -0.263 C  
HETATM   11  C   UNL     1      -9.400   9.486  69.339  1.00  0.00    -0.180 C  
HETATM   12  C   UNL     1     -10.471   9.130  71.482  1.00  0.00    -0.422 C  
HETATM   13  C   UNL     1      -8.259   9.833  70.235  1.00  0.00    -0.178 C  
HETATM   14  C   UNL     1      -9.251   8.783  70.670  1.00  0.00    -0.233 C  
ENDBRANCH   3   5
BRANCH   3  15
HETATM   15  C   UNL     1      -9.982  13.165  67.581  1.00  0.00    -0.219 C  
HETATM   16  C   UNL     1     -11.090  15.872  68.199  1.00  0.00    -0.338 C  
HETATM   17  C   UNL     1      -9.271  15.859  66.479  1.00  0.00    -0.310 C  
HETATM   18  C   UNL     1     -10.899  13.954  66.593  1.00  0.00    -0.289 C  
HETATM   19  C   UNL     1     -10.163  15.143  69.184  1.00  0.00    -0.249 C  
HETATM   20  C   UNL     1      -8.339  15.121  67.455  1.00  0.00    -0.206 C  
HETATM   21  C   UNL     1     -10.340  13.623  69.022  1.00  0.00    -0.048 C  
HETATM   22  C   UNL     1      -8.517  13.599  67.286  1.00  0.00    -0.203 C  
HETATM   23  O   UNL     1     -10.499  15.508  70.516  1.00  0.00    -0.374 OA 
HETATM   24  C   UNL     1      -8.701  15.517  68.892  1.00  0.00    -0.206 C  
HETATM   25  H   UNL     1      -9.926  15.058  71.125  1.00  0.00     0.000 HD 
HETATM   26  C   UNL     1     -10.732  15.475  66.761  1.00  0.00    -0.305 C  
ENDBRANCH   3  15
TORSDOF 2
ENDMDL
MODEL       43
REMARK 921   NORMALIZED FREE ENERGY PREDICTED BY IDOCK:   -5.84 KCAL/MOL
REMARK 922        TOTAL FREE ENERGY PREDICTED BY IDOCK:   -6.98 KCAL/MOL
REMARK 923 INTER-LIGAND FREE ENERGY PREDICTED BY IDOCK:   -6.49 KCAL/MOL
REMARK 924 INTRA-LIGAND FREE ENERGY PREDICTED BY IDOCK:   -0.48 KCAL/MOL
REMARK 927      BINDING AFFINITY PREDICTED BY RF-SCORE:    0.00 PKD
ROOT
HETATM    1  N   UNL     1     -10.281  11.254  69.435  1.00  0.00    -0.435 NA 
HETATM    2  H1  UNL     1      -9.446  10.957  69.939  1.00  0.00     0.000 HD 
HETATM    3  C   UNL     1      -9.831  11.863  68.161  1.00  0.00    -0.192 C  
HETATM    4  H2  UNL     1     -10.956  10.502  69.300  1.00  0.00     0.000 HD 
ENDROOT
BRANCH   3   5
HETATM    5  C   UNL     1     -11.106  12.319  67.391  1.00  0.00    -0.282 C  
HETATM    6  N   UNL     1     -13.066  12.256  64.072  1.00  0.00    -0.746 NA 
HETATM    7  N   UNL     1     -11.054  13.523  66.724  1.00  0.00    -0.295 N  
HETATM    8  O   UNL     1     -12.126  11.626  67.384  1.00  0.00    -0.605 OA 
HETATM    9  C   UNL     1     -12.643  12.990  64.871  1.00  0.00    -0.428 C  
HETATM   10  C   UNL     1     -12.143  13.991  65.834  1.00  0.00    -0.428 C  
HETATM   11  C   UNL     1     -10.181  14.626  67.028  1.00  0.00    -0.261 C  
HETATM   12  C   UNL     1     -11.496  15.170  65.069  1.00  0.00    -0.339 C  
HETATM   13  C   UNL     1      -9.085  15.082  66.126  1.00  0.00    -0.237 C  
HETATM   14  C   UNL     1     -10.451  15.710  66.009  1.00  0.00    -0.343 C  
ENDBRANCH   3   5
BRANCH   3  15
HETATM   15  C   UNL     1      -8.916  10.890  67.334  1.00  0.00    -0.136 C  
HETATM   16  C   UNL     1      -7.641  10.032  64.769  1.00  0.00    -0.143 C  
HETATM   17  C   UNL     1      -8.398   8.150  66.236  1.00  0.00    -0.119 C  
HETATM   18  C   UNL     1      -9.724  10.278  66.145  1.00  0.00    -0.266 C  
HETATM   19  C   UNL     1      -6.805  10.599  65.927  1.00  0.00    -0.115 C  
HETATM   20  C   UNL     1      -7.572   8.715  67.404  1.00  0.00    -0.093 C  
HETATM   21  C   UNL     1      -7.662  11.588  66.738  1.00  0.00    -0.136 C  
HETATM   22  C   UNL     1      -8.435   9.702  68.216  1.00  0.00    -0.118 C  
HETATM   23  O   UNL     1      -5.673  11.284  65.408  1.00  0.00    -0.472 OA 
HETATM   24  C   UNL     1      -6.349   9.453  66.845  1.00  0.00    -0.066 C  
HETATM   25  H   UNL     1      -5.156  11.634  66.124  1.00  0.00     0.000 HD 
HETATM   26  C   UNL     1      -8.867   9.296  65.326  1.00  0.00    -0.237 C  
ENDBRANCH   3  15
TORSDOF 2
ENDMDL
MODEL       44
REMARK 921   NORMALIZED FREE ENERGY PREDICTED BY IDOCK:   -5.83 KCAL/MOL
REMARK 922        TOTAL FREE ENERGY PREDICTED BY IDOCK:   -6.97 KCAL/MOL
REMARK 923 INTER-LIGAND FREE ENERGY PREDICTED BY IDOCK:   -7.70 KCAL/MOL
REMARK 924 INTRA-LIGAND FREE ENERGY PREDICTED BY IDOCK:    0.73 KCAL/MOL
REMARK 927      BINDING AFFINITY PREDICTED BY RF-SCORE:    0.00 PKD
ROOT
HETATM    1  N   UNL     1     -10.991  18.551  67.629  1.00  0.00    -0.266 NA 
HETATM    2  H1  UNL     1     -10.834  19.525  67.890  1.00  0.00     0.000 HD 
HETATM    3  C   UNL     1     -10.112  18.259  66.473  1.00  0.00    -0.385 C  
HETATM    4  H2  UNL     1     -10.858  17.903  68.405  1.00  0.00     0.000 HD 
ENDROOT
BRANCH   3   5
HETATM    5  C   UNL     1     -10.353  16.772  66.074  1.00  0.00    -0.335 C  
HETATM    6  N   UNL     1     -12.919  14.070  65.087  1.00  0.00    -0.771 NA 
HETATM    7  N   UNL     1     -10.584  15.868  67.087  1.00  0.00    -0.315 N  
HETATM    8  O   UNL     1     -10.332  16.420  64.892  1.00  0.00    -0.590 OA 
HETATM    9  C   UNL     1     -12.056  14.281  65.840  1.00  0.00    -0.404 C  
HETATM   10  C   UNL     1     -10.975  14.462  66.829  1.00  0.00    -0.314 C  
HETATM   11  C   UNL     1     -10.163  16.001  68.457  1.00  0.00    -0.236 C  
HETATM   12  C   UNL     1     -11.451  13.965  68.215  1.00  0.00    -0.346 C  
HETATM   13  C   UNL     1     -11.109  16.182  69.595  1.00  0.00    -0.344 C  
HETATM   14  C   UNL     1     -10.675  14.792  69.206  1.00  0.00    -0.263 C  
ENDBRANCH   3   5
BRANCH   3  15
HETATM   15  C   UNL     1      -8.607  18.586  66.780  1.00  0.00    -0.290 C  
HETATM   16  C   UNL     1      -6.051  18.057  68.239  1.00  0.00    -0.178 C  
HETATM   17  C   UNL     1      -6.547  20.480  67.853  1.00  0.00    -0.347 C  
HETATM   18  C   UNL     1      -8.421  18.874  68.304  1.00  0.00    -0.365 C  
HETATM   19  C   UNL     1      -6.180  17.791  66.731  1.00  0.00    -0.163 C  
HETATM   20  C   UNL     1      -6.689  20.222  66.344  1.00  0.00    -0.261 C  
HETATM   21  C   UNL     1      -7.640  17.430  66.401  1.00  0.00    -0.342 C  
HETATM   22  C   UNL     1      -8.153  19.864  66.017  1.00  0.00    -0.321 C  
HETATM   23  O   UNL     1      -5.341  16.705  66.363  1.00  0.00    -0.331 OA 
HETATM   24  C   UNL     1      -5.781  19.052  65.947  1.00  0.00    -0.186 C  
HETATM   25  H   UNL     1      -5.421  16.541  65.431  1.00  0.00     0.000 HD 
HETATM   26  C   UNL     1      -6.960  19.226  68.639  1.00  0.00    -0.343 C  
ENDBRANCH   3  15
TORSDOF 2
ENDMDL
MODEL       45
REMARK 921   NORMALIZED FREE ENERGY PREDICTED BY IDOCK:   -5.81 KCAL/MOL
REMARK 922        TOTAL FREE ENERGY PREDICTED BY IDOCK:   -6.95 KCAL/MOL
REMARK 923 INTER-LIGAND FREE ENERGY PREDICTED BY IDOCK:   -6.47 KCAL/MOL
REMARK 924 INTRA-LIGAND FREE ENERGY PREDICTED BY IDOCK:   -0.48 KCAL/MOL
REMARK 927      BINDING AFFINITY PREDICTED BY RF-SCORE:    0.00 PKD
ROOT
HETATM    1  N   UNL     1      -7.414  11.197  65.604  1.00  0.00    -0.363 NA 
HETATM    2  H1  UNL     1      -7.003  10.353  65.204  1.00  0.00     0.000 HD 
HETATM    3  C   UNL     1      -8.850  10.917  65.841  1.00  0.00    -0.186 C  
HETATM    4  H2  UNL     1      -6.927  11.521  66.439  1.00  0.00     0.000 HD 
ENDROOT
BRANCH   3   5
HETATM    5  C   UNL     1      -9.477  12.206  66.452  1.00  0.00    -0.233 C  
HETATM    6  N   UNL     1     -12.138  13.695  68.810  1.00  0.00    -0.348 NA 
HETATM    7  N   UNL     1     -10.519  12.794  65.769  1.00  0.00    -0.271 N  
HETATM    8  O   UNL     1      -9.052  12.682  67.506  1.00  0.00    -0.176 OA 
HETATM    9  C   UNL     1     -11.739  13.769  67.719  1.00  0.00    -0.358 C  
HETATM   10  C   UNL     1     -11.295  13.930  66.320  1.00  0.00    -0.324 C  
HETATM   11  C   UNL     1     -10.786  12.675  64.359  1.00  0.00    -0.359 C  
HETATM   12  C   UNL     1     -12.529  14.003  65.389  1.00  0.00    -0.520 C  
HETATM   13  C   UNL     1     -11.978  11.973  63.803  1.00  0.00    -0.588 C  
HETATM   14  C   UNL     1     -12.048  13.456  64.072  1.00  0.00    -0.506 C  
ENDBRANCH   3   5
BRANCH   3  15
HETATM   15  C   UNL     1      -9.060   9.639  66.731  1.00  0.00    -0.171 C  
HETATM   16  C   UNL     1      -9.116   8.273  69.390  1.00  0.00    -0.154 C  
HETATM   17  C   UNL     1      -8.204   6.879  67.522  1.00  0.00    -0.116 C  
HETATM   18  C   UNL     1      -7.772   9.350  67.566  1.00  0.00    -0.091 C  
HETATM   19  C   UNL     1     -10.404   8.508  68.585  1.00  0.00    -0.198 C  
HETATM   20  C   UNL     1      -9.484   7.117  66.705  1.00  0.00    -0.214 C  
HETATM   21  C   UNL     1     -10.244   9.777  67.728  1.00  0.00    -0.254 C  
HETATM   22  C   UNL     1      -9.319   8.386  65.846  1.00  0.00    -0.205 C  
HETATM   23  O   UNL     1     -11.498   8.685  69.475  1.00  0.00    -0.419 OA 
HETATM   24  C   UNL     1     -10.665   7.305  67.665  1.00  0.00    -0.294 C  
HETATM   25  H   UNL     1     -12.294   8.830  68.977  1.00  0.00     0.000 HD 
HETATM   26  C   UNL     1      -7.932   8.087  68.432  1.00  0.00    -0.120 C  
ENDBRANCH   3  15
TORSDOF 2
ENDMDL
MODEL       46
REMARK 921   NORMALIZED FREE ENERGY PREDICTED BY IDOCK:   -5.72 KCAL/MOL
REMARK 922        TOTAL FREE ENERGY PREDICTED BY IDOCK:   -6.85 KCAL/MOL
REMARK 923 INTER-LIGAND FREE ENERGY PREDICTED BY IDOCK:   -6.24 KCAL/MOL
REMARK 924 INTRA-LIGAND FREE ENERGY PREDICTED BY IDOCK:   -0.61 KCAL/MOL
REMARK 927      BINDING AFFINITY PREDICTED BY RF-SCORE:    0.00 PKD
ROOT
HETATM    1  N   UNL     1      -7.576  10.203  70.626  1.00  0.00    -0.408 NA 
HETATM    2  H1  UNL     1      -7.214   9.507  71.278  1.00  0.00     0.000 HD 
HETATM    3  C   UNL     1      -8.478   9.498  69.685  1.00  0.00    -0.169 C  
HETATM    4  H2  UNL     1      -8.023  10.993  71.092  1.00  0.00     0.000 HD 
ENDROOT
BRANCH   3   5
HETATM    5  C   UNL     1      -9.029  10.562  68.689  1.00  0.00    -0.162 C  
HETATM    6  N   UNL     1     -12.138  12.132  67.037  1.00  0.00    -0.546 NA 
HETATM    7  N   UNL     1      -9.171  10.190  67.371  1.00  0.00    -0.141 N  
HETATM    8  O   UNL     1      -9.322  11.698  69.070  1.00  0.00    -0.023 OA 
HETATM    9  C   UNL     1     -11.109  11.651  66.779  1.00  0.00    -0.309 C  
HETATM   10  C   UNL     1      -9.823  11.058  66.362  1.00  0.00    -0.212 C  
HETATM   11  C   UNL     1      -8.446   9.143  66.700  1.00  0.00    -0.123 C  
HETATM   12  C   UNL     1     -10.057  10.102  65.167  1.00  0.00    -0.329 C  
HETATM   13  C   UNL     1      -9.080   7.887  66.207  1.00  0.00    -0.224 C  
HETATM   14  C   UNL     1      -8.964   9.072  65.282  1.00  0.00    -0.233 C  
ENDBRANCH   3   5
BRANCH   3  15
HETATM   15  C   UNL     1      -9.606   8.703  70.436  1.00  0.00    -0.196 C  
HETATM   16  C   UNL     1     -11.742   8.515  72.519  1.00  0.00    -0.390 C  
HETATM   17  C   UNL     1     -10.412   6.419  72.199  1.00  0.00    -0.234 C  
HETATM   18  C   UNL     1      -9.299   8.655  71.967  1.00  0.00    -0.362 C  
HETATM   19  C   UNL     1     -12.085   8.526  71.021  1.00  0.00    -0.205 C  
HETATM   20  C   UNL     1     -10.741   6.427  70.697  1.00  0.00    -0.310 C  
HETATM   21  C   UNL     1     -11.017   9.331  70.260  1.00  0.00    -0.286 C  
HETATM   22  C   UNL     1      -9.667   7.231  69.938  1.00  0.00    -0.174 C  
HETATM   23  O   UNL     1     -13.353   9.138  70.826  1.00  0.00    -0.532 OA 
HETATM   24  C   UNL     1     -12.110   7.085  70.486  1.00  0.00    -0.278 C  
HETATM   25  H   UNL     1     -13.565   9.144  69.900  1.00  0.00     0.000 HD 
HETATM   26  C   UNL     1     -10.372   7.859  72.732  1.00  0.00    -0.399 C  
ENDBRANCH   3  15
TORSDOF 2
ENDMDL
MODEL       47
REMARK 921   NORMALIZED FREE ENERGY PREDICTED BY IDOCK:   -5.70 KCAL/MOL
REMARK 922        TOTAL FREE ENERGY PREDICTED BY IDOCK:   -6.83 KCAL/MOL
REMARK 923 INTER-LIGAND FREE ENERGY PREDICTED BY IDOCK:   -6.51 KCAL/MOL
REMARK 924 INTRA-LIGAND FREE ENERGY PREDICTED BY IDOCK:   -0.32 KCAL/MOL
REMARK 927      BINDING AFFINITY PREDICTED BY RF-SCORE:    0.00 PKD
ROOT
HETATM    1  N   UNL     1     -13.972   9.346  70.781  1.00  0.00    -0.445 NA 
HETATM    2  H1  UNL     1     -14.206   8.699  71.535  1.00  0.00     0.000 HD 
HETATM    3  C   UNL     1     -12.657   9.944  71.109  1.00  0.00    -0.367 C  
HETATM    4  H2  UNL     1     -13.994   8.910  69.860  1.00  0.00     0.000 HD 
ENDROOT
BRANCH   3   5
HETATM    5  C   UNL     1     -12.300  10.933  69.958  1.00  0.00    -0.313 C  
HETATM    6  N   UNL     1      -9.548  12.980  68.199  1.00  0.00    -0.224 NA 
HETATM    7  N   UNL     1     -12.395  12.281  70.222  1.00  0.00    -0.239 N  
HETATM    8  O   UNL     1     -11.951  10.519  68.851  1.00  0.00    -0.267 OA 
HETATM    9  C   UNL     1     -10.603  13.089  68.679  1.00  0.00    -0.236 C  
HETATM   10  C   UNL     1     -11.940  13.317  69.264  1.00  0.00    -0.303 C  
HETATM   11  C   UNL     1     -13.222  12.895  71.227  1.00  0.00    -0.077 C  
HETATM   12  C   UNL     1     -11.919  14.607  70.118  1.00  0.00    -0.372 C  
HETATM   13  C   UNL     1     -12.679  13.594  72.427  1.00  0.00    -0.202 C  
HETATM   14  C   UNL     1     -12.967  14.384  71.176  1.00  0.00    -0.419 C  
ENDBRANCH   3   5
BRANCH   3  15
HETATM   15  C   UNL     1     -11.557   8.850  71.354  1.00  0.00    -0.382 C  
HETATM   16  C   UNL     1     -10.740   6.065  72.072  1.00  0.00    -0.281 C  
HETATM   17  C   UNL     1      -9.222   7.854  72.946  1.00  0.00    -0.297 C  
HETATM   18  C   UNL     1     -11.692   8.270  72.798  1.00  0.00    -0.305 C  
HETATM   19  C   UNL     1     -10.558   6.609  70.647  1.00  0.00    -0.227 C  
HETATM   20  C   UNL     1      -9.043   8.411  71.525  1.00  0.00    -0.254 C  
HETATM   21  C   UNL     1     -11.647   7.659  70.360  1.00  0.00    -0.138 C  
HETATM   22  C   UNL     1     -10.132   9.465  71.242  1.00  0.00    -0.309 C  
HETATM   23  O   UNL     1     -10.683   5.546  69.711  1.00  0.00    -0.322 OA 
HETATM   24  C   UNL     1      -9.174   7.264  70.515  1.00  0.00    -0.158 C  
HETATM   25  H   UNL     1     -10.571   5.882  68.830  1.00  0.00     0.000 HD 
HETATM   26  C   UNL     1     -10.611   7.212  73.084  1.00  0.00    -0.377 C  
ENDBRANCH   3  15
TORSDOF 2
ENDMDL
MODEL       48
REMARK 921   NORMALIZED FREE ENERGY PREDICTED BY IDOCK:   -5.70 KCAL/MOL
REMARK 922        TOTAL FREE ENERGY PREDICTED BY IDOCK:   -6.82 KCAL/MOL
REMARK 923 INTER-LIGAND FREE ENERGY PREDICTED BY IDOCK:   -6.49 KCAL/MOL
REMARK 924 INTRA-LIGAND FREE ENERGY PREDICTED BY IDOCK:   -0.33 KCAL/MOL
REMARK 927      BINDING AFFINITY PREDICTED BY RF-SCORE:    0.00 PKD
ROOT
HETATM    1  N   UNL     1      -8.102  10.721  64.919  1.00  0.00    -0.358 NA 
HETATM    2  H1  UNL     1      -7.930   9.728  64.761  1.00  0.00     0.000 HD 
HETATM    3  C   UNL     1      -9.405  10.835  65.616  1.00  0.00    -0.207 C  
HETATM    4  H2  UNL     1      -7.342  11.185  65.415  1.00  0.00     0.000 HD 
ENDROOT
BRANCH   3   5
HETATM    5  C   UNL     1      -9.669  12.352  65.856  1.00  0.00    -0.228 C  
HETATM    6  N   UNL     1     -11.631  15.012  67.838  1.00  0.00    -0.340 NA 
HETATM    7  N   UNL     1     -10.649  12.957  65.100  1.00  0.00    -0.294 N  
HETATM    8  O   UNL     1      -9.019  12.986  66.690  1.00  0.00    -0.205 OA 
HETATM    9  C   UNL     1     -11.374  14.688  66.750  1.00  0.00    -0.356 C  
HETATM   10  C   UNL     1     -11.096  14.349  65.340  1.00  0.00    -0.331 C  
HETATM   11  C   UNL     1     -11.119  12.521  63.812  1.00  0.00    -0.448 C  
HETATM   12  C   UNL     1     -12.402  14.451  64.515  1.00  0.00    -0.440 C  
HETATM   13  C   UNL     1     -12.493  11.993  63.572  1.00  0.00    -0.654 C  
HETATM   14  C   UNL     1     -12.222  13.465  63.391  1.00  0.00    -0.419 C  
ENDBRANCH   3   5
BRANCH   3  15
HETATM   15  C   UNL     1      -9.444   9.979  66.933  1.00  0.00    -0.203 C  
HETATM   16  C   UNL     1      -9.287   9.734  69.909  1.00  0.00    -0.262 C  
HETATM   17  C   UNL     1      -8.247   7.836  68.652  1.00  0.00    -0.128 C  
HETATM   18  C   UNL     1      -8.115  10.167  67.734  1.00  0.00    -0.109 C  
HETATM   19  C   UNL     1     -10.608   9.508  69.157  1.00  0.00    -0.222 C  
HETATM   20  C   UNL     1      -9.561   7.609  67.886  1.00  0.00    -0.164 C  
HETATM   21  C   UNL     1     -10.618  10.363  67.877  1.00  0.00    -0.273 C  
HETATM   22  C   UNL     1      -9.566   8.464  66.603  1.00  0.00    -0.294 C  
HETATM   23  O   UNL     1     -11.699   9.896  69.981  1.00  0.00    -0.376 OA 
HETATM   24  C   UNL     1     -10.739   8.024  68.776  1.00  0.00    -0.078 C  
HETATM   25  H   UNL     1     -12.516   9.756  69.516  1.00  0.00     0.000 HD 
HETATM   26  C   UNL     1      -8.107   9.321  69.020  1.00  0.00    -0.106 C  
ENDBRANCH   3  15
TORSDOF 2
ENDMDL
MODEL       49
REMARK 921   NORMALIZED FREE ENERGY PREDICTED BY IDOCK:   -5.69 KCAL/MOL
REMARK 922        TOTAL FREE ENERGY PREDICTED BY IDOCK:   -6.82 KCAL/MOL
REMARK 923 INTER-LIGAND FREE ENERGY PREDICTED BY IDOCK:   -6.44 KCAL/MOL
REMARK 924 INTRA-LIGAND FREE ENERGY PREDICTED BY IDOCK:   -0.38 KCAL/MOL
REMARK 927      BINDING AFFINITY PREDICTED BY RF-SCORE:    0.00 PKD
ROOT
HETATM    1  N   UNL     1     -11.026  15.967  70.161  1.00  0.00    -0.349 NA 
HETATM    2  H1  UNL     1     -11.314  15.039  70.470  1.00  0.00     0.000 HD 
HETATM    3  C   UNL     1      -9.924  15.785  69.188  1.00  0.00    -0.241 C  
HETATM    4  H2  UNL     1     -11.797  16.523  69.791  1.00  0.00     0.000 HD 
ENDROOT
BRANCH   3   5
HETATM    5  C   UNL     1      -9.484  17.203  68.717  1.00  0.00    -0.263 C  
HETATM    6  N   UNL     1      -8.725  19.523  65.734  1.00  0.00    -0.359 NA 
HETATM    7  N   UNL     1      -8.135  17.433  68.556  1.00  0.00    -0.263 N  
HETATM    8  O   UNL     1     -10.315  18.088  68.502  1.00  0.00    -0.373 OA 
HETATM    9  C   UNL     1      -8.262  19.131  66.728  1.00  0.00    -0.280 C  
HETATM   10  C   UNL     1      -7.602  18.686  67.972  1.00  0.00    -0.260 C  
HETATM   11  C   UNL     1      -7.068  16.723  69.211  1.00  0.00    -0.198 C  
HETATM   12  C   UNL     1      -6.122  18.342  67.678  1.00  0.00    -0.172 C  
HETATM   13  C   UNL     1      -6.107  15.837  68.493  1.00  0.00    -0.102 C  
HETATM   14  C   UNL     1      -5.765  17.291  68.697  1.00  0.00    -0.152 C  
ENDBRANCH   3   5
BRANCH   3  15
HETATM   15  C   UNL     1     -10.335  14.835  68.005  1.00  0.00    -0.237 C  
HETATM   16  C   UNL     1     -10.171  12.224  66.559  1.00  0.00    -0.235 C  
HETATM   17  C   UNL     1     -10.345  14.229  65.071  1.00  0.00    -0.448 C  
HETATM   18  C   UNL     1      -9.063  14.374  67.223  1.00  0.00    -0.221 C  
HETATM   19  C   UNL     1     -11.453  12.655  67.288  1.00  0.00    -0.342 C  
HETATM   20  C   UNL     1     -11.622  14.674  65.801  1.00  0.00    -0.328 C  
HETATM   21  C   UNL     1     -11.083  13.558  68.478  1.00  0.00    -0.300 C  
HETATM   22  C   UNL     1     -11.248  15.581  66.990  1.00  0.00    -0.177 C  
HETATM   23  O   UNL     1     -12.135  11.506  67.773  1.00  0.00    -0.626 OA 
HETATM   24  C   UNL     1     -12.360  13.435  66.323  1.00  0.00    -0.410 C  
HETATM   25  H   UNL     1     -12.928  11.772  68.224  1.00  0.00     0.000 HD 
HETATM   26  C   UNL     1      -9.430  13.463  66.038  1.00  0.00    -0.105 C  
ENDBRANCH   3  15
TORSDOF 2
ENDMDL
MODEL       50
REMARK 921   NORMALIZED FREE ENERGY PREDICTED BY IDOCK:   -5.67 KCAL/MOL
REMARK 922        TOTAL FREE ENERGY PREDICTED BY IDOCK:   -6.79 KCAL/MOL
REMARK 923 INTER-LIGAND FREE ENERGY PREDICTED BY IDOCK:   -6.61 KCAL/MOL
REMARK 924 INTRA-LIGAND FREE ENERGY PREDICTED BY IDOCK:   -0.18 KCAL/MOL
REMARK 927      BINDING AFFINITY PREDICTED BY RF-SCORE:    0.00 PKD
ROOT
HETATM    1  N   UNL     1     -10.969  14.783  64.674  1.00  0.00    -0.596 NA 
HETATM    2  H1  UNL     1     -10.367  15.464  64.211  1.00  0.00     0.000 HD 
HETATM    3  C   UNL     1     -10.247  14.305  65.877  1.00  0.00    -0.324 C  
HETATM    4  H2  UNL     1     -11.898  15.147  64.885  1.00  0.00     0.000 HD 
ENDROOT
BRANCH   3   5
HETATM    5  C   UNL     1     -11.166  13.264  66.584  1.00  0.00    -0.306 C  
HETATM    6  N   UNL     1     -12.053  11.445  69.865  1.00  0.00    -0.327 NA 
HETATM    7  N   UNL     1     -10.758  11.949  66.586  1.00  0.00    -0.245 N  
HETATM    8  O   UNL     1     -12.222  13.609  67.119  1.00  0.00    -0.372 OA 
HETATM    9  C   UNL     1     -11.788  11.242  68.749  1.00  0.00    -0.329 C  
HETATM   10  C   UNL     1     -11.464  10.894  67.351  1.00  0.00    -0.091 C  
HETATM   11  C   UNL     1      -9.873  11.333  65.632  1.00  0.00    -0.234 C  
HETATM   12  C   UNL     1     -10.467   9.710  67.330  1.00  0.00    -0.323 C  
HETATM   13  C   UNL     1      -8.509  10.838  65.975  1.00  0.00    -0.169 C  
HETATM   14  C   UNL     1      -9.682   9.894  66.057  1.00  0.00    -0.310 C  
ENDBRANCH   3   5
BRANCH   3  15
HETATM   15  C   UNL     1      -9.813  15.491  66.812  1.00  0.00    -0.252 C  
HETATM   16  C   UNL     1      -8.591  18.186  67.237  1.00  0.00    -0.240 C  
HETATM   17  C   UNL     1      -8.092  16.521  69.038  1.00  0.00    -0.214 C  
HETATM   18  C   UNL     1      -8.284  15.766  66.653  1.00  0.00    -0.305 C  
HETATM   19  C   UNL     1     -10.096  17.951  67.437  1.00  0.00    -0.340 C  
HETATM   20  C   UNL     1      -9.595  16.271  69.238  1.00  0.00    -0.220 C  
HETATM   21  C   UNL     1     -10.563  16.817  66.505  1.00  0.00    -0.198 C  
HETATM   22  C   UNL     1     -10.058  15.133  68.306  1.00  0.00    -0.223 C  
HETATM   23  O   UNL     1     -10.812  19.136  67.117  1.00  0.00    -0.464 OA 
HETATM   24  C   UNL     1     -10.368  17.551  68.896  1.00  0.00    -0.338 C  
HETATM   25  H   UNL     1     -11.743  18.991  67.241  1.00  0.00     0.000 HD 
HETATM   26  C   UNL     1      -7.816  16.906  67.576  1.00  0.00    -0.186 C  
ENDBRANCH   3  15
TORSDOF 2
ENDMDL
MODEL       51
REMARK 921   NORMALIZED FREE ENERGY PREDICTED BY IDOCK:   -5.66 KCAL/MOL
REMARK 922        TOTAL FREE ENERGY PREDICTED BY IDOCK:   -6.79 KCAL/MOL
REMARK 923 INTER-LIGAND FREE ENERGY PREDICTED BY IDOCK:   -6.58 KCAL/MOL
REMARK 924 INTRA-LIGAND FREE ENERGY PREDICTED BY IDOCK:   -0.21 KCAL/MOL
REMARK 927      BINDING AFFINITY PREDICTED BY RF-SCORE:    0.00 PKD
ROOT
HETATM    1  N   UNL     1      -7.449  15.208  67.584  1.00  0.00    -0.163 NA 
HETATM    2  H1  UNL     1      -7.016  15.642  68.400  1.00  0.00     0.000 HD 
HETATM    3  C   UNL     1      -8.855  15.672  67.533  1.00  0.00    -0.181 C  
HETATM    4  H2  UNL     1      -6.938  15.387  66.719  1.00  0.00     0.000 HD 
ENDROOT
BRANCH   3   5
HETATM    5  C   UNL     1      -9.515  15.009  66.287  1.00  0.00    -0.311 C  
HETATM    6  N   UNL     1     -12.523  14.950  63.877  1.00  0.00    -0.769 NA 
HETATM    7  N   UNL     1     -10.343  13.929  66.501  1.00  0.00    -0.281 N  
HETATM    8  O   UNL     1      -9.299  15.436  65.151  1.00  0.00     0.022 OA 
HETATM    9  C   UNL     1     -11.892  14.258  64.569  1.00  0.00    -0.442 C  
HETATM   10  C   UNL     1     -11.145  13.310  65.419  1.00  0.00    -0.282 C  
HETATM   11  C   UNL     1     -10.304  13.040  67.632  1.00  0.00    -0.222 C  
HETATM   12  C   UNL     1     -12.140  12.406  66.186  1.00  0.00    -0.295 C  
HETATM   13  C   UNL     1     -11.389  12.954  68.651  1.00  0.00    -0.327 C  
HETATM   14  C   UNL     1     -11.420  12.035  67.456  1.00  0.00    -0.403 C  
ENDBRANCH   3   5
BRANCH   3  15
HETATM   15  C   UNL     1      -8.958  17.240  67.534  1.00  0.00    -0.222 C  
HETATM   16  C   UNL     1      -9.466  19.837  66.142  1.00  0.00    -0.464 C  
HETATM   17  C   UNL     1      -7.636  19.910  67.848  1.00  0.00    -0.336 C  
HETATM   18  C   UNL     1      -7.983  17.841  66.473  1.00  0.00    -0.299 C  
HETATM   19  C   UNL     1     -10.435  19.297  67.206  1.00  0.00    -0.462 C  
HETATM   20  C   UNL     1      -8.595  19.360  68.917  1.00  0.00    -0.326 C  
HETATM   21  C   UNL     1     -10.386  17.758  67.206  1.00  0.00    -0.364 C  
HETATM   22  C   UNL     1      -8.541  17.819  68.916  1.00  0.00    -0.127 C  
HETATM   23  O   UNL     1     -11.759  19.718  66.904  1.00  0.00     0.524 OA 
HETATM   24  C   UNL     1     -10.023  19.817  68.593  1.00  0.00    -0.535 C  
HETATM   25  H   UNL     1     -12.357  19.384  67.561  1.00  0.00     0.000 HD 
HETATM   26  C   UNL     1      -8.037  19.380  66.464  1.00  0.00    -0.315 C  
ENDBRANCH   3  15
TORSDOF 2
ENDMDL
MODEL       52
REMARK 921   NORMALIZED FREE ENERGY PREDICTED BY IDOCK:   -5.66 KCAL/MOL
REMARK 922        TOTAL FREE ENERGY PREDICTED BY IDOCK:   -6.78 KCAL/MOL
REMARK 923 INTER-LIGAND FREE ENERGY PREDICTED BY IDOCK:   -6.21 KCAL/MOL
REMARK 924 INTRA-LIGAND FREE ENERGY PREDICTED BY IDOCK:   -0.57 KCAL/MOL
REMARK 927      BINDING AFFINITY PREDICTED BY RF-SCORE:    0.00 PKD
ROOT
HETATM    1  N   UNL     1      -7.270  11.293  65.759  1.00  0.00    -0.357 NA 
HETATM    2  H1  UNL     1      -6.834  10.465  65.354  1.00  0.00     0.000 HD 
HETATM    3  C   UNL     1      -8.722  11.018  65.863  1.00  0.00    -0.178 C  
HETATM    4  H2  UNL     1      -6.852  11.572  66.646  1.00  0.00     0.000 HD 
ENDROOT
BRANCH   3   5
HETATM    5  C   UNL     1      -9.389  12.283  66.481  1.00  0.00    -0.230 C  
HETATM    6  N   UNL     1     -12.154  13.681  68.775  1.00  0.00    -0.348 NA 
HETATM    7  N   UNL     1     -10.412  12.876  65.774  1.00  0.00    -0.274 N  
HETATM    8  O   UNL     1      -9.009  12.739  67.561  1.00  0.00    -0.174 OA 
HETATM    9  C   UNL     1     -11.716  13.787  67.701  1.00  0.00    -0.367 C  
HETATM   10  C   UNL     1     -11.223  13.988  66.324  1.00  0.00    -0.320 C  
HETATM   11  C   UNL     1     -10.626  12.789  64.353  1.00  0.00    -0.379 C  
HETATM   12  C   UNL     1     -12.424  14.069  65.350  1.00  0.00    -0.520 C  
HETATM   13  C   UNL     1     -11.788  12.086  63.737  1.00  0.00    -0.581 C  
HETATM   14  C   UNL     1     -11.888  13.560  64.038  1.00  0.00    -0.476 C  
ENDBRANCH   3   5
BRANCH   3  15
HETATM   15  C   UNL     1      -9.016   9.702  66.669  1.00  0.00    -0.166 C  
HETATM   16  C   UNL     1      -8.236   6.976  67.617  1.00  0.00    -0.117 C  
HETATM   17  C   UNL     1     -10.662   7.228  67.055  1.00  0.00    -0.406 C  
HETATM   18  C   UNL     1      -8.934   8.463  65.721  1.00  0.00    -0.207 C  
HETATM   19  C   UNL     1      -8.338   8.161  68.589  1.00  0.00    -0.126 C  
HETATM   20  C   UNL     1     -10.772   8.422  68.018  1.00  0.00    -0.118 C  
HETATM   21  C   UNL     1      -8.018   9.466  67.837  1.00  0.00    -0.092 C  
HETATM   22  C   UNL     1     -10.455   9.727  67.261  1.00  0.00    -0.324 C  
HETATM   23  O   UNL     1      -7.402   7.994  69.645  1.00  0.00    -0.080 OA 
HETATM   24  C   UNL     1      -9.763   8.241  69.159  1.00  0.00    -0.171 C  
HETATM   25  H   UNL     1      -7.465   8.727  70.247  1.00  0.00     0.000 HD 
HETATM   26  C   UNL     1      -9.243   7.156  66.473  1.00  0.00    -0.199 C  
ENDBRANCH   3  15
TORSDOF 2
ENDMDL
MODEL       53
REMARK 921   NORMALIZED FREE ENERGY PREDICTED BY IDOCK:   -5.60 KCAL/MOL
REMARK 922        TOTAL FREE ENERGY PREDICTED BY IDOCK:   -6.72 KCAL/MOL
REMARK 923 INTER-LIGAND FREE ENERGY PREDICTED BY IDOCK:   -7.96 KCAL/MOL
REMARK 924 INTRA-LIGAND FREE ENERGY PREDICTED BY IDOCK:    1.25 KCAL/MOL
REMARK 927      BINDING AFFINITY PREDICTED BY RF-SCORE:    0.00 PKD
ROOT
HETATM    1  N   UNL     1     -10.254  16.572  68.659  1.00  0.00    -0.248 NA 
HETATM    2  H1  UNL     1     -10.903  15.974  69.169  1.00  0.00     0.000 HD 
HETATM    3  C   UNL     1      -9.380  15.687  67.854  1.00  0.00    -0.195 C  
HETATM    4  H2  UNL     1     -10.722  17.286  68.101  1.00  0.00     0.000 HD 
ENDROOT
BRANCH   3   5
HETATM    5  C   UNL     1      -8.387  16.602  67.075  1.00  0.00    -0.187 C  
HETATM    6  N   UNL     1      -5.582  19.236  67.289  1.00  0.00    -0.171 NA 
HETATM    7  N   UNL     1      -8.819  17.862  66.727  1.00  0.00    -0.251 N  
HETATM    8  O   UNL     1      -7.258  16.206  66.779  1.00  0.00    -0.214 OA 
HETATM    9  C   UNL     1      -6.617  19.041  66.794  1.00  0.00    -0.189 C  
HETATM   10  C   UNL     1      -7.922  18.875  66.122  1.00  0.00    -0.235 C  
HETATM   11  C   UNL     1     -10.187  18.274  66.552  1.00  0.00    -0.394 C  
HETATM   12  C   UNL     1      -8.735  20.187  66.239  1.00  0.00    -0.283 C  
HETATM   13  C   UNL     1     -10.876  19.244  67.451  1.00  0.00    -0.554 C  
HETATM   14  C   UNL     1     -10.176  19.748  66.214  1.00  0.00    -0.615 C  
ENDBRANCH   3   5
BRANCH   3  15
HETATM   15  C   UNL     1     -10.210  14.732  66.921  1.00  0.00    -0.257 C  
HETATM   16  C   UNL     1     -12.755  13.953  65.561  1.00  0.00    -0.536 C  
HETATM   17  C   UNL     1     -11.391  12.029  66.397  1.00  0.00    -0.411 C  
HETATM   18  C   UNL     1     -11.450  14.177  67.691  1.00  0.00    -0.364 C  
HETATM   19  C   UNL     1     -11.546  14.463  64.762  1.00  0.00    -0.408 C  
HETATM   20  C   UNL     1     -10.172  12.537  65.610  1.00  0.00    -0.287 C  
HETATM   21  C   UNL     1     -10.730  15.433  65.636  1.00  0.00    -0.381 C  
HETATM   22  C   UNL     1      -9.356  13.505  66.490  1.00  0.00    -0.227 C  
HETATM   23  O   UNL     1     -11.995  15.151  63.602  1.00  0.00    -0.811 OA 
HETATM   24  C   UNL     1     -10.656  13.277  64.357  1.00  0.00    -0.438 C  
HETATM   25  H   UNL     1     -11.247  15.466  63.108  1.00  0.00     0.000 HD 
HETATM   26  C   UNL     1     -12.273  13.214  66.816  1.00  0.00    -0.306 C  
ENDBRANCH   3  15
TORSDOF 2
ENDMDL
MODEL       54
REMARK 921   NORMALIZED FREE ENERGY PREDICTED BY IDOCK:   -5.55 KCAL/MOL
REMARK 922        TOTAL FREE ENERGY PREDICTED BY IDOCK:   -6.66 KCAL/MOL
REMARK 923 INTER-LIGAND FREE ENERGY PREDICTED BY IDOCK:   -6.04 KCAL/MOL
REMARK 924 INTRA-LIGAND FREE ENERGY PREDICTED BY IDOCK:   -0.62 KCAL/MOL
REMARK 927      BINDING AFFINITY PREDICTED BY RF-SCORE:    0.00 PKD
ROOT
HETATM    1  N   UNL     1      -6.806  13.348  67.870  1.00  0.00    -0.126 NA 
HETATM    2  H1  UNL     1      -6.931  14.212  68.399  1.00  0.00     0.000 HD 
HETATM    3  C   UNL     1      -8.117  12.658  67.839  1.00  0.00    -0.165 C  
HETATM    4  H2  UNL     1      -6.413  13.502  66.942  1.00  0.00     0.000 HD 
ENDROOT
BRANCH   3   5
HETATM    5  C   UNL     1      -7.924  11.339  67.032  1.00  0.00    -0.150 C  
HETATM    6  N   UNL     1      -8.756   9.365  63.827  1.00  0.00    -0.216 NA 
HETATM    7  N   UNL     1      -8.818  10.316  67.259  1.00  0.00    -0.132 N  
HETATM    8  O   UNL     1      -7.002  11.217  66.224  1.00  0.00    -0.123 OA 
HETATM    9  C   UNL     1      -8.776   9.275  64.988  1.00  0.00    -0.190 C  
HETATM   10  C   UNL     1      -8.833   9.074  66.450  1.00  0.00    -0.146 C  
HETATM   11  C   UNL     1      -9.592  10.112  68.456  1.00  0.00    -0.154 C  
HETATM   12  C   UNL     1     -10.182   8.417  66.831  1.00  0.00    -0.383 C  
HETATM   13  C   UNL     1     -11.077  10.240  68.508  1.00  0.00    -0.294 C  
HETATM   14  C   UNL     1     -10.457   8.893  68.232  1.00  0.00    -0.243 C  
ENDBRANCH   3   5
BRANCH   3  15
HETATM   15  C   UNL     1      -9.253  13.579  67.266  1.00  0.00    -0.233 C  
HETATM   16  C   UNL     1     -12.094  14.048  66.459  1.00  0.00    -0.488 C  
HETATM   17  C   UNL     1     -10.397  15.143  64.980  1.00  0.00    -0.377 C  
HETATM   18  C   UNL     1      -9.903  12.911  66.012  1.00  0.00    -0.256 C  
HETATM   19  C   UNL     1     -11.483  14.753  67.681  1.00  0.00    -0.347 C  
HETATM   20  C   UNL     1      -9.772  15.844  66.198  1.00  0.00    -0.351 C  
HETATM   21  C   UNL     1     -10.388  13.858  68.290  1.00  0.00    -0.249 C  
HETATM   22  C   UNL     1      -8.674  14.947  66.804  1.00  0.00    -0.278 C  
HETATM   23  O   UNL     1     -12.492  14.978  68.656  1.00  0.00    -0.578 OA 
HETATM   24  C   UNL     1     -10.861  16.091  67.249  1.00  0.00    -0.255 C  
HETATM   25  H   UNL     1     -12.114  15.414  69.411  1.00  0.00     0.000 HD 
HETATM   26  C   UNL     1     -11.005  13.799  65.407  1.00  0.00    -0.309 C  
ENDBRANCH   3  15
TORSDOF 2
ENDMDL
MODEL       55
REMARK 921   NORMALIZED FREE ENERGY PREDICTED BY IDOCK:   -5.55 KCAL/MOL
REMARK 922        TOTAL FREE ENERGY PREDICTED BY IDOCK:   -6.66 KCAL/MOL
REMARK 923 INTER-LIGAND FREE ENERGY PREDICTED BY IDOCK:   -6.83 KCAL/MOL
REMARK 924 INTRA-LIGAND FREE ENERGY PREDICTED BY IDOCK:    0.17 KCAL/MOL
REMARK 927      BINDING AFFINITY PREDICTED BY RF-SCORE:    0.00 PKD
ROOT
HETATM    1  N   UNL     1     -11.693  12.794  70.367  1.00  0.00    -0.541 NA 
HETATM    2  H1  UNL     1     -12.262  13.533  69.956  1.00  0.00     0.000 HD 
HETATM    3  C   UNL     1     -11.653  11.678  69.393  1.00  0.00    -0.327 C  
HETATM    4  H2  UNL     1     -10.766  13.112  70.648  1.00  0.00     0.000 HD 
ENDROOT
BRANCH   3   5
HETATM    5  C   UNL     1     -10.783  10.548  70.022  1.00  0.00    -0.224 C  
HETATM    6  N   UNL     1      -9.398   6.968  69.670  1.00  0.00    -0.149 NA 
HETATM    7  N   UNL     1     -11.408   9.654  70.864  1.00  0.00    -0.329 N  
HETATM    8  O   UNL     1      -9.578  10.462  69.776  1.00  0.00    -0.165 OA 
HETATM    9  C   UNL     1      -9.983   7.654  70.407  1.00  0.00    -0.188 C  
HETATM   10  C   UNL     1     -10.727   8.453  71.401  1.00  0.00    -0.237 C  
HETATM   11  C   UNL     1     -12.612   9.894  71.615  1.00  0.00    -0.424 C  
HETATM   12  C   UNL     1     -11.891   7.611  71.977  1.00  0.00    -0.342 C  
HETATM   13  C   UNL     1     -13.901   9.194  71.350  1.00  0.00    -0.288 C  
HETATM   14  C   UNL     1     -12.940   8.621  72.361  1.00  0.00    -0.403 C  
ENDBRANCH   3   5
BRANCH   3  15
HETATM   15  C   UNL     1     -11.142  12.146  67.983  1.00  0.00    -0.292 C  
HETATM   16  C   UNL     1     -10.330  14.290  66.065  1.00  0.00    -0.318 C  
HETATM   17  C   UNL     1     -11.592  12.392  65.031  1.00  0.00    -0.392 C  
HETATM   18  C   UNL     1     -12.157  13.153  67.354  1.00  0.00    -0.316 C  
HETATM   19  C   UNL     1      -9.305  13.298  66.635  1.00  0.00    -0.242 C  
HETATM   20  C   UNL     1     -10.578  11.390  65.606  1.00  0.00    -0.314 C  
HETATM   21  C   UNL     1      -9.757  12.847  68.036  1.00  0.00    -0.224 C  
HETATM   22  C   UNL     1     -11.035  10.939  67.007  1.00  0.00    -0.310 C  
HETATM   23  O   UNL     1      -8.035  13.928  66.739  1.00  0.00    -0.357 OA 
HETATM   24  C   UNL     1      -9.207  12.070  65.715  1.00  0.00    -0.064 C  
HETATM   25  H   UNL     1      -7.402  13.315  67.091  1.00  0.00     0.000 HD 
HETATM   26  C   UNL     1     -11.703  13.613  65.957  1.00  0.00    -0.383 C  
ENDBRANCH   3  15
TORSDOF 2
ENDMDL
MODEL       56
REMARK 921   NORMALIZED FREE ENERGY PREDICTED BY IDOCK:   -5.55 KCAL/MOL
REMARK 922        TOTAL FREE ENERGY PREDICTED BY IDOCK:   -6.66 KCAL/MOL
REMARK 923 INTER-LIGAND FREE ENERGY PREDICTED BY IDOCK:   -5.98 KCAL/MOL
REMARK 924 INTRA-LIGAND FREE ENERGY PREDICTED BY IDOCK:   -0.68 KCAL/MOL
REMARK 927      BINDING AFFINITY PREDICTED BY RF-SCORE:    0.00 PKD
ROOT
HETATM    1  N   UNL     1     -11.157  13.247  69.680  1.00  0.00    -0.466 NA 
HETATM    2  H1  UNL     1     -11.729  14.053  69.930  1.00  0.00     0.000 HD 
HETATM    3  C   UNL     1     -10.773  13.405  68.258  1.00  0.00    -0.258 C  
HETATM    4  H2  UNL     1     -10.356  13.118  70.298  1.00  0.00     0.000 HD 
ENDROOT
BRANCH   3   5
HETATM    5  C   UNL     1      -9.898  12.173  67.876  1.00  0.00    -0.199 C  
HETATM    6  N   UNL     1      -6.529  10.910  66.492  1.00  0.00    -0.117 NA 
HETATM    7  N   UNL     1     -10.004  11.688  66.591  1.00  0.00    -0.200 N  
HETATM    8  O   UNL     1      -9.144  11.649  68.699  1.00  0.00    -0.173 OA 
HETATM    9  C   UNL     1      -7.679  10.810  66.333  1.00  0.00    -0.145 C  
HETATM   10  C   UNL     1      -9.119  10.622  66.064  1.00  0.00    -0.180 C  
HETATM   11  C   UNL     1     -11.134  11.844  65.714  1.00  0.00    -0.317 C  
HETATM   12  C   UNL     1      -9.372  10.671  64.538  1.00  0.00    -0.284 C  
HETATM   13  C   UNL     1     -11.101  12.657  64.464  1.00  0.00    -0.365 C  
HETATM   14  C   UNL     1     -10.780  11.185  64.400  1.00  0.00    -0.388 C  
ENDBRANCH   3   5
BRANCH   3  15
HETATM   15  C   UNL     1     -10.062  14.780  67.989  1.00  0.00    -0.218 C  
HETATM   16  C   UNL     1      -8.022  16.857  68.669  1.00  0.00    -0.256 C  
HETATM   17  C   UNL     1     -10.204  17.770  67.850  1.00  0.00    -0.362 C  
HETATM   18  C   UNL     1     -10.164  15.691  69.254  1.00  0.00    -0.250 C  
HETATM   19  C   UNL     1      -7.901  16.004  67.396  1.00  0.00    -0.161 C  
HETATM   20  C   UNL     1     -10.097  16.913  66.578  1.00  0.00    -0.320 C  
HETATM   21  C   UNL     1      -8.556  14.632  67.638  1.00  0.00    -0.182 C  
HETATM   22  C   UNL     1     -10.757  15.541  66.823  1.00  0.00    -0.305 C  
HETATM   23  O   UNL     1      -6.530  15.813  67.077  1.00  0.00    -0.299 OA 
HETATM   24  C   UNL     1      -8.617  16.708  66.232  1.00  0.00    -0.359 C  
HETATM   25  H   UNL     1      -6.455  15.286  66.290  1.00  0.00     0.000 HD 
HETATM   26  C   UNL     1      -9.502  17.061  69.018  1.00  0.00    -0.177 C  
ENDBRANCH   3  15
TORSDOF 2
ENDMDL
MODEL       57
REMARK 921   NORMALIZED FREE ENERGY PREDICTED BY IDOCK:   -5.54 KCAL/MOL
REMARK 922        TOTAL FREE ENERGY PREDICTED BY IDOCK:   -6.65 KCAL/MOL
REMARK 923 INTER-LIGAND FREE ENERGY PREDICTED BY IDOCK:   -6.15 KCAL/MOL
REMARK 924 INTRA-LIGAND FREE ENERGY PREDICTED BY IDOCK:   -0.50 KCAL/MOL
REMARK 927      BINDING AFFINITY PREDICTED BY RF-SCORE:    0.00 PKD
ROOT
HETATM    1  N   UNL     1      -9.095  11.113  68.887  1.00  0.00    -0.335 NA 
HETATM    2  H1  UNL     1      -9.808  11.648  69.382  1.00  0.00     0.000 HD 
HETATM    3  C   UNL     1      -9.731  10.551  67.672  1.00  0.00    -0.165 C  
HETATM    4  H2  UNL     1      -8.257  11.656  68.684  1.00  0.00     0.000 HD 
ENDROOT
BRANCH   3   5
HETATM    5  C   UNL     1      -8.641   9.733  66.916  1.00  0.00    -0.124 C  
HETATM    6  N   UNL     1      -7.354   8.438  63.522  1.00  0.00    -0.102 NA 
HETATM    7  N   UNL     1      -8.857   8.383  66.750  1.00  0.00    -0.133 N  
HETATM    8  O   UNL     1      -7.622  10.277  66.488  1.00  0.00    -0.105 OA 
HETATM    9  C   UNL     1      -7.638   8.075  64.591  1.00  0.00    -0.111 C  
HETATM   10  C   UNL     1      -7.973   7.529  65.921  1.00  0.00    -0.117 C  
HETATM   11  C   UNL     1      -9.688   7.547  67.576  1.00  0.00    -0.150 C  
HETATM   12  C   UNL     1      -8.790   6.225  65.756  1.00  0.00    -0.122 C  
HETATM   13  C   UNL     1     -10.950   6.912  67.099  1.00  0.00    -0.427 C  
HETATM   14  C   UNL     1      -9.651   6.154  66.989  1.00  0.00    -0.153 C  
ENDBRANCH   3   5
BRANCH   3  15
HETATM   15  C   UNL     1     -10.399  11.666  66.789  1.00  0.00    -0.257 C  
HETATM   16  C   UNL     1     -10.349  13.565  64.480  1.00  0.00    -0.381 C  
HETATM   17  C   UNL     1     -11.477  14.450  66.532  1.00  0.00    -0.369 C  
HETATM   18  C   UNL     1      -9.489  12.935  66.751  1.00  0.00    -0.245 C  
HETATM   19  C   UNL     1     -11.284  12.346  64.493  1.00  0.00    -0.323 C  
HETATM   20  C   UNL     1     -12.411  13.228  66.559  1.00  0.00    -0.311 C  
HETATM   21  C   UNL     1     -10.641  11.218  65.321  1.00  0.00    -0.323 C  
HETATM   22  C   UNL     1     -11.765  12.103  67.392  1.00  0.00    -0.374 C  
HETATM   23  O   UNL     1     -11.486  11.885  63.163  1.00  0.00    -0.673 OA 
HETATM   24  C   UNL     1     -12.631  12.733  65.124  1.00  0.00    -0.513 C  
HETATM   25  H   UNL     1     -12.065  11.132  63.171  1.00  0.00     0.000 HD 
HETATM   26  C   UNL     1     -10.125  14.061  65.915  1.00  0.00    -0.336 C  
ENDBRANCH   3  15
TORSDOF 2
ENDMDL
MODEL       58
REMARK 921   NORMALIZED FREE ENERGY PREDICTED BY IDOCK:   -5.54 KCAL/MOL
REMARK 922        TOTAL FREE ENERGY PREDICTED BY IDOCK:   -6.65 KCAL/MOL
REMARK 923 INTER-LIGAND FREE ENERGY PREDICTED BY IDOCK:   -6.16 KCAL/MOL
REMARK 924 INTRA-LIGAND FREE ENERGY PREDICTED BY IDOCK:   -0.49 KCAL/MOL
REMARK 927      BINDING AFFINITY PREDICTED BY RF-SCORE:    0.00 PKD
ROOT
HETATM    1  N   UNL     1     -12.715  10.705  69.488  1.00  0.00    -0.617 NA 
HETATM    2  H1  UNL     1     -12.558  10.127  70.313  1.00  0.00     0.000 HD 
HETATM    3  C   UNL     1     -11.465  11.459  69.234  1.00  0.00    -0.303 C  
HETATM    4  H2  UNL     1     -13.029  10.170  68.679  1.00  0.00     0.000 HD 
ENDROOT
BRANCH   3   5
HETATM    5  C   UNL     1     -11.707  12.343  67.974  1.00  0.00    -0.356 C  
HETATM    6  N   UNL     1     -10.208  13.867  64.766  1.00  0.00    -0.390 NA 
HETATM    7  N   UNL     1     -11.478  13.696  68.089  1.00  0.00    -0.292 N  
HETATM    8  O   UNL     1     -12.093  11.846  66.914  1.00  0.00    -0.599 OA 
HETATM    9  C   UNL     1     -10.788  14.159  65.732  1.00  0.00    -0.297 C  
HETATM   10  C   UNL     1     -11.525  14.616  66.927  1.00  0.00    -0.363 C  
HETATM   11  C   UNL     1     -11.518  14.465  69.305  1.00  0.00    -0.285 C  
HETATM   12  C   UNL     1     -10.877  15.911  67.472  1.00  0.00    -0.305 C  
HETATM   13  C   UNL     1     -10.316  15.102  69.916  1.00  0.00    -0.207 C  
HETATM   14  C   UNL     1     -11.165  15.891  68.950  1.00  0.00    -0.343 C  
ENDBRANCH   3   5
BRANCH   3  15
HETATM   15  C   UNL     1     -10.221  10.509  69.101  1.00  0.00    -0.241 C  
HETATM   16  C   UNL     1      -8.070   9.215  67.478  1.00  0.00    -0.104 C  
HETATM   17  C   UNL     1      -9.054   7.754  69.256  1.00  0.00    -0.145 C  
HETATM   18  C   UNL     1     -10.508   9.398  68.041  1.00  0.00    -0.278 C  
HETATM   19  C   UNL     1      -7.742  10.280  68.535  1.00  0.00    -0.091 C  
HETATM   20  C   UNL     1      -8.739   8.819  70.320  1.00  0.00    -0.170 C  
HETATM   21  C   UNL     1      -8.929  11.253  68.664  1.00  0.00    -0.148 C  
HETATM   22  C   UNL     1      -9.931   9.788  70.449  1.00  0.00    -0.294 C  
HETATM   23  O   UNL     1      -6.588  11.009  68.137  1.00  0.00    -0.057 OA 
HETATM   24  C   UNL     1      -7.493   9.603  69.892  1.00  0.00    -0.127 C  
HETATM   25  H   UNL     1      -6.385  11.667  68.791  1.00  0.00     0.000 HD 
HETATM   26  C   UNL     1      -9.319   8.430  67.903  1.00  0.00    -0.147 C  
ENDBRANCH   3  15
TORSDOF 2
ENDMDL
MODEL       59
REMARK 921   NORMALIZED FREE ENERGY PREDICTED BY IDOCK:   -5.52 KCAL/MOL
REMARK 922        TOTAL FREE ENERGY PREDICTED BY IDOCK:   -6.62 KCAL/MOL
REMARK 923 INTER-LIGAND FREE ENERGY PREDICTED BY IDOCK:   -6.00 KCAL/MOL
REMARK 924 INTRA-LIGAND FREE ENERGY PREDICTED BY IDOCK:   -0.63 KCAL/MOL
REMARK 927      BINDING AFFINITY PREDICTED BY RF-SCORE:    0.00 PKD
ROOT
HETATM    1  N   UNL     1     -11.117   9.783  68.156  1.00  0.00    -0.504 NA 
HETATM    2  H1  UNL     1     -12.093  10.059  68.262  1.00  0.00     0.000 HD 
HETATM    3  C   UNL     1     -10.644  10.330  66.862  1.00  0.00    -0.217 C  
HETATM    4  H2  UNL     1     -10.534  10.064  68.944  1.00  0.00     0.000 HD 
ENDROOT
BRANCH   3   5
HETATM    5  C   UNL     1      -9.153   9.908  66.700  1.00  0.00    -0.147 C  
HETATM    6  N   UNL     1      -5.480  11.056  66.476  1.00  0.00    -0.091 NA 
HETATM    7  N   UNL     1      -8.649   9.821  65.420  1.00  0.00    -0.141 N  
HETATM    8  O   UNL     1      -8.453   9.657  67.683  1.00  0.00    -0.124 OA 
HETATM    9  C   UNL     1      -6.273  10.414  65.915  1.00  0.00    -0.118 C  
HETATM   10  C   UNL     1      -7.214   9.579  65.142  1.00  0.00    -0.108 C  
HETATM   11  C   UNL     1      -9.411   9.594  64.221  1.00  0.00    -0.114 C  
HETATM   12  C   UNL     1      -7.082   9.909  63.636  1.00  0.00    -0.121 C  
HETATM   13  C   UNL     1      -9.573  10.612  63.143  1.00  0.00    -0.382 C  
HETATM   14  C   UNL     1      -8.443   9.617  63.060  1.00  0.00    -0.184 C  
ENDBRANCH   3   5
BRANCH   3  15
HETATM   15  C   UNL     1     -10.868  11.881  66.761  1.00  0.00    -0.307 C  
HETATM   16  C   UNL     1     -12.658  14.267  66.553  1.00  0.00    -0.087 C  
HETATM   17  C   UNL     1     -10.535  14.440  65.238  1.00  0.00    -0.410 C  
HETATM   18  C   UNL     1     -11.684  12.222  65.474  1.00  0.00    -0.433 C  
HETATM   19  C   UNL     1     -11.845  13.986  67.827  1.00  0.00    -0.384 C  
HETATM   20  C   UNL     1      -9.714  14.149  66.504  1.00  0.00    -0.307 C  
HETATM   21  C   UNL     1     -11.640  12.468  67.976  1.00  0.00    -0.395 C  
HETATM   22  C   UNL     1      -9.507  12.628  66.648  1.00  0.00    -0.244 C  
HETATM   23  O   UNL     1     -12.551  14.471  68.961  1.00  0.00    -0.568 OA 
HETATM   24  C   UNL     1     -10.474  14.675  67.728  1.00  0.00    -0.246 C  
HETATM   25  H   UNL     1     -12.049  14.298  69.748  1.00  0.00     0.000 HD 
HETATM   26  C   UNL     1     -11.899  13.740  65.328  1.00  0.00    -0.365 C  
ENDBRANCH   3  15
TORSDOF 2
ENDMDL
MODEL       60
REMARK 921   NORMALIZED FREE ENERGY PREDICTED BY IDOCK:   -5.51 KCAL/MOL
REMARK 922        TOTAL FREE ENERGY PREDICTED BY IDOCK:   -6.61 KCAL/MOL
REMARK 923 INTER-LIGAND FREE ENERGY PREDICTED BY IDOCK:   -6.01 KCAL/MOL
REMARK 924 INTRA-LIGAND FREE ENERGY PREDICTED BY IDOCK:   -0.61 KCAL/MOL
REMARK 927      BINDING AFFINITY PREDICTED BY RF-SCORE:    0.00 PKD
ROOT
HETATM    1  N   UNL     1     -12.320  10.527  69.826  1.00  0.00    -0.536 NA 
HETATM    2  H1  UNL     1     -13.171  11.044  69.605  1.00  0.00     0.000 HD 
HETATM    3  C   UNL     1     -11.474  10.534  68.610  1.00  0.00    -0.223 C  
HETATM    4  H2  UNL     1     -11.838  10.885  70.650  1.00  0.00     0.000 HD 
ENDROOT
BRANCH   3   5
HETATM    5  C   UNL     1     -10.174   9.744  68.947  1.00  0.00    -0.200 C  
HETATM    6  N   UNL     1      -6.355   9.878  69.456  1.00  0.00    -0.044 NA 
HETATM    7  N   UNL     1      -9.481   9.176  67.901  1.00  0.00    -0.140 N  
HETATM    8  O   UNL     1      -9.784   9.629  70.111  1.00  0.00    -0.226 OA 
HETATM    9  C   UNL     1      -7.179   9.308  68.863  1.00  0.00    -0.073 C  
HETATM   10  C   UNL     1      -8.158   8.532  68.075  1.00  0.00    -0.115 C  
HETATM   11  C   UNL     1     -10.029   8.799  66.624  1.00  0.00    -0.285 C  
HETATM   12  C   UNL     1      -7.645   8.374  66.623  1.00  0.00    -0.089 C  
HETATM   13  C   UNL     1      -9.669   9.472  65.343  1.00  0.00    -0.314 C  
HETATM   14  C   UNL     1      -8.892   8.258  65.787  1.00  0.00    -0.194 C  
ENDBRANCH   3   5
BRANCH   3  15
HETATM   15  C   UNL     1     -11.200  11.991  68.091  1.00  0.00    -0.316 C  
HETATM   16  C   UNL     1     -12.119  14.548  66.843  1.00  0.00    -0.309 C  
HETATM   17  C   UNL     1      -9.821  13.825  66.163  1.00  0.00    -0.310 C  
HETATM   18  C   UNL     1     -11.601  12.107  66.585  1.00  0.00    -0.416 C  
HETATM   19  C   UNL     1     -11.702  14.484  68.320  1.00  0.00    -0.335 C  
HETATM   20  C   UNL     1      -9.397  13.748  67.639  1.00  0.00    -0.213 C  
HETATM   21  C   UNL     1     -11.992  13.076  68.872  1.00  0.00    -0.303 C  
HETATM   22  C   UNL     1      -9.686  12.336  68.187  1.00  0.00    -0.213 C  
HETATM   23  O   UNL     1     -12.446  15.437  69.068  1.00  0.00    -0.602 OA 
HETATM   24  C   UNL     1     -10.198  14.777  68.446  1.00  0.00    -0.224 C  
HETATM   25  H   UNL     1     -12.187  15.397  69.981  1.00  0.00     0.000 HD 
HETATM   26  C   UNL     1     -11.321  13.517  66.034  1.00  0.00    -0.327 C  
ENDBRANCH   3  15
TORSDOF 2
ENDMDL
MODEL       61
REMARK 921   NORMALIZED FREE ENERGY PREDICTED BY IDOCK:   -5.45 KCAL/MOL
REMARK 922        TOTAL FREE ENERGY PREDICTED BY IDOCK:   -6.55 KCAL/MOL
REMARK 923 INTER-LIGAND FREE ENERGY PREDICTED BY IDOCK:   -6.15 KCAL/MOL
REMARK 924 INTRA-LIGAND FREE ENERGY PREDICTED BY IDOCK:   -0.40 KCAL/MOL
REMARK 927      BINDING AFFINITY PREDICTED BY RF-SCORE:    0.00 PKD
ROOT
HETATM    1  N   UNL     1      -6.987  15.929  69.098  1.00  0.00    -0.163 NA 
HETATM    2  H1  UNL     1      -6.744  16.712  69.705  1.00  0.00     0.000 HD 
HETATM    3  C   UNL     1      -8.412  16.088  68.725  1.00  0.00    -0.228 C  
HETATM    4  H2  UNL     1      -6.370  15.842  68.291  1.00  0.00     0.000 HD 
ENDROOT
BRANCH   3   5
HETATM    5  C   UNL     1      -8.783  14.892  67.798  1.00  0.00    -0.167 C  
HETATM    6  N   UNL     1     -10.503  13.740  64.546  1.00  0.00    -0.425 NA 
HETATM    7  N   UNL     1      -9.979  14.250  68.032  1.00  0.00    -0.216 N  
HETATM    8  O   UNL     1      -8.029  14.531  66.892  1.00  0.00    -0.115 OA 
HETATM    9  C   UNL     1     -10.480  13.532  65.692  1.00  0.00    -0.293 C  
HETATM   10  C   UNL     1     -10.513  13.201  67.130  1.00  0.00    -0.247 C  
HETATM   11  C   UNL     1     -10.693  14.211  69.281  1.00  0.00    -0.144 C  
HETATM   12  C   UNL     1     -11.982  13.047  67.593  1.00  0.00    -0.353 C  
HETATM   13  C   UNL     1     -12.014  14.868  69.496  1.00  0.00    -0.347 C  
HETATM   14  C   UNL     1     -11.966  13.429  69.050  1.00  0.00    -0.357 C  
ENDBRANCH   3   5
BRANCH   3  15
HETATM   15  C   UNL     1      -8.697  17.490  68.076  1.00  0.00    -0.254 C  
HETATM   16  C   UNL     1      -9.288  20.413  68.298  1.00  0.00    -0.046 C  
HETATM   17  C   UNL     1     -10.465  19.252  66.418  1.00  0.00    -0.563 C  
HETATM   18  C   UNL     1     -10.067  18.045  68.581  1.00  0.00    -0.401 C  
HETATM   19  C   UNL     1      -7.939  19.909  67.763  1.00  0.00    -0.291 C  
HETATM   20  C   UNL     1      -9.121  18.734  65.882  1.00  0.00     0.191 C  
HETATM   21  C   UNL     1      -7.610  18.550  68.409  1.00  0.00    -0.312 C  
HETATM   22  C   UNL     1      -8.797  17.372  66.528  1.00  0.00    -0.290 C  
HETATM   23  O   UNL     1      -6.916  20.838  68.095  1.00  0.00    -0.242 OA 
HETATM   24  C   UNL     1      -8.017  19.738  66.237  1.00  0.00    -0.346 C  
HETATM   25  H   UNL     1      -6.082  20.526  67.765  1.00  0.00     0.000 HD 
HETATM   26  C   UNL     1     -10.393  19.409  67.944  1.00  0.00    -0.542 C  
ENDBRANCH   3  15
TORSDOF 2
ENDMDL
MODEL       62
REMARK 921   NORMALIZED FREE ENERGY PREDICTED BY IDOCK:   -5.43 KCAL/MOL
REMARK 922        TOTAL FREE ENERGY PREDICTED BY IDOCK:   -6.53 KCAL/MOL
REMARK 923 INTER-LIGAND FREE ENERGY PREDICTED BY IDOCK:   -6.62 KCAL/MOL
REMARK 924 INTRA-LIGAND FREE ENERGY PREDICTED BY IDOCK:    0.09 KCAL/MOL
REMARK 927      BINDING AFFINITY PREDICTED BY RF-SCORE:    0.00 PKD
ROOT
HETATM    1  N   UNL     1      -8.047  10.879  65.149  1.00  0.00    -0.364 NA 
HETATM    2  H1  UNL     1      -7.843   9.889  65.012  1.00  0.00     0.000 HD 
HETATM    3  C   UNL     1      -9.352  10.967  65.846  1.00  0.00    -0.200 C  
HETATM    4  H2  UNL     1      -7.301  11.378  65.634  1.00  0.00     0.000 HD 
ENDROOT
BRANCH   3   5
HETATM    5  C   UNL     1      -9.664  12.479  66.055  1.00  0.00    -0.241 C  
HETATM    6  N   UNL     1     -11.769  15.112  67.924  1.00  0.00    -0.315 NA 
HETATM    7  N   UNL     1     -10.629  13.048  65.254  1.00  0.00    -0.297 N  
HETATM    8  O   UNL     1      -9.062  13.141  66.903  1.00  0.00    -0.227 OA 
HETATM    9  C   UNL     1     -11.461  14.781  66.850  1.00  0.00    -0.347 C  
HETATM   10  C   UNL     1     -11.121  14.432  65.457  1.00  0.00    -0.326 C  
HETATM   11  C   UNL     1     -11.038  12.584  63.955  1.00  0.00    -0.423 C  
HETATM   12  C   UNL     1     -12.396  14.488  64.582  1.00  0.00    -0.419 C  
HETATM   13  C   UNL     1     -12.388  12.017  63.670  1.00  0.00    -0.648 C  
HETATM   14  C   UNL     1     -12.148  13.493  63.479  1.00  0.00    -0.425 C  
ENDBRANCH   3   5
BRANCH   3  15
HETATM   15  C   UNL     1      -9.362  10.138  67.181  1.00  0.00    -0.176 C  
HETATM   16  C   UNL     1     -10.785   8.996  69.550  1.00  0.00    -0.215 C  
HETATM   17  C   UNL     1      -8.469   9.818  70.023  1.00  0.00    -0.229 C  
HETATM   18  C   UNL     1      -9.905  11.017  68.353  1.00  0.00    -0.186 C  
HETATM   19  C   UNL     1     -10.236   8.092  68.435  1.00  0.00    -0.209 C  
HETATM   20  C   UNL     1      -7.911   8.925  68.903  1.00  0.00    -0.104 C  
HETATM   21  C   UNL     1     -10.248   8.863  67.102  1.00  0.00    -0.339 C  
HETATM   22  C   UNL     1      -7.921   9.701  67.571  1.00  0.00    -0.106 C  
HETATM   23  O   UNL     1     -11.056   6.938  68.309  1.00  0.00    -0.463 OA 
HETATM   24  C   UNL     1      -8.794   7.678  68.768  1.00  0.00    -0.131 C  
HETATM   25  H   UNL     1     -10.716   6.379  67.619  1.00  0.00     0.000 HD 
HETATM   26  C   UNL     1      -9.905  10.246  69.685  1.00  0.00    -0.230 C  
ENDBRANCH   3  15
TORSDOF 2
ENDMDL
MODEL       63
REMARK 921   NORMALIZED FREE ENERGY PREDICTED BY IDOCK:   -5.43 KCAL/MOL
REMARK 922        TOTAL FREE ENERGY PREDICTED BY IDOCK:   -6.53 KCAL/MOL
REMARK 923 INTER-LIGAND FREE ENERGY PREDICTED BY IDOCK:   -6.01 KCAL/MOL
REMARK 924 INTRA-LIGAND FREE ENERGY PREDICTED BY IDOCK:   -0.52 KCAL/MOL
REMARK 927      BINDING AFFINITY PREDICTED BY RF-SCORE:    0.00 PKD
ROOT
HETATM    1  N   UNL     1      -6.192  15.792  68.995  1.00  0.00    -0.115 NA 
HETATM    2  H1  UNL     1      -5.644  16.442  69.557  1.00  0.00     0.000 HD 
HETATM    3  C   UNL     1      -7.476  16.459  68.677  1.00  0.00    -0.194 C  
HETATM    4  H2  UNL     1      -5.697  15.464  68.166  1.00  0.00     0.000 HD 
ENDROOT
BRANCH   3   5
HETATM    5  C   UNL     1      -8.314  15.465  67.819  1.00  0.00    -0.147 C  
HETATM    6  N   UNL     1     -10.719  15.003  64.842  1.00  0.00    -0.415 NA 
HETATM    7  N   UNL     1      -9.607  15.208  68.220  1.00  0.00    -0.207 N  
HETATM    8  O   UNL     1      -7.833  14.925  66.821  1.00  0.00    -0.071 OA 
HETATM    9  C   UNL     1     -10.609  14.758  65.975  1.00  0.00    -0.312 C  
HETATM   10  C   UNL     1     -10.549  14.403  67.407  1.00  0.00    -0.270 C  
HETATM   11  C   UNL     1     -10.126  15.343  69.555  1.00  0.00    -0.276 C  
HETATM   12  C   UNL     1     -11.920  14.684  68.068  1.00  0.00    -0.292 C  
HETATM   13  C   UNL     1     -11.142  16.362  69.945  1.00  0.00    -0.313 C  
HETATM   14  C   UNL     1     -11.595  14.992  69.506  1.00  0.00    -0.337 C  
ENDBRANCH   3   5
BRANCH   3  15
HETATM   15  C   UNL     1      -7.259  17.852  67.983  1.00  0.00    -0.220 C  
HETATM   16  C   UNL     1      -7.411  19.647  65.597  1.00  0.00    -0.270 C  
HETATM   17  C   UNL     1      -5.394  19.998  67.036  1.00  0.00    -0.164 C  
HETATM   18  C   UNL     1      -6.331  17.690  66.736  1.00  0.00    -0.219 C  
HETATM   19  C   UNL     1      -8.319  19.862  66.818  1.00  0.00    -0.322 C  
HETATM   20  C   UNL     1      -6.294  20.203  68.266  1.00  0.00    -0.322 C  
HETATM   21  C   UNL     1      -8.583  18.507  67.501  1.00  0.00    -0.272 C  
HETATM   22  C   UNL     1      -6.553  18.846  68.949  1.00  0.00    -0.301 C  
HETATM   23  O   UNL     1      -9.558  20.418  66.399  1.00  0.00    -0.596 OA 
HETATM   24  C   UNL     1      -7.630  20.807  67.815  1.00  0.00    -0.168 C  
HETATM   25  H   UNL     1     -10.119  20.551  67.154  1.00  0.00     0.000 HD 
HETATM   26  C   UNL     1      -6.074  19.042  66.045  1.00  0.00    -0.210 C  
ENDBRANCH   3  15
TORSDOF 2
ENDMDL
MODEL       64
REMARK 921   NORMALIZED FREE ENERGY PREDICTED BY IDOCK:   -5.42 KCAL/MOL
REMARK 922        TOTAL FREE ENERGY PREDICTED BY IDOCK:   -6.51 KCAL/MOL
REMARK 923 INTER-LIGAND FREE ENERGY PREDICTED BY IDOCK:   -6.02 KCAL/MOL
REMARK 924 INTRA-LIGAND FREE ENERGY PREDICTED BY IDOCK:   -0.49 KCAL/MOL
REMARK 927      BINDING AFFINITY PREDICTED BY RF-SCORE:    0.00 PKD
ROOT
HETATM    1  N   UNL     1     -10.175  10.137  64.561  1.00  0.00    -0.372 NA 
HETATM    2  H1  UNL     1     -10.080  10.689  63.709  1.00  0.00     0.000 HD 
HETATM    3  C   UNL     1      -9.660  10.961  65.679  1.00  0.00    -0.224 C  
HETATM    4  H2  UNL     1     -11.126   9.803  64.716  1.00  0.00     0.000 HD 
ENDROOT
BRANCH   3   5
HETATM    5  C   UNL     1      -9.805  10.116  66.981  1.00  0.00    -0.191 C  
HETATM    6  N   UNL     1     -11.099   9.974  70.609  1.00  0.00    -0.319 NA 
HETATM    7  N   UNL     1      -8.788  10.191  67.907  1.00  0.00    -0.125 N  
HETATM    8  O   UNL     1     -10.793   9.404  67.169  1.00  0.00    -0.219 OA 
HETATM    9  C   UNL     1     -10.139   9.801  69.973  1.00  0.00    -0.257 C  
HETATM   10  C   UNL     1      -8.878   9.557  69.244  1.00  0.00    -0.153 C  
HETATM   11  C   UNL     1      -7.419  10.545  67.640  1.00  0.00    -0.092 C  
HETATM   12  C   UNL     1      -7.699  10.193  70.019  1.00  0.00    -0.150 C  
HETATM   13  C   UNL     1      -6.780  11.795  68.142  1.00  0.00    -0.064 C  
HETATM   14  C   UNL     1      -6.684  10.533  68.961  1.00  0.00    -0.063 C  
ENDBRANCH   3   5
BRANCH   3  15
HETATM   15  C   UNL     1     -10.376  12.357  65.760  1.00  0.00    -0.289 C  
HETATM   16  C   UNL     1     -11.245  14.777  67.286  1.00  0.00    -0.351 C  
HETATM   17  C   UNL     1     -12.887  13.982  65.572  1.00  0.00    -0.453 C  
HETATM   18  C   UNL     1     -11.500  12.321  66.843  1.00  0.00    -0.418 C  
HETATM   19  C   UNL     1     -10.157  14.862  66.204  1.00  0.00    -0.298 C  
HETATM   20  C   UNL     1     -11.803  14.054  64.485  1.00  0.00    -0.452 C  
HETATM   21  C   UNL     1      -9.410  13.519  66.125  1.00  0.00    -0.082 C  
HETATM   22  C   UNL     1     -11.059  12.706  64.406  1.00  0.00    -0.385 C  
HETATM   23  O   UNL     1      -9.231  15.888  66.537  1.00  0.00    -0.230 OA 
HETATM   24  C   UNL     1     -10.805  15.162  64.842  1.00  0.00    -0.437 C  
HETATM   25  H   UNL     1      -8.559  15.941  65.867  1.00  0.00     0.000 HD 
HETATM   26  C   UNL     1     -12.243  13.667  66.931  1.00  0.00    -0.398 C  
ENDBRANCH   3  15
TORSDOF 2
ENDMDL
MODEL       65
REMARK 921   NORMALIZED FREE ENERGY PREDICTED BY IDOCK:   -5.40 KCAL/MOL
REMARK 922        TOTAL FREE ENERGY PREDICTED BY IDOCK:   -6.49 KCAL/MOL
REMARK 923 INTER-LIGAND FREE ENERGY PREDICTED BY IDOCK:   -6.61 KCAL/MOL
REMARK 924 INTRA-LIGAND FREE ENERGY PREDICTED BY IDOCK:    0.12 KCAL/MOL
REMARK 927      BINDING AFFINITY PREDICTED BY RF-SCORE:    0.00 PKD
ROOT
HETATM    1  N   UNL     1     -11.295  16.922  68.993  1.00  0.00    -0.169 NA 
HETATM    2  H1  UNL     1     -11.471  17.922  68.893  1.00  0.00     0.000 HD 
HETATM    3  C   UNL     1     -10.434  16.512  67.858  1.00  0.00    -0.313 C  
HETATM    4  H2  UNL     1     -10.902  16.674  69.901  1.00  0.00     0.000 HD 
ENDROOT
BRANCH   3   5
HETATM    5  C   UNL     1     -10.165  14.985  68.010  1.00  0.00    -0.228 C  
HETATM    6  N   UNL     1      -7.881  12.007  67.133  1.00  0.00    -0.168 NA 
HETATM    7  N   UNL     1     -10.732  14.141  67.081  1.00  0.00    -0.279 N  
HETATM    8  O   UNL     1      -9.474  14.551  68.934  1.00  0.00    -0.203 OA 
HETATM    9  C   UNL     1      -8.995  12.345  67.102  1.00  0.00    -0.195 C  
HETATM   10  C   UNL     1     -10.428  12.691  67.029  1.00  0.00    -0.232 C  
HETATM   11  C   UNL     1     -11.906  14.409  66.293  1.00  0.00    -0.379 C  
HETATM   12  C   UNL     1     -10.997  12.257  65.657  1.00  0.00    -0.338 C  
HETATM   13  C   UNL     1     -11.882  14.590  64.814  1.00  0.00    -0.446 C  
HETATM   14  C   UNL     1     -12.125  13.218  65.389  1.00  0.00    -0.464 C  
ENDBRANCH   3   5
BRANCH   3  15
HETATM   15  C   UNL     1      -9.122  17.371  67.774  1.00  0.00    -0.243 C  
HETATM   16  C   UNL     1      -6.185  17.634  67.281  1.00  0.00    -0.172 C  
HETATM   17  C   UNL     1      -7.061  19.070  69.134  1.00  0.00    -0.330 C  
HETATM   18  C   UNL     1      -8.041  16.793  68.743  1.00  0.00    -0.252 C  
HETATM   19  C   UNL     1      -7.215  18.247  66.319  1.00  0.00    -0.262 C  
HETATM   20  C   UNL     1      -8.103  19.681  68.183  1.00  0.00    -0.353 C  
HETATM   21  C   UNL     1      -8.503  17.405  66.349  1.00  0.00    -0.292 C  
HETATM   22  C   UNL     1      -9.393  18.838  68.218  1.00  0.00    -0.374 C  
HETATM   23  O   UNL     1      -6.693  18.248  64.997  1.00  0.00    -0.416 OA 
HETATM   24  C   UNL     1      -7.539  19.685  66.757  1.00  0.00    -0.274 C  
HETATM   25  H   UNL     1      -7.330  18.627  64.403  1.00  0.00     0.000 HD 
HETATM   26  C   UNL     1      -6.748  17.627  68.708  1.00  0.00    -0.230 C  
ENDBRANCH   3  15
TORSDOF 2
ENDMDL
MODEL       66
REMARK 921   NORMALIZED FREE ENERGY PREDICTED BY IDOCK:   -5.37 KCAL/MOL
REMARK 922        TOTAL FREE ENERGY PREDICTED BY IDOCK:   -6.46 KCAL/MOL
REMARK 923 INTER-LIGAND FREE ENERGY PREDICTED BY IDOCK:   -5.86 KCAL/MOL
REMARK 924 INTRA-LIGAND FREE ENERGY PREDICTED BY IDOCK:   -0.60 KCAL/MOL
REMARK 927      BINDING AFFINITY PREDICTED BY RF-SCORE:    0.00 PKD
ROOT
HETATM    1  N   UNL     1      -7.515   9.699  70.862  1.00  0.00    -0.323 NA 
HETATM    2  H1  UNL     1      -6.996  10.206  70.145  1.00  0.00     0.000 HD 
HETATM    3  C   UNL     1      -8.907   9.554  70.377  1.00  0.00    -0.234 C  
HETATM    4  H2  UNL     1      -7.085   8.809  71.113  1.00  0.00     0.000 HD 
ENDROOT
BRANCH   3   5
HETATM    5  C   UNL     1      -9.700   8.780  71.473  1.00  0.00    -0.291 C  
HETATM    6  N   UNL     1     -11.847   5.695  72.330  1.00  0.00    -0.208 NA 
HETATM    7  N   UNL     1     -11.031   9.092  71.639  1.00  0.00    -0.358 N  
HETATM    8  O   UNL     1      -9.151   7.922  72.167  1.00  0.00    -0.128 OA 
HETATM    9  C   UNL     1     -11.845   6.857  72.403  1.00  0.00    -0.177 C  
HETATM   10  C   UNL     1     -11.925   8.326  72.539  1.00  0.00    -0.356 C  
HETATM   11  C   UNL     1     -11.661  10.339  71.293  1.00  0.00    -0.235 C  
HETATM   12  C   UNL     1     -13.338   8.808  72.132  1.00  0.00    -0.465 C  
HETATM   13  C   UNL     1     -12.672  10.477  70.206  1.00  0.00    -0.255 C  
HETATM   14  C   UNL     1     -13.132  10.208  71.617  1.00  0.00    -0.550 C  
ENDBRANCH   3   5
BRANCH   3  15
HETATM   15  C   UNL     1      -8.970   8.871  68.963  1.00  0.00    -0.137 C  
HETATM   16  C   UNL     1      -9.149   6.444  67.226  1.00  0.00    -0.117 C  
HETATM   17  C   UNL     1      -7.660   8.251  66.340  1.00  0.00    -0.091 C  
HETATM   18  C   UNL     1      -7.801   7.846  68.812  1.00  0.00    -0.118 C  
HETATM   19  C   UNL     1     -10.309   7.447  67.321  1.00  0.00    -0.286 C  
HETATM   20  C   UNL     1      -8.813   9.264  66.441  1.00  0.00    -0.169 C  
HETATM   21  C   UNL     1     -10.300   8.108  68.711  1.00  0.00    -0.220 C  
HETATM   22  C   UNL     1      -8.798   9.927  67.833  1.00  0.00    -0.129 C  
HETATM   23  O   UNL     1     -11.544   6.767  67.140  1.00  0.00    -0.725 OA 
HETATM   24  C   UNL     1     -10.145   8.531  66.243  1.00  0.00    -0.174 C  
HETATM   25  H   UNL     1     -12.261   7.387  67.198  1.00  0.00     0.000 HD 
HETATM   26  C   UNL     1      -7.814   7.176  67.426  1.00  0.00    -0.112 C  
ENDBRANCH   3  15
TORSDOF 2
ENDMDL
MODEL       67
REMARK 921   NORMALIZED FREE ENERGY PREDICTED BY IDOCK:   -5.35 KCAL/MOL
REMARK 922        TOTAL FREE ENERGY PREDICTED BY IDOCK:   -6.44 KCAL/MOL
REMARK 923 INTER-LIGAND FREE ENERGY PREDICTED BY IDOCK:   -7.39 KCAL/MOL
REMARK 924 INTRA-LIGAND FREE ENERGY PREDICTED BY IDOCK:    0.95 KCAL/MOL
REMARK 927      BINDING AFFINITY PREDICTED BY RF-SCORE:    0.00 PKD
ROOT
HETATM    1  N   UNL     1     -11.380  15.539  68.073  1.00  0.00    -0.339 NA 
HETATM    2  H1  UNL     1     -11.443  16.172  68.871  1.00  0.00     0.000 HD 
HETATM    3  C   UNL     1     -11.022  16.357  66.891  1.00  0.00    -0.018 C  
HETATM    4  H2  UNL     1     -10.739  14.762  68.230  1.00  0.00     0.000 HD 
ENDROOT
BRANCH   3   5
HETATM    5  C   UNL     1     -10.927  15.390  65.673  1.00  0.00    -0.326 C  
HETATM    6  N   UNL     1     -12.642  12.629  63.601  1.00  0.00    -0.739 NA 
HETATM    7  N   UNL     1     -10.370  14.148  65.885  1.00  0.00    -0.304 N  
HETATM    8  O   UNL     1     -11.330  15.730  64.558  1.00  0.00    -0.432 OA 
HETATM    9  C   UNL     1     -11.650  12.868  64.163  1.00  0.00    -0.398 C  
HETATM   10  C   UNL     1     -10.361  13.089  64.849  1.00  0.00    -0.324 C  
HETATM   11  C   UNL     1      -9.443  13.799  66.929  1.00  0.00    -0.262 C  
HETATM   12  C   UNL     1      -9.971  11.818  65.641  1.00  0.00    -0.271 C  
HETATM   13  C   UNL     1      -9.774  12.870  68.048  1.00  0.00    -0.224 C  
HETATM   14  C   UNL     1      -9.142  12.324  66.792  1.00  0.00    -0.211 C  
ENDBRANCH   3   5
BRANCH   3  15
HETATM   15  C   UNL     1      -9.714  17.193  67.127  1.00  0.00    -0.261 C  
HETATM   16  C   UNL     1      -7.581  19.057  66.169  1.00  0.00    -0.287 C  
HETATM   17  C   UNL     1      -6.780  17.274  67.732  1.00  0.00    -0.172 C  
HETATM   18  C   UNL     1      -8.616  16.773  66.098  1.00  0.00    -0.299 C  
HETATM   19  C   UNL     1      -8.622  19.500  67.209  1.00  0.00    -0.299 C  
HETATM   20  C   UNL     1      -7.825  17.703  68.775  1.00  0.00    -0.242 C  
HETATM   21  C   UNL     1      -9.932  18.725  66.981  1.00  0.00    -0.379 C  
HETATM   22  C   UNL     1      -9.134  16.922  68.546  1.00  0.00    -0.257 C  
HETATM   23  O   UNL     1      -8.877  20.892  67.068  1.00  0.00    -0.588 OA 
HETATM   24  C   UNL     1      -8.098  19.204  68.624  1.00  0.00    -0.405 C  
HETATM   25  H   UNL     1      -9.520  21.165  67.711  1.00  0.00     0.000 HD 
HETATM   26  C   UNL     1      -7.308  17.555  66.317  1.00  0.00    -0.355 C  
ENDBRANCH   3  15
TORSDOF 2
ENDMDL
MODEL       68
REMARK 921   NORMALIZED FREE ENERGY PREDICTED BY IDOCK:   -5.33 KCAL/MOL
REMARK 922        TOTAL FREE ENERGY PREDICTED BY IDOCK:   -6.41 KCAL/MOL
REMARK 923 INTER-LIGAND FREE ENERGY PREDICTED BY IDOCK:   -6.09 KCAL/MOL
REMARK 924 INTRA-LIGAND FREE ENERGY PREDICTED BY IDOCK:   -0.32 KCAL/MOL
REMARK 927      BINDING AFFINITY PREDICTED BY RF-SCORE:    0.00 PKD
ROOT
HETATM    1  N   UNL     1     -13.454   9.898  70.549  1.00  0.00    -0.547 NA 
HETATM    2  H1  UNL     1     -13.473   9.299  71.375  1.00  0.00     0.000 HD 
HETATM    3  C   UNL     1     -12.124  10.549  70.509  1.00  0.00    -0.345 C  
HETATM    4  H2  UNL     1     -13.681   9.400  69.689  1.00  0.00     0.000 HD 
ENDROOT
BRANCH   3   5
HETATM    5  C   UNL     1     -12.096  11.464  69.249  1.00  0.00    -0.289 C  
HETATM    6  N   UNL     1      -9.933  13.426  66.732  1.00  0.00    -0.258 NA 
HETATM    7  N   UNL     1     -12.159  12.826  69.447  1.00  0.00    -0.241 N  
HETATM    8  O   UNL     1     -12.024  10.984  68.115  1.00  0.00    -0.610 OA 
HETATM    9  C   UNL     1     -10.836  13.553  67.456  1.00  0.00    -0.264 C  
HETATM   10  C   UNL     1     -11.989  13.802  68.345  1.00  0.00    -0.360 C  
HETATM   11  C   UNL     1     -12.724  13.493  70.590  1.00  0.00    -0.205 C  
HETATM   12  C   UNL     1     -11.790  15.146  69.086  1.00  0.00    -0.340 C  
HETATM   13  C   UNL     1     -11.917  14.275  71.569  1.00  0.00    -0.228 C  
HETATM   14  C   UNL     1     -12.532  14.979  70.386  1.00  0.00    -0.407 C  
ENDBRANCH   3   5
BRANCH   3  15
HETATM   15  C   UNL     1     -10.954   9.500  70.544  1.00  0.00    -0.348 C  
HETATM   16  C   UNL     1      -8.955   7.753  69.171  1.00  0.00    -0.145 C  
HETATM   17  C   UNL     1      -9.977   6.750  71.224  1.00  0.00    -0.189 C  
HETATM   18  C   UNL     1     -11.353   8.226  69.733  1.00  0.00     0.134 C  
HETATM   19  C   UNL     1      -8.517   8.978  69.988  1.00  0.00    -0.145 C  
HETATM   20  C   UNL     1      -9.554   7.977  72.047  1.00  0.00    -0.262 C  
HETATM   21  C   UNL     1      -9.628  10.043  69.943  1.00  0.00    -0.233 C  
HETATM   22  C   UNL     1     -10.670   9.040  72.003  1.00  0.00    -0.333 C  
HETATM   23  O   UNL     1      -7.330   9.525  69.431  1.00  0.00    -0.075 OA 
HETATM   24  C   UNL     1      -8.270   8.566  71.448  1.00  0.00    -0.186 C  
HETATM   25  H   UNL     1      -7.059  10.283  69.936  1.00  0.00     0.000 HD 
HETATM   26  C   UNL     1     -10.240   7.163  69.767  1.00  0.00    -0.215 C  
ENDBRANCH   3  15
TORSDOF 2
ENDMDL
MODEL       69
REMARK 921   NORMALIZED FREE ENERGY PREDICTED BY IDOCK:   -5.30 KCAL/MOL
REMARK 922        TOTAL FREE ENERGY PREDICTED BY IDOCK:   -6.38 KCAL/MOL
REMARK 923 INTER-LIGAND FREE ENERGY PREDICTED BY IDOCK:   -5.79 KCAL/MOL
REMARK 924 INTRA-LIGAND FREE ENERGY PREDICTED BY IDOCK:   -0.60 KCAL/MOL
REMARK 927      BINDING AFFINITY PREDICTED BY RF-SCORE:    0.00 PKD
ROOT
HETATM    1  N   UNL     1     -12.644  10.386  69.462  1.00  0.00    -0.637 NA 
HETATM    2  H1  UNL     1     -13.362  10.820  68.883  1.00  0.00     0.000 HD 
HETATM    3  C   UNL     1     -11.388  10.382  68.675  1.00  0.00    -0.216 C  
HETATM    4  H2  UNL     1     -12.543  10.831  70.374  1.00  0.00     0.000 HD 
ENDROOT
BRANCH   3   5
HETATM    5  C   UNL     1     -10.291   9.718  69.560  1.00  0.00    -0.230 C  
HETATM    6  N   UNL     1      -6.710   9.940  70.971  1.00  0.00    -0.326 NA 
HETATM    7  N   UNL     1      -9.428   8.834  68.951  1.00  0.00    -0.145 N  
HETATM    8  O   UNL     1     -10.204   9.973  70.763  1.00  0.00    -0.172 OA 
HETATM    9  C   UNL     1      -7.421   9.225  70.387  1.00  0.00    -0.121 C  
HETATM   10  C   UNL     1      -8.254   8.256  69.647  1.00  0.00    -0.118 C  
HETATM   11  C   UNL     1      -9.688   8.081  67.752  1.00  0.00    -0.156 C  
HETATM   12  C   UNL     1      -7.427   7.635  68.495  1.00  0.00    -0.104 C  
HETATM   13  C   UNL     1      -8.968   8.305  66.466  1.00  0.00    -0.189 C  
HETATM   14  C   UNL     1      -8.443   7.282  67.442  1.00  0.00    -0.119 C  
ENDBRANCH   3   5
BRANCH   3  15
HETATM   15  C   UNL     1     -11.001  11.822  68.178  1.00  0.00    -0.275 C  
HETATM   16  C   UNL     1      -9.584  13.651  66.286  1.00  0.00    -0.254 C  
HETATM   17  C   UNL     1      -9.606  14.429  68.665  1.00  0.00    -0.208 C  
HETATM   18  C   UNL     1      -9.447  11.978  68.150  1.00  0.00    -0.200 C  
HETATM   19  C   UNL     1     -11.117  13.552  66.304  1.00  0.00    -0.300 C  
HETATM   20  C   UNL     1     -11.140  14.322  68.696  1.00  0.00    -0.273 C  
HETATM   21  C   UNL     1     -11.531  12.138  66.752  1.00  0.00    -0.418 C  
HETATM   22  C   UNL     1     -11.550  12.907  69.149  1.00  0.00    -0.375 C  
HETATM   23  O   UNL     1     -11.627  13.792  64.999  1.00  0.00    -0.321 OA 
HETATM   24  C   UNL     1     -11.690  14.584  67.289  1.00  0.00    -0.429 C  
HETATM   25  H   UNL     1     -12.575  13.731  65.010  1.00  0.00     0.000 HD 
HETATM   26  C   UNL     1      -9.030  13.388  67.693  1.00  0.00    -0.202 C  
ENDBRANCH   3  15
TORSDOF 2
ENDMDL
MODEL       70
REMARK 921   NORMALIZED FREE ENERGY PREDICTED BY IDOCK:   -5.29 KCAL/MOL
REMARK 922        TOTAL FREE ENERGY PREDICTED BY IDOCK:   -6.37 KCAL/MOL
REMARK 923 INTER-LIGAND FREE ENERGY PREDICTED BY IDOCK:   -5.83 KCAL/MOL
REMARK 924 INTRA-LIGAND FREE ENERGY PREDICTED BY IDOCK:   -0.54 KCAL/MOL
REMARK 927      BINDING AFFINITY PREDICTED BY RF-SCORE:    0.00 PKD
ROOT
HETATM    1  N   UNL     1      -7.316  10.375  70.499  1.00  0.00    -0.446 NA 
HETATM    2  H1  UNL     1      -6.901   9.717  71.160  1.00  0.00     0.000 HD 
HETATM    3  C   UNL     1      -8.163   9.590  69.571  1.00  0.00    -0.134 C  
HETATM    4  H2  UNL     1      -7.821  11.134  70.956  1.00  0.00     0.000 HD 
ENDROOT
BRANCH   3   5
HETATM    5  C   UNL     1      -8.795  10.595  68.562  1.00  0.00    -0.148 C  
HETATM    6  N   UNL     1     -12.025  11.953  66.955  1.00  0.00    -0.601 NA 
HETATM    7  N   UNL     1      -8.953  10.178  67.259  1.00  0.00    -0.135 N  
HETATM    8  O   UNL     1      -9.137  11.724  68.919  1.00  0.00    -0.047 OA 
HETATM    9  C   UNL     1     -10.980  11.519  66.681  1.00  0.00    -0.296 C  
HETATM   10  C   UNL     1      -9.676  10.981  66.245  1.00  0.00    -0.207 C  
HETATM   11  C   UNL     1      -8.192   9.151  66.597  1.00  0.00    -0.115 C  
HETATM   12  C   UNL     1      -9.891   9.980  65.084  1.00  0.00    -0.388 C  
HETATM   13  C   UNL     1      -8.772   7.850  66.157  1.00  0.00    -0.181 C  
HETATM   14  C   UNL     1      -8.743   9.012  65.196  1.00  0.00    -0.223 C  
ENDBRANCH   3   5
BRANCH   3  15
HETATM   15  C   UNL     1      -9.226   8.722  70.335  1.00  0.00    -0.204 C  
HETATM   16  C   UNL     1     -11.755   7.129  70.402  1.00  0.00    -0.273 C  
HETATM   17  C   UNL     1     -11.337   8.504  72.451  1.00  0.00    -0.412 C  
HETATM   18  C   UNL     1     -10.642   9.368  70.200  1.00  0.00    -0.279 C  
HETATM   19  C   UNL     1     -10.383   6.458  70.573  1.00  0.00    -0.202 C  
HETATM   20  C   UNL     1      -9.958   7.846  72.624  1.00  0.00    -0.330 C  
HETATM   21  C   UNL     1      -9.322   7.265  69.803  1.00  0.00    -0.150 C  
HETATM   22  C   UNL     1      -8.898   8.659  71.855  1.00  0.00    -0.275 C  
HETATM   23  O   UNL     1     -10.429   5.137  70.050  1.00  0.00    -0.293 OA 
HETATM   24  C   UNL     1     -10.008   6.420  72.063  1.00  0.00    -0.183 C  
HETATM   25  H   UNL     1      -9.581   4.722  70.156  1.00  0.00     0.000 HD 
HETATM   26  C   UNL     1     -11.707   8.557  70.961  1.00  0.00    -0.310 C  
ENDBRANCH   3  15
TORSDOF 2
ENDMDL
MODEL       71
REMARK 921   NORMALIZED FREE ENERGY PREDICTED BY IDOCK:   -5.29 KCAL/MOL
REMARK 922        TOTAL FREE ENERGY PREDICTED BY IDOCK:   -6.37 KCAL/MOL
REMARK 923 INTER-LIGAND FREE ENERGY PREDICTED BY IDOCK:   -5.97 KCAL/MOL
REMARK 924 INTRA-LIGAND FREE ENERGY PREDICTED BY IDOCK:   -0.40 KCAL/MOL
REMARK 927      BINDING AFFINITY PREDICTED BY RF-SCORE:    0.00 PKD
ROOT
HETATM    1  N   UNL     1     -11.625  12.336  69.478  1.00  0.00    -0.359 NA 
HETATM    2  H1  UNL     1     -11.314  11.513  69.994  1.00  0.00     0.000 HD 
HETATM    3  C   UNL     1     -10.467  12.824  68.692  1.00  0.00    -0.211 C  
HETATM    4  H2  UNL     1     -12.450  12.162  68.906  1.00  0.00     0.000 HD 
ENDROOT
BRANCH   3   5
HETATM    5  C   UNL     1     -10.941  14.082  67.904  1.00  0.00    -0.247 C  
HETATM    6  N   UNL     1     -10.915  15.993  64.557  1.00  0.00    -0.586 NA 
HETATM    7  N   UNL     1     -10.135  15.199  67.940  1.00  0.00    -0.222 N  
HETATM    8  O   UNL     1     -12.002  14.077  67.277  1.00  0.00    -0.390 OA 
HETATM    9  C   UNL     1     -10.696  16.134  65.692  1.00  0.00    -0.310 C  
HETATM   10  C   UNL     1     -10.398  16.401  67.113  1.00  0.00    -0.290 C  
HETATM   11  C   UNL     1      -9.185  15.529  68.969  1.00  0.00    -0.238 C  
HETATM   12  C   UNL     1      -9.081  17.206  67.225  1.00  0.00    -0.227 C  
HETATM   13  C   UNL     1      -7.710  15.554  68.751  1.00  0.00    -0.159 C  
HETATM   14  C   UNL     1      -8.509  16.819  68.563  1.00  0.00    -0.244 C  
ENDBRANCH   3   5
BRANCH   3  15
HETATM   15  C   UNL     1      -9.865  11.702  67.772  1.00  0.00    -0.186 C  
HETATM   16  C   UNL     1      -8.908  10.721  65.115  1.00  0.00    -0.199 C  
HETATM   17  C   UNL     1     -10.132   9.014  66.476  1.00  0.00    -0.354 C  
HETATM   18  C   UNL     1     -10.826  11.423  66.572  1.00  0.00    -0.334 C  
HETATM   19  C   UNL     1      -7.933  10.951  66.281  1.00  0.00    -0.161 C  
HETATM   20  C   UNL     1      -9.168   9.244  67.652  1.00  0.00    -0.139 C  
HETATM   21  C   UNL     1      -8.476  12.074  67.184  1.00  0.00    -0.180 C  
HETATM   22  C   UNL     1      -9.716  10.367  68.556  1.00  0.00    -0.174 C  
HETATM   23  O   UNL     1      -6.664  11.338  65.773  1.00  0.00    -0.366 OA 
HETATM   24  C   UNL     1      -7.797   9.660  67.104  1.00  0.00    -0.091 C  
HETATM   25  H   UNL     1      -6.061  11.480  66.494  1.00  0.00     0.000 HD 
HETATM   26  C   UNL     1     -10.281  10.307  65.661  1.00  0.00    -0.301 C  
ENDBRANCH   3  15
TORSDOF 2
ENDMDL
MODEL       72
REMARK 921   NORMALIZED FREE ENERGY PREDICTED BY IDOCK:   -5.27 KCAL/MOL
REMARK 922        TOTAL FREE ENERGY PREDICTED BY IDOCK:   -6.35 KCAL/MOL
REMARK 923 INTER-LIGAND FREE ENERGY PREDICTED BY IDOCK:   -5.81 KCAL/MOL
REMARK 924 INTRA-LIGAND FREE ENERGY PREDICTED BY IDOCK:   -0.54 KCAL/MOL
REMARK 927      BINDING AFFINITY PREDICTED BY RF-SCORE:    0.00 PKD
ROOT
HETATM    1  N   UNL     1      -7.305  10.387  70.508  1.00  0.00    -0.446 NA 
HETATM    2  H1  UNL     1      -6.906   9.722  71.170  1.00  0.00     0.000 HD 
HETATM    3  C   UNL     1      -8.166   9.620  69.578  1.00  0.00    -0.136 C  
HETATM    4  H2  UNL     1      -7.796  11.157  70.962  1.00  0.00     0.000 HD 
ENDROOT
BRANCH   3   5
HETATM    5  C   UNL     1      -8.775  10.637  68.567  1.00  0.00    -0.141 C  
HETATM    6  N   UNL     1     -11.970  12.038  66.927  1.00  0.00    -0.609 NA 
HETATM    7  N   UNL     1      -8.920  10.228  67.259  1.00  0.00    -0.132 N  
HETATM    8  O   UNL     1      -9.109  11.768  68.926  1.00  0.00    -0.047 OA 
HETATM    9  C   UNL     1     -10.926  11.594  66.663  1.00  0.00    -0.299 C  
HETATM   10  C   UNL     1      -9.622  11.045  66.241  1.00  0.00    -0.201 C  
HETATM   11  C   UNL     1      -8.162   9.197  66.601  1.00  0.00    -0.115 C  
HETATM   12  C   UNL     1      -9.833  10.052  65.072  1.00  0.00    -0.374 C  
HETATM   13  C   UNL     1      -8.750   7.905  66.147  1.00  0.00    -0.181 C  
HETATM   14  C   UNL     1      -8.696   9.072  65.193  1.00  0.00    -0.223 C  
ENDBRANCH   3   5
BRANCH   3  15
HETATM   15  C   UNL     1      -9.249   8.774  70.340  1.00  0.00    -0.204 C  
HETATM   16  C   UNL     1     -10.064   6.382  71.937  1.00  0.00    -0.204 C  
HETATM   17  C   UNL     1     -11.770   7.155  70.276  1.00  0.00    -0.226 C  
HETATM   18  C   UNL     1      -9.326   7.335  69.737  1.00  0.00    -0.150 C  
HETATM   19  C   UNL     1     -10.034   7.787  72.560  1.00  0.00    -0.225 C  
HETATM   20  C   UNL     1     -11.739   8.567  70.886  1.00  0.00    -0.274 C  
HETATM   21  C   UNL     1      -8.955   8.632  71.859  1.00  0.00    -0.301 C  
HETATM   22  C   UNL     1     -10.659   9.411  70.179  1.00  0.00    -0.279 C  
HETATM   23  O   UNL     1      -9.721   7.689  73.943  1.00  0.00    -0.358 OA 
HETATM   24  C   UNL     1     -11.403   8.462  72.379  1.00  0.00    -0.448 C  
HETATM   25  H   UNL     1      -9.702   8.558  74.328  1.00  0.00     0.000 HD 
HETATM   26  C   UNL     1     -10.398   6.484  70.443  1.00  0.00    -0.237 C  
ENDBRANCH   3  15
TORSDOF 2
ENDMDL
MODEL       73
REMARK 921   NORMALIZED FREE ENERGY PREDICTED BY IDOCK:   -5.21 KCAL/MOL
REMARK 922        TOTAL FREE ENERGY PREDICTED BY IDOCK:   -6.28 KCAL/MOL
REMARK 923 INTER-LIGAND FREE ENERGY PREDICTED BY IDOCK:   -5.91 KCAL/MOL
REMARK 924 INTRA-LIGAND FREE ENERGY PREDICTED BY IDOCK:   -0.37 KCAL/MOL
REMARK 927      BINDING AFFINITY PREDICTED BY RF-SCORE:    0.00 PKD
ROOT
HETATM    1  N   UNL     1     -12.167  10.756  68.575  1.00  0.00    -0.822 NA 
HETATM    2  H1  UNL     1     -12.612  10.932  69.475  1.00  0.00     0.000 HD 
HETATM    3  C   UNL     1     -10.743  10.443  68.842  1.00  0.00    -0.224 C  
HETATM    4  H2  UNL     1     -12.639  10.034  68.030  1.00  0.00     0.000 HD 
ENDROOT
BRANCH   3   5
HETATM    5  C   UNL     1     -10.064  10.174  67.465  1.00  0.00    -0.201 C  
HETATM    6  N   UNL     1      -7.705   7.915  65.417  1.00  0.00    -0.091 NA 
HETATM    7  N   UNL     1      -8.840  10.762  67.231  1.00  0.00    -0.133 N  
HETATM    8  O   UNL     1     -10.606   9.463  66.617  1.00  0.00    -0.197 OA 
HETATM    9  C   UNL     1      -7.879   9.029  65.710  1.00  0.00    -0.098 C  
HETATM   10  C   UNL     1      -8.027  10.463  66.029  1.00  0.00    -0.144 C  
HETATM   11  C   UNL     1      -8.335  11.953  67.862  1.00  0.00    -0.152 C  
HETATM   12  C   UNL     1      -6.643  11.062  66.376  1.00  0.00    -0.126 C  
HETATM   13  C   UNL     1      -7.172  11.960  68.796  1.00  0.00    -0.112 C  
HETATM   14  C   UNL     1      -6.943  12.193  67.324  1.00  0.00    -0.148 C  
ENDBRANCH   3   5
BRANCH   3  15
HETATM   15  C   UNL     1     -10.582   9.256  69.859  1.00  0.00    -0.246 C  
HETATM   16  C   UNL     1     -10.070   8.212  72.613  1.00  0.00    -0.379 C  
HETATM   17  C   UNL     1      -9.076   6.833  70.776  1.00  0.00    -0.151 C  
HETATM   18  C   UNL     1      -9.183   9.330  70.550  1.00  0.00    -0.311 C  
HETATM   19  C   UNL     1     -11.454   8.090  71.956  1.00  0.00    -0.309 C  
HETATM   20  C   UNL     1     -10.455   6.714  70.105  1.00  0.00    -0.248 C  
HETATM   21  C   UNL     1     -11.660   9.261  70.979  1.00  0.00    -0.380 C  
HETATM   22  C   UNL     1     -10.656   7.886  69.125  1.00  0.00    -0.184 C  
HETATM   23  O   UNL     1     -12.463   8.138  72.956  1.00  0.00    -0.673 OA 
HETATM   24  C   UNL     1     -11.544   6.764  71.184  1.00  0.00    -0.377 C  
HETATM   25  H   UNL     1     -13.318   8.062  72.550  1.00  0.00     0.000 HD 
HETATM   26  C   UNL     1      -8.979   8.165  71.536  1.00  0.00    -0.201 C  
ENDBRANCH   3  15
TORSDOF 2
ENDMDL
MODEL       74
REMARK 921   NORMALIZED FREE ENERGY PREDICTED BY IDOCK:   -5.21 KCAL/MOL
REMARK 922        TOTAL FREE ENERGY PREDICTED BY IDOCK:   -6.28 KCAL/MOL
REMARK 923 INTER-LIGAND FREE ENERGY PREDICTED BY IDOCK:   -5.64 KCAL/MOL
REMARK 924 INTRA-LIGAND FREE ENERGY PREDICTED BY IDOCK:   -0.64 KCAL/MOL
REMARK 927      BINDING AFFINITY PREDICTED BY RF-SCORE:    0.00 PKD
ROOT
HETATM    1  N   UNL     1     -12.506  10.496  69.321  1.00  0.00    -0.717 NA 
HETATM    2  H1  UNL     1     -12.831  10.723  68.381  1.00  0.00     0.000 HD 
HETATM    3  C   UNL     1     -11.641   9.298  69.208  1.00  0.00     0.493 C  
HETATM    4  H2  UNL     1     -12.046  11.278  69.785  1.00  0.00     0.000 HD 
ENDROOT
BRANCH   3   5
HETATM    5  C   UNL     1     -11.145   8.950  70.644  1.00  0.00    -0.262 C  
HETATM    6  N   UNL     1      -8.136   8.642  73.034  1.00  0.00    -0.409 NA 
HETATM    7  N   UNL     1     -10.809   7.640  70.904  1.00  0.00    -0.237 N  
HETATM    8  O   UNL     1     -11.062   9.818  71.516  1.00  0.00    -0.343 OA 
HETATM    9  C   UNL     1      -9.050   8.043  72.632  1.00  0.00    -0.227 C  
HETATM   10  C   UNL     1     -10.185   7.213  72.179  1.00  0.00    -0.186 C  
HETATM   11  C   UNL     1     -11.299   6.482  70.204  1.00  0.00    -0.402 C  
HETATM   12  C   UNL     1      -9.688   5.780  71.870  1.00  0.00    -0.184 C  
HETATM   13  C   UNL     1     -10.440   5.611  69.351  1.00  0.00    -0.367 C  
HETATM   14  C   UNL     1     -10.626   5.270  70.808  1.00  0.00    -0.256 C  
ENDBRANCH   3   5
BRANCH   3  15
HETATM   15  C   UNL     1     -10.472   9.510  68.180  1.00  0.00    -0.268 C  
HETATM   16  C   UNL     1      -9.470   9.897  65.390  1.00  0.00    -0.319 C  
HETATM   17  C   UNL     1      -8.002   8.475  66.835  1.00  0.00    -0.095 C  
HETATM   18  C   UNL     1     -10.495   8.378  67.103  1.00  0.00    -0.380 C  
HETATM   19  C   UNL     1      -9.398  11.027  66.429  1.00  0.00    -0.183 C  
HETATM   20  C   UNL     1      -7.933   9.596  67.886  1.00  0.00    -0.098 C  
HETATM   21  C   UNL     1     -10.555  10.870  67.433  1.00  0.00    -0.285 C  
HETATM   22  C   UNL     1      -9.091   9.433  68.891  1.00  0.00    -0.140 C  
HETATM   23  O   UNL     1      -9.519  12.284  65.777  1.00  0.00    -0.365 OA 
HETATM   24  C   UNL     1      -8.060  10.953  67.182  1.00  0.00    -0.127 C  
HETATM   25  H   UNL     1      -9.474  12.983  66.420  1.00  0.00     0.000 HD 
HETATM   26  C   UNL     1      -9.345   8.539  66.092  1.00  0.00    -0.279 C  
ENDBRANCH   3  15
TORSDOF 2
ENDMDL
MODEL       75
REMARK 921   NORMALIZED FREE ENERGY PREDICTED BY IDOCK:   -5.17 KCAL/MOL
REMARK 922        TOTAL FREE ENERGY PREDICTED BY IDOCK:   -6.23 KCAL/MOL
REMARK 923 INTER-LIGAND FREE ENERGY PREDICTED BY IDOCK:   -5.59 KCAL/MOL
REMARK 924 INTRA-LIGAND FREE ENERGY PREDICTED BY IDOCK:   -0.64 KCAL/MOL
REMARK 927      BINDING AFFINITY PREDICTED BY RF-SCORE:    0.00 PKD
ROOT
HETATM    1  N   UNL     1     -11.227   6.526  67.373  1.00  0.00    -0.702 NA 
HETATM    2  H1  UNL     1     -11.906   5.903  67.811  1.00  0.00     0.000 HD 
HETATM    3  C   UNL     1     -11.113   7.726  68.234  1.00  0.00     0.337 C  
HETATM    4  H2  UNL     1     -10.330   6.076  67.193  1.00  0.00     0.000 HD 
ENDROOT
BRANCH   3   5
HETATM    5  C   UNL     1     -10.076   8.678  67.565  1.00  0.00    -0.216 C  
HETATM    6  N   UNL     1      -6.656  10.434  67.845  1.00  0.00    -0.061 NA 
HETATM    7  N   UNL     1     -10.194  10.027  67.813  1.00  0.00    -0.180 N  
HETATM    8  O   UNL     1      -9.186   8.236  66.836  1.00  0.00    -0.143 OA 
HETATM    9  C   UNL     1      -7.781  10.651  67.637  1.00  0.00    -0.097 C  
HETATM   10  C   UNL     1      -9.186  11.014  67.361  1.00  0.00    -0.151 C  
HETATM   11  C   UNL     1     -11.397  10.719  68.197  1.00  0.00    -0.308 C  
HETATM   12  C   UNL     1      -9.556  12.291  68.153  1.00  0.00    -0.213 C  
HETATM   13  C   UNL     1     -11.593  11.351  69.534  1.00  0.00    -0.399 C  
HETATM   14  C   UNL     1     -11.037  12.173  68.398  1.00  0.00    -0.289 C  
ENDBRANCH   3   5
BRANCH   3  15
HETATM   15  C   UNL     1     -10.751   7.354  69.717  1.00  0.00    -0.252 C  
HETATM   16  C   UNL     1     -10.019   8.123  72.512  1.00  0.00    -0.372 C  
HETATM   17  C   UNL     1      -8.877   6.062  71.666  1.00  0.00    -0.139 C  
HETATM   18  C   UNL     1      -9.361   7.959  70.097  1.00  0.00    -0.156 C  
HETATM   19  C   UNL     1     -11.385   7.499  72.186  1.00  0.00    -0.283 C  
HETATM   20  C   UNL     1     -10.238   5.434  71.327  1.00  0.00    -0.287 C  
HETATM   21  C   UNL     1     -11.788   7.877  70.749  1.00  0.00    -0.190 C  
HETATM   22  C   UNL     1     -10.637   5.811  69.887  1.00  0.00    -0.388 C  
HETATM   23  O   UNL     1     -12.364   7.997  73.088  1.00  0.00    -0.603 OA 
HETATM   24  C   UNL     1     -11.295   5.969  72.302  1.00  0.00    -0.353 C  
HETATM   25  H   UNL     1     -13.209   7.611  72.886  1.00  0.00     0.000 HD 
HETATM   26  C   UNL     1      -8.960   7.591  71.537  1.00  0.00    -0.142 C  
ENDBRANCH   3  15
TORSDOF 2
ENDMDL
MODEL       76
REMARK 921   NORMALIZED FREE ENERGY PREDICTED BY IDOCK:   -5.16 KCAL/MOL
REMARK 922        TOTAL FREE ENERGY PREDICTED BY IDOCK:   -6.22 KCAL/MOL
REMARK 923 INTER-LIGAND FREE ENERGY PREDICTED BY IDOCK:   -5.64 KCAL/MOL
REMARK 924 INTRA-LIGAND FREE ENERGY PREDICTED BY IDOCK:   -0.58 KCAL/MOL
REMARK 927      BINDING AFFINITY PREDICTED BY RF-SCORE:    0.00 PKD
ROOT
HETATM    1  N   UNL     1      -9.958  13.096  64.709  1.00  0.00    -0.578 NA 
HETATM    2  H1  UNL     1     -10.360  12.279  64.250  1.00  0.00     0.000 HD 
HETATM    3  C   UNL     1     -10.174  12.932  66.166  1.00  0.00    -0.278 C  
HETATM    4  H2  UNL     1      -8.980  13.252  64.466  1.00  0.00     0.000 HD 
ENDROOT
BRANCH   3   5
HETATM    5  C   UNL     1      -9.561  14.181  66.868  1.00  0.00    -0.270 C  
HETATM    6  N   UNL     1      -7.243  15.509  69.647  1.00  0.00    -0.194 NA 
HETATM    7  N   UNL     1     -10.259  14.729  67.921  1.00  0.00    -0.228 N  
HETATM    8  O   UNL     1      -8.491  14.662  66.488  1.00  0.00    -0.111 OA 
HETATM    9  C   UNL     1      -8.324  15.617  69.228  1.00  0.00    -0.256 C  
HETATM   10  C   UNL     1      -9.711  15.819  68.762  1.00  0.00    -0.213 C  
HETATM   11  C   UNL     1     -11.676  14.617  68.151  1.00  0.00    -0.330 C  
HETATM   12  C   UNL     1     -10.668  15.847  69.978  1.00  0.00    -0.343 C  
HETATM   13  C   UNL     1     -12.267  13.868  69.296  1.00  0.00    -0.319 C  
HETATM   14  C   UNL     1     -11.982  15.341  69.443  1.00  0.00    -0.342 C  
ENDBRANCH   3   5
BRANCH   3  15
HETATM   15  C   UNL     1      -9.594  11.571  66.697  1.00  0.00    -0.215 C  
HETATM   16  C   UNL     1      -9.419   9.424  68.770  1.00  0.00    -0.150 C  
HETATM   17  C   UNL     1      -7.249   9.963  67.643  1.00  0.00    -0.089 C  
HETATM   18  C   UNL     1      -8.915  11.785  68.088  1.00  0.00    -0.181 C  
HETATM   19  C   UNL     1     -10.064   9.162  67.400  1.00  0.00    -0.230 C  
HETATM   20  C   UNL     1      -7.890   9.713  66.267  1.00  0.00    -0.101 C  
HETATM   21  C   UNL     1     -10.677  10.470  66.867  1.00  0.00    -0.281 C  
HETATM   22  C   UNL     1      -8.499  11.026  65.735  1.00  0.00    -0.119 C  
HETATM   23  O   UNL     1     -11.093   8.191  67.535  1.00  0.00    -0.483 OA 
HETATM   24  C   UNL     1      -8.998   8.663  66.412  1.00  0.00    -0.197 C  
HETATM   25  H   UNL     1     -11.492   8.029  66.688  1.00  0.00     0.000 HD 
HETATM   26  C   UNL     1      -8.311  10.476  68.628  1.00  0.00    -0.132 C  
ENDBRANCH   3  15
TORSDOF 2
ENDMDL
MODEL       77
REMARK 921   NORMALIZED FREE ENERGY PREDICTED BY IDOCK:   -5.14 KCAL/MOL
REMARK 922        TOTAL FREE ENERGY PREDICTED BY IDOCK:   -6.20 KCAL/MOL
REMARK 923 INTER-LIGAND FREE ENERGY PREDICTED BY IDOCK:   -5.60 KCAL/MOL
REMARK 924 INTRA-LIGAND FREE ENERGY PREDICTED BY IDOCK:   -0.61 KCAL/MOL
REMARK 927      BINDING AFFINITY PREDICTED BY RF-SCORE:    0.00 PKD
ROOT
HETATM    1  N   UNL     1     -11.813   6.621  69.685  1.00  0.00    -0.646 NA 
HETATM    2  H1  UNL     1     -12.238   6.057  70.420  1.00  0.00     0.000 HD 
HETATM    3  C   UNL     1     -11.208   7.807  70.334  1.00  0.00    -0.237 C  
HETATM    4  H2  UNL     1     -11.151   6.098  69.113  1.00  0.00     0.000 HD 
ENDROOT
BRANCH   3   5
HETATM    5  C   UNL     1     -10.559   8.669  69.210  1.00  0.00    -0.192 C  
HETATM    6  N   UNL     1      -7.599  10.904  68.158  1.00  0.00    -0.090 NA 
HETATM    7  N   UNL     1     -10.899  10.002  69.149  1.00  0.00    -0.216 N  
HETATM    8  O   UNL     1      -9.772   8.171  68.402  1.00  0.00    -0.155 OA 
HETATM    9  C   UNL     1      -8.763  10.889  68.205  1.00  0.00    -0.140 C  
HETATM   10  C   UNL     1     -10.238  10.954  68.226  1.00  0.00    -0.173 C  
HETATM   11  C   UNL     1     -12.109  10.594  69.656  1.00  0.00    -0.240 C  
HETATM   12  C   UNL     1     -10.688  12.336  68.757  1.00  0.00    -0.247 C  
HETATM   13  C   UNL     1     -12.143  11.543  70.805  1.00  0.00    -0.410 C  
HETATM   14  C   UNL     1     -12.025  12.082  69.401  1.00  0.00    -0.334 C  
ENDBRANCH   3   5
BRANCH   3  15
HETATM   15  C   UNL     1     -10.201   7.406  71.472  1.00  0.00    -0.205 C  
HETATM   16  C   UNL     1      -7.477   6.595  72.399  1.00  0.00    -0.093 C  
HETATM   17  C   UNL     1      -9.363   5.483  73.612  1.00  0.00    -0.137 C  
HETATM   18  C   UNL     1      -9.581   6.004  71.168  1.00  0.00    -0.195 C  
HETATM   19  C   UNL     1      -8.064   7.972  72.749  1.00  0.00    -0.153 C  
HETATM   20  C   UNL     1      -9.964   6.856  73.958  1.00  0.00    -0.371 C  
HETATM   21  C   UNL     1      -9.029   8.413  71.633  1.00  0.00    -0.261 C  
HETATM   22  C   UNL     1     -10.932   7.292  72.840  1.00  0.00    -0.381 C  
HETATM   23  O   UNL     1      -7.015   8.925  72.858  1.00  0.00    -0.327 OA 
HETATM   24  C   UNL     1      -8.832   7.884  74.078  1.00  0.00    -0.270 C  
HETATM   25  H   UNL     1      -7.378   9.775  73.074  1.00  0.00     0.000 HD 
HETATM   26  C   UNL     1      -8.608   5.565  72.277  1.00  0.00    -0.126 C  
ENDBRANCH   3  15
TORSDOF 2
ENDMDL
MODEL       78
REMARK 921   NORMALIZED FREE ENERGY PREDICTED BY IDOCK:   -5.13 KCAL/MOL
REMARK 922        TOTAL FREE ENERGY PREDICTED BY IDOCK:   -6.19 KCAL/MOL
REMARK 923 INTER-LIGAND FREE ENERGY PREDICTED BY IDOCK:   -5.68 KCAL/MOL
REMARK 924 INTRA-LIGAND FREE ENERGY PREDICTED BY IDOCK:   -0.52 KCAL/MOL
REMARK 927      BINDING AFFINITY PREDICTED BY RF-SCORE:    0.00 PKD
ROOT
HETATM    1  N   UNL     1      -7.061  15.542  69.041  1.00  0.00    -0.135 NA 
HETATM    2  H1  UNL     1      -6.452  16.288  69.377  1.00  0.00     0.000 HD 
HETATM    3  C   UNL     1      -8.457  16.013  69.198  1.00  0.00    -0.247 C  
HETATM    4  H2  UNL     1      -6.844  15.246  68.090  1.00  0.00     0.000 HD 
ENDROOT
BRANCH   3   5
HETATM    5  C   UNL     1      -9.389  14.873  68.687  1.00  0.00    -0.194 C  
HETATM    6  N   UNL     1     -12.276  13.874  66.336  1.00  0.00    -0.451 NA 
HETATM    7  N   UNL     1     -10.571  14.662  69.362  1.00  0.00    -0.227 N  
HETATM    8  O   UNL     1      -9.074  14.183  67.715  1.00  0.00    -0.177 OA 
HETATM    9  C   UNL     1     -11.946  13.824  67.452  1.00  0.00    -0.388 C  
HETATM   10  C   UNL     1     -11.606  13.715  68.884  1.00  0.00    -0.322 C  
HETATM   11  C   UNL     1     -10.840  15.009  70.732  1.00  0.00    -0.071 C  
HETATM   12  C   UNL     1     -12.843  14.077  69.740  1.00  0.00     0.225 C  
HETATM   13  C   UNL     1     -11.817  16.060  71.139  1.00  0.00    -0.465 C  
HETATM   14  C   UNL     1     -12.274  14.627  71.022  1.00  0.00    -0.399 C  
ENDBRANCH   3   5
BRANCH   3  15
HETATM   15  C   UNL     1      -8.700  17.387  68.476  1.00  0.00    -0.277 C  
HETATM   16  C   UNL     1     -10.509  19.400  67.205  1.00  0.00    -0.577 C  
HETATM   17  C   UNL     1      -8.276  19.160  66.098  1.00  0.00    -0.264 C  
HETATM   18  C   UNL     1      -9.399  17.152  67.099  1.00  0.00    -0.249 C  
HETATM   19  C   UNL     1      -9.813  19.684  68.545  1.00  0.00    -0.424 C  
HETATM   20  C   UNL     1      -7.571  19.433  67.437  1.00  0.00    -0.269 C  
HETATM   21  C   UNL     1      -9.594  18.358  69.297  1.00  0.00     0.027 C  
HETATM   22  C   UNL     1      -7.350  18.103  68.185  1.00  0.00    -0.254 C  
HETATM   23  O   UNL     1     -10.631  20.535  69.337  1.00  0.00    -0.340 OA 
HETATM   24  C   UNL     1      -8.453  20.353  68.290  1.00  0.00     0.121 C  
HETATM   25  H   UNL     1     -10.201  20.711  70.165  1.00  0.00     0.000 HD 
HETATM   26  C   UNL     1      -9.629  18.477  66.350  1.00  0.00    -0.322 C  
ENDBRANCH   3  15
TORSDOF 2
ENDMDL
MODEL       79
REMARK 921   NORMALIZED FREE ENERGY PREDICTED BY IDOCK:   -5.13 KCAL/MOL
REMARK 922        TOTAL FREE ENERGY PREDICTED BY IDOCK:   -6.19 KCAL/MOL
REMARK 923 INTER-LIGAND FREE ENERGY PREDICTED BY IDOCK:   -5.95 KCAL/MOL
REMARK 924 INTRA-LIGAND FREE ENERGY PREDICTED BY IDOCK:   -0.24 KCAL/MOL
REMARK 927      BINDING AFFINITY PREDICTED BY RF-SCORE:    0.00 PKD
ROOT
HETATM    1  N   UNL     1     -11.173  16.912  69.008  1.00  0.00    -0.224 NA 
HETATM    2  H1  UNL     1     -11.112  17.590  69.767  1.00  0.00     0.000 HD 
HETATM    3  C   UNL     1     -10.952  15.570  69.597  1.00  0.00    -0.286 C  
HETATM    4  H2  UNL     1     -12.045  16.978  68.483  1.00  0.00     0.000 HD 
ENDROOT
BRANCH   3   5
HETATM    5  C   UNL     1     -11.045  14.535  68.437  1.00  0.00    -0.256 C  
HETATM    6  N   UNL     1     -11.568  10.850  67.434  1.00  0.00    -0.486 NA 
HETATM    7  N   UNL     1      -9.878  13.928  68.026  1.00  0.00    -0.227 N  
HETATM    8  O   UNL     1     -12.126  14.273  67.904  1.00  0.00    -0.345 OA 
HETATM    9  C   UNL     1     -10.836  11.743  67.285  1.00  0.00    -0.253 C  
HETATM   10  C   UNL     1      -9.858  12.821  67.041  1.00  0.00    -0.231 C  
HETATM   11  C   UNL     1      -8.548  14.456  68.177  1.00  0.00    -0.166 C  
HETATM   12  C   UNL     1      -8.422  12.257  67.169  1.00  0.00    -0.184 C  
HETATM   13  C   UNL     1      -7.516  13.846  69.065  1.00  0.00    -0.032 C  
HETATM   14  C   UNL     1      -7.589  13.429  67.618  1.00  0.00    -0.177 C  
ENDBRANCH   3   5
BRANCH   3  15
HETATM   15  C   UNL     1     -11.945  15.275  70.778  1.00  0.00    -0.384 C  
HETATM   16  C   UNL     1     -12.507  14.357  73.567  1.00  0.00    -0.105 C  
HETATM   17  C   UNL     1     -14.236  13.692  71.884  1.00  0.00    -0.250 C  
HETATM   18  C   UNL     1     -11.817  13.783  71.224  1.00  0.00     0.164 C  
HETATM   19  C   UNL     1     -12.678  15.829  73.160  1.00  0.00    -0.507 C  
HETATM   20  C   UNL     1     -14.406  15.161  71.463  1.00  0.00    -0.660 C  
HETATM   21  C   UNL     1     -11.690  16.162  72.028  1.00  0.00    -0.574 C  
HETATM   22  C   UNL     1     -13.418  15.490  70.326  1.00  0.00     0.352 C  
HETATM   23  O   UNL     1     -12.404  16.667  74.275  1.00  0.00    -0.643 OA 
HETATM   24  C   UNL     1     -14.114  16.066  72.666  1.00  0.00    -0.227 C  
HETATM   25  H   UNL     1     -12.510  17.577  74.024  1.00  0.00     0.000 HD 
HETATM   26  C   UNL     1     -12.797  13.450  72.364  1.00  0.00    -0.250 C  
ENDBRANCH   3  15
TORSDOF 2
ENDMDL
MODEL       80
REMARK 921   NORMALIZED FREE ENERGY PREDICTED BY IDOCK:   -5.12 KCAL/MOL
REMARK 922        TOTAL FREE ENERGY PREDICTED BY IDOCK:   -6.18 KCAL/MOL
REMARK 923 INTER-LIGAND FREE ENERGY PREDICTED BY IDOCK:   -5.66 KCAL/MOL
REMARK 924 INTRA-LIGAND FREE ENERGY PREDICTED BY IDOCK:   -0.52 KCAL/MOL
REMARK 927      BINDING AFFINITY PREDICTED BY RF-SCORE:    0.00 PKD
ROOT
HETATM    1  N   UNL     1      -7.181  11.827  69.253  1.00  0.00    -0.306 NA 
HETATM    2  H1  UNL     1      -6.602  11.263  69.875  1.00  0.00     0.000 HD 
HETATM    3  C   UNL     1      -7.896  10.894  68.351  1.00  0.00    -0.123 C  
HETATM    4  H2  UNL     1      -7.807  12.458  69.753  1.00  0.00     0.000 HD 
ENDROOT
BRANCH   3   5
HETATM    5  C   UNL     1      -8.780  11.756  67.401  1.00  0.00    -0.162 C  
HETATM    6  N   UNL     1     -12.333  12.547  66.131  1.00  0.00    -0.539 NA 
HETATM    7  N   UNL     1      -9.005  11.278  66.129  1.00  0.00    -0.199 N  
HETATM    8  O   UNL     1      -9.255  12.830  67.775  1.00  0.00    -0.183 OA 
HETATM    9  C   UNL     1     -11.266  12.271  65.753  1.00  0.00    -0.337 C  
HETATM   10  C   UNL     1      -9.947  11.926  65.186  1.00  0.00    -0.247 C  
HETATM   11  C   UNL     1      -8.165  10.360  65.405  1.00  0.00    -0.159 C  
HETATM   12  C   UNL     1     -10.122  10.867  64.071  1.00  0.00    -0.419 C  
HETATM   13  C   UNL     1      -8.577   8.971  65.050  1.00  0.00    -0.207 C  
HETATM   14  C   UNL     1      -8.831  10.092  64.074  1.00  0.00    -0.247 C  
ENDBRANCH   3   5
BRANCH   3  15
HETATM   15  C   UNL     1      -8.710   9.812  69.149  1.00  0.00    -0.155 C  
HETATM   16  C   UNL     1     -10.275   8.945  71.544  1.00  0.00    -0.398 C  
HETATM   17  C   UNL     1      -8.786   7.179  70.578  1.00  0.00    -0.154 C  
HETATM   18  C   UNL     1      -8.061   9.581  70.551  1.00  0.00    -0.199 C  
HETATM   19  C   UNL     1     -10.946   9.128  70.173  1.00  0.00    -0.239 C  
HETATM   20  C   UNL     1      -9.444   7.363  69.200  1.00  0.00    -0.149 C  
HETATM   21  C   UNL     1     -10.194  10.211  69.378  1.00  0.00    -0.246 C  
HETATM   22  C   UNL     1      -8.686   8.445  68.406  1.00  0.00    -0.136 C  
HETATM   23  O   UNL     1     -12.295   9.539  70.353  1.00  0.00    -0.479 OA 
HETATM   24  C   UNL     1     -10.900   7.804  69.394  1.00  0.00    -0.121 C  
HETATM   25  H   UNL     1     -12.710   9.652  69.506  1.00  0.00     0.000 HD 
HETATM   26  C   UNL     1      -8.817   8.506  71.352  1.00  0.00    -0.253 C  
ENDBRANCH   3  15
TORSDOF 2
ENDMDL
MODEL       81
REMARK 921   NORMALIZED FREE ENERGY PREDICTED BY IDOCK:   -5.10 KCAL/MOL
REMARK 922        TOTAL FREE ENERGY PREDICTED BY IDOCK:   -6.16 KCAL/MOL
REMARK 923 INTER-LIGAND FREE ENERGY PREDICTED BY IDOCK:   -5.68 KCAL/MOL
REMARK 924 INTRA-LIGAND FREE ENERGY PREDICTED BY IDOCK:   -0.48 KCAL/MOL
REMARK 927      BINDING AFFINITY PREDICTED BY RF-SCORE:    0.00 PKD
ROOT
HETATM    1  N   UNL     1      -7.433  10.201  70.549  1.00  0.00    -0.430 NA 
HETATM    2  H1  UNL     1      -6.989  10.802  69.854  1.00  0.00     0.000 HD 
HETATM    3  C   UNL     1      -8.804   9.913  70.069  1.00  0.00    -0.160 C  
HETATM    4  H2  UNL     1      -6.895   9.359  70.752  1.00  0.00     0.000 HD 
ENDROOT
BRANCH   3   5
HETATM    5  C   UNL     1      -9.483   8.996  71.131  1.00  0.00    -0.278 C  
HETATM    6  N   UNL     1     -11.394   5.720  71.818  1.00  0.00    -0.221 NA 
HETATM    7  N   UNL     1     -10.816   9.209  71.400  1.00  0.00    -0.322 N  
HETATM    8  O   UNL     1      -8.844   8.115  71.711  1.00  0.00    -0.128 OA 
HETATM    9  C   UNL     1     -11.454   6.869  71.998  1.00  0.00    -0.274 C  
HETATM   10  C   UNL     1     -11.608   8.311  72.273  1.00  0.00    -0.383 C  
HETATM   11  C   UNL     1     -11.536  10.440  71.206  1.00  0.00    -0.146 C  
HETATM   12  C   UNL     1     -13.069   8.739  71.993  1.00  0.00    -0.436 C  
HETATM   13  C   UNL     1     -12.619  10.611  70.195  1.00  0.00    -0.283 C  
HETATM   14  C   UNL     1     -12.975  10.189  71.599  1.00  0.00    -0.561 C  
ENDBRANCH   3   5
BRANCH   3  15
HETATM   15  C   UNL     1      -8.804   9.297  68.623  1.00  0.00    -0.132 C  
HETATM   16  C   UNL     1      -9.863   9.156  65.831  1.00  0.00    -0.305 C  
HETATM   17  C   UNL     1      -9.248   6.942  66.824  1.00  0.00    -0.177 C  
HETATM   18  C   UNL     1     -10.222   8.739  68.278  1.00  0.00    -0.240 C  
HETATM   19  C   UNL     1      -8.449   9.680  66.124  1.00  0.00    -0.120 C  
HETATM   20  C   UNL     1      -7.833   7.461  67.131  1.00  0.00    -0.117 C  
HETATM   21  C   UNL     1      -8.423  10.325  67.521  1.00  0.00    -0.118 C  
HETATM   22  C   UNL     1      -7.811   8.103  68.532  1.00  0.00    -0.118 C  
HETATM   23  O   UNL     1      -8.092  10.658  65.156  1.00  0.00    -0.253 OA 
HETATM   24  C   UNL     1      -7.447   8.514  66.085  1.00  0.00    -0.089 C  
HETATM   25  H   UNL     1      -7.217  10.982  65.337  1.00  0.00     0.000 HD 
HETATM   26  C   UNL     1     -10.253   8.103  66.877  1.00  0.00    -0.387 C  
ENDBRANCH   3  15
TORSDOF 2
ENDMDL
MODEL       82
REMARK 921   NORMALIZED FREE ENERGY PREDICTED BY IDOCK:   -5.10 KCAL/MOL
REMARK 922        TOTAL FREE ENERGY PREDICTED BY IDOCK:   -6.15 KCAL/MOL
REMARK 923 INTER-LIGAND FREE ENERGY PREDICTED BY IDOCK:   -5.51 KCAL/MOL
REMARK 924 INTRA-LIGAND FREE ENERGY PREDICTED BY IDOCK:   -0.64 KCAL/MOL
REMARK 927      BINDING AFFINITY PREDICTED BY RF-SCORE:    0.00 PKD
ROOT
HETATM    1  N   UNL     1      -8.961   5.968  67.844  1.00  0.00    -0.119 NA 
HETATM    2  H1  UNL     1      -8.182   6.260  67.253  1.00  0.00     0.000 HD 
HETATM    3  C   UNL     1      -9.119   6.994  68.901  1.00  0.00    -0.134 C  
HETATM    4  H2  UNL     1      -9.819   5.798  67.320  1.00  0.00     0.000 HD 
ENDROOT
BRANCH   3   5
HETATM    5  C   UNL     1     -10.308   6.546  69.804  1.00  0.00    -0.195 C  
HETATM    6  N   UNL     1     -13.680   7.502  71.409  1.00  0.00    -0.358 NA 
HETATM    7  N   UNL     1     -10.202   6.775  71.158  1.00  0.00    -0.193 N  
HETATM    8  O   UNL     1     -11.303   6.003  69.321  1.00  0.00    -0.384 OA 
HETATM    9  C   UNL     1     -12.628   7.079  71.674  1.00  0.00    -0.380 C  
HETATM   10  C   UNL     1     -11.322   6.535  72.098  1.00  0.00    -0.282 C  
HETATM   11  C   UNL     1      -8.979   6.920  71.903  1.00  0.00    -0.137 C  
HETATM   12  C   UNL     1     -10.860   7.247  73.393  1.00  0.00    -0.370 C  
HETATM   13  C   UNL     1      -8.553   8.195  72.546  1.00  0.00    -0.255 C  
HETATM   14  C   UNL     1      -9.356   7.196  73.341  1.00  0.00    -0.220 C  
ENDBRANCH   3   5
BRANCH   3  15
HETATM   15  C   UNL     1      -9.300   8.434  68.300  1.00  0.00    -0.139 C  
HETATM   16  C   UNL     1     -11.025  10.706  67.405  1.00  0.00    -0.361 C  
HETATM   17  C   UNL     1      -8.993  10.323  65.994  1.00  0.00    -0.173 C  
HETATM   18  C   UNL     1     -10.192   8.372  67.019  1.00  0.00    -0.377 C  
HETATM   19  C   UNL     1     -10.136  10.821  68.653  1.00  0.00    -0.183 C  
HETATM   20  C   UNL     1      -8.097  10.425  67.239  1.00  0.00    -0.114 C  
HETATM   21  C   UNL     1      -9.969   9.429  69.289  1.00  0.00    -0.182 C  
HETATM   22  C   UNL     1      -7.928   9.029  67.871  1.00  0.00    -0.102 C  
HETATM   23  O   UNL     1     -10.747  11.690  69.597  1.00  0.00    -0.450 OA 
HETATM   24  C   UNL     1      -8.755  11.366  68.256  1.00  0.00    -0.160 C  
HETATM   25  H   UNL     1     -10.198  11.761  70.368  1.00  0.00     0.000 HD 
HETATM   26  C   UNL     1     -10.370   9.764  66.387  1.00  0.00    -0.247 C  
ENDBRANCH   3  15
TORSDOF 2
ENDMDL
MODEL       83
REMARK 921   NORMALIZED FREE ENERGY PREDICTED BY IDOCK:   -5.09 KCAL/MOL
REMARK 922        TOTAL FREE ENERGY PREDICTED BY IDOCK:   -6.15 KCAL/MOL
REMARK 923 INTER-LIGAND FREE ENERGY PREDICTED BY IDOCK:   -7.00 KCAL/MOL
REMARK 924 INTRA-LIGAND FREE ENERGY PREDICTED BY IDOCK:    0.86 KCAL/MOL
REMARK 927      BINDING AFFINITY PREDICTED BY RF-SCORE:    0.00 PKD
ROOT
HETATM    1  N   UNL     1      -7.929  16.282  68.676  1.00  0.00    -0.201 NA 
HETATM    2  H1  UNL     1      -7.964  15.417  69.216  1.00  0.00     0.000 HD 
HETATM    3  C   UNL     1      -7.958  15.905  67.243  1.00  0.00    -0.182 C  
HETATM    4  H2  UNL     1      -8.664  16.942  68.930  1.00  0.00     0.000 HD 
ENDROOT
BRANCH   3   5
HETATM    5  C   UNL     1      -7.904  17.226  66.417  1.00  0.00    -0.310 C  
HETATM    6  N   UNL     1      -6.289  20.700  65.987  1.00  0.00    -0.226 NA 
HETATM    7  N   UNL     1      -8.745  18.250  66.795  1.00  0.00    -0.265 N  
HETATM    8  O   UNL     1      -7.138  17.345  65.459  1.00  0.00    -0.211 OA 
HETATM    9  C   UNL     1      -7.326  20.178  66.080  1.00  0.00    -0.284 C  
HETATM   10  C   UNL     1      -8.681  19.600  66.188  1.00  0.00    -0.333 C  
HETATM   11  C   UNL     1      -9.982  18.111  67.517  1.00  0.00    -0.332 C  
HETATM   12  C   UNL     1      -9.537  20.463  67.146  1.00  0.00    -0.587 C  
HETATM   13  C   UNL     1     -10.185  18.612  68.906  1.00  0.00    -0.262 C  
HETATM   14  C   UNL     1     -10.534  19.501  67.739  1.00  0.00    -0.574 C  
ENDBRANCH   3   5
BRANCH   3  15
HETATM   15  C   UNL     1      -9.196  15.003  66.896  1.00  0.00    -0.265 C  
HETATM   16  C   UNL     1     -10.924  12.614  67.392  1.00  0.00    -0.289 C  
HETATM   17  C   UNL     1     -10.601  13.181  64.975  1.00  0.00    -0.347 C  
HETATM   18  C   UNL     1      -8.729  13.541  66.607  1.00  0.00    -0.017 C  
HETATM   19  C   UNL     1     -11.435  14.039  67.657  1.00  0.00    -0.334 C  
HETATM   20  C   UNL     1     -11.100  14.612  65.233  1.00  0.00    -0.363 C  
HETATM   21  C   UNL     1     -10.248  14.943  68.038  1.00  0.00    -0.228 C  
HETATM   22  C   UNL     1      -9.909  15.515  65.611  1.00  0.00    -0.377 C  
HETATM   23  O   UNL     1     -12.365  14.021  68.731  1.00  0.00    -0.522 OA 
HETATM   24  C   UNL     1     -12.107  14.592  66.390  1.00  0.00    -0.229 C  
HETATM   25  H   UNL     1     -12.681  14.902  68.895  1.00  0.00     0.000 HD 
HETATM   26  C   UNL     1      -9.915  12.632  66.236  1.00  0.00    -0.266 C  
ENDBRANCH   3  15
TORSDOF 2
ENDMDL
MODEL       84
REMARK 921   NORMALIZED FREE ENERGY PREDICTED BY IDOCK:   -5.08 KCAL/MOL
REMARK 922        TOTAL FREE ENERGY PREDICTED BY IDOCK:   -6.13 KCAL/MOL
REMARK 923 INTER-LIGAND FREE ENERGY PREDICTED BY IDOCK:   -5.47 KCAL/MOL
REMARK 924 INTRA-LIGAND FREE ENERGY PREDICTED BY IDOCK:   -0.67 KCAL/MOL
REMARK 927      BINDING AFFINITY PREDICTED BY RF-SCORE:    0.00 PKD
ROOT
HETATM    1  N   UNL     1     -11.307   6.573  67.659  1.00  0.00    -0.702 NA 
HETATM    2  H1  UNL     1     -12.000   5.956  68.082  1.00  0.00     0.000 HD 
HETATM    3  C   UNL     1     -11.112   7.715  68.584  1.00  0.00     0.272 C  
HETATM    4  H2  UNL     1     -10.437   6.096  67.426  1.00  0.00     0.000 HD 
ENDROOT
BRANCH   3   5
HETATM    5  C   UNL     1     -10.053   8.657  67.937  1.00  0.00    -0.203 C  
HETATM    6  N   UNL     1      -6.763  10.612  68.398  1.00  0.00    -0.059 NA 
HETATM    7  N   UNL     1     -10.257  10.015  68.045  1.00  0.00    -0.171 N  
HETATM    8  O   UNL     1      -9.072   8.201  67.347  1.00  0.00    -0.132 OA 
HETATM    9  C   UNL     1      -7.868  10.749  68.057  1.00  0.00    -0.106 C  
HETATM   10  C   UNL     1      -9.250  11.011  67.607  1.00  0.00    -0.149 C  
HETATM   11  C   UNL     1     -11.522  10.673  68.238  1.00  0.00    -0.245 C  
HETATM   12  C   UNL     1      -9.758  12.331  68.234  1.00  0.00    -0.219 C  
HETATM   13  C   UNL     1     -11.886  11.409  69.483  1.00  0.00    -0.426 C  
HETATM   14  C   UNL     1     -11.250  12.157  68.338  1.00  0.00    -0.314 C  
ENDBRANCH   3   5
BRANCH   3  15
HETATM   15  C   UNL     1     -10.724   7.241  70.030  1.00  0.00    -0.261 C  
HETATM   16  C   UNL     1      -8.689   6.517  72.097  1.00  0.00    -0.131 C  
HETATM   17  C   UNL     1     -10.764   5.117  72.145  1.00  0.00    -0.252 C  
HETATM   18  C   UNL     1      -9.860   5.942  69.954  1.00  0.00    -0.223 C  
HETATM   19  C   UNL     1      -9.543   7.787  72.227  1.00  0.00    -0.176 C  
HETATM   20  C   UNL     1     -11.628   6.384  72.264  1.00  0.00    -0.341 C  
HETATM   21  C   UNL     1      -9.910   8.301  70.823  1.00  0.00    -0.205 C  
HETATM   22  C   UNL     1     -11.996   6.893  70.856  1.00  0.00    -0.430 C  
HETATM   23  O   UNL     1      -8.804   8.792  72.909  1.00  0.00    -0.362 OA 
HETATM   24  C   UNL     1     -10.832   7.467  73.002  1.00  0.00    -0.445 C  
HETATM   25  H   UNL     1      -9.332   9.577  72.989  1.00  0.00     0.000 HD 
HETATM   26  C   UNL     1      -9.483   5.432  71.357  1.00  0.00    -0.188 C  
ENDBRANCH   3  15
TORSDOF 2
ENDMDL
MODEL       85
REMARK 921   NORMALIZED FREE ENERGY PREDICTED BY IDOCK:   -5.02 KCAL/MOL
REMARK 922        TOTAL FREE ENERGY PREDICTED BY IDOCK:   -6.07 KCAL/MOL
REMARK 923 INTER-LIGAND FREE ENERGY PREDICTED BY IDOCK:   -5.64 KCAL/MOL
REMARK 924 INTRA-LIGAND FREE ENERGY PREDICTED BY IDOCK:   -0.43 KCAL/MOL
REMARK 927      BINDING AFFINITY PREDICTED BY RF-SCORE:    0.00 PKD
ROOT
HETATM    1  N   UNL     1     -11.531  10.890  70.669  1.00  0.00    -0.420 NA 
HETATM    2  H1  UNL     1     -12.231  11.436  70.167  1.00  0.00     0.000 HD 
HETATM    3  C   UNL     1     -11.039   9.845  69.740  1.00  0.00    -0.254 C  
HETATM    4  H2  UNL     1     -10.782  11.461  71.060  1.00  0.00     0.000 HD 
ENDROOT
BRANCH   3   5
HETATM    5  C   UNL     1      -9.971   9.010  70.508  1.00  0.00    -0.215 C  
HETATM    6  N   UNL     1      -6.382   7.603  70.534  1.00  0.00    -0.037 NA 
HETATM    7  N   UNL     1      -9.934   7.653  70.276  1.00  0.00    -0.188 N  
HETATM    8  O   UNL     1      -9.191   9.547  71.297  1.00  0.00    -0.237 OA 
HETATM    9  C   UNL     1      -7.493   7.277  70.656  1.00  0.00    -0.079 C  
HETATM   10  C   UNL     1      -8.872   6.777  70.827  1.00  0.00    -0.150 C  
HETATM   11  C   UNL     1     -11.027   6.840  69.811  1.00  0.00    -0.297 C  
HETATM   12  C   UNL     1      -9.049   5.461  70.032  1.00  0.00    -0.160 C  
HETATM   13  C   UNL     1     -11.050   6.177  68.476  1.00  0.00    -0.352 C  
HETATM   14  C   UNL     1     -10.509   5.427  69.667  1.00  0.00    -0.361 C  
ENDBRANCH   3   5
BRANCH   3  15
HETATM   15  C   UNL     1     -10.504  10.458  68.396  1.00  0.00    -0.216 C  
HETATM   16  C   UNL     1      -8.410  10.708  66.277  1.00  0.00    -0.155 C  
HETATM   17  C   UNL     1      -9.584  12.847  66.839  1.00  0.00    -0.240 C  
HETATM   18  C   UNL     1      -9.129  11.159  68.638  1.00  0.00    -0.166 C  
HETATM   19  C   UNL     1      -9.764  10.042  65.988  1.00  0.00    -0.240 C  
HETATM   20  C   UNL     1     -10.944  12.185  66.562  1.00  0.00    -0.325 C  
HETATM   21  C   UNL     1     -10.300   9.397  67.279  1.00  0.00    -0.325 C  
HETATM   22  C   UNL     1     -11.479  11.544  67.858  1.00  0.00    -0.372 C  
HETATM   23  O   UNL     1      -9.599   9.032  65.001  1.00  0.00    -0.438 OA 
HETATM   24  C   UNL     1     -10.766  11.098  65.495  1.00  0.00    -0.251 C  
HETATM   25  H   UNL     1     -10.436   8.620  64.823  1.00  0.00     0.000 HD 
HETATM   26  C   UNL     1      -8.585  11.796  67.346  1.00  0.00    -0.160 C  
ENDBRANCH   3  15
TORSDOF 2
ENDMDL
MODEL       86
REMARK 921   NORMALIZED FREE ENERGY PREDICTED BY IDOCK:   -5.00 KCAL/MOL
REMARK 922        TOTAL FREE ENERGY PREDICTED BY IDOCK:   -6.05 KCAL/MOL
REMARK 923 INTER-LIGAND FREE ENERGY PREDICTED BY IDOCK:   -5.49 KCAL/MOL
REMARK 924 INTRA-LIGAND FREE ENERGY PREDICTED BY IDOCK:   -0.56 KCAL/MOL
REMARK 927      BINDING AFFINITY PREDICTED BY RF-SCORE:    0.00 PKD
ROOT
HETATM    1  N   UNL     1     -10.894  11.180  69.785  1.00  0.00    -0.459 NA 
HETATM    2  H1  UNL     1     -11.865  11.493  69.773  1.00  0.00     0.000 HD 
HETATM    3  C   UNL     1     -10.478  10.983  68.377  1.00  0.00    -0.180 C  
HETATM    4  H2  UNL     1     -10.278  11.809  70.300  1.00  0.00     0.000 HD 
ENDROOT
BRANCH   3   5
HETATM    5  C   UNL     1      -8.995  10.504  68.397  1.00  0.00    -0.141 C  
HETATM    6  N   UNL     1      -5.327  11.322  67.540  1.00  0.00    -0.043 NA 
HETATM    7  N   UNL     1      -8.537   9.798  67.306  1.00  0.00    -0.128 N  
HETATM    8  O   UNL     1      -8.262  10.745  69.358  1.00  0.00    -0.124 OA 
HETATM    9  C   UNL     1      -6.143  10.506  67.383  1.00  0.00    -0.053 C  
HETATM   10  C   UNL     1      -7.114   9.421  67.139  1.00  0.00    -0.086 C  
HETATM   11  C   UNL     1      -9.342   9.035  66.389  1.00  0.00    -0.206 C  
HETATM   12  C   UNL     1      -7.034   8.978  65.658  1.00  0.00    -0.080 C  
HETATM   13  C   UNL     1      -9.537   9.407  64.958  1.00  0.00    -0.126 C  
HETATM   14  C   UNL     1      -8.416   8.472  65.335  1.00  0.00    -0.190 C  
ENDBRANCH   3   5
BRANCH   3  15
HETATM   15  C   UNL     1     -10.704  12.273  67.510  1.00  0.00    -0.255 C  
HETATM   16  C   UNL     1     -10.575  15.236  67.131  1.00  0.00    -0.302 C  
HETATM   17  C   UNL     1     -12.584  14.143  66.113  1.00  0.00    -0.355 C  
HETATM   18  C   UNL     1     -11.640  13.269  68.267  1.00  0.00    -0.369 C  
HETATM   19  C   UNL     1      -9.659  14.288  66.341  1.00  0.00    -0.298 C  
HETATM   20  C   UNL     1     -11.676  13.183  65.326  1.00  0.00    -0.375 C  
HETATM   21  C   UNL     1      -9.386  13.027  67.180  1.00  0.00    -0.230 C  
HETATM   22  C   UNL     1     -11.407  11.920  66.168  1.00  0.00    -0.383 C  
HETATM   23  O   UNL     1      -8.425  14.937  66.064  1.00  0.00    -0.267 OA 
HETATM   24  C   UNL     1     -10.345  13.884  65.026  1.00  0.00    -0.418 C  
HETATM   25  H   UNL     1      -7.859  14.351  65.576  1.00  0.00     0.000 HD 
HETATM   26  C   UNL     1     -11.907  14.537  67.434  1.00  0.00    -0.416 C  
ENDBRANCH   3  15
TORSDOF 2
ENDMDL
MODEL       87
REMARK 921   NORMALIZED FREE ENERGY PREDICTED BY IDOCK:   -5.00 KCAL/MOL
REMARK 922        TOTAL FREE ENERGY PREDICTED BY IDOCK:   -6.05 KCAL/MOL
REMARK 923 INTER-LIGAND FREE ENERGY PREDICTED BY IDOCK:   -5.65 KCAL/MOL
REMARK 924 INTRA-LIGAND FREE ENERGY PREDICTED BY IDOCK:   -0.40 KCAL/MOL
REMARK 927      BINDING AFFINITY PREDICTED BY RF-SCORE:    0.00 PKD
ROOT
HETATM    1  N   UNL     1     -11.238  10.409  70.752  1.00  0.00    -0.381 NA 
HETATM    2  H1  UNL     1     -12.060  10.999  70.620  1.00  0.00     0.000 HD 
HETATM    3  C   UNL     1     -10.904   9.821  69.434  1.00  0.00    -0.232 C  
HETATM    4  H2  UNL     1     -10.455  10.904  71.178  1.00  0.00     0.000 HD 
ENDROOT
BRANCH   3   5
HETATM    5  C   UNL     1      -9.649   8.919  69.635  1.00  0.00    -0.169 C  
HETATM    6  N   UNL     1      -6.133   7.956  68.384  1.00  0.00    -0.043 NA 
HETATM    7  N   UNL     1      -9.631   7.698  68.998  1.00  0.00    -0.150 N  
HETATM    8  O   UNL     1      -8.710   9.287  70.343  1.00  0.00    -0.189 OA 
HETATM    9  C   UNL     1      -7.165   7.492  68.659  1.00  0.00    -0.086 C  
HETATM   10  C   UNL     1      -8.437   6.820  68.989  1.00  0.00    -0.128 C  
HETATM   11  C   UNL     1     -10.782   6.941  68.579  1.00  0.00    -0.207 C  
HETATM   12  C   UNL     1      -8.771   5.777  67.895  1.00  0.00    -0.103 C  
HETATM   13  C   UNL     1     -11.127   6.692  67.150  1.00  0.00    -0.427 C  
HETATM   14  C   UNL     1     -10.275   5.693  67.892  1.00  0.00    -0.234 C  
ENDBRANCH   3   5
BRANCH   3  15
HETATM   15  C   UNL     1     -10.710  10.922  68.330  1.00  0.00    -0.244 C  
HETATM   16  C   UNL     1     -11.664  12.428  65.930  1.00  0.00    -0.476 C  
HETATM   17  C   UNL     1      -9.207  11.949  65.949  1.00  0.00    -0.147 C  
HETATM   18  C   UNL     1     -10.816  10.280  66.909  1.00  0.00    -0.205 C  
HETATM   19  C   UNL     1     -11.542  13.107  67.303  1.00  0.00    -0.355 C  
HETATM   20  C   UNL     1      -9.077  12.616  67.328  1.00  0.00    -0.191 C  
HETATM   21  C   UNL     1     -11.765  12.061  68.410  1.00  0.00    -0.390 C  
HETATM   22  C   UNL     1      -9.297  11.565  68.434  1.00  0.00    -0.194 C  
HETATM   23  O   UNL     1     -12.527  14.124  67.423  1.00  0.00    -0.554 OA 
HETATM   24  C   UNL     1     -10.138  13.716  67.456  1.00  0.00    -0.237 C  
HETATM   25  H   UNL     1     -12.452  14.544  68.271  1.00  0.00     0.000 HD 
HETATM   26  C   UNL     1     -10.604  11.327  65.800  1.00  0.00    -0.306 C  
ENDBRANCH   3  15
TORSDOF 2
ENDMDL
MODEL       88
REMARK 921   NORMALIZED FREE ENERGY PREDICTED BY IDOCK:   -4.94 KCAL/MOL
REMARK 922        TOTAL FREE ENERGY PREDICTED BY IDOCK:   -5.98 KCAL/MOL
REMARK 923 INTER-LIGAND FREE ENERGY PREDICTED BY IDOCK:   -5.41 KCAL/MOL
REMARK 924 INTRA-LIGAND FREE ENERGY PREDICTED BY IDOCK:   -0.57 KCAL/MOL
REMARK 927      BINDING AFFINITY PREDICTED BY RF-SCORE:    0.00 PKD
ROOT
HETATM    1  N   UNL     1      -6.852  13.169  68.441  1.00  0.00    -0.088 NA 
HETATM    2  H1  UNL     1      -6.507  12.389  67.882  1.00  0.00     0.000 HD 
HETATM    3  C   UNL     1      -8.043  13.712  67.747  1.00  0.00    -0.173 C  
HETATM    4  H2  UNL     1      -7.036  12.916  69.411  1.00  0.00     0.000 HD 
ENDROOT
BRANCH   3   5
HETATM    5  C   UNL     1      -8.570  14.905  68.599  1.00  0.00    -0.168 C  
HETATM    6  N   UNL     1     -11.414  16.290  70.804  1.00  0.00    -0.377 NA 
HETATM    7  N   UNL     1      -9.315  15.870  67.957  1.00  0.00    -0.200 N  
HETATM    8  O   UNL     1      -8.324  14.983  69.805  1.00  0.00    -0.112 OA 
HETATM    9  C   UNL     1     -10.769  16.553  69.870  1.00  0.00    -0.269 C  
HETATM   10  C   UNL     1      -9.996  16.968  68.683  1.00  0.00    -0.294 C  
HETATM   11  C   UNL     1      -9.268  16.185  66.553  1.00  0.00    -0.272 C  
HETATM   12  C   UNL     1     -10.955  17.556  67.620  1.00  0.00    -0.111 C  
HETATM   13  C   UNL     1     -10.402  15.938  65.616  1.00  0.00    -0.413 C  
HETATM   14  C   UNL     1     -10.284  17.276  66.301  1.00  0.00    -0.347 C  
ENDBRANCH   3   5
BRANCH   3  15
HETATM   15  C   UNL     1      -9.128  12.606  67.486  1.00  0.00    -0.192 C  
HETATM   16  C   UNL     1      -9.943   9.924  66.444  1.00  0.00    -0.309 C  
HETATM   17  C   UNL     1     -11.640  11.733  66.104  1.00  0.00    -0.215 C  
HETATM   18  C   UNL     1      -9.193  12.269  65.962  1.00  0.00    -0.086 C  
HETATM   19  C   UNL     1      -9.925  10.225  67.951  1.00  0.00    -0.164 C  
HETATM   20  C   UNL     1     -11.621  12.048  67.609  1.00  0.00    -0.392 C  
HETATM   21  C   UNL     1      -8.844  11.281  68.247  1.00  0.00    -0.158 C  
HETATM   22  C   UNL     1     -10.540  13.109  67.901  1.00  0.00    -0.243 C  
HETATM   23  O   UNL     1      -9.621   9.038  68.671  1.00  0.00    -0.150 OA 
HETATM   24  C   UNL     1     -11.296  10.767  68.387  1.00  0.00    -0.367 C  
HETATM   25  H   UNL     1      -9.611   9.224  69.603  1.00  0.00     0.000 HD 
HETATM   26  C   UNL     1     -10.266  11.206  65.664  1.00  0.00    -0.310 C  
ENDBRANCH   3  15
TORSDOF 2
ENDMDL
MODEL       89
REMARK 921   NORMALIZED FREE ENERGY PREDICTED BY IDOCK:   -4.94 KCAL/MOL
REMARK 922        TOTAL FREE ENERGY PREDICTED BY IDOCK:   -5.98 KCAL/MOL
REMARK 923 INTER-LIGAND FREE ENERGY PREDICTED BY IDOCK:   -5.47 KCAL/MOL
REMARK 924 INTRA-LIGAND FREE ENERGY PREDICTED BY IDOCK:   -0.51 KCAL/MOL
REMARK 927      BINDING AFFINITY PREDICTED BY RF-SCORE:    0.00 PKD
ROOT
HETATM    1  N   UNL     1      -6.962   9.596  70.876  1.00  0.00    -0.287 NA 
HETATM    2  H1  UNL     1      -6.615  10.548  70.754  1.00  0.00     0.000 HD 
HETATM    3  C   UNL     1      -8.377   9.585  70.439  1.00  0.00    -0.192 C  
HETATM    4  H2  UNL     1      -6.391   8.898  70.400  1.00  0.00     0.000 HD 
ENDROOT
BRANCH   3   5
HETATM    5  C   UNL     1      -8.907   8.132  70.627  1.00  0.00    -0.140 C  
HETATM    6  N   UNL     1     -10.646   5.096  69.009  1.00  0.00    -0.092 NA 
HETATM    7  N   UNL     1     -10.206   7.976  71.057  1.00  0.00    -0.190 N  
HETATM    8  O   UNL     1      -8.185   7.158  70.402  1.00  0.00    -0.122 OA 
HETATM    9  C   UNL     1     -10.714   5.805  69.930  1.00  0.00    -0.342 C  
HETATM   10  C   UNL     1     -10.871   6.653  71.128  1.00  0.00    -0.241 C  
HETATM   11  C   UNL     1     -10.974   8.935  71.808  1.00  0.00    -0.361 C  
HETATM   12  C   UNL     1     -12.365   7.015  71.315  1.00  0.00    -0.426 C  
HETATM   13  C   UNL     1     -12.169   9.641  71.263  1.00  0.00    -0.452 C  
HETATM   14  C   UNL     1     -12.351   8.347  72.016  1.00  0.00    -0.413 C  
ENDBRANCH   3   5
BRANCH   3  15
HETATM   15  C   UNL     1      -8.545  10.125  68.973  1.00  0.00    -0.156 C  
HETATM   16  C   UNL     1      -8.799  12.372  67.018  1.00  0.00    -0.210 C  
HETATM   17  C   UNL     1     -10.204  10.368  66.490  1.00  0.00    -0.289 C  
HETATM   18  C   UNL     1      -9.815  11.030  68.878  1.00  0.00    -0.189 C  
HETATM   19  C   UNL     1      -7.546  11.483  67.055  1.00  0.00    -0.154 C  
HETATM   20  C   UNL     1      -8.957   9.469  66.536  1.00  0.00    -0.173 C  
HETATM   21  C   UNL     1      -7.331  10.967  68.490  1.00  0.00    -0.098 C  
HETATM   22  C   UNL     1      -8.747   8.951  67.973  1.00  0.00    -0.133 C  
HETATM   23  O   UNL     1      -6.411  12.242  66.662  1.00  0.00    -0.470 OA 
HETATM   24  C   UNL     1      -7.732  10.287  66.108  1.00  0.00    -0.123 C  
HETATM   25  H   UNL     1      -5.636  11.692  66.685  1.00  0.00     0.000 HD 
HETATM   26  C   UNL     1     -10.026  11.556  67.447  1.00  0.00    -0.209 C  
ENDBRANCH   3  15
TORSDOF 2
ENDMDL
MODEL       90
REMARK 921   NORMALIZED FREE ENERGY PREDICTED BY IDOCK:   -4.93 KCAL/MOL
REMARK 922        TOTAL FREE ENERGY PREDICTED BY IDOCK:   -5.96 KCAL/MOL
REMARK 923 INTER-LIGAND FREE ENERGY PREDICTED BY IDOCK:   -5.70 KCAL/MOL
REMARK 924 INTRA-LIGAND FREE ENERGY PREDICTED BY IDOCK:   -0.27 KCAL/MOL
REMARK 927      BINDING AFFINITY PREDICTED BY RF-SCORE:    0.00 PKD
ROOT
HETATM    1  N   UNL     1     -11.819  15.604  67.951  1.00  0.00    -0.277 NA 
HETATM    2  H1  UNL     1     -11.961  16.517  68.383  1.00  0.00     0.000 HD 
HETATM    3  C   UNL     1     -11.171  14.736  68.962  1.00  0.00    -0.270 C  
HETATM    4  H2  UNL     1     -12.677  15.203  67.573  1.00  0.00     0.000 HD 
ENDROOT
BRANCH   3   5
HETATM    5  C   UNL     1     -10.953  13.341  68.302  1.00  0.00    -0.256 C  
HETATM    6  N   UNL     1     -10.587   9.541  68.834  1.00  0.00    -0.219 NA 
HETATM    7  N   UNL     1      -9.656  12.908  68.139  1.00  0.00    -0.220 N  
HETATM    8  O   UNL     1     -11.909  12.655  67.937  1.00  0.00    -0.350 OA 
HETATM    9  C   UNL     1     -10.058  10.449  68.333  1.00  0.00    -0.163 C  
HETATM   10  C   UNL     1      -9.323  11.543  67.666  1.00  0.00    -0.171 C  
HETATM   11  C   UNL     1      -8.486  13.741  68.044  1.00  0.00    -0.176 C  
HETATM   12  C   UNL     1      -7.812  11.416  67.975  1.00  0.00    -0.121 C  
HETATM   13  C   UNL     1      -7.413  13.775  69.079  1.00  0.00     0.002 C  
HETATM   14  C   UNL     1      -7.289  12.827  67.912  1.00  0.00    -0.120 C  
ENDBRANCH   3   5
BRANCH   3  15
HETATM   15  C   UNL     1     -11.994  14.672  70.298  1.00  0.00    -0.370 C  
HETATM   16  C   UNL     1     -14.410  13.846  71.855  1.00  0.00    -0.377 C  
HETATM   17  C   UNL     1     -13.486  16.088  72.477  1.00  0.00    -0.340 C  
HETATM   18  C   UNL     1     -13.402  15.318  70.091  1.00  0.00     0.195 C  
HETATM   19  C   UNL     1     -13.036  13.209  72.114  1.00  0.00    -0.276 C  
HETATM   20  C   UNL     1     -12.105  15.461  72.729  1.00  0.00    -0.539 C  
HETATM   21  C   UNL     1     -12.215  13.221  70.811  1.00  0.00    -0.390 C  
HETATM   22  C   UNL     1     -11.285  15.479  71.423  1.00  0.00    -0.410 C  
HETATM   23  O   UNL     1     -13.206  11.863  72.540  1.00  0.00    -0.493 OA 
HETATM   24  C   UNL     1     -12.288  14.010  73.192  1.00  0.00     0.233 C  
HETATM   25  H   UNL     1     -12.356  11.470  72.700  1.00  0.00     0.000 HD 
HETATM   26  C   UNL     1     -14.229  15.297  71.390  1.00  0.00    -0.589 C  
ENDBRANCH   3  15
TORSDOF 2
ENDMDL
MODEL       91
REMARK 921   NORMALIZED FREE ENERGY PREDICTED BY IDOCK:   -4.91 KCAL/MOL
REMARK 922        TOTAL FREE ENERGY PREDICTED BY IDOCK:   -5.95 KCAL/MOL
REMARK 923 INTER-LIGAND FREE ENERGY PREDICTED BY IDOCK:   -6.13 KCAL/MOL
REMARK 924 INTRA-LIGAND FREE ENERGY PREDICTED BY IDOCK:    0.18 KCAL/MOL
REMARK 927      BINDING AFFINITY PREDICTED BY RF-SCORE:    0.00 PKD
ROOT
HETATM    1  N   UNL     1      -8.348  10.706  65.043  1.00  0.00    -0.293 NA 
HETATM    2  H1  UNL     1      -8.176   9.711  64.898  1.00  0.00     0.000 HD 
HETATM    3  C   UNL     1      -9.574  10.825  65.865  1.00  0.00    -0.208 C  
HETATM    4  H2  UNL     1      -7.549  11.196  65.444  1.00  0.00     0.000 HD 
ENDROOT
BRANCH   3   5
HETATM    5  C   UNL     1      -9.838  12.345  66.085  1.00  0.00    -0.252 C  
HETATM    6  N   UNL     1     -11.869  15.030  67.961  1.00  0.00    -0.305 NA 
HETATM    7  N   UNL     1     -10.777  12.953  65.282  1.00  0.00    -0.289 N  
HETATM    8  O   UNL     1      -9.222  12.979  66.945  1.00  0.00    -0.224 OA 
HETATM    9  C   UNL     1     -11.564  14.698  66.887  1.00  0.00    -0.362 C  
HETATM   10  C   UNL     1     -11.224  14.350  65.493  1.00  0.00    -0.330 C  
HETATM   11  C   UNL     1     -11.190  12.514  63.975  1.00  0.00    -0.403 C  
HETATM   12  C   UNL     1     -12.490  14.457  64.609  1.00  0.00    -0.364 C  
HETATM   13  C   UNL     1     -12.555  11.995  63.674  1.00  0.00    -0.605 C  
HETATM   14  C   UNL     1     -12.265  13.464  63.499  1.00  0.00    -0.468 C  
ENDBRANCH   3   5
BRANCH   3  15
HETATM   15  C   UNL     1      -9.466  10.011  67.205  1.00  0.00    -0.184 C  
HETATM   16  C   UNL     1      -8.860   7.497  68.706  1.00  0.00    -0.131 C  
HETATM   17  C   UNL     1     -10.797   8.805  69.603  1.00  0.00    -0.175 C  
HETATM   18  C   UNL     1     -10.369   8.738  67.132  1.00  0.00    -0.364 C  
HETATM   19  C   UNL     1      -7.964   8.739  68.832  1.00  0.00    -0.105 C  
HETATM   20  C   UNL     1      -9.911  10.056  69.723  1.00  0.00    -0.270 C  
HETATM   21  C   UNL     1      -8.018   9.542  67.519  1.00  0.00    -0.106 C  
HETATM   22  C   UNL     1      -9.970  10.859  68.408  1.00  0.00    -0.188 C  
HETATM   23  O   UNL     1      -6.622   8.338  69.074  1.00  0.00    -0.046 OA 
HETATM   24  C   UNL     1      -8.463   9.623  69.987  1.00  0.00    -0.223 C  
HETATM   25  H   UNL     1      -6.068   9.106  69.152  1.00  0.00     0.000 HD 
HETATM   26  C   UNL     1     -10.309   7.928  68.440  1.00  0.00    -0.235 C  
ENDBRANCH   3  15
TORSDOF 2
ENDMDL
MODEL       92
REMARK 921   NORMALIZED FREE ENERGY PREDICTED BY IDOCK:   -4.91 KCAL/MOL
REMARK 922        TOTAL FREE ENERGY PREDICTED BY IDOCK:   -5.95 KCAL/MOL
REMARK 923 INTER-LIGAND FREE ENERGY PREDICTED BY IDOCK:   -5.29 KCAL/MOL
REMARK 924 INTRA-LIGAND FREE ENERGY PREDICTED BY IDOCK:   -0.66 KCAL/MOL
REMARK 927      BINDING AFFINITY PREDICTED BY RF-SCORE:    0.00 PKD
ROOT
HETATM    1  N   UNL     1      -9.528   5.936  67.681  1.00  0.00    -0.110 NA 
HETATM    2  H1  UNL     1      -8.799   6.147  67.000  1.00  0.00     0.000 HD 
HETATM    3  C   UNL     1      -9.457   6.973  68.737  1.00  0.00    -0.136 C  
HETATM    4  H2  UNL     1     -10.455   5.854  67.263  1.00  0.00     0.000 HD 
ENDROOT
BRANCH   3   5
HETATM    5  C   UNL     1     -10.570   6.649  69.778  1.00  0.00    -0.228 C  
HETATM    6  N   UNL     1     -13.758   7.858  71.577  1.00  0.00    -0.342 NA 
HETATM    7  N   UNL     1     -10.337   6.995  71.091  1.00  0.00    -0.206 N  
HETATM    8  O   UNL     1     -11.619   6.098  69.437  1.00  0.00    -0.372 OA 
HETATM    9  C   UNL     1     -12.698   7.425  71.787  1.00  0.00    -0.334 C  
HETATM   10  C   UNL     1     -11.374   6.878  72.144  1.00  0.00    -0.265 C  
HETATM   11  C   UNL     1      -9.049   7.165  71.709  1.00  0.00    -0.139 C  
HETATM   12  C   UNL     1     -10.779   7.688  73.321  1.00  0.00    -0.409 C  
HETATM   13  C   UNL     1      -8.534   8.478  72.192  1.00  0.00    -0.221 C  
HETATM   14  C   UNL     1      -9.287   7.582  73.143  1.00  0.00    -0.258 C  
ENDBRANCH   3   5
BRANCH   3  15
HETATM   15  C   UNL     1      -9.561   8.424  68.145  1.00  0.00    -0.158 C  
HETATM   16  C   UNL     1      -8.565  10.608  66.363  1.00  0.00    -0.151 C  
HETATM   17  C   UNL     1      -9.474  11.390  68.560  1.00  0.00    -0.183 C  
HETATM   18  C   UNL     1      -8.240   9.211  68.420  1.00  0.00    -0.115 C  
HETATM   19  C   UNL     1      -9.889   9.882  66.074  1.00  0.00    -0.264 C  
HETATM   20  C   UNL     1     -10.798  10.658  68.285  1.00  0.00    -0.287 C  
HETATM   21  C   UNL     1      -9.806   8.441  66.610  1.00  0.00    -0.343 C  
HETATM   22  C   UNL     1     -10.713   9.217  68.826  1.00  0.00    -0.162 C  
HETATM   23  O   UNL     1     -10.116   9.842  64.672  1.00  0.00    -0.381 OA 
HETATM   24  C   UNL     1     -11.045  10.617  66.772  1.00  0.00    -0.103 C  
HETATM   25  H   UNL     1     -10.934   9.393  64.494  1.00  0.00     0.000 HD 
HETATM   26  C   UNL     1      -8.316  10.649  67.876  1.00  0.00    -0.120 C  
ENDBRANCH   3  15
TORSDOF 2
ENDMDL
MODEL       93
REMARK 921   NORMALIZED FREE ENERGY PREDICTED BY IDOCK:   -4.91 KCAL/MOL
REMARK 922        TOTAL FREE ENERGY PREDICTED BY IDOCK:   -5.94 KCAL/MOL
REMARK 923 INTER-LIGAND FREE ENERGY PREDICTED BY IDOCK:   -5.39 KCAL/MOL
REMARK 924 INTRA-LIGAND FREE ENERGY PREDICTED BY IDOCK:   -0.55 KCAL/MOL
REMARK 927      BINDING AFFINITY PREDICTED BY RF-SCORE:    0.00 PKD
ROOT
HETATM    1  N   UNL     1     -10.935  17.311  69.264  1.00  0.00    -0.248 NA 
HETATM    2  H1  UNL     1     -10.316  18.121  69.294  1.00  0.00     0.000 HD 
HETATM    3  C   UNL     1     -10.475  16.448  68.150  1.00  0.00    -0.302 C  
HETATM    4  H2  UNL     1     -10.990  16.817  70.154  1.00  0.00     0.000 HD 
ENDROOT
BRANCH   3   5
HETATM    5  C   UNL     1     -11.421  15.211  68.104  1.00  0.00    -0.342 C  
HETATM    6  N   UNL     1     -11.730  11.375  68.331  1.00  0.00    -0.454 NA 
HETATM    7  N   UNL     1     -11.648  14.626  66.878  1.00  0.00    -0.369 N  
HETATM    8  O   UNL     1     -11.949  14.776  69.129  1.00  0.00    -0.303 OA 
HETATM    9  C   UNL     1     -12.008  12.276  67.648  1.00  0.00    -0.148 C  
HETATM   10  C   UNL     1     -12.403  13.359  66.725  1.00  0.00    -0.231 C  
HETATM   11  C   UNL     1     -11.532  15.268  65.595  1.00  0.00    -0.123 C  
HETATM   12  C   UNL     1     -12.096  12.936  65.268  1.00  0.00    -0.496 C  
HETATM   13  C   UNL     1     -10.493  14.912  64.587  1.00  0.00    -0.144 C  
HETATM   14  C   UNL     1     -11.836  14.228  64.540  1.00  0.00    -0.456 C  
ENDBRANCH   3   5
BRANCH   3  15
HETATM   15  C   UNL     1      -8.957  16.068  68.288  1.00  0.00    -0.183 C  
HETATM   16  C   UNL     1      -6.554  15.422  69.944  1.00  0.00    -0.144 C  
HETATM   17  C   UNL     1      -6.074  16.789  67.903  1.00  0.00    -0.145 C  
HETATM   18  C   UNL     1      -8.217  17.130  69.163  1.00  0.00    -0.010 C  
HETATM   19  C   UNL     1      -7.232  14.356  69.070  1.00  0.00    -0.129 C  
HETATM   20  C   UNL     1      -6.761  15.733  67.021  1.00  0.00    -0.020 C  
HETATM   21  C   UNL     1      -8.733  14.678  68.946  1.00  0.00    -0.138 C  
HETATM   22  C   UNL     1      -8.262  16.061  66.896  1.00  0.00    -0.277 C  
HETATM   23  O   UNL     1      -7.082  13.077  69.673  1.00  0.00    -0.327 OA 
HETATM   24  C   UNL     1      -6.597  14.353  67.670  1.00  0.00    -0.172 C  
HETATM   25  H   UNL     1      -7.502  12.418  69.133  1.00  0.00     0.000 HD 
HETATM   26  C   UNL     1      -6.718  16.804  69.297  1.00  0.00    -0.229 C  
ENDBRANCH   3  15
TORSDOF 2
ENDMDL
MODEL       94
REMARK 921   NORMALIZED FREE ENERGY PREDICTED BY IDOCK:   -4.91 KCAL/MOL
REMARK 922        TOTAL FREE ENERGY PREDICTED BY IDOCK:   -5.94 KCAL/MOL
REMARK 923 INTER-LIGAND FREE ENERGY PREDICTED BY IDOCK:   -5.42 KCAL/MOL
REMARK 924 INTRA-LIGAND FREE ENERGY PREDICTED BY IDOCK:   -0.52 KCAL/MOL
REMARK 927      BINDING AFFINITY PREDICTED BY RF-SCORE:    0.00 PKD
ROOT
HETATM    1  N   UNL     1     -11.109  11.112  70.376  1.00  0.00    -0.398 NA 
HETATM    2  H1  UNL     1     -11.837  11.637  69.892  1.00  0.00     0.000 HD 
HETATM    3  C   UNL     1     -10.664  10.033  69.462  1.00  0.00    -0.244 C  
HETATM    4  H2  UNL     1     -10.342  11.700  70.702  1.00  0.00     0.000 HD 
ENDROOT
BRANCH   3   5
HETATM    5  C   UNL     1      -9.552   9.231  70.202  1.00  0.00    -0.220 C  
HETATM    6  N   UNL     1      -6.155   7.429  69.936  1.00  0.00    -0.027 NA 
HETATM    7  N   UNL     1      -9.676   7.860  70.248  1.00  0.00    -0.182 N  
HETATM    8  O   UNL     1      -8.598   9.807  70.730  1.00  0.00    -0.183 OA 
HETATM    9  C   UNL     1      -7.249   7.268  70.299  1.00  0.00    -0.067 C  
HETATM   10  C   UNL     1      -8.613   6.979  70.787  1.00  0.00    -0.143 C  
HETATM   11  C   UNL     1     -10.902   7.114  70.139  1.00  0.00    -0.257 C  
HETATM   12  C   UNL     1      -9.045   5.570  70.315  1.00  0.00    -0.163 C  
HETATM   13  C   UNL     1     -11.225   6.223  68.988  1.00  0.00    -0.415 C  
HETATM   14  C   UNL     1     -10.545   5.646  70.204  1.00  0.00    -0.380 C  
ENDBRANCH   3   5
BRANCH   3  15
HETATM   15  C   UNL     1     -10.206  10.594  68.068  1.00  0.00    -0.202 C  
HETATM   16  C   UNL     1      -9.850  12.847  66.134  1.00  0.00    -0.270 C  
HETATM   17  C   UNL     1     -10.529  10.675  65.090  1.00  0.00    -0.271 C  
HETATM   18  C   UNL     1     -11.403  11.302  67.356  1.00  0.00    -0.349 C  
HETATM   19  C   UNL     1      -8.643  12.155  66.787  1.00  0.00    -0.163 C  
HETATM   20  C   UNL     1      -9.330   9.972  65.747  1.00  0.00    -0.241 C  
HETATM   21  C   UNL     1      -9.048  11.625  68.175  1.00  0.00    -0.183 C  
HETATM   22  C   UNL     1      -9.740   9.440  67.135  1.00  0.00    -0.225 C  
HETATM   23  O   UNL     1      -7.582  13.089  66.940  1.00  0.00    -0.388 OA 
HETATM   24  C   UNL     1      -8.184  10.979  65.910  1.00  0.00    -0.100 C  
HETATM   25  H   UNL     1      -6.836  12.661  67.343  1.00  0.00     0.000 HD 
HETATM   26  C   UNL     1     -10.998  11.842  65.972  1.00  0.00    -0.355 C  
ENDBRANCH   3  15
TORSDOF 2
ENDMDL
MODEL       95
REMARK 921   NORMALIZED FREE ENERGY PREDICTED BY IDOCK:   -4.90 KCAL/MOL
REMARK 922        TOTAL FREE ENERGY PREDICTED BY IDOCK:   -5.93 KCAL/MOL
REMARK 923 INTER-LIGAND FREE ENERGY PREDICTED BY IDOCK:   -5.34 KCAL/MOL
REMARK 924 INTRA-LIGAND FREE ENERGY PREDICTED BY IDOCK:   -0.59 KCAL/MOL
REMARK 927      BINDING AFFINITY PREDICTED BY RF-SCORE:    0.00 PKD
ROOT
HETATM    1  N   UNL     1     -12.590  10.656  69.078  1.00  0.00    -0.649 NA 
HETATM    2  H1  UNL     1     -12.842  11.001  68.152  1.00  0.00     0.000 HD 
HETATM    3  C   UNL     1     -11.366   9.835  68.923  1.00  0.00     0.058 C  
HETATM    4  H2  UNL     1     -12.488  11.399  69.768  1.00  0.00     0.000 HD 
ENDROOT
BRANCH   3   5
HETATM    5  C   UNL     1     -10.982   9.307  70.337  1.00  0.00    -0.255 C  
HETATM    6  N   UNL     1      -8.162   8.656  72.884  1.00  0.00    -0.412 NA 
HETATM    7  N   UNL     1     -10.678   7.969  70.458  1.00  0.00    -0.225 N  
HETATM    8  O   UNL     1     -10.957  10.061  71.312  1.00  0.00    -0.264 OA 
HETATM    9  C   UNL     1      -9.050   8.127  72.347  1.00  0.00    -0.215 C  
HETATM   10  C   UNL     1     -10.154   7.379  71.713  1.00  0.00    -0.175 C  
HETATM   11  C   UNL     1     -11.125   6.913  69.588  1.00  0.00    -0.258 C  
HETATM   12  C   UNL     1      -9.649   5.986  71.268  1.00  0.00    -0.189 C  
HETATM   13  C   UNL     1     -10.213   6.137  68.700  1.00  0.00    -0.220 C  
HETATM   14  C   UNL     1     -10.510   5.626  70.087  1.00  0.00    -0.366 C  
ENDBRANCH   3   5
BRANCH   3  15
HETATM   15  C   UNL     1     -10.209  10.632  68.220  1.00  0.00    -0.187 C  
HETATM   16  C   UNL     1      -7.812  10.752  66.437  1.00  0.00    -0.148 C  
HETATM   17  C   UNL     1      -7.703  12.262  68.431  1.00  0.00    -0.141 C  
HETATM   18  C   UNL     1      -8.825  10.025  68.613  1.00  0.00    -0.132 C  
HETATM   19  C   UNL     1      -9.147  11.393  66.026  1.00  0.00    -0.208 C  
HETATM   20  C   UNL     1      -9.043  12.901  68.033  1.00  0.00    -0.211 C  
HETATM   21  C   UNL     1     -10.307  10.611  66.669  1.00  0.00    -0.297 C  
HETATM   22  C   UNL     1     -10.202  12.118  68.682  1.00  0.00    -0.186 C  
HETATM   23  O   UNL     1      -9.284  11.344  64.612  1.00  0.00    -0.379 OA 
HETATM   24  C   UNL     1      -9.191  12.852  66.507  1.00  0.00    -0.186 C  
HETATM   25  H   UNL     1     -10.110  11.740  64.358  1.00  0.00     0.000 HD 
HETATM   26  C   UNL     1      -7.663  10.799  67.963  1.00  0.00    -0.101 C  
ENDBRANCH   3  15
TORSDOF 2
ENDMDL
MODEL       96
REMARK 921   NORMALIZED FREE ENERGY PREDICTED BY IDOCK:   -4.89 KCAL/MOL
REMARK 922        TOTAL FREE ENERGY PREDICTED BY IDOCK:   -5.93 KCAL/MOL
REMARK 923 INTER-LIGAND FREE ENERGY PREDICTED BY IDOCK:   -5.34 KCAL/MOL
REMARK 924 INTRA-LIGAND FREE ENERGY PREDICTED BY IDOCK:   -0.59 KCAL/MOL
REMARK 927      BINDING AFFINITY PREDICTED BY RF-SCORE:    0.00 PKD
ROOT
HETATM    1  N   UNL     1      -7.665  13.247  67.833  1.00  0.00    -0.135 NA 
HETATM    2  H1  UNL     1      -6.981  12.661  68.311  1.00  0.00     0.000 HD 
HETATM    3  C   UNL     1      -8.481  12.358  66.973  1.00  0.00    -0.170 C  
HETATM    4  H2  UNL     1      -8.227  13.809  68.472  1.00  0.00     0.000 HD 
ENDROOT
BRANCH   3   5
HETATM    5  C   UNL     1      -9.526  13.253  66.242  1.00  0.00    -0.184 C  
HETATM    6  N   UNL     1     -13.244  14.176  65.808  1.00  0.00    -0.427 NA 
HETATM    7  N   UNL     1     -10.051  12.785  65.058  1.00  0.00    -0.253 N  
HETATM    8  O   UNL     1      -9.865  14.343  66.708  1.00  0.00    -0.249 OA 
HETATM    9  C   UNL     1     -12.302  13.861  65.199  1.00  0.00    -0.449 C  
HETATM   10  C   UNL     1     -11.159  13.469  64.350  1.00  0.00    -0.380 C  
HETATM   11  C   UNL     1      -9.432  11.838  64.169  1.00  0.00     0.021 C  
HETATM   12  C   UNL     1     -11.621  12.419  63.311  1.00  0.00    -0.450 C  
HETATM   13  C   UNL     1      -9.963  10.466  63.927  1.00  0.00    -0.269 C  
HETATM   14  C   UNL     1     -10.392  11.597  63.026  1.00  0.00    -0.284 C  
ENDBRANCH   3   5
BRANCH   3  15
HETATM   15  C   UNL     1      -9.129  11.182  67.789  1.00  0.00    -0.149 C  
HETATM   16  C   UNL     1     -10.556  10.136  70.199  1.00  0.00    -0.337 C  
HETATM   17  C   UNL     1      -8.822   8.591  69.263  1.00  0.00    -0.142 C  
HETATM   18  C   UNL     1      -8.457  11.072  69.195  1.00  0.00    -0.022 C  
HETATM   19  C   UNL     1     -11.243  10.195  68.826  1.00  0.00    -0.164 C  
HETATM   20  C   UNL     1      -9.497   8.653  67.883  1.00  0.00    -0.157 C  
HETATM   21  C   UNL     1     -10.656  11.363  68.013  1.00  0.00    -0.224 C  
HETATM   22  C   UNL     1      -8.904   9.821  67.070  1.00  0.00    -0.145 C  
HETATM   23  O   UNL     1     -12.638  10.407  69.000  1.00  0.00    -0.594 OA 
HETATM   24  C   UNL     1     -11.002   8.879  68.070  1.00  0.00     0.040 C  
HETATM   25  H   UNL     1     -13.063  10.444  68.151  1.00  0.00     0.000 HD 
HETATM   26  C   UNL     1      -9.049   9.912  70.015  1.00  0.00    -0.217 C  
ENDBRANCH   3  15
TORSDOF 2
ENDMDL
MODEL       97
REMARK 921   NORMALIZED FREE ENERGY PREDICTED BY IDOCK:   -4.88 KCAL/MOL
REMARK 922        TOTAL FREE ENERGY PREDICTED BY IDOCK:   -5.91 KCAL/MOL
REMARK 923 INTER-LIGAND FREE ENERGY PREDICTED BY IDOCK:   -5.45 KCAL/MOL
REMARK 924 INTRA-LIGAND FREE ENERGY PREDICTED BY IDOCK:   -0.46 KCAL/MOL
REMARK 927      BINDING AFFINITY PREDICTED BY RF-SCORE:    0.00 PKD
ROOT
HETATM    1  N   UNL     1      -9.803   9.221  65.436  1.00  0.00    -0.444 NA 
HETATM    2  H1  UNL     1     -10.392   8.393  65.519  1.00  0.00     0.000 HD 
HETATM    3  C   UNL     1     -10.137  10.114  66.570  1.00  0.00    -0.234 C  
HETATM    4  H2  UNL     1      -8.809   9.000  65.381  1.00  0.00     0.000 HD 
ENDROOT
BRANCH   3   5
HETATM    5  C   UNL     1      -9.236  11.380  66.443  1.00  0.00    -0.197 C  
HETATM    6  N   UNL     1      -6.932  13.896  68.237  1.00  0.00    -0.095 NA 
HETATM    7  N   UNL     1      -9.832  12.609  66.620  1.00  0.00    -0.238 N  
HETATM    8  O   UNL     1      -8.034  11.281  66.187  1.00  0.00    -0.134 OA 
HETATM    9  C   UNL     1      -7.869  13.844  67.548  1.00  0.00    -0.181 C  
HETATM   10  C   UNL     1      -9.059  13.871  66.674  1.00  0.00    -0.190 C  
HETATM   11  C   UNL     1     -11.226  12.913  66.428  1.00  0.00    -0.300 C  
HETATM   12  C   UNL     1     -10.082  14.894  67.223  1.00  0.00    -0.235 C  
HETATM   13  C   UNL     1     -12.147  13.288  67.539  1.00  0.00    -0.312 C  
HETATM   14  C   UNL     1     -11.423  14.370  66.778  1.00  0.00    -0.381 C  
ENDBRANCH   3   5
BRANCH   3  15
HETATM   15  C   UNL     1      -9.995   9.385  67.955  1.00  0.00    -0.220 C  
HETATM   16  C   UNL     1     -11.129   8.459  70.561  1.00  0.00    -0.267 C  
HETATM   17  C   UNL     1      -8.756   9.247  70.680  1.00  0.00    -0.282 C  
HETATM   18  C   UNL     1     -10.369  10.362  69.115  1.00  0.00    -0.241 C  
HETATM   19  C   UNL     1     -10.742   7.461  69.458  1.00  0.00    -0.224 C  
HETATM   20  C   UNL     1      -8.362   8.260  69.569  1.00  0.00    -0.121 C  
HETATM   21  C   UNL     1     -10.907   8.134  68.083  1.00  0.00     0.015 C  
HETATM   22  C   UNL     1      -8.524   8.937  68.194  1.00  0.00    -0.129 C  
HETATM   23  O   UNL     1     -11.593   6.324  69.522  1.00  0.00    -0.537 OA 
HETATM   24  C   UNL     1      -9.277   7.031  69.640  1.00  0.00    -0.146 C  
HETATM   25  H   UNL     1     -11.353   5.708  68.840  1.00  0.00     0.000 HD 
HETATM   26  C   UNL     1     -10.215   9.689  70.491  1.00  0.00    -0.351 C  
ENDBRANCH   3  15
TORSDOF 2
ENDMDL
MODEL       98
REMARK 921   NORMALIZED FREE ENERGY PREDICTED BY IDOCK:   -4.87 KCAL/MOL
REMARK 922        TOTAL FREE ENERGY PREDICTED BY IDOCK:   -5.90 KCAL/MOL
REMARK 923 INTER-LIGAND FREE ENERGY PREDICTED BY IDOCK:   -6.70 KCAL/MOL
REMARK 924 INTRA-LIGAND FREE ENERGY PREDICTED BY IDOCK:    0.80 KCAL/MOL
REMARK 927      BINDING AFFINITY PREDICTED BY RF-SCORE:    0.00 PKD
ROOT
HETATM    1  N   UNL     1     -11.212  14.805  68.316  1.00  0.00    -0.273 NA 
HETATM    2  H1  UNL     1     -11.225  15.385  69.155  1.00  0.00     0.000 HD 
HETATM    3  C   UNL     1     -11.139  15.719  67.152  1.00  0.00    -0.180 C  
HETATM    4  H2  UNL     1     -10.468  14.108  68.323  1.00  0.00     0.000 HD 
ENDROOT
BRANCH   3   5
HETATM    5  C   UNL     1     -11.121  14.834  65.870  1.00  0.00    -0.340 C  
HETATM    6  N   UNL     1     -12.887  12.090  63.817  1.00  0.00    -0.698 NA 
HETATM    7  N   UNL     1     -10.472  13.621  65.940  1.00  0.00    -0.290 N  
HETATM    8  O   UNL     1     -11.666  15.210  64.830  1.00  0.00    -0.384 OA 
HETATM    9  C   UNL     1     -11.856  12.362  64.284  1.00  0.00    -0.398 C  
HETATM   10  C   UNL     1     -10.514  12.627  64.841  1.00  0.00    -0.309 C  
HETATM   11  C   UNL     1      -9.415  13.274  66.854  1.00  0.00    -0.249 C  
HETATM   12  C   UNL     1      -9.963  11.341  65.502  1.00  0.00    -0.293 C  
HETATM   13  C   UNL     1      -9.564  12.261  67.938  1.00  0.00    -0.203 C  
HETATM   14  C   UNL     1      -9.044  11.833  66.589  1.00  0.00    -0.194 C  
ENDBRANCH   3   5
BRANCH   3  15
HETATM   15  C   UNL     1      -9.916  16.700  67.249  1.00  0.00    -0.270 C  
HETATM   16  C   UNL     1      -8.318  18.765  68.705  1.00  0.00    -0.322 C  
HETATM   17  C   UNL     1      -8.458  19.111  66.230  1.00  0.00    -0.311 C  
HETATM   18  C   UNL     1     -10.419  18.162  67.474  1.00  0.00    -0.425 C  
HETATM   19  C   UNL     1      -7.772  17.348  68.476  1.00  0.00    -0.267 C  
HETATM   20  C   UNL     1      -7.922  17.690  65.990  1.00  0.00    -0.175 C  
HETATM   21  C   UNL     1      -8.946  16.353  68.413  1.00  0.00    -0.214 C  
HETATM   22  C   UNL     1      -9.101  16.698  65.924  1.00  0.00    -0.155 C  
HETATM   23  O   UNL     1      -6.916  16.986  69.551  1.00  0.00    -0.204 OA 
HETATM   24  C   UNL     1      -6.997  17.300  67.149  1.00  0.00    -0.207 C  
HETATM   25  H   UNL     1      -6.579  16.109  69.409  1.00  0.00     0.000 HD 
HETATM   26  C   UNL     1      -9.246  19.157  67.548  1.00  0.00    -0.344 C  
ENDBRANCH   3  15
TORSDOF 2
ENDMDL
MODEL       99
REMARK 921   NORMALIZED FREE ENERGY PREDICTED BY IDOCK:   -4.84 KCAL/MOL
REMARK 922        TOTAL FREE ENERGY PREDICTED BY IDOCK:   -5.86 KCAL/MOL
REMARK 923 INTER-LIGAND FREE ENERGY PREDICTED BY IDOCK:   -5.19 KCAL/MOL
REMARK 924 INTRA-LIGAND FREE ENERGY PREDICTED BY IDOCK:   -0.67 KCAL/MOL
REMARK 927      BINDING AFFINITY PREDICTED BY RF-SCORE:    0.00 PKD
ROOT
HETATM    1  N   UNL     1     -10.126   9.111  65.941  1.00  0.00    -0.387 NA 
HETATM    2  H1  UNL     1     -10.751   8.311  66.042  1.00  0.00     0.000 HD 
HETATM    3  C   UNL     1     -10.401  10.030  67.070  1.00  0.00    -0.243 C  
HETATM    4  H2  UNL     1      -9.144   8.844  65.873  1.00  0.00     0.000 HD 
ENDROOT
BRANCH   3   5
HETATM    5  C   UNL     1      -9.446  11.251  66.915  1.00  0.00    -0.177 C  
HETATM    6  N   UNL     1      -6.682  13.411  68.514  1.00  0.00    -0.087 NA 
HETATM    7  N   UNL     1      -9.910  12.481  67.328  1.00  0.00    -0.202 N  
HETATM    8  O   UNL     1      -8.319  11.119  66.434  1.00  0.00    -0.161 OA 
HETATM    9  C   UNL     1      -7.728  13.491  68.006  1.00  0.00    -0.143 C  
HETATM   10  C   UNL     1      -9.047  13.685  67.373  1.00  0.00    -0.222 C  
HETATM   11  C   UNL     1     -11.289  12.879  67.429  1.00  0.00    -0.309 C  
HETATM   12  C   UNL     1      -9.880  14.689  68.207  1.00  0.00    -0.222 C  
HETATM   13  C   UNL     1     -11.970  13.170  68.723  1.00  0.00    -0.316 C  
HETATM   14  C   UNL     1     -11.312  14.294  67.962  1.00  0.00    -0.318 C  
ENDBRANCH   3   5
BRANCH   3  15
HETATM   15  C   UNL     1     -10.271   9.309  68.460  1.00  0.00    -0.225 C  
HETATM   16  C   UNL     1      -8.845   7.476  70.343  1.00  0.00    -0.145 C  
HETATM   17  C   UNL     1     -11.342   7.349  70.458  1.00  0.00    -0.295 C  
HETATM   18  C   UNL     1     -10.210   7.761  68.257  1.00  0.00    -0.236 C  
HETATM   19  C   UNL     1      -8.911   8.990  70.597  1.00  0.00    -0.219 C  
HETATM   20  C   UNL     1     -11.419   8.865  70.702  1.00  0.00    -0.280 C  
HETATM   21  C   UNL     1      -9.001   9.730  69.250  1.00  0.00    -0.177 C  
HETATM   22  C   UNL     1     -11.512   9.602  69.351  1.00  0.00     0.048 C  
HETATM   23  O   UNL     1      -7.736   9.412  71.278  1.00  0.00    -0.336 OA 
HETATM   24  C   UNL     1     -10.153   9.320  71.440  1.00  0.00    -0.348 C  
HETATM   25  H   UNL     1      -7.777  10.347  71.436  1.00  0.00     0.000 HD 
HETATM   26  C   UNL     1     -10.109   7.020  69.603  1.00  0.00    -0.194 C  
ENDBRANCH   3  15
TORSDOF 2
ENDMDL
MODEL      100
REMARK 921   NORMALIZED FREE ENERGY PREDICTED BY IDOCK:   -4.83 KCAL/MOL
REMARK 922        TOTAL FREE ENERGY PREDICTED BY IDOCK:   -5.86 KCAL/MOL
REMARK 923 INTER-LIGAND FREE ENERGY PREDICTED BY IDOCK:   -5.28 KCAL/MOL
REMARK 924 INTRA-LIGAND FREE ENERGY PREDICTED BY IDOCK:   -0.57 KCAL/MOL
REMARK 927      BINDING AFFINITY PREDICTED BY RF-SCORE:    0.00 PKD
ROOT
HETATM    1  N   UNL     1      -6.008  14.419  67.781  1.00  0.00    -0.277 NA 
HETATM    2  H1  UNL     1      -6.442  13.662  67.254  1.00  0.00     0.000 HD 
HETATM    3  C   UNL     1      -6.641  15.683  67.336  1.00  0.00    -0.159 C  
HETATM    4  H2  UNL     1      -6.057  14.283  68.791  1.00  0.00     0.000 HD 
ENDROOT
BRANCH   3   5
HETATM    5  C   UNL     1      -5.977  16.840  68.141  1.00  0.00    -0.125 C  
HETATM    6  N   UNL     1      -6.509  19.979  70.314  1.00  0.00    -0.333 NA 
HETATM    7  N   UNL     1      -5.690  18.006  67.465  1.00  0.00    -0.138 N  
HETATM    8  O   UNL     1      -5.715  16.713  69.338  1.00  0.00    -0.144 OA 
HETATM    9  C   UNL     1      -5.948  19.610  69.363  1.00  0.00    -0.269 C  
HETATM   10  C   UNL     1      -5.200  19.226  68.149  1.00  0.00    -0.179 C  
HETATM   11  C   UNL     1      -5.471  18.135  66.048  1.00  0.00    -0.184 C  
HETATM   12  C   UNL     1      -5.360  20.327  67.072  1.00  0.00    -0.182 C  
HETATM   13  C   UNL     1      -6.394  18.870  65.136  1.00  0.00    -0.303 C  
HETATM   14  C   UNL     1      -5.231  19.600  65.760  1.00  0.00    -0.166 C  
ENDBRANCH   3   5
BRANCH   3  15
HETATM   15  C   UNL     1      -8.205  15.641  67.479  1.00  0.00    -0.185 C  
HETATM   16  C   UNL     1     -10.681  15.066  69.052  1.00  0.00    -0.239 C  
HETATM   17  C   UNL     1     -10.843  14.512  66.616  1.00  0.00    -0.311 C  
HETATM   18  C   UNL     1      -8.671  14.192  67.832  1.00  0.00    -0.182 C  
HETATM   19  C   UNL     1     -10.276  16.505  68.697  1.00  0.00    -0.264 C  
HETATM   20  C   UNL     1     -10.427  15.947  66.252  1.00  0.00    -0.324 C  
HETATM   21  C   UNL     1      -8.743  16.590  68.586  1.00  0.00    -0.244 C  
HETATM   22  C   UNL     1      -8.892  16.027  66.138  1.00  0.00    -0.366 C  
HETATM   23  O   UNL     1     -10.715  17.391  69.719  1.00  0.00    -0.311 OA 
HETATM   24  C   UNL     1     -10.904  16.903  67.352  1.00  0.00    -0.166 C  
HETATM   25  H   UNL     1     -10.465  18.280  69.499  1.00  0.00     0.000 HD 
HETATM   26  C   UNL     1     -10.204  14.107  67.953  1.00  0.00    -0.235 C  
ENDBRANCH   3  15
TORSDOF 2
ENDMDL
MODEL      101
REMARK 921   NORMALIZED FREE ENERGY PREDICTED BY IDOCK:   -4.77 KCAL/MOL
REMARK 922        TOTAL FREE ENERGY PREDICTED BY IDOCK:   -5.79 KCAL/MOL
REMARK 923 INTER-LIGAND FREE ENERGY PREDICTED BY IDOCK:   -5.24 KCAL/MOL
REMARK 924 INTRA-LIGAND FREE ENERGY PREDICTED BY IDOCK:   -0.55 KCAL/MOL
REMARK 927      BINDING AFFINITY PREDICTED BY RF-SCORE:    0.00 PKD
ROOT
HETATM    1  N   UNL     1     -11.506   6.533  67.125  1.00  0.00    -0.745 NA 
HETATM    2  H1  UNL     1     -11.314   6.783  66.154  1.00  0.00     0.000 HD 
HETATM    3  C   UNL     1     -10.332   6.949  67.926  1.00  0.00    -0.195 C  
HETATM    4  H2  UNL     1     -12.383   6.922  67.471  1.00  0.00     0.000 HD 
ENDROOT
BRANCH   3   5
HETATM    5  C   UNL     1     -10.625   6.566  69.408  1.00  0.00    -0.245 C  
HETATM    6  N   UNL     1     -10.997   7.791  73.044  1.00  0.00    -0.404 NA 
HETATM    7  N   UNL     1      -9.556   6.206  70.198  1.00  0.00    -0.161 N  
HETATM    8  O   UNL     1     -11.775   6.582  69.853  1.00  0.00    -0.406 OA 
HETATM    9  C   UNL     1     -10.435   7.002  72.398  1.00  0.00    -0.209 C  
HETATM   10  C   UNL     1      -9.684   5.970  71.656  1.00  0.00    -0.158 C  
HETATM   11  C   UNL     1      -8.300   5.674  69.739  1.00  0.00    -0.107 C  
HETATM   12  C   UNL     1      -8.215   5.946  72.144  1.00  0.00    -0.108 C  
HETATM   13  C   UNL     1      -7.005   6.405  69.849  1.00  0.00    -0.066 C  
HETATM   14  C   UNL     1      -7.425   5.468  70.954  1.00  0.00    -0.089 C  
ENDBRANCH   3   5
BRANCH   3  15
HETATM   15  C   UNL     1      -9.993   8.470  67.730  1.00  0.00    -0.241 C  
HETATM   16  C   UNL     1     -10.820  11.297  67.214  1.00  0.00    -0.317 C  
HETATM   17  C   UNL     1      -8.661  10.630  66.137  1.00  0.00    -0.163 C  
HETATM   18  C   UNL     1     -10.523   8.962  66.345  1.00  0.00    -0.071 C  
HETATM   19  C   UNL     1     -10.271  10.861  68.581  1.00  0.00    -0.189 C  
HETATM   20  C   UNL     1      -8.107  10.182  67.499  1.00  0.00    -0.113 C  
HETATM   21  C   UNL     1     -10.619   9.381  68.822  1.00  0.00    -0.234 C  
HETATM   22  C   UNL     1      -8.454   8.698  67.735  1.00  0.00    -0.125 C  
HETATM   23  O   UNL     1     -10.863  11.649  69.606  1.00  0.00    -0.447 OA 
HETATM   24  C   UNL     1      -8.744  11.033  68.605  1.00  0.00    -0.161 C  
HETATM   25  H   UNL     1     -10.524  11.379  70.452  1.00  0.00     0.000 HD 
HETATM   26  C   UNL     1     -10.185  10.445  66.106  1.00  0.00    -0.288 C  
ENDBRANCH   3  15
TORSDOF 2
ENDMDL
MODEL      102
REMARK 921   NORMALIZED FREE ENERGY PREDICTED BY IDOCK:   -4.75 KCAL/MOL
REMARK 922        TOTAL FREE ENERGY PREDICTED BY IDOCK:   -5.76 KCAL/MOL
REMARK 923 INTER-LIGAND FREE ENERGY PREDICTED BY IDOCK:   -5.34 KCAL/MOL
REMARK 924 INTRA-LIGAND FREE ENERGY PREDICTED BY IDOCK:   -0.42 KCAL/MOL
REMARK 927      BINDING AFFINITY PREDICTED BY RF-SCORE:    0.00 PKD
ROOT
HETATM    1  N   UNL     1      -7.184  13.175  68.958  1.00  0.00    -0.261 NA 
HETATM    2  H1  UNL     1      -7.264  13.885  69.685  1.00  0.00     0.000 HD 
HETATM    3  C   UNL     1      -8.557  12.717  68.637  1.00  0.00     0.054 C  
HETATM    4  H2  UNL     1      -6.669  13.497  68.139  1.00  0.00     0.000 HD 
ENDROOT
BRANCH   3   5
HETATM    5  C   UNL     1      -8.434  11.631  67.527  1.00  0.00    -0.150 C  
HETATM    6  N   UNL     1      -9.794  10.255  64.193  1.00  0.00    -0.304 NA 
HETATM    7  N   UNL     1      -9.153  10.467  67.690  1.00  0.00    -0.141 N  
HETATM    8  O   UNL     1      -7.714  11.807  66.542  1.00  0.00    -0.082 OA 
HETATM    9  C   UNL     1      -9.538   9.928  65.281  1.00  0.00    -0.295 C  
HETATM   10  C   UNL     1      -9.239   9.428  66.637  1.00  0.00    -0.153 C  
HETATM   11  C   UNL     1      -9.609   9.918  68.940  1.00  0.00    -0.172 C  
HETATM   12  C   UNL     1     -10.397   8.523  67.123  1.00  0.00    -0.377 C  
HETATM   13  C   UNL     1     -11.047   9.822  69.321  1.00  0.00    -0.184 C  
HETATM   14  C   UNL     1     -10.386   8.660  68.623  1.00  0.00    -0.219 C  
ENDBRANCH   3   5
BRANCH   3  15
HETATM   15  C   UNL     1      -9.497  13.912  68.239  1.00  0.00    -0.217 C  
HETATM   16  C   UNL     1      -9.922  16.691  67.223  1.00  0.00    -0.270 C  
HETATM   17  C   UNL     1     -11.497  15.995  69.040  1.00  0.00    -0.360 C  
HETATM   18  C   UNL     1      -9.122  15.185  69.063  1.00  0.00    -0.218 C  
HETATM   19  C   UNL     1     -10.336  15.465  66.395  1.00  0.00    -0.296 C  
HETATM   20  C   UNL     1     -11.910  14.759  68.222  1.00  0.00    -0.316 C  
HETATM   21  C   UNL     1      -9.408  14.284  66.733  1.00  0.00    -0.290 C  
HETATM   22  C   UNL     1     -10.981  13.578  68.567  1.00  0.00    -0.291 C  
HETATM   23  O   UNL     1     -10.219  15.763  65.010  1.00  0.00    -0.456 OA 
HETATM   24  C   UNL     1     -11.786  15.081  66.728  1.00  0.00    -0.093 C  
HETATM   25  H   UNL     1     -10.475  15.005  64.498  1.00  0.00     0.000 HD 
HETATM   26  C   UNL     1     -10.042  16.371  68.719  1.00  0.00    -0.247 C  
ENDBRANCH   3  15
TORSDOF 2
ENDMDL
MODEL      103
REMARK 921   NORMALIZED FREE ENERGY PREDICTED BY IDOCK:   -4.72 KCAL/MOL
REMARK 922        TOTAL FREE ENERGY PREDICTED BY IDOCK:   -5.73 KCAL/MOL
REMARK 923 INTER-LIGAND FREE ENERGY PREDICTED BY IDOCK:   -5.11 KCAL/MOL
REMARK 924 INTRA-LIGAND FREE ENERGY PREDICTED BY IDOCK:   -0.62 KCAL/MOL
REMARK 927      BINDING AFFINITY PREDICTED BY RF-SCORE:    0.00 PKD
ROOT
HETATM    1  N   UNL     1      -7.530  10.658  64.225  1.00  0.00    -0.347 NA 
HETATM    2  H1  UNL     1      -7.271  11.609  63.962  1.00  0.00     0.000 HD 
HETATM    3  C   UNL     1      -8.052  10.713  65.611  1.00  0.00    -0.146 C  
HETATM    4  H2  UNL     1      -8.180  10.225  63.570  1.00  0.00     0.000 HD 
ENDROOT
BRANCH   3   5
HETATM    5  C   UNL     1      -8.446   9.260  66.013  1.00  0.00    -0.136 C  
HETATM    6  N   UNL     1     -11.283   6.835  66.979  1.00  0.00    -0.324 NA 
HETATM    7  N   UNL     1      -8.437   8.943  67.354  1.00  0.00    -0.115 N  
HETATM    8  O   UNL     1      -8.750   8.424  65.159  1.00  0.00    -0.162 OA 
HETATM    9  C   UNL     1     -10.245   7.219  67.341  1.00  0.00    -0.236 C  
HETATM   10  C   UNL     1      -8.936   7.647  67.872  1.00  0.00    -0.128 C  
HETATM   11  C   UNL     1      -7.666   9.599  68.377  1.00  0.00    -0.081 C  
HETATM   12  C   UNL     1      -9.050   7.893  69.396  1.00  0.00    -0.145 C  
HETATM   13  C   UNL     1      -8.272  10.408  69.473  1.00  0.00    -0.137 C  
HETATM   14  C   UNL     1      -8.009   8.940  69.693  1.00  0.00    -0.092 C  
ENDBRANCH   3   5
BRANCH   3  15
HETATM   15  C   UNL     1      -9.231  11.741  65.756  1.00  0.00    -0.148 C  
HETATM   16  C   UNL     1     -11.237  13.218  67.409  1.00  0.00    -0.316 C  
HETATM   17  C   UNL     1     -12.060  12.521  65.150  1.00  0.00    -0.503 C  
HETATM   18  C   UNL     1     -10.468  11.048  66.412  1.00  0.00    -0.312 C  
HETATM   19  C   UNL     1     -10.052  13.944  66.753  1.00  0.00    -0.265 C  
HETATM   20  C   UNL     1     -10.872  13.235  64.485  1.00  0.00    -0.409 C  
HETATM   21  C   UNL     1      -8.864  12.972  66.630  1.00  0.00    -0.083 C  
HETATM   22  C   UNL     1      -9.686  12.259  64.361  1.00  0.00    -0.034 C  
HETATM   23  O   UNL     1      -9.664  15.049  67.558  1.00  0.00    -0.214 OA 
HETATM   24  C   UNL     1     -10.455  14.430  65.352  1.00  0.00    -0.391 C  
HETATM   25  H   UNL     1      -8.932  15.498  67.152  1.00  0.00     0.000 HD 
HETATM   26  C   UNL     1     -11.654  12.021  66.545  1.00  0.00    -0.384 C  
ENDBRANCH   3  15
TORSDOF 2
ENDMDL
MODEL      104
REMARK 921   NORMALIZED FREE ENERGY PREDICTED BY IDOCK:   -4.71 KCAL/MOL
REMARK 922        TOTAL FREE ENERGY PREDICTED BY IDOCK:   -5.72 KCAL/MOL
REMARK 923 INTER-LIGAND FREE ENERGY PREDICTED BY IDOCK:   -6.64 KCAL/MOL
REMARK 924 INTRA-LIGAND FREE ENERGY PREDICTED BY IDOCK:    0.92 KCAL/MOL
REMARK 927      BINDING AFFINITY PREDICTED BY RF-SCORE:    0.00 PKD
ROOT
HETATM    1  N   UNL     1      -8.160  14.973  66.673  1.00  0.00    -0.342 NA 
HETATM    2  H1  UNL     1      -7.641  14.115  66.486  1.00  0.00     0.000 HD 
HETATM    3  C   UNL     1      -9.223  15.076  65.646  1.00  0.00     0.144 C  
HETATM    4  H2  UNL     1      -8.518  15.024  67.626  1.00  0.00     0.000 HD 
ENDROOT
BRANCH   3   5
HETATM    5  C   UNL     1     -10.015  16.387  65.931  1.00  0.00    -0.332 C  
HETATM    6  N   UNL     1      -9.868  20.214  66.376  1.00  0.00    -0.443 NA 
HETATM    7  N   UNL     1     -10.161  16.772  67.246  1.00  0.00    -0.286 N  
HETATM    8  O   UNL     1     -10.496  17.052  65.011  1.00  0.00    -0.660 OA 
HETATM    9  C   UNL     1     -10.246  19.246  66.902  1.00  0.00    -0.400 C  
HETATM   10  C   UNL     1     -10.758  18.072  67.636  1.00  0.00    -0.344 C  
HETATM   11  C   UNL     1     -10.112  15.908  68.395  1.00  0.00    -0.223 C  
HETATM   12  C   UNL     1     -10.392  18.197  69.134  1.00  0.00    -0.026 C  
HETATM   13  C   UNL     1      -9.029  15.960  69.419  1.00  0.00    -0.209 C  
HETATM   14  C   UNL     1     -10.281  16.776  69.621  1.00  0.00    -0.093 C  
ENDBRANCH   3   5
BRANCH   3  15
HETATM   15  C   UNL     1     -10.132  13.795  65.610  1.00  0.00    -0.315 C  
HETATM   16  C   UNL     1     -12.456  12.256  64.529  1.00  0.00    -0.464 C  
HETATM   17  C   UNL     1     -12.070  11.969  66.985  1.00  0.00     0.123 C  
HETATM   18  C   UNL     1     -11.618  14.184  65.897  1.00  0.00    -0.349 C  
HETATM   19  C   UNL     1     -11.009  11.819  64.251  1.00  0.00    -0.359 C  
HETATM   20  C   UNL     1     -10.618  11.541  66.718  1.00  0.00    -0.289 C  
HETATM   21  C   UNL     1     -10.096  13.058  64.242  1.00  0.00    -0.216 C  
HETATM   22  C   UNL     1      -9.705  12.784  66.713  1.00  0.00    -0.243 C  
HETATM   23  O   UNL     1     -10.938  11.183  62.982  1.00  0.00    -0.820 OA 
HETATM   24  C   UNL     1     -10.541  10.852  65.350  1.00  0.00    -0.243 C  
HETATM   25  H   UNL     1     -10.044  10.913  62.810  1.00  0.00     0.000 HD 
HETATM   26  C   UNL     1     -12.535  12.948  65.896  1.00  0.00    -0.252 C  
ENDBRANCH   3  15
TORSDOF 2
ENDMDL
MODEL      105
REMARK 921   NORMALIZED FREE ENERGY PREDICTED BY IDOCK:   -4.70 KCAL/MOL
REMARK 922        TOTAL FREE ENERGY PREDICTED BY IDOCK:   -5.71 KCAL/MOL
REMARK 923 INTER-LIGAND FREE ENERGY PREDICTED BY IDOCK:   -5.13 KCAL/MOL
REMARK 924 INTRA-LIGAND FREE ENERGY PREDICTED BY IDOCK:   -0.57 KCAL/MOL
REMARK 927      BINDING AFFINITY PREDICTED BY RF-SCORE:    0.00 PKD
ROOT
HETATM    1  N   UNL     1     -10.499   5.680  67.923  1.00  0.00    -0.219 NA 
HETATM    2  H1  UNL     1     -11.348   5.257  68.297  1.00  0.00     0.000 HD 
HETATM    3  C   UNL     1     -10.491   7.099  68.351  1.00  0.00    -0.197 C  
HETATM    4  H2  UNL     1      -9.652   5.178  68.189  1.00  0.00     0.000 HD 
ENDROOT
BRANCH   3   5
HETATM    5  C   UNL     1      -9.193   7.746  67.779  1.00  0.00    -0.136 C  
HETATM    6  N   UNL     1      -6.051   9.858  68.504  1.00  0.00    -0.045 NA 
HETATM    7  N   UNL     1      -9.286   9.022  67.271  1.00  0.00    -0.137 N  
HETATM    8  O   UNL     1      -8.124   7.132  67.779  1.00  0.00    -0.113 OA 
HETATM    9  C   UNL     1      -6.969   9.799  67.790  1.00  0.00    -0.086 C  
HETATM   10  C   UNL     1      -8.100   9.799  66.840  1.00  0.00    -0.113 C  
HETATM   11  C   UNL     1     -10.476   9.648  66.757  1.00  0.00    -0.186 C  
HETATM   12  C   UNL     1      -8.651  11.238  66.690  1.00  0.00    -0.167 C  
HETATM   13  C   UNL     1     -11.147  10.807  67.413  1.00  0.00    -0.363 C  
HETATM   14  C   UNL     1     -10.107  11.057  66.351  1.00  0.00    -0.275 C  
ENDBRANCH   3   5
BRANCH   3  15
HETATM   15  C   UNL     1     -10.626   7.245  69.909  1.00  0.00    -0.244 C  
HETATM   16  C   UNL     1     -11.219   6.108  72.610  1.00  0.00    -0.312 C  
HETATM   17  C   UNL     1     -12.010   8.459  72.274  1.00  0.00    -0.455 C  
HETATM   18  C   UNL     1     -12.064   6.835  70.362  1.00  0.00    -0.270 C  
HETATM   19  C   UNL     1      -9.795   6.531  72.215  1.00  0.00    -0.156 C  
HETATM   20  C   UNL     1     -10.591   8.889  71.867  1.00  0.00    -0.419 C  
HETATM   21  C   UNL     1      -9.617   6.363  70.696  1.00  0.00    -0.186 C  
HETATM   22  C   UNL     1     -10.417   8.724  70.345  1.00  0.00    -0.240 C  
HETATM   23  O   UNL     1      -8.850   5.708  72.886  1.00  0.00    -0.125 OA 
HETATM   24  C   UNL     1      -9.570   8.004  72.593  1.00  0.00    -0.327 C  
HETATM   25  H   UNL     1      -7.970   5.970  72.642  1.00  0.00     0.000 HD 
HETATM   26  C   UNL     1     -12.242   6.991  71.883  1.00  0.00    -0.362 C  
ENDBRANCH   3  15
TORSDOF 2
ENDMDL
MODEL      106
REMARK 921   NORMALIZED FREE ENERGY PREDICTED BY IDOCK:   -4.70 KCAL/MOL
REMARK 922        TOTAL FREE ENERGY PREDICTED BY IDOCK:   -5.71 KCAL/MOL
REMARK 923 INTER-LIGAND FREE ENERGY PREDICTED BY IDOCK:   -5.26 KCAL/MOL
REMARK 924 INTRA-LIGAND FREE ENERGY PREDICTED BY IDOCK:   -0.45 KCAL/MOL
REMARK 927      BINDING AFFINITY PREDICTED BY RF-SCORE:    0.00 PKD
ROOT
HETATM    1  N   UNL     1     -12.245  10.343  69.279  1.00  0.00    -0.653 NA 
HETATM    2  H1  UNL     1     -12.640  10.571  70.191  1.00  0.00     0.000 HD 
HETATM    3  C   UNL     1     -10.818  10.004  69.491  1.00  0.00    -0.253 C  
HETATM    4  H2  UNL     1     -12.761   9.612  68.791  1.00  0.00     0.000 HD 
ENDROOT
BRANCH   3   5
HETATM    5  C   UNL     1     -10.214   9.657  68.097  1.00  0.00    -0.190 C  
HETATM    6  N   UNL     1      -8.184   7.144  65.994  1.00  0.00    -0.121 NA 
HETATM    7  N   UNL     1      -8.941  10.105  67.823  1.00  0.00    -0.128 N  
HETATM    8  O   UNL     1     -10.858   9.009  67.269  1.00  0.00    -0.223 OA 
HETATM    9  C   UNL     1      -8.224   8.271  66.285  1.00  0.00    -0.112 C  
HETATM   10  C   UNL     1      -8.203   9.714  66.599  1.00  0.00    -0.120 C  
HETATM   11  C   UNL     1      -8.288  11.234  68.432  1.00  0.00    -0.152 C  
HETATM   12  C   UNL     1      -6.751  10.157  66.902  1.00  0.00    -0.079 C  
HETATM   13  C   UNL     1      -7.104  11.115  69.330  1.00  0.00    -0.110 C  
HETATM   14  C   UNL     1      -6.895  11.317  67.851  1.00  0.00    -0.068 C  
ENDBRANCH   3   5
BRANCH   3  15
HETATM   15  C   UNL     1     -10.637   8.860  70.552  1.00  0.00    -0.262 C  
HETATM   16  C   UNL     1      -9.406   6.288  71.452  1.00  0.00    -0.160 C  
HETATM   17  C   UNL     1     -11.803   6.583  72.113  1.00  0.00    -0.348 C  
HETATM   18  C   UNL     1     -10.991   7.478  69.914  1.00  0.00    -0.223 C  
HETATM   19  C   UNL     1      -9.056   7.622  72.129  1.00  0.00    -0.140 C  
HETATM   20  C   UNL     1     -11.464   7.924  72.784  1.00  0.00    -0.428 C  
HETATM   21  C   UNL     1      -9.188   8.764  71.105  1.00  0.00    -0.299 C  
HETATM   22  C   UNL     1     -11.600   9.065  71.756  1.00  0.00    -0.444 C  
HETATM   23  O   UNL     1      -7.717   7.580  72.605  1.00  0.00    -0.088 OA 
HETATM   24  C   UNL     1     -10.020   7.878  73.299  1.00  0.00    -0.331 C  
HETATM   25  H   UNL     1      -7.500   8.404  73.023  1.00  0.00     0.000 HD 
HETATM   26  C   UNL     1     -10.850   6.333  70.934  1.00  0.00    -0.329 C  
ENDBRANCH   3  15
TORSDOF 2
ENDMDL
MODEL      107
REMARK 921   NORMALIZED FREE ENERGY PREDICTED BY IDOCK:   -4.68 KCAL/MOL
REMARK 922        TOTAL FREE ENERGY PREDICTED BY IDOCK:   -5.69 KCAL/MOL
REMARK 923 INTER-LIGAND FREE ENERGY PREDICTED BY IDOCK:   -6.44 KCAL/MOL
REMARK 924 INTRA-LIGAND FREE ENERGY PREDICTED BY IDOCK:    0.75 KCAL/MOL
REMARK 927      BINDING AFFINITY PREDICTED BY RF-SCORE:    0.00 PKD
ROOT
HETATM    1  N   UNL     1      -8.430  14.905  69.611  1.00  0.00    -0.443 NA 
HETATM    2  H1  UNL     1      -7.851  15.651  69.995  1.00  0.00     0.000 HD 
HETATM    3  C   UNL     1      -9.740  15.501  69.261  1.00  0.00    -0.272 C  
HETATM    4  H2  UNL     1      -7.990  14.420  68.829  1.00  0.00     0.000 HD 
ENDROOT
BRANCH   3   5
HETATM    5  C   UNL     1     -10.625  14.360  68.674  1.00  0.00    -0.252 C  
HETATM    6  N   UNL     1     -12.194  10.883  69.230  1.00  0.00    -0.393 NA 
HETATM    7  N   UNL     1      -9.997  13.375  67.946  1.00  0.00    -0.229 N  
HETATM    8  O   UNL     1     -11.845  14.346  68.854  1.00  0.00    -0.299 OA 
HETATM    9  C   UNL     1     -11.537  11.481  68.476  1.00  0.00    -0.313 C  
HETATM   10  C   UNL     1     -10.702  12.163  67.467  1.00  0.00    -0.232 C  
HETATM   11  C   UNL     1      -8.743  13.501  67.251  1.00  0.00    -0.225 C  
HETATM   12  C   UNL     1      -9.549  11.227  67.031  1.00  0.00    -0.197 C  
HETATM   13  C   UNL     1      -7.504  12.771  67.647  1.00  0.00    -0.144 C  
HETATM   14  C   UNL     1      -8.433  12.157  66.630  1.00  0.00    -0.088 C  
ENDBRANCH   3   5
BRANCH   3  15
HETATM   15  C   UNL     1      -9.588  16.731  68.295  1.00  0.00    -0.244 C  
HETATM   16  C   UNL     1      -8.702  17.943  65.709  1.00  0.00     0.342 C  
HETATM   17  C   UNL     1      -8.394  19.416  67.710  1.00  0.00    -0.340 C  
HETATM   18  C   UNL     1      -8.085  16.936  67.922  1.00  0.00    -0.191 C  
HETATM   19  C   UNL     1     -10.192  17.791  66.052  1.00  0.00    -0.293 C  
HETATM   20  C   UNL     1      -9.882  19.261  68.066  1.00  0.00    -0.454 C  
HETATM   21  C   UNL     1     -10.382  16.569  66.969  1.00  0.00    -0.301 C  
HETATM   22  C   UNL     1     -10.067  18.039  68.988  1.00  0.00    -0.301 C  
HETATM   23  O   UNL     1     -10.939  17.594  64.859  1.00  0.00    -0.886 OA 
HETATM   24  C   UNL     1     -10.688  19.051  66.779  1.00  0.00    -0.450 C  
HETATM   25  H   UNL     1     -11.860  17.500  65.070  1.00  0.00     0.000 HD 
HETATM   26  C   UNL     1      -7.893  18.151  66.997  1.00  0.00    -0.238 C  
ENDBRANCH   3  15
TORSDOF 2
ENDMDL
MODEL      108
REMARK 921   NORMALIZED FREE ENERGY PREDICTED BY IDOCK:   -4.65 KCAL/MOL
REMARK 922        TOTAL FREE ENERGY PREDICTED BY IDOCK:   -5.66 KCAL/MOL
REMARK 923 INTER-LIGAND FREE ENERGY PREDICTED BY IDOCK:   -4.98 KCAL/MOL
REMARK 924 INTRA-LIGAND FREE ENERGY PREDICTED BY IDOCK:   -0.67 KCAL/MOL
REMARK 927      BINDING AFFINITY PREDICTED BY RF-SCORE:    0.00 PKD
ROOT
HETATM    1  N   UNL     1      -6.958   9.544  70.904  1.00  0.00    -0.243 NA 
HETATM    2  H1  UNL     1      -6.659  10.509  70.764  1.00  0.00     0.000 HD 
HETATM    3  C   UNL     1      -8.381   9.461  70.501  1.00  0.00    -0.197 C  
HETATM    4  H2  UNL     1      -6.366   8.868  70.421  1.00  0.00     0.000 HD 
ENDROOT
BRANCH   3   5
HETATM    5  C   UNL     1      -8.837   7.986  70.716  1.00  0.00    -0.139 C  
HETATM    6  N   UNL     1     -10.403   4.831  69.150  1.00  0.00    -0.058 NA 
HETATM    7  N   UNL     1     -10.130   7.772  71.140  1.00  0.00    -0.187 N  
HETATM    8  O   UNL     1      -8.063   7.047  70.518  1.00  0.00    -0.111 OA 
HETATM    9  C   UNL     1     -10.514   5.554  70.056  1.00  0.00    -0.303 C  
HETATM   10  C   UNL     1     -10.726   6.419  71.234  1.00  0.00    -0.241 C  
HETATM   11  C   UNL     1     -10.952   8.706  71.864  1.00  0.00    -0.342 C  
HETATM   12  C   UNL     1     -12.237   6.706  71.402  1.00  0.00    -0.378 C  
HETATM   13  C   UNL     1     -12.177   9.337  71.296  1.00  0.00    -0.410 C  
HETATM   14  C   UNL     1     -12.299   8.052  72.074  1.00  0.00    -0.366 C  
ENDBRANCH   3   5
BRANCH   3  15
HETATM   15  C   UNL     1      -8.609   9.976  69.035  1.00  0.00    -0.153 C  
HETATM   16  C   UNL     1      -8.039   9.879  66.101  1.00  0.00    -0.119 C  
HETATM   17  C   UNL     1      -8.402  12.181  67.016  1.00  0.00    -0.173 C  
HETATM   18  C   UNL     1      -7.253  10.444  68.415  1.00  0.00    -0.080 C  
HETATM   19  C   UNL     1      -9.399   9.441  66.666  1.00  0.00    -0.163 C  
HETATM   20  C   UNL     1      -9.759  11.748  67.594  1.00  0.00    -0.186 C  
HETATM   21  C   UNL     1      -9.206   8.894  68.093  1.00  0.00    -0.145 C  
HETATM   22  C   UNL     1      -9.562  11.205  69.024  1.00  0.00    -0.099 C  
HETATM   23  O   UNL     1      -9.949   8.416  65.849  1.00  0.00    -0.465 OA 
HETATM   24  C   UNL     1     -10.354  10.645  66.711  1.00  0.00    -0.299 C  
HETATM   25  H   UNL     1     -10.789   8.145  66.198  1.00  0.00     0.000 HD 
HETATM   26  C   UNL     1      -7.442  10.982  66.985  1.00  0.00    -0.127 C  
ENDBRANCH   3  15
TORSDOF 2
ENDMDL
MODEL      109
REMARK 921   NORMALIZED FREE ENERGY PREDICTED BY IDOCK:   -4.62 KCAL/MOL
REMARK 922        TOTAL FREE ENERGY PREDICTED BY IDOCK:   -5.62 KCAL/MOL
REMARK 923 INTER-LIGAND FREE ENERGY PREDICTED BY IDOCK:   -5.18 KCAL/MOL
REMARK 924 INTRA-LIGAND FREE ENERGY PREDICTED BY IDOCK:   -0.44 KCAL/MOL
REMARK 927      BINDING AFFINITY PREDICTED BY RF-SCORE:    0.00 PKD
ROOT
HETATM    1  N   UNL     1     -11.672  11.722  66.658  1.00  0.00    -0.554 NA 
HETATM    2  H1  UNL     1     -11.508  10.716  66.626  1.00  0.00     0.000 HD 
HETATM    3  C   UNL     1     -11.021  12.235  67.887  1.00  0.00    -0.224 C  
HETATM    4  H2  UNL     1     -11.365  12.204  65.813  1.00  0.00     0.000 HD 
ENDROOT
BRANCH   3   5
HETATM    5  C   UNL     1     -11.272  13.772  67.935  1.00  0.00    -0.274 C  
HETATM    6  N   UNL     1      -9.889  17.239  68.894  1.00  0.00    -0.297 NA 
HETATM    7  N   UNL     1     -11.871  14.285  69.064  1.00  0.00    -0.320 N  
HETATM    8  O   UNL     1     -10.950  14.498  66.994  1.00  0.00    -0.298 OA 
HETATM    9  C   UNL     1     -10.814  16.549  69.049  1.00  0.00    -0.329 C  
HETATM   10  C   UNL     1     -12.025  15.741  69.295  1.00  0.00    -0.289 C  
HETATM   11  C   UNL     1     -12.721  13.567  69.978  1.00  0.00     0.054 C  
HETATM   12  C   UNL     1     -12.410  15.827  70.791  1.00  0.00    -0.435 C  
HETATM   13  C   UNL     1     -12.343  13.262  71.387  1.00  0.00    -0.172 C  
HETATM   14  C   UNL     1     -13.109  14.525  71.082  1.00  0.00    -0.424 C  
ENDBRANCH   3   5
BRANCH   3  15
HETATM   15  C   UNL     1      -9.500  11.849  67.952  1.00  0.00    -0.194 C  
HETATM   16  C   UNL     1      -7.276   9.875  67.635  1.00  0.00    -0.089 C  
HETATM   17  C   UNL     1      -7.011  11.441  69.570  1.00  0.00    -0.063 C  
HETATM   18  C   UNL     1      -9.295  10.637  68.915  1.00  0.00    -0.191 C  
HETATM   19  C   UNL     1      -7.422  11.074  66.685  1.00  0.00    -0.146 C  
HETATM   20  C   UNL     1      -7.166  12.647  68.629  1.00  0.00    -0.108 C  
HETATM   21  C   UNL     1      -8.909  11.455  66.569  1.00  0.00    -0.187 C  
HETATM   22  C   UNL     1      -8.656  13.027  68.518  1.00  0.00    -0.049 C  
HETATM   23  O   UNL     1      -6.932  10.725  65.397  1.00  0.00    -0.330 OA 
HETATM   24  C   UNL     1      -6.634  12.272  67.240  1.00  0.00    -0.146 C  
HETATM   25  H   UNL     1      -7.022  11.467  64.810  1.00  0.00     0.000 HD 
HETATM   26  C   UNL     1      -7.809  10.248  69.025  1.00  0.00    -0.114 C  
ENDBRANCH   3  15
TORSDOF 2
ENDMDL
MODEL      110
REMARK 921   NORMALIZED FREE ENERGY PREDICTED BY IDOCK:   -4.61 KCAL/MOL
REMARK 922        TOTAL FREE ENERGY PREDICTED BY IDOCK:   -5.61 KCAL/MOL
REMARK 923 INTER-LIGAND FREE ENERGY PREDICTED BY IDOCK:   -6.06 KCAL/MOL
REMARK 924 INTRA-LIGAND FREE ENERGY PREDICTED BY IDOCK:    0.45 KCAL/MOL
REMARK 927      BINDING AFFINITY PREDICTED BY RF-SCORE:    0.00 PKD
ROOT
HETATM    1  N   UNL     1      -8.905  17.229  65.749  1.00  0.00    -0.504 NA 
HETATM    2  H1  UNL     1      -9.847  17.320  65.370  1.00  0.00     0.000 HD 
HETATM    3  C   UNL     1      -9.032  16.639  67.102  1.00  0.00    -0.210 C  
HETATM    4  H2  UNL     1      -8.278  16.703  65.141  1.00  0.00     0.000 HD 
ENDROOT
BRANCH   3   5
HETATM    5  C   UNL     1      -7.592  16.501  67.683  1.00  0.00    -0.146 C  
HETATM    6  N   UNL     1      -5.410  15.500  70.699  1.00  0.00    -0.143 NA 
HETATM    7  N   UNL     1      -7.059  17.591  68.334  1.00  0.00    -0.213 N  
HETATM    8  O   UNL     1      -6.954  15.453  67.558  1.00  0.00    -0.165 OA 
HETATM    9  C   UNL     1      -5.597  16.377  69.956  1.00  0.00    -0.191 C  
HETATM   10  C   UNL     1      -5.766  17.536  69.057  1.00  0.00    -0.185 C  
HETATM   11  C   UNL     1      -7.435  18.966  68.137  1.00  0.00    -0.270 C  
HETATM   12  C   UNL     1      -5.767  18.841  69.888  1.00  0.00    -0.253 C  
HETATM   13  C   UNL     1      -8.119  19.789  69.175  1.00  0.00    -0.055 C  
HETATM   14  C   UNL     1      -6.613  19.801  69.094  1.00  0.00    -0.377 C  
ENDBRANCH   3   5
BRANCH   3  15
HETATM   15  C   UNL     1      -9.828  15.285  67.082  1.00  0.00    -0.225 C  
HETATM   16  C   UNL     1     -10.026  12.366  66.462  1.00  0.00    -0.242 C  
HETATM   17  C   UNL     1     -12.128  13.662  66.054  1.00  0.00    -0.480 C  
HETATM   18  C   UNL     1      -9.898  14.727  65.624  1.00  0.00    -0.361 C  
HETATM   19  C   UNL     1      -9.995  12.876  67.912  1.00  0.00    -0.233 C  
HETATM   20  C   UNL     1     -12.099  14.186  67.499  1.00  0.00    -0.363 C  
HETATM   21  C   UNL     1      -9.188  14.185  67.974  1.00  0.00    -0.195 C  
HETATM   22  C   UNL     1     -11.294  15.499  67.557  1.00  0.00    -0.232 C  
HETATM   23  O   UNL     1      -9.370  11.908  68.745  1.00  0.00    -0.370 OA 
HETATM   24  C   UNL     1     -11.428  13.140  68.399  1.00  0.00    -0.350 C  
HETATM   25  H   UNL     1      -9.351  12.223  69.641  1.00  0.00     0.000 HD 
HETATM   26  C   UNL     1     -10.695  13.412  65.560  1.00  0.00    -0.301 C  
ENDBRANCH   3  15
TORSDOF 2
ENDMDL
MODEL      111
REMARK 921   NORMALIZED FREE ENERGY PREDICTED BY IDOCK:   -4.60 KCAL/MOL
REMARK 922        TOTAL FREE ENERGY PREDICTED BY IDOCK:   -5.60 KCAL/MOL
REMARK 923 INTER-LIGAND FREE ENERGY PREDICTED BY IDOCK:   -5.13 KCAL/MOL
REMARK 924 INTRA-LIGAND FREE ENERGY PREDICTED BY IDOCK:   -0.47 KCAL/MOL
REMARK 927      BINDING AFFINITY PREDICTED BY RF-SCORE:    0.00 PKD
ROOT
HETATM    1  N   UNL     1      -9.414   9.899  70.806  1.00  0.00    -0.294 NA 
HETATM    2  H1  UNL     1      -8.794   9.172  71.163  1.00  0.00     0.000 HD 
HETATM    3  C   UNL     1      -9.187   9.992  69.345  1.00  0.00    -0.216 C  
HETATM    4  H2  UNL     1     -10.392   9.744  71.050  1.00  0.00     0.000 HD 
ENDROOT
BRANCH   3   5
HETATM    5  C   UNL     1     -10.134  11.103  68.801  1.00  0.00    -0.201 C  
HETATM    6  N   UNL     1     -12.240  12.382  65.836  1.00  0.00    -0.632 NA 
HETATM    7  N   UNL     1      -9.556  12.182  68.169  1.00  0.00    -0.204 N  
HETATM    8  O   UNL     1     -11.357  11.019  68.937  1.00  0.00    -0.232 OA 
HETATM    9  C   UNL     1     -11.407  12.716  66.578  1.00  0.00    -0.326 C  
HETATM   10  C   UNL     1     -10.352  13.223  67.478  1.00  0.00    -0.229 C  
HETATM   11  C   UNL     1      -8.213  12.660  68.362  1.00  0.00    -0.129 C  
HETATM   12  C   UNL     1      -9.293  13.993  66.653  1.00  0.00    -0.292 C  
HETATM   13  C   UNL     1      -7.157  12.598  67.310  1.00  0.00    -0.101 C  
HETATM   14  C   UNL     1      -8.013  13.834  67.430  1.00  0.00    -0.175 C  
ENDBRANCH   3   5
BRANCH   3  15
HETATM   15  C   UNL     1      -9.378   8.605  68.631  1.00  0.00    -0.142 C  
HETATM   16  C   UNL     1      -8.715   6.659  66.460  1.00  0.00    -0.137 C  
HETATM   17  C   UNL     1     -11.131   6.706  67.114  1.00  0.00    -0.427 C  
HETATM   18  C   UNL     1      -9.786   8.824  67.138  1.00  0.00    -0.248 C  
HETATM   19  C   UNL     1      -8.325   6.390  67.922  1.00  0.00    -0.118 C  
HETATM   20  C   UNL     1     -10.749   6.447  68.581  1.00  0.00    -0.341 C  
HETATM   21  C   UNL     1      -8.093   7.730  68.643  1.00  0.00    -0.127 C  
HETATM   22  C   UNL     1     -10.522   7.792  69.301  1.00  0.00    -0.221 C  
HETATM   23  O   UNL     1      -7.125   5.629  67.963  1.00  0.00    -0.067 OA 
HETATM   24  C   UNL     1      -9.456   5.624  68.627  1.00  0.00    -0.152 C  
HETATM   25  H   UNL     1      -6.884   5.462  68.867  1.00  0.00     0.000 HD 
HETATM   26  C   UNL     1     -10.008   7.485  66.412  1.00  0.00    -0.119 C  
ENDBRANCH   3  15
TORSDOF 2
ENDMDL
MODEL      112
REMARK 921   NORMALIZED FREE ENERGY PREDICTED BY IDOCK:   -4.59 KCAL/MOL
REMARK 922        TOTAL FREE ENERGY PREDICTED BY IDOCK:   -5.58 KCAL/MOL
REMARK 923 INTER-LIGAND FREE ENERGY PREDICTED BY IDOCK:   -5.22 KCAL/MOL
REMARK 924 INTRA-LIGAND FREE ENERGY PREDICTED BY IDOCK:   -0.36 KCAL/MOL
REMARK 927      BINDING AFFINITY PREDICTED BY RF-SCORE:    0.00 PKD
ROOT
HETATM    1  N   UNL     1     -10.448   9.390  68.316  1.00  0.00    -0.213 NA 
HETATM    2  H1  UNL     1     -10.224   9.395  69.311  1.00  0.00     0.000 HD 
HETATM    3  C   UNL     1     -10.056  10.711  67.771  1.00  0.00    -0.174 C  
HETATM    4  H2  UNL     1     -10.025   8.610  67.815  1.00  0.00     0.000 HD 
ENDROOT
BRANCH   3   5
HETATM    5  C   UNL     1     -10.400  10.704  66.251  1.00  0.00    -0.234 C  
HETATM    6  N   UNL     1      -9.236  11.550  62.675  1.00  0.00    -0.311 NA 
HETATM    7  N   UNL     1     -11.040  11.809  65.736  1.00  0.00    -0.313 N  
HETATM    8  O   UNL     1     -10.112   9.739  65.539  1.00  0.00    -0.301 OA 
HETATM    9  C   UNL     1     -10.120  11.722  63.414  1.00  0.00    -0.446 C  
HETATM   10  C   UNL     1     -11.283  11.987  64.285  1.00  0.00    -0.357 C  
HETATM   11  C   UNL     1     -11.854  12.741  66.472  1.00  0.00    -0.405 C  
HETATM   12  C   UNL     1     -11.687  13.476  64.170  1.00  0.00    -0.453 C  
HETATM   13  C   UNL     1     -11.472  14.163  66.705  1.00  0.00    -0.378 C  
HETATM   14  C   UNL     1     -12.309  13.807  65.502  1.00  0.00    -0.507 C  
ENDBRANCH   3   5
BRANCH   3  15
HETATM   15  C   UNL     1      -8.551  11.047  68.068  1.00  0.00    -0.134 C  
HETATM   16  C   UNL     1      -6.054  12.603  67.533  1.00  0.00    -0.157 C  
HETATM   17  C   UNL     1      -5.678  10.195  68.106  1.00  0.00    -0.038 C  
HETATM   18  C   UNL     1      -7.696  10.865  66.774  1.00  0.00    -0.141 C  
HETATM   19  C   UNL     1      -6.848  12.788  68.836  1.00  0.00    -0.096 C  
HETATM   20  C   UNL     1      -6.480  10.369  69.407  1.00  0.00    -0.057 C  
HETATM   21  C   UNL     1      -8.337  12.503  68.570  1.00  0.00    -0.069 C  
HETATM   22  C   UNL     1      -7.970  10.078  69.138  1.00  0.00    -0.116 C  
HETATM   23  O   UNL     1      -6.708  14.127  69.293  1.00  0.00    -0.113 OA 
HETATM   24  C   UNL     1      -6.327  11.812  69.902  1.00  0.00    -0.113 C  
HETATM   25  H   UNL     1      -7.198  14.241  70.099  1.00  0.00     0.000 HD 
HETATM   26  C   UNL     1      -6.207  11.160  67.034  1.00  0.00    -0.093 C  
ENDBRANCH   3  15
TORSDOF 2
ENDMDL
MODEL      113
REMARK 921   NORMALIZED FREE ENERGY PREDICTED BY IDOCK:   -4.58 KCAL/MOL
REMARK 922        TOTAL FREE ENERGY PREDICTED BY IDOCK:   -5.57 KCAL/MOL
REMARK 923 INTER-LIGAND FREE ENERGY PREDICTED BY IDOCK:   -5.09 KCAL/MOL
REMARK 924 INTRA-LIGAND FREE ENERGY PREDICTED BY IDOCK:   -0.49 KCAL/MOL
REMARK 927      BINDING AFFINITY PREDICTED BY RF-SCORE:    0.00 PKD
ROOT
HETATM    1  N   UNL     1     -11.365   6.495  67.064  1.00  0.00    -0.780 NA 
HETATM    2  H1  UNL     1     -11.124   6.740  66.104  1.00  0.00     0.000 HD 
HETATM    3  C   UNL     1     -10.209   6.864  67.915  1.00  0.00    -0.174 C  
HETATM    4  H2  UNL     1     -12.240   6.915  67.376  1.00  0.00     0.000 HD 
ENDROOT
BRANCH   3   5
HETATM    5  C   UNL     1     -10.577   6.488  69.382  1.00  0.00    -0.245 C  
HETATM    6  N   UNL     1     -10.978   7.699  73.019  1.00  0.00    -0.400 NA 
HETATM    7  N   UNL     1      -9.562   6.044  70.201  1.00  0.00    -0.160 N  
HETATM    8  O   UNL     1     -11.736   6.582  69.790  1.00  0.00    -0.382 OA 
HETATM    9  C   UNL     1     -10.453   6.878  72.381  1.00  0.00    -0.208 C  
HETATM   10  C   UNL     1      -9.755   5.802  71.651  1.00  0.00    -0.161 C  
HETATM   11  C   UNL     1      -8.334   5.427  69.775  1.00  0.00    -0.100 C  
HETATM   12  C   UNL     1      -8.308   5.668  72.184  1.00  0.00    -0.115 C  
HETATM   13  C   UNL     1      -6.994   6.062  69.935  1.00  0.00    -0.070 C  
HETATM   14  C   UNL     1      -7.515   5.147  71.015  1.00  0.00    -0.078 C  
ENDBRANCH   3   5
BRANCH   3  15
HETATM   15  C   UNL     1      -9.806   8.372  67.740  1.00  0.00    -0.218 C  
HETATM   16  C   UNL     1      -8.324  10.544  66.317  1.00  0.00    -0.152 C  
HETATM   17  C   UNL     1      -8.433  10.814  68.804  1.00  0.00    -0.148 C  
HETATM   18  C   UNL     1      -8.252   8.522  67.800  1.00  0.00    -0.122 C  
HETATM   19  C   UNL     1      -9.857  10.453  66.260  1.00  0.00    -0.218 C  
HETATM   20  C   UNL     1      -9.967  10.713  68.758  1.00  0.00    -0.201 C  
HETATM   21  C   UNL     1     -10.284   8.980  66.392  1.00  0.00    -0.297 C  
HETATM   22  C   UNL     1     -10.391   9.237  68.893  1.00  0.00    -0.231 C  
HETATM   23  O   UNL     1     -10.320  10.960  65.016  1.00  0.00    -0.285 OA 
HETATM   24  C   UNL     1     -10.467  11.262  67.416  1.00  0.00    -0.247 C  
HETATM   25  H   UNL     1     -11.267  10.903  64.981  1.00  0.00     0.000 HD 
HETATM   26  C   UNL     1      -7.821   9.993  67.658  1.00  0.00    -0.095 C  
ENDBRANCH   3  15
TORSDOF 2
ENDMDL
MODEL      114
REMARK 921   NORMALIZED FREE ENERGY PREDICTED BY IDOCK:   -4.57 KCAL/MOL
REMARK 922        TOTAL FREE ENERGY PREDICTED BY IDOCK:   -5.56 KCAL/MOL
REMARK 923 INTER-LIGAND FREE ENERGY PREDICTED BY IDOCK:   -4.85 KCAL/MOL
REMARK 924 INTRA-LIGAND FREE ENERGY PREDICTED BY IDOCK:   -0.71 KCAL/MOL
REMARK 927      BINDING AFFINITY PREDICTED BY RF-SCORE:    0.00 PKD
ROOT
HETATM    1  N   UNL     1     -10.446   8.985  71.928  1.00  0.00    -0.345 NA 
HETATM    2  H1  UNL     1     -10.091   8.169  72.425  1.00  0.00     0.000 HD 
HETATM    3  C   UNL     1      -9.620   9.152  70.710  1.00  0.00    -0.275 C  
HETATM    4  H2  UNL     1     -11.445   8.929  71.728  1.00  0.00     0.000 HD 
ENDROOT
BRANCH   3   5
HETATM    5  C   UNL     1     -10.162  10.399  69.950  1.00  0.00    -0.141 C  
HETATM    6  N   UNL     1     -11.931  11.744  66.800  1.00  0.00    -0.529 NA 
HETATM    7  N   UNL     1      -9.299  11.054  69.099  1.00  0.00    -0.089 N  
HETATM    8  O   UNL     1     -11.321  10.788  70.112  1.00  0.00    -0.290 OA 
HETATM    9  C   UNL     1     -10.974  11.895  67.447  1.00  0.00    -0.263 C  
HETATM   10  C   UNL     1      -9.737  12.156  68.210  1.00  0.00    -0.216 C  
HETATM   11  C   UNL     1      -7.862  11.047  69.175  1.00  0.00    -0.091 C  
HETATM   12  C   UNL     1      -8.549  12.318  67.231  1.00  0.00    -0.183 C  
HETATM   13  C   UNL     1      -6.986  10.407  68.151  1.00  0.00    -0.073 C  
HETATM   14  C   UNL     1      -7.344  11.865  68.014  1.00  0.00    -0.100 C  
ENDBRANCH   3   5
BRANCH   3  15
HETATM   15  C   UNL     1      -9.597   7.849  69.832  1.00  0.00    -0.168 C  
HETATM   16  C   UNL     1     -10.973   5.781  68.168  1.00  0.00    -0.150 C  
HETATM   17  C   UNL     1      -9.127   4.898  69.610  1.00  0.00    -0.153 C  
HETATM   18  C   UNL     1     -10.566   6.781  70.432  1.00  0.00    -0.262 C  
HETATM   19  C   UNL     1     -10.000   6.792  67.543  1.00  0.00    -0.141 C  
HETATM   20  C   UNL     1      -8.149   5.913  68.998  1.00  0.00    -0.103 C  
HETATM   21  C   UNL     1     -10.026   8.097  68.359  1.00  0.00    -0.210 C  
HETATM   22  C   UNL     1      -8.175   7.217  69.820  1.00  0.00    -0.131 C  
HETATM   23  O   UNL     1     -10.397   7.074  66.207  1.00  0.00    -0.459 OA 
HETATM   24  C   UNL     1      -8.575   6.215  67.556  1.00  0.00    -0.106 C  
HETATM   25  H   UNL     1      -9.795   7.699  65.820  1.00  0.00     0.000 HD 
HETATM   26  C   UNL     1     -10.549   5.479  69.612  1.00  0.00    -0.375 C  
ENDBRANCH   3  15
TORSDOF 2
ENDMDL
MODEL      115
REMARK 921   NORMALIZED FREE ENERGY PREDICTED BY IDOCK:   -4.56 KCAL/MOL
REMARK 922        TOTAL FREE ENERGY PREDICTED BY IDOCK:   -5.55 KCAL/MOL
REMARK 923 INTER-LIGAND FREE ENERGY PREDICTED BY IDOCK:   -6.96 KCAL/MOL
REMARK 924 INTRA-LIGAND FREE ENERGY PREDICTED BY IDOCK:    1.41 KCAL/MOL
REMARK 927      BINDING AFFINITY PREDICTED BY RF-SCORE:    0.00 PKD
ROOT
HETATM    1  N   UNL     1     -10.663  15.962  65.008  1.00  0.00    -0.543 NA 
HETATM    2  H1  UNL     1     -10.859  16.770  64.417  1.00  0.00     0.000 HD 
HETATM    3  C   UNL     1      -9.342  16.188  65.638  1.00  0.00    -0.046 C  
HETATM    4  H2  UNL     1     -11.402  15.774  65.686  1.00  0.00     0.000 HD 
ENDROOT
BRANCH   3   5
HETATM    5  C   UNL     1      -9.042  14.954  66.540  1.00  0.00    -0.277 C  
HETATM    6  N   UNL     1      -7.889  11.279  66.703  1.00  0.00    -0.154 NA 
HETATM    7  N   UNL     1     -10.080  14.086  66.800  1.00  0.00    -0.259 N  
HETATM    8  O   UNL     1      -7.917  14.766  67.008  1.00  0.00    -0.200 OA 
HETATM    9  C   UNL     1      -8.753  11.982  67.042  1.00  0.00    -0.188 C  
HETATM   10  C   UNL     1      -9.887  12.802  67.515  1.00  0.00    -0.211 C  
HETATM   11  C   UNL     1     -11.483  14.403  66.762  1.00  0.00    -0.370 C  
HETATM   12  C   UNL     1     -11.214  12.047  67.257  1.00  0.00    -0.371 C  
HETATM   13  C   UNL     1     -12.428  13.840  65.756  1.00  0.00    -0.527 C  
HETATM   14  C   UNL     1     -12.242  13.133  67.075  1.00  0.00    -0.271 C  
ENDBRANCH   3   5
BRANCH   3  15
HETATM   15  C   UNL     1      -9.285  17.554  66.412  1.00  0.00    -0.267 C  
HETATM   16  C   UNL     1      -8.147  19.320  68.540  1.00  0.00    -0.401 C  
HETATM   17  C   UNL     1     -10.614  19.566  68.192  1.00  0.00    -0.404 C  
HETATM   18  C   UNL     1      -9.532  17.317  67.936  1.00  0.00    -0.266 C  
HETATM   19  C   UNL     1      -7.909  19.608  67.050  1.00  0.00    -0.270 C  
HETATM   20  C   UNL     1     -10.386  19.845  66.697  1.00  0.00    -0.608 C  
HETATM   21  C   UNL     1      -7.920  18.284  66.266  1.00  0.00    -0.267 C  
HETATM   22  C   UNL     1     -10.402  18.517  65.915  1.00  0.00    -0.344 C  
HETATM   23  O   UNL     1      -6.644  20.235  66.881  1.00  0.00    -0.211 OA 
HETATM   24  C   UNL     1      -9.022  20.523  66.515  1.00  0.00    -0.150 C  
HETATM   25  H   UNL     1      -6.497  20.413  65.960  1.00  0.00     0.000 HD 
HETATM   26  C   UNL     1      -9.510  18.639  68.724  1.00  0.00    -0.358 C  
ENDBRANCH   3  15
TORSDOF 2
ENDMDL
MODEL      116
REMARK 921   NORMALIZED FREE ENERGY PREDICTED BY IDOCK:   -4.56 KCAL/MOL
REMARK 922        TOTAL FREE ENERGY PREDICTED BY IDOCK:   -5.55 KCAL/MOL
REMARK 923 INTER-LIGAND FREE ENERGY PREDICTED BY IDOCK:   -6.76 KCAL/MOL
REMARK 924 INTRA-LIGAND FREE ENERGY PREDICTED BY IDOCK:    1.21 KCAL/MOL
REMARK 927      BINDING AFFINITY PREDICTED BY RF-SCORE:    0.00 PKD
ROOT
HETATM    1  N   UNL     1     -10.632  16.643  69.139  1.00  0.00    -0.323 NA 
HETATM    2  H1  UNL     1     -11.637  16.470  69.147  1.00  0.00     0.000 HD 
HETATM    3  C   UNL     1      -9.964  15.345  68.885  1.00  0.00    -0.219 C  
HETATM    4  H2  UNL     1     -10.357  17.370  68.478  1.00  0.00     0.000 HD 
ENDROOT
BRANCH   3   5
HETATM    5  C   UNL     1      -8.429  15.611  68.874  1.00  0.00    -0.213 C  
HETATM    6  N   UNL     1      -5.345  16.804  70.856  1.00  0.00    -0.163 NA 
HETATM    7  N   UNL     1      -7.999  16.859  68.481  1.00  0.00    -0.232 N  
HETATM    8  O   UNL     1      -7.629  14.731  69.202  1.00  0.00    -0.140 OA 
HETATM    9  C   UNL     1      -5.919  16.987  69.859  1.00  0.00    -0.219 C  
HETATM   10  C   UNL     1      -6.581  17.281  68.572  1.00  0.00    -0.174 C  
HETATM   11  C   UNL     1      -8.714  17.776  67.633  1.00  0.00    -0.244 C  
HETATM   12  C   UNL     1      -6.651  18.813  68.363  1.00  0.00    -0.249 C  
HETATM   13  C   UNL     1      -9.259  19.081  68.106  1.00  0.00    -0.371 C  
HETATM   14  C   UNL     1      -7.874  19.027  67.512  1.00  0.00    -0.263 C  
ENDBRANCH   3   5
BRANCH   3  15
HETATM   15  C   UNL     1     -10.488  14.661  67.572  1.00  0.00    -0.247 C  
HETATM   16  C   UNL     1     -12.623  14.178  65.536  1.00  0.00    -0.501 C  
HETATM   17  C   UNL     1     -11.236  12.168  66.086  1.00  0.00    -0.386 C  
HETATM   18  C   UNL     1     -11.782  13.840  67.875  1.00  0.00    -0.395 C  
HETATM   19  C   UNL     1     -11.349  14.961  65.187  1.00  0.00    -0.379 C  
HETATM   20  C   UNL     1      -9.955  12.947  65.749  1.00  0.00    -0.261 C  
HETATM   21  C   UNL     1     -10.829  15.677  66.447  1.00  0.00    -0.252 C  
HETATM   22  C   UNL     1      -9.435  13.659  67.014  1.00  0.00    -0.252 C  
HETATM   23  O   UNL     1     -11.643  15.932  64.191  1.00  0.00    -0.827 OA 
HETATM   24  C   UNL     1     -10.271  13.993  64.673  1.00  0.00    -0.242 C  
HETATM   25  H   UNL     1     -10.854  16.417  63.975  1.00  0.00     0.000 HD 
HETATM   26  C   UNL     1     -12.310  13.132  66.614  1.00  0.00    -0.207 C  
ENDBRANCH   3  15
TORSDOF 2
ENDMDL
MODEL      117
REMARK 921   NORMALIZED FREE ENERGY PREDICTED BY IDOCK:   -4.54 KCAL/MOL
REMARK 922        TOTAL FREE ENERGY PREDICTED BY IDOCK:   -5.53 KCAL/MOL
REMARK 923 INTER-LIGAND FREE ENERGY PREDICTED BY IDOCK:   -4.99 KCAL/MOL
REMARK 924 INTRA-LIGAND FREE ENERGY PREDICTED BY IDOCK:   -0.54 KCAL/MOL
REMARK 927      BINDING AFFINITY PREDICTED BY RF-SCORE:    0.00 PKD
ROOT
HETATM    1  N   UNL     1     -11.254   9.748  68.220  1.00  0.00    -0.517 NA 
HETATM    2  H1  UNL     1     -11.343  10.396  69.003  1.00  0.00     0.000 HD 
HETATM    3  C   UNL     1     -10.125   8.839  68.528  1.00  0.00    -0.189 C  
HETATM    4  H2  UNL     1     -12.121   9.252  68.012  1.00  0.00     0.000 HD 
ENDROOT
BRANCH   3   5
HETATM    5  C   UNL     1      -9.989   7.850  67.331  1.00  0.00    -0.198 C  
HETATM    6  N   UNL     1      -9.876   4.173  66.180  1.00  0.00    -0.206 NA 
HETATM    7  N   UNL     1      -8.721   7.447  66.977  1.00  0.00    -0.121 N  
HETATM    8  O   UNL     1     -10.983   7.449  66.722  1.00  0.00    -0.249 OA 
HETATM    9  C   UNL     1      -9.284   5.173  66.107  1.00  0.00    -0.151 C  
HETATM   10  C   UNL     1      -8.472   6.397  65.960  1.00  0.00    -0.144 C  
HETATM   11  C   UNL     1      -7.499   8.164  67.229  1.00  0.00    -0.090 C  
HETATM   12  C   UNL     1      -6.976   6.054  66.162  1.00  0.00    -0.062 C  
HETATM   13  C   UNL     1      -6.439   7.683  68.161  1.00  0.00    -0.054 C  
HETATM   14  C   UNL     1      -6.362   7.320  66.699  1.00  0.00    -0.051 C  
ENDBRANCH   3   5
BRANCH   3  15
HETATM   15  C   UNL     1     -10.307   8.121  69.913  1.00  0.00    -0.214 C  
HETATM   16  C   UNL     1      -9.692   5.901  71.819  1.00  0.00    -0.178 C  
HETATM   17  C   UNL     1     -12.073   6.673  71.853  1.00  0.00    -0.385 C  
HETATM   18  C   UNL     1     -10.794   6.653  69.694  1.00  0.00    -0.336 C  
HETATM   19  C   UNL     1      -9.223   7.339  72.088  1.00  0.00    -0.132 C  
HETATM   20  C   UNL     1     -11.613   8.116  72.112  1.00  0.00    -0.417 C  
HETATM   21  C   UNL     1      -8.998   8.061  70.747  1.00  0.00    -0.148 C  
HETATM   22  C   UNL     1     -11.392   8.838  70.767  1.00  0.00    -0.313 C  
HETATM   23  O   UNL     1      -7.999   7.315  72.811  1.00  0.00    -0.099 OA 
HETATM   24  C   UNL     1     -10.294   8.090  72.895  1.00  0.00    -0.397 C  
HETATM   25  H   UNL     1      -7.709   8.204  72.978  1.00  0.00     0.000 HD 
HETATM   26  C   UNL     1     -11.010   5.925  71.034  1.00  0.00    -0.335 C  
ENDBRANCH   3  15
TORSDOF 2
ENDMDL
MODEL      118
REMARK 921   NORMALIZED FREE ENERGY PREDICTED BY IDOCK:   -4.51 KCAL/MOL
REMARK 922        TOTAL FREE ENERGY PREDICTED BY IDOCK:   -5.50 KCAL/MOL
REMARK 923 INTER-LIGAND FREE ENERGY PREDICTED BY IDOCK:   -6.34 KCAL/MOL
REMARK 924 INTRA-LIGAND FREE ENERGY PREDICTED BY IDOCK:    0.85 KCAL/MOL
REMARK 927      BINDING AFFINITY PREDICTED BY RF-SCORE:    0.00 PKD
ROOT
HETATM    1  N   UNL     1     -12.302  12.822  66.639  1.00  0.00    -0.400 NA 
HETATM    2  H1  UNL     1     -12.409  12.185  65.850  1.00  0.00     0.000 HD 
HETATM    3  C   UNL     1     -11.776  12.030  67.775  1.00  0.00    -0.309 C  
HETATM    4  H2  UNL     1     -11.729  13.636  66.420  1.00  0.00     0.000 HD 
ENDROOT
BRANCH   3   5
HETATM    5  C   UNL     1     -11.613  13.003  68.981  1.00  0.00    -0.318 C  
HETATM    6  N   UNL     1     -13.243  15.715  71.182  1.00  0.00    -0.532 NA 
HETATM    7  N   UNL     1     -11.115  14.261  68.723  1.00  0.00    -0.245 N  
HETATM    8  O   UNL     1     -11.915  12.654  70.124  1.00  0.00    -0.346 OA 
HETATM    9  C   UNL     1     -12.293  15.505  70.542  1.00  0.00    -0.418 C  
HETATM   10  C   UNL     1     -11.057  15.323  69.756  1.00  0.00    -0.282 C  
HETATM   11  C   UNL     1     -10.287  14.636  67.608  1.00  0.00    -0.233 C  
HETATM   12  C   UNL     1     -10.772  16.604  68.934  1.00  0.00    -0.337 C  
HETATM   13  C   UNL     1     -10.735  15.551  66.519  1.00  0.00    -0.304 C  
HETATM   14  C   UNL     1     -10.023  16.120  67.720  1.00  0.00    -0.237 C  
ENDBRANCH   3   5
BRANCH   3  15
HETATM   15  C   UNL     1     -10.450  11.274  67.401  1.00  0.00    -0.247 C  
HETATM   16  C   UNL     1      -8.941   9.274  65.769  1.00  0.00    -0.234 C  
HETATM   17  C   UNL     1      -8.251   9.390  68.172  1.00  0.00    -0.118 C  
HETATM   18  C   UNL     1     -10.656   9.731  67.542  1.00  0.00    -0.335 C  
HETATM   19  C   UNL     1      -8.684  10.782  65.623  1.00  0.00    -0.190 C  
HETATM   20  C   UNL     1      -8.002  10.901  68.039  1.00  0.00    -0.109 C  
HETATM   21  C   UNL     1      -9.977  11.553  65.947  1.00  0.00    -0.267 C  
HETATM   22  C   UNL     1      -9.298  11.669  68.368  1.00  0.00    -0.191 C  
HETATM   23  O   UNL     1      -8.294  11.074  64.288  1.00  0.00    -0.370 OA 
HETATM   24  C   UNL     1      -7.578  11.216  66.599  1.00  0.00    -0.147 C  
HETATM   25  H   UNL     1      -8.135  12.006  64.198  1.00  0.00     0.000 HD 
HETATM   26  C   UNL     1      -9.367   8.958  67.208  1.00  0.00    -0.173 C  
ENDBRANCH   3  15
TORSDOF 2
ENDMDL
MODEL      119
REMARK 921   NORMALIZED FREE ENERGY PREDICTED BY IDOCK:   -4.49 KCAL/MOL
REMARK 922        TOTAL FREE ENERGY PREDICTED BY IDOCK:   -5.48 KCAL/MOL
REMARK 923 INTER-LIGAND FREE ENERGY PREDICTED BY IDOCK:   -5.88 KCAL/MOL
REMARK 924 INTRA-LIGAND FREE ENERGY PREDICTED BY IDOCK:    0.40 KCAL/MOL
REMARK 927      BINDING AFFINITY PREDICTED BY RF-SCORE:    0.00 PKD
ROOT
HETATM    1  N   UNL     1     -11.117  14.775  66.409  1.00  0.00    -0.336 NA 
HETATM    2  H1  UNL     1     -10.422  14.855  65.667  1.00  0.00     0.000 HD 
HETATM    3  C   UNL     1     -10.436  15.099  67.685  1.00  0.00    -0.253 C  
HETATM    4  H2  UNL     1     -11.946  15.344  66.244  1.00  0.00     0.000 HD 
ENDROOT
BRANCH   3   5
HETATM    5  C   UNL     1     -11.498  14.976  68.819  1.00  0.00    -0.319 C  
HETATM    6  N   UNL     1     -12.240  15.267  72.591  1.00  0.00    -0.372 NA 
HETATM    7  N   UNL     1     -11.646  13.748  69.424  1.00  0.00    -0.292 N  
HETATM    8  O   UNL     1     -12.182  15.944  69.157  1.00  0.00    -0.264 OA 
HETATM    9  C   UNL     1     -12.341  14.533  71.692  1.00  0.00    -0.350 C  
HETATM   10  C   UNL     1     -12.510  13.541  70.611  1.00  0.00    -0.333 C  
HETATM   11  C   UNL     1     -11.318  12.471  68.848  1.00  0.00    -0.297 C  
HETATM   12  C   UNL     1     -12.088  12.142  71.120  1.00  0.00     0.085 C  
HETATM   13  C   UNL     1     -10.215  11.601  69.348  1.00  0.00     0.220 C  
HETATM   14  C   UNL     1     -11.610  11.416  69.891  1.00  0.00    -0.402 C  
ENDBRANCH   3   5
BRANCH   3  15
HETATM   15  C   UNL     1      -9.735  16.504  67.637  1.00  0.00    -0.239 C  
HETATM   16  C   UNL     1      -7.775  18.496  68.700  1.00  0.00    -0.332 C  
HETATM   17  C   UNL     1      -9.919  19.486  67.870  1.00  0.00    -0.505 C  
HETATM   18  C   UNL     1      -9.929  17.246  68.999  1.00  0.00    -0.272 C  
HETATM   19  C   UNL     1      -7.564  17.814  67.339  1.00  0.00    -0.200 C  
HETATM   20  C   UNL     1      -9.722  18.799  66.509  1.00  0.00    -0.380 C  
HETATM   21  C   UNL     1      -8.208  16.416  67.364  1.00  0.00    -0.178 C  
HETATM   22  C   UNL     1     -10.371  17.401  66.537  1.00  0.00    -0.312 C  
HETATM   23  O   UNL     1      -6.172  17.678  67.084  1.00  0.00    -0.134 OA 
HETATM   24  C   UNL     1      -8.221  18.655  66.232  1.00  0.00    -0.258 C  
HETATM   25  H   UNL     1      -6.042  17.257  66.242  1.00  0.00     0.000 HD 
HETATM   26  C   UNL     1      -9.277  18.640  68.980  1.00  0.00    -0.157 C  
ENDBRANCH   3  15
TORSDOF 2
ENDMDL
MODEL      120
REMARK 921   NORMALIZED FREE ENERGY PREDICTED BY IDOCK:   -4.49 KCAL/MOL
REMARK 922        TOTAL FREE ENERGY PREDICTED BY IDOCK:   -5.47 KCAL/MOL
REMARK 923 INTER-LIGAND FREE ENERGY PREDICTED BY IDOCK:   -6.06 KCAL/MOL
REMARK 924 INTRA-LIGAND FREE ENERGY PREDICTED BY IDOCK:    0.58 KCAL/MOL
REMARK 927      BINDING AFFINITY PREDICTED BY RF-SCORE:    0.00 PKD
ROOT
HETATM    1  N   UNL     1      -7.634   9.912  70.655  1.00  0.00    -0.373 NA 
HETATM    2  H1  UNL     1      -7.020   9.132  70.891  1.00  0.00     0.000 HD 
HETATM    3  C   UNL     1      -8.611   9.417  69.657  1.00  0.00    -0.168 C  
HETATM    4  H2  UNL     1      -8.076  10.334  71.472  1.00  0.00     0.000 HD 
ENDROOT
BRANCH   3   5
HETATM    5  C   UNL     1      -9.548  10.609  69.297  1.00  0.00    -0.144 C  
HETATM    6  N   UNL     1     -12.045  12.102  66.768  1.00  0.00    -0.565 NA 
HETATM    7  N   UNL     1      -9.008  11.650  68.574  1.00  0.00    -0.164 N  
HETATM    8  O   UNL     1     -10.728  10.620  69.653  1.00  0.00    -0.243 OA 
HETATM    9  C   UNL     1     -11.067  12.357  67.347  1.00  0.00    -0.272 C  
HETATM   10  C   UNL     1      -9.829  12.763  68.042  1.00  0.00    -0.226 C  
HETATM   11  C   UNL     1      -7.618  12.017  68.521  1.00  0.00    -0.126 C  
HETATM   12  C   UNL     1      -8.878  13.461  67.041  1.00  0.00    -0.217 C  
HETATM   13  C   UNL     1      -6.778  11.891  67.295  1.00  0.00    -0.138 C  
HETATM   14  C   UNL     1      -7.496  13.188  67.572  1.00  0.00    -0.164 C  
ENDBRANCH   3   5
BRANCH   3  15
HETATM   15  C   UNL     1      -9.384   8.149  70.170  1.00  0.00    -0.159 C  
HETATM   16  C   UNL     1      -9.808   5.962  72.163  1.00  0.00    -0.185 C  
HETATM   17  C   UNL     1     -10.187   5.288  69.782  1.00  0.00    -0.364 C  
HETATM   18  C   UNL     1      -8.395   6.953  70.342  1.00  0.00    -0.130 C  
HETATM   19  C   UNL     1     -10.823   7.103  72.001  1.00  0.00    -0.222 C  
HETATM   20  C   UNL     1     -11.197   6.435  69.607  1.00  0.00    -0.483 C  
HETATM   21  C   UNL     1     -10.091   8.375  71.535  1.00  0.00    -0.293 C  
HETATM   22  C   UNL     1     -10.460   7.705  69.137  1.00  0.00    -0.220 C  
HETATM   23  O   UNL     1     -11.453   7.363  73.249  1.00  0.00    -0.602 OA 
HETATM   24  C   UNL     1     -11.878   6.713  70.953  1.00  0.00    -0.434 C  
HETATM   25  H   UNL     1     -12.081   8.069  73.149  1.00  0.00     0.000 HD 
HETATM   26  C   UNL     1      -9.124   5.682  70.818  1.00  0.00    -0.164 C  
ENDBRANCH   3  15
TORSDOF 2
ENDMDL
MODEL      121
REMARK 921   NORMALIZED FREE ENERGY PREDICTED BY IDOCK:   -4.49 KCAL/MOL
REMARK 922        TOTAL FREE ENERGY PREDICTED BY IDOCK:   -5.47 KCAL/MOL
REMARK 923 INTER-LIGAND FREE ENERGY PREDICTED BY IDOCK:   -6.87 KCAL/MOL
REMARK 924 INTRA-LIGAND FREE ENERGY PREDICTED BY IDOCK:    1.40 KCAL/MOL
REMARK 927      BINDING AFFINITY PREDICTED BY RF-SCORE:    0.00 PKD
ROOT
HETATM    1  N   UNL     1     -10.565  18.214  68.055  1.00  0.00    -0.376 NA 
HETATM    2  H1  UNL     1     -10.297  19.129  68.416  1.00  0.00     0.000 HD 
HETATM    3  C   UNL     1      -9.638  17.891  66.944  1.00  0.00    -0.300 C  
HETATM    4  H2  UNL     1     -10.592  17.492  68.774  1.00  0.00     0.000 HD 
ENDROOT
BRANCH   3   5
HETATM    5  C   UNL     1     -10.048  16.493  66.392  1.00  0.00    -0.312 C  
HETATM    6  N   UNL     1     -12.776  14.370  64.686  1.00  0.00    -0.643 NA 
HETATM    7  N   UNL     1     -10.655  15.615  67.262  1.00  0.00    -0.300 N  
HETATM    8  O   UNL     1      -9.831  16.185  65.218  1.00  0.00    -0.452 OA 
HETATM    9  C   UNL     1     -12.077  14.384  65.617  1.00  0.00    -0.354 C  
HETATM   10  C   UNL     1     -11.226  14.320  66.822  1.00  0.00    -0.332 C  
HETATM   11  C   UNL     1     -10.530  15.616  68.696  1.00  0.00    -0.231 C  
HETATM   12  C   UNL     1     -12.077  13.874  68.035  1.00  0.00    -0.318 C  
HETATM   13  C   UNL     1     -11.655  15.935  69.621  1.00  0.00    -0.339 C  
HETATM   14  C   UNL     1     -11.403  14.502  69.227  1.00  0.00    -0.317 C  
ENDBRANCH   3   5
BRANCH   3  15
HETATM   15  C   UNL     1      -8.134  17.968  67.392  1.00  0.00    -0.227 C  
HETATM   16  C   UNL     1      -5.457  19.298  67.378  1.00  0.00    -0.162 C  
HETATM   17  C   UNL     1      -5.376  16.796  67.374  1.00  0.00    -0.168 C  
HETATM   18  C   UNL     1      -7.203  17.992  66.138  1.00  0.00    -0.325 C  
HETATM   19  C   UNL     1      -6.328  19.268  68.644  1.00  0.00    -0.249 C  
HETATM   20  C   UNL     1      -6.256  16.755  68.634  1.00  0.00    -0.151 C  
HETATM   21  C   UNL     1      -7.813  19.230  68.240  1.00  0.00    -0.354 C  
HETATM   22  C   UNL     1      -7.742  16.714  68.226  1.00  0.00    -0.183 C  
HETATM   23  O   UNL     1      -6.088  20.436  69.417  1.00  0.00    -0.329 OA 
HETATM   24  C   UNL     1      -5.996  18.015  69.470  1.00  0.00    -0.246 C  
HETATM   25  H   UNL     1      -6.626  20.417  70.199  1.00  0.00     0.000 HD 
HETATM   26  C   UNL     1      -5.717  18.040  66.539  1.00  0.00    -0.198 C  
ENDBRANCH   3  15
TORSDOF 2
ENDMDL
MODEL      122
REMARK 921   NORMALIZED FREE ENERGY PREDICTED BY IDOCK:   -4.48 KCAL/MOL
REMARK 922        TOTAL FREE ENERGY PREDICTED BY IDOCK:   -5.47 KCAL/MOL
REMARK 923 INTER-LIGAND FREE ENERGY PREDICTED BY IDOCK:   -4.84 KCAL/MOL
REMARK 924 INTRA-LIGAND FREE ENERGY PREDICTED BY IDOCK:   -0.63 KCAL/MOL
REMARK 927      BINDING AFFINITY PREDICTED BY RF-SCORE:    0.00 PKD
ROOT
HETATM    1  N   UNL     1      -6.839   8.984  68.645  1.00  0.00    -0.062 NA 
HETATM    2  H1  UNL     1      -6.301   8.225  68.227  1.00  0.00     0.000 HD 
HETATM    3  C   UNL     1      -8.156   9.014  67.967  1.00  0.00    -0.105 C  
HETATM    4  H2  UNL     1      -6.914   8.909  69.659  1.00  0.00     0.000 HD 
ENDROOT
BRANCH   3   5
HETATM    5  C   UNL     1      -8.978  10.174  68.606  1.00  0.00    -0.136 C  
HETATM    6  N   UNL     1     -12.351  11.304  70.090  1.00  0.00    -0.291 NA 
HETATM    7  N   UNL     1      -9.676  11.005  67.758  1.00  0.00    -0.168 N  
HETATM    8  O   UNL     1      -8.996  10.343  69.827  1.00  0.00    -0.118 OA 
HETATM    9  C   UNL     1     -11.561  11.598  69.287  1.00  0.00    -0.320 C  
HETATM   10  C   UNL     1     -10.611  12.045  68.249  1.00  0.00    -0.212 C  
HETATM   11  C   UNL     1      -9.376  11.252  66.372  1.00  0.00    -0.192 C  
HETATM   12  C   UNL     1     -11.389  12.455  66.975  1.00  0.00    -0.388 C  
HETATM   13  C   UNL     1     -10.257  10.819  65.249  1.00  0.00    -0.351 C  
HETATM   14  C   UNL     1     -10.433  12.194  65.842  1.00  0.00    -0.288 C  
ENDBRANCH   3   5
BRANCH   3  15
HETATM   15  C   UNL     1      -8.885   7.624  68.033  1.00  0.00    -0.127 C  
HETATM   16  C   UNL     1      -8.845   4.654  68.371  1.00  0.00    -0.124 C  
HETATM   17  C   UNL     1     -10.488   5.487  66.676  1.00  0.00    -0.355 C  
HETATM   18  C   UNL     1      -8.286   6.654  66.965  1.00  0.00    -0.113 C  
HETATM   19  C   UNL     1      -9.475   5.571  69.432  1.00  0.00    -0.133 C  
HETATM   20  C   UNL     1     -11.118   6.415  67.728  1.00  0.00    -0.376 C  
HETATM   21  C   UNL     1      -8.757   6.932  69.419  1.00  0.00    -0.133 C  
HETATM   22  C   UNL     1     -10.399   7.779  67.710  1.00  0.00    -0.284 C  
HETATM   23  O   UNL     1      -9.330   4.983  70.718  1.00  0.00    -0.141 OA 
HETATM   24  C   UNL     1     -10.964   5.780  69.115  1.00  0.00    -0.308 C  
HETATM   25  H   UNL     1      -9.720   5.550  71.373  1.00  0.00     0.000 HD 
HETATM   26  C   UNL     1      -8.996   5.288  66.982  1.00  0.00    -0.112 C  
ENDBRANCH   3  15
TORSDOF 2
ENDMDL
MODEL      123
REMARK 921   NORMALIZED FREE ENERGY PREDICTED BY IDOCK:   -4.46 KCAL/MOL
REMARK 922        TOTAL FREE ENERGY PREDICTED BY IDOCK:   -5.45 KCAL/MOL
REMARK 923 INTER-LIGAND FREE ENERGY PREDICTED BY IDOCK:   -5.76 KCAL/MOL
REMARK 924 INTRA-LIGAND FREE ENERGY PREDICTED BY IDOCK:    0.31 KCAL/MOL
REMARK 927      BINDING AFFINITY PREDICTED BY RF-SCORE:    0.00 PKD
ROOT
HETATM    1  N   UNL     1     -13.088  10.608  69.735  1.00  0.00    -0.428 NA 
HETATM    2  H1  UNL     1     -13.036   9.651  70.085  1.00  0.00     0.000 HD 
HETATM    3  C   UNL     1     -11.732  11.194  69.856  1.00  0.00    -0.355 C  
HETATM    4  H2  UNL     1     -13.466  10.669  68.791  1.00  0.00     0.000 HD 
ENDROOT
BRANCH   3   5
HETATM    5  C   UNL     1     -11.812  12.656  69.323  1.00  0.00    -0.302 C  
HETATM    6  N   UNL     1     -10.003  16.031  68.873  1.00  0.00    -0.221 NA 
HETATM    7  N   UNL     1     -12.280  13.625  70.184  1.00  0.00    -0.345 N  
HETATM    8  O   UNL     1     -11.472  12.932  68.171  1.00  0.00    -0.272 OA 
HETATM    9  C   UNL     1     -10.986  15.569  69.294  1.00  0.00    -0.268 C  
HETATM   10  C   UNL     1     -12.260  15.068  69.848  1.00  0.00    -0.309 C  
HETATM   11  C   UNL     1     -13.143  13.412  71.315  1.00  0.00    -0.238 C  
HETATM   12  C   UNL     1     -12.539  15.754  71.207  1.00  0.00    -0.504 C  
HETATM   13  C   UNL     1     -12.713  13.611  72.729  1.00  0.00    -0.046 C  
HETATM   14  C   UNL     1     -13.355  14.753  71.981  1.00  0.00    -0.459 C  
ENDBRANCH   3   5
BRANCH   3  15
HETATM   15  C   UNL     1     -10.648  10.323  69.126  1.00  0.00    -0.254 C  
HETATM   16  C   UNL     1      -8.608   9.932  66.975  1.00  0.00    -0.130 C  
HETATM   17  C   UNL     1      -9.946   7.889  67.525  1.00  0.00    -0.250 C  
HETATM   18  C   UNL     1     -11.022  10.153  67.619  1.00  0.00    -0.331 C  
HETATM   19  C   UNL     1      -8.199  10.061  68.450  1.00  0.00    -0.106 C  
HETATM   20  C   UNL     1      -9.551   8.016  69.005  1.00  0.00    -0.156 C  
HETATM   21  C   UNL     1      -9.223  10.942  69.188  1.00  0.00    -0.077 C  
HETATM   22  C   UNL     1     -10.581   8.896  69.741  1.00  0.00    -0.230 C  
HETATM   23  O   UNL     1      -6.917  10.668  68.539  1.00  0.00    -0.063 OA 
HETATM   24  C   UNL     1      -8.166   8.668  69.101  1.00  0.00    -0.117 C  
HETATM   25  H   UNL     1      -6.664  10.747  69.452  1.00  0.00     0.000 HD 
HETATM   26  C   UNL     1      -9.994   9.281  66.876  1.00  0.00    -0.298 C  
ENDBRANCH   3  15
TORSDOF 2
ENDMDL
MODEL      124
REMARK 921   NORMALIZED FREE ENERGY PREDICTED BY IDOCK:   -4.46 KCAL/MOL
REMARK 922        TOTAL FREE ENERGY PREDICTED BY IDOCK:   -5.44 KCAL/MOL
REMARK 923 INTER-LIGAND FREE ENERGY PREDICTED BY IDOCK:   -4.90 KCAL/MOL
REMARK 924 INTRA-LIGAND FREE ENERGY PREDICTED BY IDOCK:   -0.54 KCAL/MOL
REMARK 927      BINDING AFFINITY PREDICTED BY RF-SCORE:    0.00 PKD
ROOT
HETATM    1  N   UNL     1     -11.672  11.722  66.658  1.00  0.00    -0.554 NA 
HETATM    2  H1  UNL     1     -11.505  10.716  66.623  1.00  0.00     0.000 HD 
HETATM    3  C   UNL     1     -11.010  12.234  67.881  1.00  0.00    -0.224 C  
HETATM    4  H2  UNL     1     -11.375  12.206  65.811  1.00  0.00     0.000 HD 
ENDROOT
BRANCH   3   5
HETATM    5  C   UNL     1     -11.265  13.771  67.934  1.00  0.00    -0.274 C  
HETATM    6  N   UNL     1      -9.880  17.241  68.884  1.00  0.00    -0.297 NA 
HETATM    7  N   UNL     1     -11.854  14.282  69.070  1.00  0.00    -0.320 N  
HETATM    8  O   UNL     1     -10.953  14.500  66.990  1.00  0.00    -0.298 OA 
HETATM    9  C   UNL     1     -10.802  16.548  69.047  1.00  0.00    -0.329 C  
HETATM   10  C   UNL     1     -12.009  15.737  69.304  1.00  0.00    -0.289 C  
HETATM   11  C   UNL     1     -12.693  13.560  69.990  1.00  0.00     0.054 C  
HETATM   12  C   UNL     1     -12.380  15.819  70.804  1.00  0.00    -0.435 C  
HETATM   13  C   UNL     1     -12.300  13.253  71.396  1.00  0.00    -0.172 C  
HETATM   14  C   UNL     1     -13.072  14.515  71.100  1.00  0.00    -0.424 C  
ENDBRANCH   3   5
BRANCH   3  15
HETATM   15  C   UNL     1      -9.487  11.853  67.930  1.00  0.00    -0.194 C  
HETATM   16  C   UNL     1      -6.641  12.306  67.134  1.00  0.00    -0.109 C  
HETATM   17  C   UNL     1      -7.298   9.898  67.323  1.00  0.00    -0.087 C  
HETATM   18  C   UNL     1      -8.955  11.586  66.486  1.00  0.00    -0.190 C  
HETATM   19  C   UNL     1      -7.116  12.549  68.575  1.00  0.00    -0.107 C  
HETATM   20  C   UNL     1      -7.786  10.133  68.762  1.00  0.00    -0.098 C  
HETATM   21  C   UNL     1      -8.599  12.962  68.560  1.00  0.00    -0.042 C  
HETATM   22  C   UNL     1      -9.272  10.544  68.743  1.00  0.00    -0.177 C  
HETATM   23  O   UNL     1      -6.351  13.593  69.161  1.00  0.00    -0.092 OA 
HETATM   24  C   UNL     1      -6.959  11.258  69.396  1.00  0.00    -0.109 C  
HETATM   25  H   UNL     1      -6.644  13.743  70.052  1.00  0.00     0.000 HD 
HETATM   26  C   UNL     1      -7.469  11.182  66.497  1.00  0.00    -0.131 C  
ENDBRANCH   3  15
TORSDOF 2
ENDMDL
MODEL      125
REMARK 921   NORMALIZED FREE ENERGY PREDICTED BY IDOCK:   -4.45 KCAL/MOL
REMARK 922        TOTAL FREE ENERGY PREDICTED BY IDOCK:   -5.44 KCAL/MOL
REMARK 923 INTER-LIGAND FREE ENERGY PREDICTED BY IDOCK:   -6.20 KCAL/MOL
REMARK 924 INTRA-LIGAND FREE ENERGY PREDICTED BY IDOCK:    0.77 KCAL/MOL
REMARK 927      BINDING AFFINITY PREDICTED BY RF-SCORE:    0.00 PKD
ROOT
HETATM    1  N   UNL     1     -12.142  10.776  68.743  1.00  0.00    -0.785 NA 
HETATM    2  H1  UNL     1     -12.835  11.500  68.933  1.00  0.00     0.000 HD 
HETATM    3  C   UNL     1     -11.485  11.122  67.461  1.00  0.00    -0.216 C  
HETATM    4  H2  UNL     1     -11.481  10.645  69.508  1.00  0.00     0.000 HD 
ENDROOT
BRANCH   3   5
HETATM    5  C   UNL     1     -10.427  10.015  67.171  1.00  0.00    -0.244 C  
HETATM    6  N   UNL     1      -9.753   6.260  66.621  1.00  0.00    -0.157 NA 
HETATM    7  N   UNL     1      -9.806   9.427  68.250  1.00  0.00    -0.156 N  
HETATM    8  O   UNL     1     -10.155   9.684  66.015  1.00  0.00    -0.283 OA 
HETATM    9  C   UNL     1      -9.404   7.168  67.261  1.00  0.00    -0.134 C  
HETATM   10  C   UNL     1      -8.898   8.263  68.113  1.00  0.00    -0.139 C  
HETATM   11  C   UNL     1      -9.638  10.009  69.556  1.00  0.00    -0.230 C  
HETATM   12  C   UNL     1      -8.742   7.759  69.568  1.00  0.00    -0.135 C  
HETATM   13  C   UNL     1     -10.313   9.491  70.781  1.00  0.00    -0.377 C  
HETATM   14  C   UNL     1      -8.939   8.985  70.421  1.00  0.00    -0.235 C  
ENDBRANCH   3   5
BRANCH   3  15
HETATM   15  C   UNL     1     -10.880  12.572  67.483  1.00  0.00    -0.264 C  
HETATM   16  C   UNL     1      -9.035  14.629  68.625  1.00  0.00    -0.184 C  
HETATM   17  C   UNL     1     -11.257  15.517  67.889  1.00  0.00    -0.325 C  
HETATM   18  C   UNL     1     -11.095  13.221  68.888  1.00  0.00    -0.304 C  
HETATM   19  C   UNL     1      -8.807  14.041  67.224  1.00  0.00    -0.218 C  
HETATM   20  C   UNL     1     -11.042  14.923  66.488  1.00  0.00    -0.341 C  
HETATM   21  C   UNL     1      -9.356  12.603  67.180  1.00  0.00    -0.210 C  
HETATM   22  C   UNL     1     -11.596  13.484  66.446  1.00  0.00    -0.381 C  
HETATM   23  O   UNL     1      -7.415  14.014  66.939  1.00  0.00    -0.290 OA 
HETATM   24  C   UNL     1      -9.541  14.896  66.178  1.00  0.00    -0.340 C  
HETATM   25  H   UNL     1      -7.274  13.650  66.072  1.00  0.00     0.000 HD 
HETATM   26  C   UNL     1     -10.537  14.655  68.938  1.00  0.00    -0.253 C  
ENDBRANCH   3  15
TORSDOF 2
ENDMDL
MODEL      126
REMARK 921   NORMALIZED FREE ENERGY PREDICTED BY IDOCK:   -4.44 KCAL/MOL
REMARK 922        TOTAL FREE ENERGY PREDICTED BY IDOCK:   -5.42 KCAL/MOL
REMARK 923 INTER-LIGAND FREE ENERGY PREDICTED BY IDOCK:   -6.20 KCAL/MOL
REMARK 924 INTRA-LIGAND FREE ENERGY PREDICTED BY IDOCK:    0.77 KCAL/MOL
REMARK 927      BINDING AFFINITY PREDICTED BY RF-SCORE:    0.00 PKD
ROOT
HETATM    1  N   UNL     1     -11.806  13.017  68.144  1.00  0.00    -0.348 NA 
HETATM    2  H1  UNL     1     -12.118  12.211  68.685  1.00  0.00     0.000 HD 
HETATM    3  C   UNL     1     -10.325  13.014  68.165  1.00  0.00    -0.240 C  
HETATM    4  H2  UNL     1     -12.192  13.039  67.201  1.00  0.00     0.000 HD 
ENDROOT
BRANCH   3   5
HETATM    5  C   UNL     1      -9.848  14.246  67.339  1.00  0.00    -0.235 C  
HETATM    6  N   UNL     1     -10.050  18.062  66.827  1.00  0.00    -0.337 NA 
HETATM    7  N   UNL     1     -10.583  14.591  66.226  1.00  0.00    -0.297 N  
HETATM    8  O   UNL     1      -8.847  14.885  67.670  1.00  0.00    -0.170 OA 
HETATM    9  C   UNL     1     -10.163  17.054  66.253  1.00  0.00    -0.329 C  
HETATM   10  C   UNL     1     -10.322  15.826  65.449  1.00  0.00    -0.389 C  
HETATM   11  C   UNL     1     -11.421  13.712  65.454  1.00  0.00    -0.311 C  
HETATM   12  C   UNL     1     -11.576  15.954  64.551  1.00  0.00    -0.232 C  
HETATM   13  C   UNL     1     -12.905  13.838  65.387  1.00  0.00    -0.455 C  
HETATM   14  C   UNL     1     -12.054  14.539  64.358  1.00  0.00    -0.492 C  
ENDBRANCH   3   5
BRANCH   3  15
HETATM   15  C   UNL     1      -9.732  11.652  67.652  1.00  0.00    -0.186 C  
HETATM   16  C   UNL     1      -9.487   9.513  65.578  1.00  0.00    -0.334 C  
HETATM   17  C   UNL     1      -9.476   8.681  67.939  1.00  0.00    -0.157 C  
HETATM   18  C   UNL     1     -10.889  10.658  67.315  1.00  0.00    -0.345 C  
HETATM   19  C   UNL     1      -8.313  10.449  65.903  1.00  0.00    -0.152 C  
HETATM   20  C   UNL     1      -8.308   9.622  68.276  1.00  0.00    -0.117 C  
HETATM   21  C   UNL     1      -8.860  11.808  66.374  1.00  0.00    -0.170 C  
HETATM   22  C   UNL     1      -8.860  10.981  68.752  1.00  0.00    -0.149 C  
HETATM   23  O   UNL     1      -7.523  10.647  64.738  1.00  0.00    -0.343 OA 
HETATM   24  C   UNL     1      -7.454   9.834  67.020  1.00  0.00    -0.091 C  
HETATM   25  H   UNL     1      -6.797  11.226  64.939  1.00  0.00     0.000 HD 
HETATM   26  C   UNL     1     -10.344   9.301  66.833  1.00  0.00    -0.316 C  
ENDBRANCH   3  15
TORSDOF 2
ENDMDL
MODEL      127
REMARK 921   NORMALIZED FREE ENERGY PREDICTED BY IDOCK:   -4.44 KCAL/MOL
REMARK 922        TOTAL FREE ENERGY PREDICTED BY IDOCK:   -5.42 KCAL/MOL
REMARK 923 INTER-LIGAND FREE ENERGY PREDICTED BY IDOCK:   -4.81 KCAL/MOL
REMARK 924 INTRA-LIGAND FREE ENERGY PREDICTED BY IDOCK:   -0.60 KCAL/MOL
REMARK 927      BINDING AFFINITY PREDICTED BY RF-SCORE:    0.00 PKD
ROOT
HETATM    1  N   UNL     1      -6.266  12.809  67.517  1.00  0.00    -0.155 NA 
HETATM    2  H1  UNL     1      -5.951  12.108  66.846  1.00  0.00     0.000 HD 
HETATM    3  C   UNL     1      -7.609  13.259  67.084  1.00  0.00     0.030 C  
HETATM    4  H2  UNL     1      -6.248  12.476  68.481  1.00  0.00     0.000 HD 
ENDROOT
BRANCH   3   5
HETATM    5  C   UNL     1      -8.090  14.330  68.109  1.00  0.00    -0.144 C  
HETATM    6  N   UNL     1     -10.684  15.295  70.792  1.00  0.00    -0.223 NA 
HETATM    7  N   UNL     1      -8.978  15.285  67.665  1.00  0.00    -0.176 N  
HETATM    8  O   UNL     1      -7.684  14.324  69.273  1.00  0.00    -0.072 OA 
HETATM    9  C   UNL     1     -10.194  15.686  69.811  1.00  0.00    -0.300 C  
HETATM   10  C   UNL     1      -9.623  16.260  68.576  1.00  0.00    -0.222 C  
HETATM   11  C   UNL     1      -9.149  15.721  66.304  1.00  0.00    -0.338 C  
HETATM   12  C   UNL     1     -10.757  16.860  67.711  1.00  0.00    -0.315 C  
HETATM   13  C   UNL     1     -10.382  15.467  65.506  1.00  0.00    -0.419 C  
HETATM   14  C   UNL     1     -10.259  16.747  66.294  1.00  0.00    -0.341 C  
ENDBRANCH   3   5
BRANCH   3  15
HETATM   15  C   UNL     1      -8.609  12.058  66.923  1.00  0.00    -0.189 C  
HETATM   16  C   UNL     1     -11.374  10.972  66.585  1.00  0.00    -0.001 C  
HETATM   17  C   UNL     1      -9.889   9.599  68.060  1.00  0.00    -0.175 C  
HETATM   18  C   UNL     1      -9.683  12.099  68.056  1.00  0.00    -0.203 C  
HETATM   19  C   UNL     1     -10.336  10.881  65.456  1.00  0.00    -0.252 C  
HETATM   20  C   UNL     1      -8.840   9.511  66.940  1.00  0.00    -0.140 C  
HETATM   21  C   UNL     1      -9.361  12.067  65.563  1.00  0.00    -0.042 C  
HETATM   22  C   UNL     1      -7.863  10.698  67.052  1.00  0.00    -0.117 C  
HETATM   23  O   UNL     1     -10.994  10.934  64.197  1.00  0.00    -0.397 OA 
HETATM   24  C   UNL     1      -9.550   9.566  65.582  1.00  0.00    -0.346 C  
HETATM   25  H   UNL     1     -10.352  10.877  63.499  1.00  0.00     0.000 HD 
HETATM   26  C   UNL     1     -10.666  10.919  67.946  1.00  0.00    -0.274 C  
ENDBRANCH   3  15
TORSDOF 2
ENDMDL
MODEL      128
REMARK 921   NORMALIZED FREE ENERGY PREDICTED BY IDOCK:   -4.43 KCAL/MOL
REMARK 922        TOTAL FREE ENERGY PREDICTED BY IDOCK:   -5.41 KCAL/MOL
REMARK 923 INTER-LIGAND FREE ENERGY PREDICTED BY IDOCK:   -6.20 KCAL/MOL
REMARK 924 INTRA-LIGAND FREE ENERGY PREDICTED BY IDOCK:    0.79 KCAL/MOL
REMARK 927      BINDING AFFINITY PREDICTED BY RF-SCORE:    0.00 PKD
ROOT
HETATM    1  N   UNL     1     -12.130  12.312  66.224  1.00  0.00    -0.620 NA 
HETATM    2  H1  UNL     1     -12.641  13.130  65.894  1.00  0.00     0.000 HD 
HETATM    3  C   UNL     1     -10.697  12.538  65.922  1.00  0.00    -0.264 C  
HETATM    4  H2  UNL     1     -12.302  12.103  67.207  1.00  0.00     0.000 HD 
ENDROOT
BRANCH   3   5
HETATM    5  C   UNL     1      -9.916  11.287  66.426  1.00  0.00    -0.215 C  
HETATM    6  N   UNL     1      -9.701   7.440  66.524  1.00  0.00    -0.184 NA 
HETATM    7  N   UNL     1     -10.262  10.770  67.655  1.00  0.00    -0.182 N  
HETATM    8  O   UNL     1      -9.017  10.784  65.749  1.00  0.00    -0.175 OA 
HETATM    9  C   UNL     1      -9.705   8.374  67.219  1.00  0.00    -0.184 C  
HETATM   10  C   UNL     1      -9.701   9.500  68.174  1.00  0.00    -0.147 C  
HETATM   11  C   UNL     1     -10.891  11.488  68.732  1.00  0.00    -0.216 C  
HETATM   12  C   UNL     1     -10.621   9.168  69.373  1.00  0.00    -0.232 C  
HETATM   13  C   UNL     1     -12.277  11.210  69.208  1.00  0.00    -0.295 C  
HETATM   14  C   UNL     1     -11.114  10.505  69.859  1.00  0.00    -0.371 C  
ENDBRANCH   3   5
BRANCH   3  15
HETATM   15  C   UNL     1     -10.173  13.888  66.532  1.00  0.00    -0.280 C  
HETATM   16  C   UNL     1     -10.437  16.826  67.016  1.00  0.00    -0.285 C  
HETATM   17  C   UNL     1      -8.093  16.044  66.612  1.00  0.00    -0.311 C  
HETATM   18  C   UNL     1     -10.002  14.955  65.403  1.00  0.00    -0.367 C  
HETATM   19  C   UNL     1     -10.578  15.812  68.161  1.00  0.00    -0.275 C  
HETATM   20  C   UNL     1      -8.229  15.018  67.750  1.00  0.00    -0.162 C  
HETATM   21  C   UNL     1     -11.127  14.486  67.602  1.00  0.00    -0.314 C  
HETATM   22  C   UNL     1      -8.775  13.691  67.186  1.00  0.00    -0.224 C  
HETATM   23  O   UNL     1     -11.483  16.314  69.135  1.00  0.00    -0.320 OA 
HETATM   24  C   UNL     1      -9.203  15.561  68.802  1.00  0.00    -0.210 C  
HETATM   25  H   UNL     1     -11.570  15.687  69.843  1.00  0.00     0.000 HD 
HETATM   26  C   UNL     1      -9.463  16.285  65.960  1.00  0.00    -0.369 C  
ENDBRANCH   3  15
TORSDOF 2
ENDMDL
MODEL      129
REMARK 921   NORMALIZED FREE ENERGY PREDICTED BY IDOCK:   -4.42 KCAL/MOL
REMARK 922        TOTAL FREE ENERGY PREDICTED BY IDOCK:   -5.39 KCAL/MOL
REMARK 923 INTER-LIGAND FREE ENERGY PREDICTED BY IDOCK:   -4.74 KCAL/MOL
REMARK 924 INTRA-LIGAND FREE ENERGY PREDICTED BY IDOCK:   -0.66 KCAL/MOL
REMARK 927      BINDING AFFINITY PREDICTED BY RF-SCORE:    0.00 PKD
ROOT
HETATM    1  N   UNL     1      -7.856   9.627  70.706  1.00  0.00    -0.324 NA 
HETATM    2  H1  UNL     1      -7.422   8.849  71.203  1.00  0.00     0.000 HD 
HETATM    3  C   UNL     1      -8.166   9.155  69.336  1.00  0.00    -0.118 C  
HETATM    4  H2  UNL     1      -8.669  10.008  71.190  1.00  0.00     0.000 HD 
ENDROOT
BRANCH   3   5
HETATM    5  C   UNL     1      -8.827  10.343  68.576  1.00  0.00    -0.142 C  
HETATM    6  N   UNL     1     -11.993  11.711  66.854  1.00  0.00    -0.500 NA 
HETATM    7  N   UNL     1      -8.714  10.367  67.204  1.00  0.00    -0.130 N  
HETATM    8  O   UNL     1      -9.427  11.232  69.185  1.00  0.00    -0.074 OA 
HETATM    9  C   UNL     1     -10.856  11.538  66.673  1.00  0.00    -0.287 C  
HETATM   10  C   UNL     1      -9.424  11.357  66.360  1.00  0.00    -0.204 C  
HETATM   11  C   UNL     1      -7.683   9.731  66.425  1.00  0.00    -0.102 C  
HETATM   12  C   UNL     1      -9.275  10.780  64.932  1.00  0.00    -0.243 C  
HETATM   13  C   UNL     1      -7.935   8.586  65.505  1.00  0.00    -0.110 C  
HETATM   14  C   UNL     1      -7.991   9.994  64.969  1.00  0.00    -0.143 C  
ENDBRANCH   3   5
BRANCH   3  15
HETATM   15  C   UNL     1      -9.047   7.854  69.347  1.00  0.00    -0.145 C  
HETATM   16  C   UNL     1      -9.529   5.018  70.161  1.00  0.00    -0.234 C  
HETATM   17  C   UNL     1     -10.316   5.587  67.854  1.00  0.00    -0.240 C  
HETATM   18  C   UNL     1      -8.235   6.652  68.766  1.00  0.00    -0.120 C  
HETATM   19  C   UNL     1     -10.374   6.168  70.732  1.00  0.00    -0.213 C  
HETATM   20  C   UNL     1     -11.155   6.747  68.414  1.00  0.00    -0.214 C  
HETATM   21  C   UNL     1      -9.526   7.452  70.770  1.00  0.00    -0.167 C  
HETATM   22  C   UNL     1     -10.304   8.032  68.448  1.00  0.00    -0.236 C  
HETATM   23  O   UNL     1     -10.787   5.847  72.053  1.00  0.00    -0.233 OA 
HETATM   24  C   UNL     1     -11.604   6.399  69.839  1.00  0.00    -0.422 C  
HETATM   25  H   UNL     1     -11.309   6.558  72.406  1.00  0.00     0.000 HD 
HETATM   26  C   UNL     1      -9.078   5.364  68.736  1.00  0.00    -0.135 C  
ENDBRANCH   3  15
TORSDOF 2
ENDMDL
MODEL      130
REMARK 921   NORMALIZED FREE ENERGY PREDICTED BY IDOCK:   -4.42 KCAL/MOL
REMARK 922        TOTAL FREE ENERGY PREDICTED BY IDOCK:   -5.39 KCAL/MOL
REMARK 923 INTER-LIGAND FREE ENERGY PREDICTED BY IDOCK:   -4.99 KCAL/MOL
REMARK 924 INTRA-LIGAND FREE ENERGY PREDICTED BY IDOCK:   -0.41 KCAL/MOL
REMARK 927      BINDING AFFINITY PREDICTED BY RF-SCORE:    0.00 PKD
ROOT
HETATM    1  N   UNL     1      -9.885   6.224  67.357  1.00  0.00    -0.124 NA 
HETATM    2  H1  UNL     1     -10.725   5.681  67.553  1.00  0.00     0.000 HD 
HETATM    3  C   UNL     1     -10.091   7.575  67.931  1.00  0.00    -0.182 C  
HETATM    4  H2  UNL     1      -9.032   5.775  67.689  1.00  0.00     0.000 HD 
ENDROOT
BRANCH   3   5
HETATM    5  C   UNL     1      -8.807   8.405  67.630  1.00  0.00    -0.136 C  
HETATM    6  N   UNL     1      -5.941  10.550  69.060  1.00  0.00    -0.040 NA 
HETATM    7  N   UNL     1      -8.963   9.746  67.355  1.00  0.00    -0.134 N  
HETATM    8  O   UNL     1      -7.693   7.877  67.633  1.00  0.00    -0.112 OA 
HETATM    9  C   UNL     1      -6.780  10.565  68.253  1.00  0.00    -0.060 C  
HETATM   10  C   UNL     1      -7.814  10.669  67.203  1.00  0.00    -0.117 C  
HETATM   11  C   UNL     1     -10.150  10.375  66.839  1.00  0.00    -0.219 C  
HETATM   12  C   UNL     1      -8.471  12.069  67.260  1.00  0.00    -0.175 C  
HETATM   13  C   UNL     1     -10.977  11.340  67.619  1.00  0.00    -0.312 C  
HETATM   14  C   UNL     1      -9.868  11.857  66.738  1.00  0.00    -0.214 C  
ENDBRANCH   3   5
BRANCH   3  15
HETATM   15  C   UNL     1     -10.451   7.516  69.459  1.00  0.00    -0.227 C  
HETATM   16  C   UNL     1     -10.149   8.500  72.266  1.00  0.00    -0.386 C  
HETATM   17  C   UNL     1     -10.434   6.022  72.056  1.00  0.00    -0.251 C  
HETATM   18  C   UNL     1      -9.159   7.288  70.306  1.00  0.00    -0.152 C  
HETATM   19  C   UNL     1     -11.451   8.716  71.479  1.00  0.00    -0.295 C  
HETATM   20  C   UNL     1     -11.733   6.228  71.259  1.00  0.00    -0.300 C  
HETATM   21  C   UNL     1     -11.128   8.816  69.977  1.00  0.00    -0.169 C  
HETATM   22  C   UNL     1     -11.406   6.324  69.755  1.00  0.00    -0.506 C  
HETATM   23  O   UNL     1     -12.069   9.925  71.901  1.00  0.00    -0.357 OA 
HETATM   24  C   UNL     1     -12.401   7.531  71.715  1.00  0.00    -0.357 C  
HETATM   25  H   UNL     1     -12.874  10.058  71.414  1.00  0.00     0.000 HD 
HETATM   26  C   UNL     1      -9.477   7.198  71.809  1.00  0.00    -0.160 C  
ENDBRANCH   3  15
TORSDOF 2
ENDMDL
MODEL      131
REMARK 921   NORMALIZED FREE ENERGY PREDICTED BY IDOCK:   -4.41 KCAL/MOL
REMARK 922        TOTAL FREE ENERGY PREDICTED BY IDOCK:   -5.39 KCAL/MOL
REMARK 923 INTER-LIGAND FREE ENERGY PREDICTED BY IDOCK:   -4.81 KCAL/MOL
REMARK 924 INTRA-LIGAND FREE ENERGY PREDICTED BY IDOCK:   -0.57 KCAL/MOL
REMARK 927      BINDING AFFINITY PREDICTED BY RF-SCORE:    0.00 PKD
ROOT
HETATM    1  N   UNL     1     -11.075   7.706  67.560  1.00  0.00    -0.511 NA 
HETATM    2  H1  UNL     1     -11.293   8.658  67.857  1.00  0.00     0.000 HD 
HETATM    3  C   UNL     1      -9.937   7.238  68.385  1.00  0.00    -0.161 C  
HETATM    4  H2  UNL     1     -11.880   7.081  67.599  1.00  0.00     0.000 HD 
ENDROOT
BRANCH   3   5
HETATM    5  C   UNL     1      -9.604   5.785  67.931  1.00  0.00    -0.115 C  
HETATM    6  N   UNL     1      -8.953   2.139  69.000  1.00  0.00    -0.096 NA 
HETATM    7  N   UNL     1      -8.275   5.435  67.833  1.00  0.00    -0.100 N  
HETATM    8  O   UNL     1     -10.500   4.982  67.666  1.00  0.00    -0.117 OA 
HETATM    9  C   UNL     1      -8.490   3.006  68.375  1.00  0.00    -0.080 C  
HETATM   10  C   UNL     1      -7.833   4.048  67.560  1.00  0.00    -0.090 C  
HETATM   11  C   UNL     1      -7.172   6.336  67.622  1.00  0.00    -0.083 C  
HETATM   12  C   UNL     1      -6.321   4.084  67.887  1.00  0.00    -0.037 C  
HETATM   13  C   UNL     1      -6.118   6.600  68.643  1.00  0.00    -0.026 C  
HETATM   14  C   UNL     1      -5.907   5.508  67.624  1.00  0.00    -0.013 C  
ENDBRANCH   3   5
BRANCH   3  15
HETATM   15  C   UNL     1     -10.236   7.358  69.923  1.00  0.00    -0.212 C  
HETATM   16  C   UNL     1     -11.890   8.356  72.205  1.00  0.00    -0.441 C  
HETATM   17  C   UNL     1      -9.425   8.330  72.639  1.00  0.00    -0.354 C  
HETATM   18  C   UNL     1     -10.286   8.862  70.343  1.00  0.00    -0.240 C  
HETATM   19  C   UNL     1     -11.842   6.863  71.846  1.00  0.00    -0.315 C  
HETATM   20  C   UNL     1      -9.365   6.839  72.271  1.00  0.00    -0.145 C  
HETATM   21  C   UNL     1     -11.587   6.710  70.335  1.00  0.00    -0.457 C  
HETATM   22  C   UNL     1      -9.106   6.690  70.758  1.00  0.00    -0.151 C  
HETATM   23  O   UNL     1     -13.084   6.253  72.169  1.00  0.00    -0.421 OA 
HETATM   24  C   UNL     1     -10.704   6.180  72.623  1.00  0.00    -0.261 C  
HETATM   25  H   UNL     1     -13.054   5.330  71.947  1.00  0.00     0.000 HD 
HETATM   26  C   UNL     1     -10.551   9.017  71.852  1.00  0.00    -0.388 C  
ENDBRANCH   3  15
TORSDOF 2
ENDMDL
MODEL      132
REMARK 921   NORMALIZED FREE ENERGY PREDICTED BY IDOCK:   -4.39 KCAL/MOL
REMARK 922        TOTAL FREE ENERGY PREDICTED BY IDOCK:   -5.37 KCAL/MOL
REMARK 923 INTER-LIGAND FREE ENERGY PREDICTED BY IDOCK:   -4.66 KCAL/MOL
REMARK 924 INTRA-LIGAND FREE ENERGY PREDICTED BY IDOCK:   -0.71 KCAL/MOL
REMARK 927      BINDING AFFINITY PREDICTED BY RF-SCORE:    0.00 PKD
ROOT
HETATM    1  N   UNL     1      -7.713  10.473  64.553  1.00  0.00    -0.338 NA 
HETATM    2  H1  UNL     1      -7.574  11.388  64.125  1.00  0.00     0.000 HD 
HETATM    3  C   UNL     1      -7.888  10.690  66.008  1.00  0.00    -0.156 C  
HETATM    4  H2  UNL     1      -8.480   9.948  64.133  1.00  0.00     0.000 HD 
ENDROOT
BRANCH   3   5
HETATM    5  C   UNL     1      -8.101   9.292  66.662  1.00  0.00    -0.108 C  
HETATM    6  N   UNL     1     -10.400   7.034  68.778  1.00  0.00    -0.180 NA 
HETATM    7  N   UNL     1      -7.627   9.106  67.942  1.00  0.00    -0.085 N  
HETATM    8  O   UNL     1      -8.670   8.385  66.051  1.00  0.00    -0.139 OA 
HETATM    9  C   UNL     1      -9.306   7.428  68.721  1.00  0.00    -0.144 C  
HETATM   10  C   UNL     1      -7.899   7.877  68.724  1.00  0.00    -0.118 C  
HETATM   11  C   UNL     1      -6.559   9.841  68.567  1.00  0.00    -0.051 C  
HETATM   12  C   UNL     1      -7.484   8.271  70.162  1.00  0.00    -0.060 C  
HETATM   13  C   UNL     1      -6.760  10.765  69.720  1.00  0.00    -0.139 C  
HETATM   14  C   UNL     1      -6.419   9.319  69.979  1.00  0.00    -0.049 C  
ENDBRANCH   3   5
BRANCH   3  15
HETATM   15  C   UNL     1      -9.047  11.705  66.316  1.00  0.00    -0.219 C  
HETATM   16  C   UNL     1     -11.921  12.522  66.198  1.00  0.00    -0.432 C  
HETATM   17  C   UNL     1     -10.292  14.400  65.904  1.00  0.00    -0.327 C  
HETATM   18  C   UNL     1      -9.758  12.125  64.990  1.00  0.00    -0.112 C  
HETATM   19  C   UNL     1     -11.250  12.149  67.529  1.00  0.00    -0.297 C  
HETATM   20  C   UNL     1      -9.607  14.028  67.229  1.00  0.00    -0.238 C  
HETATM   21  C   UNL     1     -10.132  11.125  67.266  1.00  0.00    -0.218 C  
HETATM   22  C   UNL     1      -8.486  13.004  66.962  1.00  0.00    -0.142 C  
HETATM   23  O   UNL     1     -12.211  11.572  68.402  1.00  0.00    -0.540 OA 
HETATM   24  C   UNL     1     -10.645  13.407  68.173  1.00  0.00    -0.255 C  
HETATM   25  H   UNL     1     -11.797  11.341  69.225  1.00  0.00     0.000 HD 
HETATM   26  C   UNL     1     -10.884  13.142  65.251  1.00  0.00    -0.314 C  
ENDBRANCH   3  15
TORSDOF 2
ENDMDL
MODEL      133
REMARK 921   NORMALIZED FREE ENERGY PREDICTED BY IDOCK:   -4.39 KCAL/MOL
REMARK 922        TOTAL FREE ENERGY PREDICTED BY IDOCK:   -5.36 KCAL/MOL
REMARK 923 INTER-LIGAND FREE ENERGY PREDICTED BY IDOCK:   -6.10 KCAL/MOL
REMARK 924 INTRA-LIGAND FREE ENERGY PREDICTED BY IDOCK:    0.74 KCAL/MOL
REMARK 927      BINDING AFFINITY PREDICTED BY RF-SCORE:    0.00 PKD
ROOT
HETATM    1  N   UNL     1     -12.067  12.566  66.542  1.00  0.00    -0.585 NA 
HETATM    2  H1  UNL     1     -12.161  11.855  65.817  1.00  0.00     0.000 HD 
HETATM    3  C   UNL     1     -11.615  11.880  67.775  1.00  0.00    -0.323 C  
HETATM    4  H2  UNL     1     -11.459  13.337  66.268  1.00  0.00     0.000 HD 
ENDROOT
BRANCH   3   5
HETATM    5  C   UNL     1     -11.472  12.967  68.882  1.00  0.00    -0.299 C  
HETATM    6  N   UNL     1     -13.183  15.786  70.878  1.00  0.00    -0.513 NA 
HETATM    7  N   UNL     1     -11.048  14.220  68.497  1.00  0.00    -0.247 N  
HETATM    8  O   UNL     1     -11.725  12.711  70.061  1.00  0.00    -0.293 OA 
HETATM    9  C   UNL     1     -12.240  15.566  70.231  1.00  0.00    -0.400 C  
HETATM   10  C   UNL     1     -11.017  15.374  69.426  1.00  0.00    -0.276 C  
HETATM   11  C   UNL     1     -10.269  14.531  67.327  1.00  0.00    -0.255 C  
HETATM   12  C   UNL     1     -10.822  16.586  68.483  1.00  0.00    -0.349 C  
HETATM   13  C   UNL     1     -10.793  15.318  66.174  1.00  0.00    -0.320 C  
HETATM   14  C   UNL     1     -10.080  16.031  67.296  1.00  0.00    -0.266 C  
ENDBRANCH   3   5
BRANCH   3  15
HETATM   15  C   UNL     1     -10.300  11.053  67.540  1.00  0.00    -0.233 C  
HETATM   16  C   UNL     1      -7.402  10.878  66.827  1.00  0.00    -0.134 C  
HETATM   17  C   UNL     1      -8.801   8.987  65.971  1.00  0.00    -0.208 C  
HETATM   18  C   UNL     1      -9.763  11.301  66.094  1.00  0.00    -0.251 C  
HETATM   19  C   UNL     1      -7.893  10.593  68.255  1.00  0.00    -0.113 C  
HETATM   20  C   UNL     1      -9.306   8.701  67.394  1.00  0.00    -0.174 C  
HETATM   21  C   UNL     1      -9.162  11.419  68.532  1.00  0.00    -0.174 C  
HETATM   22  C   UNL     1     -10.578   9.527  67.667  1.00  0.00    -0.329 C  
HETATM   23  O   UNL     1      -6.887  10.964  69.189  1.00  0.00    -0.067 OA 
HETATM   24  C   UNL     1      -8.219   9.098  68.402  1.00  0.00    -0.115 C  
HETATM   25  H   UNL     1      -7.190  10.787  70.071  1.00  0.00     0.000 HD 
HETATM   26  C   UNL     1      -8.488  10.483  65.818  1.00  0.00    -0.177 C  
ENDBRANCH   3  15
TORSDOF 2
ENDMDL
MODEL      134
REMARK 921   NORMALIZED FREE ENERGY PREDICTED BY IDOCK:   -4.37 KCAL/MOL
REMARK 922        TOTAL FREE ENERGY PREDICTED BY IDOCK:   -5.35 KCAL/MOL
REMARK 923 INTER-LIGAND FREE ENERGY PREDICTED BY IDOCK:   -4.65 KCAL/MOL
REMARK 924 INTRA-LIGAND FREE ENERGY PREDICTED BY IDOCK:   -0.70 KCAL/MOL
REMARK 927      BINDING AFFINITY PREDICTED BY RF-SCORE:    0.00 PKD
ROOT
HETATM    1  N   UNL     1      -6.549  13.104  67.308  1.00  0.00    -0.427 NA 
HETATM    2  H1  UNL     1      -5.949  12.439  66.820  1.00  0.00     0.000 HD 
HETATM    3  C   UNL     1      -7.943  12.828  66.889  1.00  0.00     0.052 C  
HETATM    4  H2  UNL     1      -6.426  13.086  68.320  1.00  0.00     0.000 HD 
ENDROOT
BRANCH   3   5
HETATM    5  C   UNL     1      -8.860  13.844  67.634  1.00  0.00    -0.191 C  
HETATM    6  N   UNL     1     -11.756  14.355  70.125  1.00  0.00    -0.288 NA 
HETATM    7  N   UNL     1     -10.029  14.224  67.013  1.00  0.00    -0.254 N  
HETATM    8  O   UNL     1      -8.544  14.295  68.737  1.00  0.00    -0.167 OA 
HETATM    9  C   UNL     1     -11.412  14.644  69.051  1.00  0.00    -0.291 C  
HETATM   10  C   UNL     1     -11.052  15.062  67.682  1.00  0.00    -0.316 C  
HETATM   11  C   UNL     1     -10.289  14.195  65.598  1.00  0.00    -0.333 C  
HETATM   12  C   UNL     1     -12.286  14.924  66.757  1.00  0.00     0.136 C  
HETATM   13  C   UNL     1     -11.280  13.282  64.960  1.00  0.00    -0.325 C  
HETATM   14  C   UNL     1     -11.712  14.661  65.390  1.00  0.00    -0.330 C  
ENDBRANCH   3   5
BRANCH   3  15
HETATM   15  C   UNL     1      -8.346  11.329  67.135  1.00  0.00    -0.151 C  
HETATM   16  C   UNL     1      -8.455   8.891  68.861  1.00  0.00    -0.131 C  
HETATM   17  C   UNL     1      -8.044   8.431  66.435  1.00  0.00    -0.104 C  
HETATM   18  C   UNL     1      -7.081  10.488  67.500  1.00  0.00    -0.089 C  
HETATM   19  C   UNL     1      -9.728   9.670  68.498  1.00  0.00    -0.150 C  
HETATM   20  C   UNL     1      -9.311   9.218  66.061  1.00  0.00    -0.283 C  
HETATM   21  C   UNL     1      -9.374  11.154  68.287  1.00  0.00    -0.176 C  
HETATM   22  C   UNL     1      -8.952  10.702  65.847  1.00  0.00    -0.192 C  
HETATM   23  O   UNL     1     -10.671   9.566  69.557  1.00  0.00    -0.218 OA 
HETATM   24  C   UNL     1     -10.329   9.103  67.202  1.00  0.00    -0.337 C  
HETATM   25  H   UNL     1     -11.458  10.048  69.332  1.00  0.00     0.000 HD 
HETATM   26  C   UNL     1      -7.433   9.006  67.722  1.00  0.00    -0.085 C  
ENDBRANCH   3  15
TORSDOF 2
ENDMDL
MODEL      135
REMARK 921   NORMALIZED FREE ENERGY PREDICTED BY IDOCK:   -4.36 KCAL/MOL
REMARK 922        TOTAL FREE ENERGY PREDICTED BY IDOCK:   -5.32 KCAL/MOL
REMARK 923 INTER-LIGAND FREE ENERGY PREDICTED BY IDOCK:   -4.91 KCAL/MOL
REMARK 924 INTRA-LIGAND FREE ENERGY PREDICTED BY IDOCK:   -0.41 KCAL/MOL
REMARK 927      BINDING AFFINITY PREDICTED BY RF-SCORE:    0.00 PKD
ROOT
HETATM    1  N   UNL     1      -9.910   4.231  69.567  1.00  0.00    -0.199 NA 
HETATM    2  H1  UNL     1     -10.726   4.009  70.138  1.00  0.00     0.000 HD 
HETATM    3  C   UNL     1     -10.056   5.635  69.118  1.00  0.00    -0.208 C  
HETATM    4  H2  UNL     1      -9.027   4.055  70.047  1.00  0.00     0.000 HD 
ENDROOT
BRANCH   3   5
HETATM    5  C   UNL     1      -8.810   5.974  68.246  1.00  0.00    -0.111 C  
HETATM    6  N   UNL     1      -5.460   7.864  68.000  1.00  0.00    -0.032 NA 
HETATM    7  N   UNL     1      -8.885   7.077  67.425  1.00  0.00    -0.119 N  
HETATM    8  O   UNL     1      -7.796   5.274  68.288  1.00  0.00    -0.086 OA 
HETATM    9  C   UNL     1      -6.470   7.717  67.440  1.00  0.00    -0.056 C  
HETATM   10  C   UNL     1      -7.720   7.588  66.665  1.00  0.00    -0.101 C  
HETATM   11  C   UNL     1     -10.090   7.667  66.903  1.00  0.00    -0.278 C  
HETATM   12  C   UNL     1      -8.186   8.987  66.196  1.00  0.00    -0.115 C  
HETATM   13  C   UNL     1     -10.581   9.020  67.294  1.00  0.00    -0.301 C  
HETATM   14  C   UNL     1      -9.684   8.876  66.089  1.00  0.00    -0.338 C  
ENDBRANCH   3   5
BRANCH   3  15
HETATM   15  C   UNL     1     -10.259   6.621  70.324  1.00  0.00    -0.215 C  
HETATM   16  C   UNL     1     -10.706   9.365  71.425  1.00  0.00    -0.407 C  
HETATM   17  C   UNL     1      -9.177   7.931  72.793  1.00  0.00    -0.282 C  
HETATM   18  C   UNL     1      -9.168   7.739  70.291  1.00  0.00    -0.156 C  
HETATM   19  C   UNL     1     -11.794   8.283  71.508  1.00  0.00    -0.293 C  
HETATM   20  C   UNL     1     -10.255   6.838  72.873  1.00  0.00    -0.223 C  
HETATM   21  C   UNL     1     -11.647   7.320  70.316  1.00  0.00    -0.208 C  
HETATM   22  C   UNL     1     -10.103   5.874  71.680  1.00  0.00    -0.233 C  
HETATM   23  O   UNL     1     -13.078   8.891  71.456  1.00  0.00    -0.332 OA 
HETATM   24  C   UNL     1     -11.640   7.495  72.819  1.00  0.00    -0.299 C  
HETATM   25  H   UNL     1     -13.750   8.223  71.508  1.00  0.00     0.000 HD 
HETATM   26  C   UNL     1      -9.319   8.710  71.477  1.00  0.00    -0.319 C  
ENDBRANCH   3  15
TORSDOF 2
ENDMDL
MODEL      136
REMARK 921   NORMALIZED FREE ENERGY PREDICTED BY IDOCK:   -4.32 KCAL/MOL
REMARK 922        TOTAL FREE ENERGY PREDICTED BY IDOCK:   -5.28 KCAL/MOL
REMARK 923 INTER-LIGAND FREE ENERGY PREDICTED BY IDOCK:   -6.10 KCAL/MOL
REMARK 924 INTRA-LIGAND FREE ENERGY PREDICTED BY IDOCK:    0.82 KCAL/MOL
REMARK 927      BINDING AFFINITY PREDICTED BY RF-SCORE:    0.00 PKD
ROOT
HETATM    1  N   UNL     1      -9.136   9.259  71.383  1.00  0.00    -0.303 NA 
HETATM    2  H1  UNL     1      -8.196   8.873  71.295  1.00  0.00     0.000 HD 
HETATM    3  C   UNL     1      -9.525   9.775  70.050  1.00  0.00    -0.238 C  
HETATM    4  H2  UNL     1      -9.807   8.593  71.765  1.00  0.00     0.000 HD 
ENDROOT
BRANCH   3   5
HETATM    5  C   UNL     1     -10.960  10.366  70.184  1.00  0.00    -0.300 C  
HETATM    6  N   UNL     1     -13.342  12.634  72.194  1.00  0.00    -0.523 NA 
HETATM    7  N   UNL     1     -11.880   9.648  70.917  1.00  0.00    -0.304 N  
HETATM    8  O   UNL     1     -11.260  11.435  69.649  1.00  0.00    -0.258 OA 
HETATM    9  C   UNL     1     -13.254  11.557  71.760  1.00  0.00    -0.351 C  
HETATM   10  C   UNL     1     -13.227  10.174  71.243  1.00  0.00    -0.364 C  
HETATM   11  C   UNL     1     -11.852   8.230  71.162  1.00  0.00    -0.275 C  
HETATM   12  C   UNL     1     -13.734   9.202  72.335  1.00  0.00    -0.543 C  
HETATM   13  C   UNL     1     -11.626   7.633  72.510  1.00  0.00    -0.382 C  
HETATM   14  C   UNL     1     -13.035   7.901  72.044  1.00  0.00    -0.270 C  
ENDBRANCH   3   5
BRANCH   3  15
HETATM   15  C   UNL     1      -9.405   8.675  68.935  1.00  0.00    -0.145 C  
HETATM   16  C   UNL     1      -7.992   6.363  67.670  1.00  0.00    -0.114 C  
HETATM   17  C   UNL     1      -9.036   7.959  66.048  1.00  0.00    -0.181 C  
HETATM   18  C   UNL     1      -8.042   8.817  68.186  1.00  0.00    -0.107 C  
HETATM   19  C   UNL     1      -9.350   6.185  68.368  1.00  0.00    -0.116 C  
HETATM   20  C   UNL     1     -10.396   7.796  66.747  1.00  0.00    -0.348 C  
HETATM   21  C   UNL     1      -9.484   7.227  69.494  1.00  0.00    -0.155 C  
HETATM   22  C   UNL     1     -10.528   8.843  67.871  1.00  0.00    -0.281 C  
HETATM   23  O   UNL     1      -9.431   4.883  68.931  1.00  0.00    -0.123 OA 
HETATM   24  C   UNL     1     -10.485   6.389  67.352  1.00  0.00    -0.312 C  
HETATM   25  H   UNL     1     -10.270   4.773  69.362  1.00  0.00     0.000 HD 
HETATM   26  C   UNL     1      -7.901   7.771  67.066  1.00  0.00    -0.112 C  
ENDBRANCH   3  15
TORSDOF 2
ENDMDL
MODEL      137
REMARK 921   NORMALIZED FREE ENERGY PREDICTED BY IDOCK:   -4.29 KCAL/MOL
REMARK 922        TOTAL FREE ENERGY PREDICTED BY IDOCK:   -5.25 KCAL/MOL
REMARK 923 INTER-LIGAND FREE ENERGY PREDICTED BY IDOCK:   -6.10 KCAL/MOL
REMARK 924 INTRA-LIGAND FREE ENERGY PREDICTED BY IDOCK:    0.85 KCAL/MOL
REMARK 927      BINDING AFFINITY PREDICTED BY RF-SCORE:    0.00 PKD
ROOT
HETATM    1  N   UNL     1      -8.244  12.204  66.228  1.00  0.00    -0.376 NA 
HETATM    2  H1  UNL     1      -7.321  11.941  66.572  1.00  0.00     0.000 HD 
HETATM    3  C   UNL     1      -8.913  10.964  65.771  1.00  0.00    -0.193 C  
HETATM    4  H2  UNL     1      -8.792  12.724  66.913  1.00  0.00     0.000 HD 
ENDROOT
BRANCH   3   5
HETATM    5  C   UNL     1     -10.323  11.367  65.244  1.00  0.00    -0.282 C  
HETATM    6  N   UNL     1     -12.388  13.804  63.087  1.00  0.00    -0.650 NA 
HETATM    7  N   UNL     1     -11.060  12.249  66.003  1.00  0.00    -0.296 N  
HETATM    8  O   UNL     1     -10.763  10.906  64.189  1.00  0.00    -0.362 OA 
HETATM    9  C   UNL     1     -12.335  13.351  64.158  1.00  0.00    -0.333 C  
HETATM   10  C   UNL     1     -12.345  12.824  65.537  1.00  0.00    -0.434 C  
HETATM   11  C   UNL     1     -10.925  12.472  67.419  1.00  0.00    -0.259 C  
HETATM   12  C   UNL     1     -12.599  13.982  66.533  1.00  0.00    -0.214 C  
HETATM   13  C   UNL     1     -10.429  13.748  68.008  1.00  0.00    -0.245 C  
HETATM   14  C   UNL     1     -11.910  13.554  67.802  1.00  0.00    -0.398 C  
ENDBRANCH   3   5
BRANCH   3  15
HETATM   15  C   UNL     1      -8.957   9.869  66.897  1.00  0.00    -0.154 C  
HETATM   16  C   UNL     1      -7.703   8.399  69.178  1.00  0.00    -0.092 C  
HETATM   17  C   UNL     1      -9.122   6.981  67.680  1.00  0.00    -0.122 C  
HETATM   18  C   UNL     1      -7.775   8.865  66.714  1.00  0.00    -0.097 C  
HETATM   19  C   UNL     1      -8.888   9.353  69.396  1.00  0.00    -0.159 C  
HETATM   20  C   UNL     1     -10.310   7.936  67.884  1.00  0.00    -0.281 C  
HETATM   21  C   UNL     1      -8.852  10.462  68.330  1.00  0.00    -0.135 C  
HETATM   22  C   UNL     1     -10.273   9.043  66.812  1.00  0.00    -0.341 C  
HETATM   23  O   UNL     1      -8.792   9.946  70.684  1.00  0.00    -0.345 OA 
HETATM   24  C   UNL     1     -10.208   8.574  69.275  1.00  0.00    -0.211 C  
HETATM   25  H   UNL     1      -9.524  10.536  70.820  1.00  0.00     0.000 HD 
HETATM   26  C   UNL     1      -7.802   7.760  67.786  1.00  0.00    -0.123 C  
ENDBRANCH   3  15
TORSDOF 2
ENDMDL
MODEL      138
REMARK 921   NORMALIZED FREE ENERGY PREDICTED BY IDOCK:   -4.27 KCAL/MOL
REMARK 922        TOTAL FREE ENERGY PREDICTED BY IDOCK:   -5.23 KCAL/MOL
REMARK 923 INTER-LIGAND FREE ENERGY PREDICTED BY IDOCK:   -5.38 KCAL/MOL
REMARK 924 INTRA-LIGAND FREE ENERGY PREDICTED BY IDOCK:    0.15 KCAL/MOL
REMARK 927      BINDING AFFINITY PREDICTED BY RF-SCORE:    0.00 PKD
ROOT
HETATM    1  N   UNL     1      -9.070   9.084  66.626  1.00  0.00    -0.153 NA 
HETATM    2  H1  UNL     1      -9.264   8.104  66.420  1.00  0.00     0.000 HD 
HETATM    3  C   UNL     1     -10.174   9.581  67.479  1.00  0.00    -0.228 C  
HETATM    4  H2  UNL     1      -8.149   9.232  67.038  1.00  0.00     0.000 HD 
ENDROOT
BRANCH   3   5
HETATM    5  C   UNL     1      -9.878  11.079  67.792  1.00  0.00    -0.173 C  
HETATM    6  N   UNL     1     -11.087  14.321  69.491  1.00  0.00    -0.233 NA 
HETATM    7  N   UNL     1     -10.314  12.019  66.885  1.00  0.00    -0.211 N  
HETATM    8  O   UNL     1      -9.271  11.407  68.814  1.00  0.00    -0.175 OA 
HETATM    9  C   UNL     1     -10.705  13.911  68.470  1.00  0.00    -0.257 C  
HETATM   10  C   UNL     1     -10.228  13.476  67.142  1.00  0.00    -0.247 C  
HETATM   11  C   UNL     1     -10.568  11.797  65.486  1.00  0.00    -0.276 C  
HETATM   12  C   UNL     1     -11.131  14.086  66.042  1.00  0.00    -0.303 C  
HETATM   13  C   UNL     1     -11.926  11.862  64.875  1.00  0.00    -0.186 C  
HETATM   14  C   UNL     1     -11.066  13.101  64.905  1.00  0.00    -0.335 C  
ENDBRANCH   3   5
BRANCH   3  15
HETATM   15  C   UNL     1     -10.365   8.701  68.767  1.00  0.00    -0.228 C  
HETATM   16  C   UNL     1     -10.010   8.227  71.697  1.00  0.00    -0.277 C  
HETATM   17  C   UNL     1      -9.777   6.180  70.276  1.00  0.00    -0.195 C  
HETATM   18  C   UNL     1      -8.977   8.398  69.418  1.00  0.00    -0.153 C  
HETATM   19  C   UNL     1     -11.398   8.489  71.092  1.00  0.00    -0.270 C  
HETATM   20  C   UNL     1     -11.160   6.439  69.657  1.00  0.00    -0.465 C  
HETATM   21  C   UNL     1     -11.251   9.382  69.847  1.00  0.00    -0.180 C  
HETATM   22  C   UNL     1     -11.009   7.331  68.408  1.00  0.00    -0.028 C  
HETATM   23  O   UNL     1     -12.217   9.154  72.045  1.00  0.00    -0.367 OA 
HETATM   24  C   UNL     1     -12.045   7.155  70.685  1.00  0.00    -0.281 C  
HETATM   25  H   UNL     1     -13.075   9.316  71.670  1.00  0.00     0.000 HD 
HETATM   26  C   UNL     1      -9.123   7.513  70.669  1.00  0.00    -0.155 C  
ENDBRANCH   3  15
TORSDOF 2
ENDMDL
MODEL      139
REMARK 921   NORMALIZED FREE ENERGY PREDICTED BY IDOCK:   -4.26 KCAL/MOL
REMARK 922        TOTAL FREE ENERGY PREDICTED BY IDOCK:   -5.21 KCAL/MOL
REMARK 923 INTER-LIGAND FREE ENERGY PREDICTED BY IDOCK:   -4.65 KCAL/MOL
REMARK 924 INTRA-LIGAND FREE ENERGY PREDICTED BY IDOCK:   -0.56 KCAL/MOL
REMARK 927      BINDING AFFINITY PREDICTED BY RF-SCORE:    0.00 PKD
ROOT
HETATM    1  N   UNL     1      -8.446   9.986  71.036  1.00  0.00    -0.057 NA 
HETATM    2  H1  UNL     1      -8.967  10.772  71.423  1.00  0.00     0.000 HD 
HETATM    3  C   UNL     1      -9.267   9.409  69.945  1.00  0.00    -0.208 C  
HETATM    4  H2  UNL     1      -7.505  10.239  70.736  1.00  0.00     0.000 HD 
ENDROOT
BRANCH   3   5
HETATM    5  C   UNL     1      -8.471   8.207  69.354  1.00  0.00    -0.127 C  
HETATM    6  N   UNL     1      -7.614   6.132  66.221  1.00  0.00    -0.089 NA 
HETATM    7  N   UNL     1      -9.084   6.973  69.354  1.00  0.00    -0.145 N  
HETATM    8  O   UNL     1      -7.332   8.357  68.908  1.00  0.00    -0.085 OA 
HETATM    9  C   UNL     1      -8.001   6.021  67.313  1.00  0.00    -0.102 C  
HETATM   10  C   UNL     1      -8.495   5.789  68.686  1.00  0.00    -0.107 C  
HETATM   11  C   UNL     1     -10.134   6.546  70.240  1.00  0.00    -0.179 C  
HETATM   12  C   UNL     1      -9.667   4.779  68.651  1.00  0.00    -0.223 C  
HETATM   13  C   UNL     1     -11.526   6.258  69.790  1.00  0.00    -0.449 C  
HETATM   14  C   UNL     1     -10.517   5.139  69.841  1.00  0.00    -0.296 C  
ENDBRANCH   3   5
BRANCH   3  15
HETATM   15  C   UNL     1      -9.658  10.486  68.871  1.00  0.00    -0.199 C  
HETATM   16  C   UNL     1      -9.095  12.021  66.368  1.00  0.00    -0.193 C  
HETATM   17  C   UNL     1     -10.214  13.347  68.172  1.00  0.00    -0.246 C  
HETATM   18  C   UNL     1      -8.542  11.576  68.774  1.00  0.00    -0.055 C  
HETATM   19  C   UNL     1     -10.225  10.982  66.431  1.00  0.00    -0.236 C  
HETATM   20  C   UNL     1     -11.344  12.307  68.250  1.00  0.00    -0.339 C  
HETATM   21  C   UNL     1      -9.855   9.889  67.450  1.00  0.00    -0.223 C  
HETATM   22  C   UNL     1     -10.972  11.216  69.274  1.00  0.00    -0.300 C  
HETATM   23  O   UNL     1     -10.396  10.384  65.153  1.00  0.00    -0.295 OA 
HETATM   24  C   UNL     1     -11.531  11.664  66.870  1.00  0.00    -0.320 C  
HETATM   25  H   UNL     1     -11.095   9.742  65.192  1.00  0.00     0.000 HD 
HETATM   26  C   UNL     1      -8.905  12.665  67.748  1.00  0.00    -0.179 C  
ENDBRANCH   3  15
TORSDOF 2
ENDMDL
MODEL      140
REMARK 921   NORMALIZED FREE ENERGY PREDICTED BY IDOCK:   -4.24 KCAL/MOL
REMARK 922        TOTAL FREE ENERGY PREDICTED BY IDOCK:   -5.19 KCAL/MOL
REMARK 923 INTER-LIGAND FREE ENERGY PREDICTED BY IDOCK:   -5.01 KCAL/MOL
REMARK 924 INTRA-LIGAND FREE ENERGY PREDICTED BY IDOCK:   -0.18 KCAL/MOL
REMARK 927      BINDING AFFINITY PREDICTED BY RF-SCORE:    0.00 PKD
ROOT
HETATM    1  N   UNL     1      -7.747  11.791  68.540  1.00  0.00    -0.133 NA 
HETATM    2  H1  UNL     1      -6.758  11.540  68.521  1.00  0.00     0.000 HD 
HETATM    3  C   UNL     1      -8.169  12.018  67.138  1.00  0.00    -0.181 C  
HETATM    4  H2  UNL     1      -8.324  11.105  69.025  1.00  0.00     0.000 HD 
ENDROOT
BRANCH   3   5
HETATM    5  C   UNL     1      -9.679  12.403  67.167  1.00  0.00    -0.207 C  
HETATM    6  N   UNL     1     -12.905  12.971  65.135  1.00  0.00    -0.748 NA 
HETATM    7  N   UNL     1     -10.001  13.737  67.050  1.00  0.00    -0.246 N  
HETATM    8  O   UNL     1     -10.552  11.541  67.296  1.00  0.00    -0.210 OA 
HETATM    9  C   UNL     1     -12.215  13.487  65.918  1.00  0.00    -0.460 C  
HETATM   10  C   UNL     1     -11.398  14.212  66.912  1.00  0.00    -0.331 C  
HETATM   11  C   UNL     1      -9.151  14.849  67.385  1.00  0.00    -0.189 C  
HETATM   12  C   UNL     1     -11.231  15.686  66.469  1.00  0.00    -0.048 C  
HETATM   13  C   UNL     1      -8.601  15.798  66.376  1.00  0.00    -0.346 C  
HETATM   14  C   UNL     1      -9.911  16.114  67.054  1.00  0.00    -0.248 C  
ENDBRANCH   3   5
BRANCH   3  15
HETATM   15  C   UNL     1      -7.859  10.780  66.222  1.00  0.00    -0.156 C  
HETATM   16  C   UNL     1      -8.644   8.184  64.963  1.00  0.00    -0.076 C  
HETATM   17  C   UNL     1      -6.251   8.309  65.685  1.00  0.00    -0.045 C  
HETATM   18  C   UNL     1      -8.027   9.457  67.035  1.00  0.00    -0.102 C  
HETATM   19  C   UNL     1      -8.456   9.456  64.122  1.00  0.00    -0.190 C  
HETATM   20  C   UNL     1      -6.056   9.589  64.854  1.00  0.00    -0.078 C  
HETATM   21  C   UNL     1      -8.790  10.690  64.981  1.00  0.00    -0.212 C  
HETATM   22  C   UNL     1      -6.387  10.821  65.719  1.00  0.00    -0.089 C  
HETATM   23  O   UNL     1      -9.331   9.422  63.002  1.00  0.00    -0.512 OA 
HETATM   24  C   UNL     1      -6.998   9.550  63.645  1.00  0.00    -0.104 C  
HETATM   25  H   UNL     1      -9.215  10.208  62.482  1.00  0.00     0.000 HD 
HETATM   26  C   UNL     1      -7.704   8.221  66.175  1.00  0.00    -0.097 C  
ENDBRANCH   3  15
TORSDOF 2
ENDMDL
MODEL      141
REMARK 921   NORMALIZED FREE ENERGY PREDICTED BY IDOCK:   -4.23 KCAL/MOL
REMARK 922        TOTAL FREE ENERGY PREDICTED BY IDOCK:   -5.19 KCAL/MOL
REMARK 923 INTER-LIGAND FREE ENERGY PREDICTED BY IDOCK:   -4.98 KCAL/MOL
REMARK 924 INTRA-LIGAND FREE ENERGY PREDICTED BY IDOCK:   -0.21 KCAL/MOL
REMARK 927      BINDING AFFINITY PREDICTED BY RF-SCORE:    0.00 PKD
ROOT
HETATM    1  N   UNL     1      -9.602  12.113  69.055  1.00  0.00    -0.392 NA 
HETATM    2  H1  UNL     1     -10.524  12.499  69.261  1.00  0.00     0.000 HD 
HETATM    3  C   UNL     1      -9.742  11.257  67.854  1.00  0.00    -0.177 C  
HETATM    4  H2  UNL     1      -8.883  12.829  68.954  1.00  0.00     0.000 HD 
ENDROOT
BRANCH   3   5
HETATM    5  C   UNL     1      -8.334  10.668  67.540  1.00  0.00    -0.115 C  
HETATM    6  N   UNL     1      -5.887   9.420  64.836  1.00  0.00    -0.063 NA 
HETATM    7  N   UNL     1      -8.201   9.297  67.540  1.00  0.00    -0.114 N  
HETATM    8  O   UNL     1      -7.374  11.405  67.305  1.00  0.00    -0.114 OA 
HETATM    9  C   UNL     1      -6.380   9.099  65.841  1.00  0.00    -0.060 C  
HETATM   10  C   UNL     1      -6.958   8.615  67.111  1.00  0.00    -0.074 C  
HETATM   11  C   UNL     1      -9.036   8.362  68.249  1.00  0.00    -0.139 C  
HETATM   12  C   UNL     1      -7.397   7.139  66.950  1.00  0.00    -0.088 C  
HETATM   13  C   UNL     1      -9.945   7.393  67.572  1.00  0.00    -0.225 C  
HETATM   14  C   UNL     1      -8.538   6.973  67.919  1.00  0.00    -0.126 C  
ENDBRANCH   3   5
BRANCH   3  15
HETATM   15  C   UNL     1     -10.374  12.038  66.646  1.00  0.00    -0.237 C  
HETATM   16  C   UNL     1     -12.592  12.505  64.695  1.00  0.00    -0.507 C  
HETATM   17  C   UNL     1     -10.293  12.814  63.752  1.00  0.00    -0.269 C  
HETATM   18  C   UNL     1     -10.709  11.047  65.485  1.00  0.00    -0.218 C  
HETATM   19  C   UNL     1     -12.274  13.522  65.802  1.00  0.00    -0.461 C  
HETATM   20  C   UNL     1      -9.962  13.825  64.863  1.00  0.00    -0.178 C  
HETATM   21  C   UNL     1     -11.686  12.783  67.019  1.00  0.00    -0.440 C  
HETATM   22  C   UNL     1      -9.371  13.082  66.078  1.00  0.00    -0.024 C  
HETATM   23  O   UNL     1     -13.466  14.187  66.197  1.00  0.00    -0.209 OA 
HETATM   24  C   UNL     1     -11.248  14.544  65.287  1.00  0.00    -0.352 C  
HETATM   25  H   UNL     1     -13.270  14.815  66.881  1.00  0.00     0.000 HD 
HETATM   26  C   UNL     1     -11.306  11.782  64.271  1.00  0.00    -0.400 C  
ENDBRANCH   3  15
TORSDOF 2
ENDMDL
MODEL      142
REMARK 921   NORMALIZED FREE ENERGY PREDICTED BY IDOCK:   -4.21 KCAL/MOL
REMARK 922        TOTAL FREE ENERGY PREDICTED BY IDOCK:   -5.16 KCAL/MOL
REMARK 923 INTER-LIGAND FREE ENERGY PREDICTED BY IDOCK:   -4.55 KCAL/MOL
REMARK 924 INTRA-LIGAND FREE ENERGY PREDICTED BY IDOCK:   -0.61 KCAL/MOL
REMARK 927      BINDING AFFINITY PREDICTED BY RF-SCORE:    0.00 PKD
ROOT
HETATM    1  N   UNL     1     -11.680  12.971  67.852  1.00  0.00    -0.344 NA 
HETATM    2  H1  UNL     1     -12.692  12.848  67.847  1.00  0.00     0.000 HD 
HETATM    3  C   UNL     1     -11.398  14.271  68.504  1.00  0.00    -0.282 C  
HETATM    4  H2  UNL     1     -11.185  12.192  68.285  1.00  0.00     0.000 HD 
ENDROOT
BRANCH   3   5
HETATM    5  C   UNL     1      -9.851  14.459  68.510  1.00  0.00    -0.233 C  
HETATM    6  N   UNL     1      -6.706  15.263  70.589  1.00  0.00     0.255 NA 
HETATM    7  N   UNL     1      -9.360  15.720  68.258  1.00  0.00    -0.191 N  
HETATM    8  O   UNL     1      -9.097  13.509  68.729  1.00  0.00    -0.064 OA 
HETATM    9  C   UNL     1      -7.272  15.586  69.624  1.00  0.00    -0.169 C  
HETATM   10  C   UNL     1      -7.922  16.058  68.385  1.00  0.00    -0.151 C  
HETATM   11  C   UNL     1     -10.029  16.763  67.526  1.00  0.00    -0.266 C  
HETATM   12  C   UNL     1      -7.915  17.605  68.352  1.00  0.00    -0.270 C  
HETATM   13  C   UNL     1     -10.506  18.031  68.149  1.00  0.00    -0.373 C  
HETATM   14  C   UNL     1      -9.128  17.976  67.540  1.00  0.00    -0.253 C  
ENDBRANCH   3   5
BRANCH   3  15
HETATM   15  C   UNL     1     -12.043  14.366  69.933  1.00  0.00    -0.398 C  
HETATM   16  C   UNL     1     -14.332  13.951  71.812  1.00  0.00    -0.262 C  
HETATM   17  C   UNL     1     -13.021  16.045  72.214  1.00  0.00    -0.406 C  
HETATM   18  C   UNL     1     -13.357  15.209  69.873  1.00  0.00     0.560 C  
HETATM   19  C   UNL     1     -13.043  13.122  71.927  1.00  0.00    -0.385 C  
HETATM   20  C   UNL     1     -11.725  15.226  72.320  1.00  0.00    -0.539 C  
HETATM   21  C   UNL     1     -12.403  12.978  70.534  1.00  0.00    -0.365 C  
HETATM   22  C   UNL     1     -11.085  15.087  70.924  1.00  0.00    -0.225 C  
HETATM   23  O   UNL     1     -13.349  11.829  72.431  1.00  0.00    -0.596 OA 
HETATM   24  C   UNL     1     -12.055  13.831  72.867  1.00  0.00     0.896 C  
HETATM   25  H   UNL     1     -12.552  11.317  72.503  1.00  0.00     0.000 HD 
HETATM   26  C   UNL     1     -14.004  15.346  71.263  1.00  0.00    -0.491 C  
ENDBRANCH   3  15
TORSDOF 2
ENDMDL
MODEL      143
REMARK 921   NORMALIZED FREE ENERGY PREDICTED BY IDOCK:   -4.20 KCAL/MOL
REMARK 922        TOTAL FREE ENERGY PREDICTED BY IDOCK:   -5.15 KCAL/MOL
REMARK 923 INTER-LIGAND FREE ENERGY PREDICTED BY IDOCK:   -5.11 KCAL/MOL
REMARK 924 INTRA-LIGAND FREE ENERGY PREDICTED BY IDOCK:   -0.04 KCAL/MOL
REMARK 927      BINDING AFFINITY PREDICTED BY RF-SCORE:    0.00 PKD
ROOT
HETATM    1  N   UNL     1      -8.192   9.761  66.065  1.00  0.00    -0.115 NA 
HETATM    2  H1  UNL     1      -8.065   8.886  65.556  1.00  0.00     0.000 HD 
HETATM    3  C   UNL     1      -9.514   9.694  66.731  1.00  0.00    -0.161 C  
HETATM    4  H2  UNL     1      -7.429   9.963  66.710  1.00  0.00     0.000 HD 
ENDROOT
BRANCH   3   5
HETATM    5  C   UNL     1      -9.709  11.031  67.507  1.00  0.00    -0.172 C  
HETATM    6  N   UNL     1     -11.837  13.014  70.037  1.00  0.00    -0.314 NA 
HETATM    7  N   UNL     1     -10.464  12.014  66.906  1.00  0.00    -0.219 N  
HETATM    8  O   UNL     1      -9.200  11.201  68.617  1.00  0.00    -0.174 OA 
HETATM    9  C   UNL     1     -11.384  13.087  68.966  1.00  0.00    -0.289 C  
HETATM   10  C   UNL     1     -10.846  13.265  67.603  1.00  0.00    -0.258 C  
HETATM   11  C   UNL     1     -10.688  12.169  65.493  1.00  0.00    -0.283 C  
HETATM   12  C   UNL     1     -11.942  13.862  66.687  1.00  0.00    -0.474 C  
HETATM   13  C   UNL     1     -12.017  11.981  64.845  1.00  0.00    -0.286 C  
HETATM   14  C   UNL     1     -11.606  13.355  65.309  1.00  0.00    -0.329 C  
ENDBRANCH   3   5
BRANCH   3  15
HETATM   15  C   UNL     1      -9.650   8.420  67.641  1.00  0.00    -0.188 C  
HETATM   16  C   UNL     1     -11.279   6.235  68.871  1.00  0.00    -0.387 C  
HETATM   17  C   UNL     1      -9.488   7.161  70.355  1.00  0.00    -0.162 C  
HETATM   18  C   UNL     1     -10.703   8.675  68.766  1.00  0.00    -0.098 C  
HETATM   19  C   UNL     1     -10.228   5.937  67.791  1.00  0.00    -0.182 C  
HETATM   20  C   UNL     1      -8.431   6.876  69.276  1.00  0.00    -0.129 C  
HETATM   21  C   UNL     1     -10.097   7.154  66.857  1.00  0.00    -0.308 C  
HETATM   22  C   UNL     1      -8.300   8.099  68.346  1.00  0.00    -0.126 C  
HETATM   23  O   UNL     1     -10.635   4.810  67.026  1.00  0.00    -0.126 OA 
HETATM   24  C   UNL     1      -8.869   5.658  68.453  1.00  0.00    -0.108 C  
HETATM   25  H   UNL     1      -9.986   4.625  66.359  1.00  0.00     0.000 HD 
HETATM   26  C   UNL     1     -10.844   7.455  69.695  1.00  0.00    -0.222 C  
ENDBRANCH   3  15
TORSDOF 2
ENDMDL
MODEL      144
REMARK 921   NORMALIZED FREE ENERGY PREDICTED BY IDOCK:   -4.19 KCAL/MOL
REMARK 922        TOTAL FREE ENERGY PREDICTED BY IDOCK:   -5.14 KCAL/MOL
REMARK 923 INTER-LIGAND FREE ENERGY PREDICTED BY IDOCK:   -4.46 KCAL/MOL
REMARK 924 INTRA-LIGAND FREE ENERGY PREDICTED BY IDOCK:   -0.68 KCAL/MOL
REMARK 927      BINDING AFFINITY PREDICTED BY RF-SCORE:    0.00 PKD
ROOT
HETATM    1  N   UNL     1      -7.110  10.964  65.443  1.00  0.00    -0.365 NA 
HETATM    2  H1  UNL     1      -7.623  11.387  64.669  1.00  0.00     0.000 HD 
HETATM    3  C   UNL     1      -7.363  11.794  66.644  1.00  0.00     0.021 C  
HETATM    4  H2  UNL     1      -7.339   9.980  65.582  1.00  0.00     0.000 HD 
ENDROOT
BRANCH   3   5
HETATM    5  C   UNL     1      -6.580  11.147  67.825  1.00  0.00    -0.064 C  
HETATM    6  N   UNL     1      -6.746   9.654  71.376  1.00  0.00    -0.321 NA 
HETATM    7  N   UNL     1      -6.050  11.990  68.778  1.00  0.00    -0.056 N  
HETATM    8  O   UNL     1      -6.436   9.925  67.900  1.00  0.00    -0.059 OA 
HETATM    9  C   UNL     1      -6.183  10.456  70.746  1.00  0.00    -0.033 C  
HETATM   10  C   UNL     1      -5.418  11.491  70.023  1.00  0.00    -0.094 C  
HETATM   11  C   UNL     1      -5.704  13.374  68.591  1.00  0.00    -0.084 C  
HETATM   12  C   UNL     1      -5.308  12.761  70.900  1.00  0.00    -0.173 C  
HETATM   13  C   UNL     1      -6.418  14.499  69.260  1.00  0.00    -0.123 C  
HETATM   14  C   UNL     1      -5.201  13.897  69.917  1.00  0.00    -0.094 C  
ENDBRANCH   3   5
BRANCH   3  15
HETATM   15  C   UNL     1      -8.899  11.961  66.931  1.00  0.00    -0.197 C  
HETATM   16  C   UNL     1     -11.527  10.881  67.861  1.00  0.00    -0.344 C  
HETATM   17  C   UNL     1     -11.674  12.444  65.911  1.00  0.00    -0.476 C  
HETATM   18  C   UNL     1      -9.712  10.896  66.129  1.00  0.00    -0.252 C  
HETATM   19  C   UNL     1     -10.775  11.954  68.664  1.00  0.00    -0.235 C  
HETATM   20  C   UNL     1     -10.913  13.520  66.703  1.00  0.00    -0.293 C  
HETATM   21  C   UNL     1      -9.261  11.794  68.434  1.00  0.00    -0.175 C  
HETATM   22  C   UNL     1      -9.398  13.359  66.467  1.00  0.00    -0.225 C  
HETATM   23  O   UNL     1     -11.051  11.796  70.049  1.00  0.00    -0.475 OA 
HETATM   24  C   UNL     1     -11.213  13.352  68.197  1.00  0.00    -0.304 C  
HETATM   25  H   UNL     1     -10.586  12.459  70.545  1.00  0.00     0.000 HD 
HETATM   26  C   UNL     1     -11.226  11.047  66.366  1.00  0.00    -0.041 C  
ENDBRANCH   3  15
TORSDOF 2
ENDMDL
MODEL      145
REMARK 921   NORMALIZED FREE ENERGY PREDICTED BY IDOCK:   -4.19 KCAL/MOL
REMARK 922        TOTAL FREE ENERGY PREDICTED BY IDOCK:   -5.13 KCAL/MOL
REMARK 923 INTER-LIGAND FREE ENERGY PREDICTED BY IDOCK:   -4.49 KCAL/MOL
REMARK 924 INTRA-LIGAND FREE ENERGY PREDICTED BY IDOCK:   -0.65 KCAL/MOL
REMARK 927      BINDING AFFINITY PREDICTED BY RF-SCORE:    0.00 PKD
ROOT
HETATM    1  N   UNL     1      -7.730  10.394  69.306  1.00  0.00    -0.127 NA 
HETATM    2  H1  UNL     1      -7.904  10.667  68.339  1.00  0.00     0.000 HD 
HETATM    3  C   UNL     1      -8.791   9.435  69.690  1.00  0.00    -0.172 C  
HETATM    4  H2  UNL     1      -6.789  10.030  69.455  1.00  0.00     0.000 HD 
ENDROOT
BRANCH   3   5
HETATM    5  C   UNL     1      -8.526   9.019  71.168  1.00  0.00    -0.177 C  
HETATM    6  N   UNL     1      -7.513   6.200  73.595  1.00  0.00    -0.091 NA 
HETATM    7  N   UNL     1      -9.592   8.543  71.899  1.00  0.00    -0.256 N  
HETATM    8  O   UNL     1      -7.401   9.117  71.663  1.00  0.00    -0.315 OA 
HETATM    9  C   UNL     1      -8.343   6.996  73.413  1.00  0.00    -0.119 C  
HETATM   10  C   UNL     1      -9.437   7.976  73.260  1.00  0.00    -0.266 C  
HETATM   11  C   UNL     1     -10.982   8.825  71.656  1.00  0.00    -0.321 C  
HETATM   12  C   UNL     1     -10.796   7.280  73.512  1.00  0.00    -0.290 C  
HETATM   13  C   UNL     1     -11.964   7.796  71.208  1.00  0.00    -0.324 C  
HETATM   14  C   UNL     1     -11.784   8.057  72.682  1.00  0.00    -0.418 C  
ENDBRANCH   3   5
BRANCH   3  15
HETATM   15  C   UNL     1      -8.867   8.215  68.703  1.00  0.00    -0.134 C  
HETATM   16  C   UNL     1      -9.293   7.070  65.974  1.00  0.00    -0.019 C  
HETATM   17  C   UNL     1     -10.204   5.675  67.841  1.00  0.00    -0.234 C  
HETATM   18  C   UNL     1     -10.264   8.178  68.004  1.00  0.00    -0.263 C  
HETATM   19  C   UNL     1      -7.908   7.056  66.640  1.00  0.00    -0.106 C  
HETATM   20  C   UNL     1      -8.825   5.664  68.521  1.00  0.00    -0.108 C  
HETATM   21  C   UNL     1      -7.786   8.263  67.588  1.00  0.00    -0.106 C  
HETATM   22  C   UNL     1      -8.708   6.872  69.472  1.00  0.00    -0.133 C  
HETATM   23  O   UNL     1      -6.898   7.146  65.643  1.00  0.00    -0.051 OA 
HETATM   24  C   UNL     1      -7.735   5.759  67.446  1.00  0.00    -0.097 C  
HETATM   25  H   UNL     1      -6.042   7.137  66.055  1.00  0.00     0.000 HD 
HETATM   26  C   UNL     1     -10.385   6.978  67.047  1.00  0.00    -0.360 C  
ENDBRANCH   3  15
TORSDOF 2
ENDMDL
MODEL      146
REMARK 921   NORMALIZED FREE ENERGY PREDICTED BY IDOCK:   -4.15 KCAL/MOL
REMARK 922        TOTAL FREE ENERGY PREDICTED BY IDOCK:   -5.09 KCAL/MOL
REMARK 923 INTER-LIGAND FREE ENERGY PREDICTED BY IDOCK:   -5.85 KCAL/MOL
REMARK 924 INTRA-LIGAND FREE ENERGY PREDICTED BY IDOCK:    0.76 KCAL/MOL
REMARK 927      BINDING AFFINITY PREDICTED BY RF-SCORE:    0.00 PKD
ROOT
HETATM    1  N   UNL     1      -9.260  11.381  68.818  1.00  0.00    -0.347 NA 
HETATM    2  H1  UNL     1      -9.506  12.309  69.164  1.00  0.00     0.000 HD 
HETATM    3  C   UNL     1     -10.399  10.902  67.999  1.00  0.00    -0.185 C  
HETATM    4  H2  UNL     1      -8.373  11.363  68.317  1.00  0.00     0.000 HD 
ENDROOT
BRANCH   3   5
HETATM    5  C   UNL     1     -10.024   9.484  67.472  1.00  0.00    -0.186 C  
HETATM    6  N   UNL     1      -8.629   5.991  68.316  1.00  0.00    -0.115 NA 
HETATM    7  N   UNL     1      -8.745   9.297  66.996  1.00  0.00    -0.123 N  
HETATM    8  O   UNL     1     -10.847   8.566  67.477  1.00  0.00    -0.198 OA 
HETATM    9  C   UNL     1      -8.480   6.883  67.582  1.00  0.00    -0.122 C  
HETATM   10  C   UNL     1      -8.223   7.965  66.610  1.00  0.00    -0.119 C  
HETATM   11  C   UNL     1      -7.874  10.318  66.474  1.00  0.00    -0.116 C  
HETATM   12  C   UNL     1      -6.699   8.201  66.487  1.00  0.00    -0.063 C  
HETATM   13  C   UNL     1      -6.616  10.750  67.147  1.00  0.00    -0.079 C  
HETATM   14  C   UNL     1      -6.565   9.654  66.113  1.00  0.00    -0.078 C  
ENDBRANCH   3   5
BRANCH   3  15
HETATM   15  C   UNL     1     -10.769  11.914  66.857  1.00  0.00    -0.285 C  
HETATM   16  C   UNL     1     -10.223  13.204  64.215  1.00  0.00    -0.283 C  
HETATM   17  C   UNL     1     -11.172  14.742  65.948  1.00  0.00    -0.340 C  
HETATM   18  C   UNL     1      -9.591  12.915  66.625  1.00  0.00    -0.257 C  
HETATM   19  C   UNL     1     -11.414  12.252  64.409  1.00  0.00    -0.354 C  
HETATM   20  C   UNL     1     -12.361  13.790  66.157  1.00  0.00    -0.496 C  
HETATM   21  C   UNL     1     -11.069  11.221  65.499  1.00  0.00    -0.138 C  
HETATM   22  C   UNL     1     -12.013  12.761  67.251  1.00  0.00    -0.345 C  
HETATM   23  O   UNL     1     -11.681  11.568  63.192  1.00  0.00    -0.854 OA 
HETATM   24  C   UNL     1     -12.652  13.053  64.843  1.00  0.00    -0.490 C  
HETATM   25  H   UNL     1     -12.417  10.979  63.312  1.00  0.00     0.000 HD 
HETATM   26  C   UNL     1      -9.929  13.941  65.529  1.00  0.00    -0.275 C  
ENDBRANCH   3  15
TORSDOF 2
ENDMDL
MODEL      147
REMARK 921   NORMALIZED FREE ENERGY PREDICTED BY IDOCK:   -4.12 KCAL/MOL
REMARK 922        TOTAL FREE ENERGY PREDICTED BY IDOCK:   -5.07 KCAL/MOL
REMARK 923 INTER-LIGAND FREE ENERGY PREDICTED BY IDOCK:   -4.33 KCAL/MOL
REMARK 924 INTRA-LIGAND FREE ENERGY PREDICTED BY IDOCK:   -0.73 KCAL/MOL
REMARK 927      BINDING AFFINITY PREDICTED BY RF-SCORE:    0.00 PKD
ROOT
HETATM    1  N   UNL     1     -10.331  11.139  68.728  1.00  0.00    -0.199 NA 
HETATM    2  H1  UNL     1     -10.628  11.529  69.622  1.00  0.00     0.000 HD 
HETATM    3  C   UNL     1      -9.356  10.063  69.019  1.00  0.00    -0.181 C  
HETATM    4  H2  UNL     1     -11.111  10.826  68.150  1.00  0.00     0.000 HD 
ENDROOT
BRANCH   3   5
HETATM    5  C   UNL     1      -8.902   9.468  67.652  1.00  0.00    -0.118 C  
HETATM    6  N   UNL     1      -8.739   6.358  65.381  1.00  0.00    -0.080 NA 
HETATM    7  N   UNL     1      -7.634   8.935  67.577  1.00  0.00    -0.092 N  
HETATM    8  O   UNL     1      -9.652   9.480  66.674  1.00  0.00    -0.164 OA 
HETATM    9  C   UNL     1      -8.067   7.190  65.842  1.00  0.00    -0.122 C  
HETATM   10  C   UNL     1      -7.143   8.207  66.383  1.00  0.00    -0.075 C  
HETATM   11  C   UNL     1      -6.517   9.277  68.418  1.00  0.00    -0.054 C  
HETATM   12  C   UNL     1      -5.853   7.519  66.890  1.00  0.00    -0.039 C  
HETATM   13  C   UNL     1      -5.903   8.333  69.395  1.00  0.00    -0.030 C  
HETATM   14  C   UNL     1      -5.351   8.412  67.994  1.00  0.00    -0.034 C  
ENDBRANCH   3   5
BRANCH   3  15
HETATM   15  C   UNL     1      -9.942   8.988  70.003  1.00  0.00    -0.207 C  
HETATM   16  C   UNL     1     -12.004   6.952  70.739  1.00  0.00    -0.424 C  
HETATM   17  C   UNL     1     -11.153   8.313  72.660  1.00  0.00    -0.400 C  
HETATM   18  C   UNL     1     -11.407   9.364  70.396  1.00  0.00    -0.295 C  
HETATM   19  C   UNL     1     -10.564   6.542  70.392  1.00  0.00    -0.233 C  
HETATM   20  C   UNL     1      -9.708   7.917  72.314  1.00  0.00    -0.269 C  
HETATM   21  C   UNL     1      -9.971   7.557  69.398  1.00  0.00    -0.178 C  
HETATM   22  C   UNL     1      -9.116   8.937  71.321  1.00  0.00    -0.323 C  
HETATM   23  O   UNL     1     -10.566   5.253  69.793  1.00  0.00    -0.307 OA 
HETATM   24  C   UNL     1      -9.709   6.525  71.670  1.00  0.00    -0.174 C  
HETATM   25  H   UNL     1      -9.676   5.000  69.578  1.00  0.00     0.000 HD 
HETATM   26  C   UNL     1     -12.006   8.345  71.383  1.00  0.00    -0.337 C  
ENDBRANCH   3  15
TORSDOF 2
ENDMDL
MODEL      148
REMARK 921   NORMALIZED FREE ENERGY PREDICTED BY IDOCK:   -4.11 KCAL/MOL
REMARK 922        TOTAL FREE ENERGY PREDICTED BY IDOCK:   -5.05 KCAL/MOL
REMARK 923 INTER-LIGAND FREE ENERGY PREDICTED BY IDOCK:   -4.67 KCAL/MOL
REMARK 924 INTRA-LIGAND FREE ENERGY PREDICTED BY IDOCK:   -0.39 KCAL/MOL
REMARK 927      BINDING AFFINITY PREDICTED BY RF-SCORE:    0.00 PKD
ROOT
HETATM    1  N   UNL     1      -6.838   8.983  68.647  1.00  0.00    -0.062 NA 
HETATM    2  H1  UNL     1      -6.298   8.224  68.231  1.00  0.00     0.000 HD 
HETATM    3  C   UNL     1      -8.161   8.997  67.979  1.00  0.00    -0.105 C  
HETATM    4  H2  UNL     1      -6.904   8.917  69.662  1.00  0.00     0.000 HD 
ENDROOT
BRANCH   3   5
HETATM    5  C   UNL     1      -8.986  10.157  68.614  1.00  0.00    -0.136 C  
HETATM    6  N   UNL     1     -12.354  11.274  70.118  1.00  0.00    -0.291 NA 
HETATM    7  N   UNL     1      -9.699  10.973  67.764  1.00  0.00    -0.168 N  
HETATM    8  O   UNL     1      -8.994  10.338  69.833  1.00  0.00    -0.133 OA 
HETATM    9  C   UNL     1     -11.574  11.567  69.305  1.00  0.00    -0.322 C  
HETATM   10  C   UNL     1     -10.638  12.011  68.253  1.00  0.00    -0.212 C  
HETATM   11  C   UNL     1      -9.415  11.208  66.372  1.00  0.00    -0.193 C  
HETATM   12  C   UNL     1     -11.432  12.401  66.983  1.00  0.00    -0.423 C  
HETATM   13  C   UNL     1     -10.302  10.756  65.263  1.00  0.00    -0.327 C  
HETATM   14  C   UNL     1     -10.484  12.136  65.843  1.00  0.00    -0.288 C  
ENDBRANCH   3   5
BRANCH   3  15
HETATM   15  C   UNL     1      -8.879   7.603  68.064  1.00  0.00    -0.127 C  
HETATM   16  C   UNL     1     -11.350   5.920  68.087  1.00  0.00     0.376 C  
HETATM   17  C   UNL     1      -9.544   5.137  69.633  1.00  0.00    -0.234 C  
HETATM   18  C   UNL     1      -9.891   7.593  69.255  1.00  0.00    -0.168 C  
HETATM   19  C   UNL     1     -10.362   5.874  66.910  1.00  0.00    -0.247 C  
HETATM   20  C   UNL     1      -8.546   5.099  68.464  1.00  0.00    -0.094 C  
HETATM   21  C   UNL     1      -9.668   7.241  66.775  1.00  0.00    -0.260 C  
HETATM   22  C   UNL     1      -7.849   6.468  68.334  1.00  0.00    -0.106 C  
HETATM   23  O   UNL     1     -11.065   5.591  65.708  1.00  0.00    -0.667 OA 
HETATM   24  C   UNL     1      -9.303   4.790  67.167  1.00  0.00    -0.147 C  
HETATM   25  H   UNL     1     -10.454   5.563  64.981  1.00  0.00     0.000 HD 
HETATM   26  C   UNL     1     -10.595   6.230  69.386  1.00  0.00    -0.330 C  
ENDBRANCH   3  15
TORSDOF 2
ENDMDL
MODEL      149
REMARK 921   NORMALIZED FREE ENERGY PREDICTED BY IDOCK:   -4.11 KCAL/MOL
REMARK 922        TOTAL FREE ENERGY PREDICTED BY IDOCK:   -5.05 KCAL/MOL
REMARK 923 INTER-LIGAND FREE ENERGY PREDICTED BY IDOCK:   -6.30 KCAL/MOL
REMARK 924 INTRA-LIGAND FREE ENERGY PREDICTED BY IDOCK:    1.25 KCAL/MOL
REMARK 927      BINDING AFFINITY PREDICTED BY RF-SCORE:    0.00 PKD
ROOT
HETATM    1  N   UNL     1     -11.696  12.953  68.408  1.00  0.00    -0.326 NA 
HETATM    2  H1  UNL     1     -11.980  12.165  68.990  1.00  0.00     0.000 HD 
HETATM    3  C   UNL     1     -10.218  12.916  68.311  1.00  0.00    -0.245 C  
HETATM    4  H2  UNL     1     -12.155  12.963  67.497  1.00  0.00     0.000 HD 
ENDROOT
BRANCH   3   5
HETATM    5  C   UNL     1      -9.783  14.120  67.422  1.00  0.00    -0.232 C  
HETATM    6  N   UNL     1     -10.152  17.885  66.681  1.00  0.00    -0.344 NA 
HETATM    7  N   UNL     1     -10.509  14.364  66.278  1.00  0.00    -0.284 N  
HETATM    8  O   UNL     1      -8.819  14.824  67.732  1.00  0.00    -0.166 OA 
HETATM    9  C   UNL     1     -10.206  16.842  66.166  1.00  0.00    -0.351 C  
HETATM   10  C   UNL     1     -10.291  15.563  65.434  1.00  0.00    -0.394 C  
HETATM   11  C   UNL     1     -11.290  13.402  65.545  1.00  0.00    -0.293 C  
HETATM   12  C   UNL     1     -11.531  15.577  64.508  1.00  0.00    -0.311 C  
HETATM   13  C   UNL     1     -12.777  13.453  65.444  1.00  0.00    -0.484 C  
HETATM   14  C   UNL     1     -11.938  14.132  64.391  1.00  0.00    -0.478 C  
ENDBRANCH   3   5
BRANCH   3  15
HETATM   15  C   UNL     1      -9.696  11.531  67.784  1.00  0.00    -0.180 C  
HETATM   16  C   UNL     1      -9.027   8.648  68.202  1.00  0.00    -0.141 C  
HETATM   17  C   UNL     1      -7.461   9.870  66.678  1.00  0.00    -0.099 C  
HETATM   18  C   UNL     1      -8.479  11.056  68.640  1.00  0.00    -0.157 C  
HETATM   19  C   UNL     1     -10.213   9.074  67.323  1.00  0.00    -0.256 C  
HETATM   20  C   UNL     1      -8.643  10.310  65.799  1.00  0.00    -0.163 C  
HETATM   21  C   UNL     1     -10.773  10.412  67.837  1.00  0.00    -0.307 C  
HETATM   22  C   UNL     1      -9.199  11.652  66.315  1.00  0.00    -0.225 C  
HETATM   23  O   UNL     1     -11.235   8.088  67.390  1.00  0.00    -0.406 OA 
HETATM   24  C   UNL     1      -9.745   9.245  65.869  1.00  0.00    -0.355 C  
HETATM   25  H   UNL     1     -11.969   8.352  66.847  1.00  0.00     0.000 HD 
HETATM   26  C   UNL     1      -7.924   9.712  68.134  1.00  0.00    -0.100 C  
ENDBRANCH   3  15
TORSDOF 2
ENDMDL
MODEL      150
REMARK 921   NORMALIZED FREE ENERGY PREDICTED BY IDOCK:   -4.08 KCAL/MOL
REMARK 922        TOTAL FREE ENERGY PREDICTED BY IDOCK:   -5.01 KCAL/MOL
REMARK 923 INTER-LIGAND FREE ENERGY PREDICTED BY IDOCK:   -4.39 KCAL/MOL
REMARK 924 INTRA-LIGAND FREE ENERGY PREDICTED BY IDOCK:   -0.63 KCAL/MOL
REMARK 927      BINDING AFFINITY PREDICTED BY RF-SCORE:    0.00 PKD
ROOT
HETATM    1  N   UNL     1      -7.452   9.235  71.376  1.00  0.00    -0.336 NA 
HETATM    2  H1  UNL     1      -7.210   8.484  72.023  1.00  0.00     0.000 HD 
HETATM    3  C   UNL     1      -7.636   8.621  70.040  1.00  0.00    -0.068 C  
HETATM    4  H2  UNL     1      -8.259   9.780  71.680  1.00  0.00     0.000 HD 
ENDROOT
BRANCH   3   5
HETATM    5  C   UNL     1      -8.005   9.769  69.052  1.00  0.00    -0.096 C  
HETATM    6  N   UNL     1     -10.291  10.945  66.180  1.00  0.00    -0.248 NA 
HETATM    7  N   UNL     1      -7.354   9.800  67.839  1.00  0.00    -0.085 N  
HETATM    8  O   UNL     1      -8.846  10.619  69.351  1.00  0.00    -0.127 OA 
HETATM    9  C   UNL     1      -9.168  10.840  66.471  1.00  0.00    -0.168 C  
HETATM   10  C   UNL     1      -7.723  10.746  66.759  1.00  0.00    -0.136 C  
HETATM   11  C   UNL     1      -6.065   9.229  67.550  1.00  0.00    -0.054 C  
HETATM   12  C   UNL     1      -6.984  10.181  65.522  1.00  0.00    -0.131 C  
HETATM   13  C   UNL     1      -5.864   8.071  66.633  1.00  0.00    -0.044 C  
HETATM   14  C   UNL     1      -5.780   9.474  66.086  1.00  0.00    -0.053 C  
ENDBRANCH   3   5
BRANCH   3  15
HETATM   15  C   UNL     1      -8.692   7.459  70.067  1.00  0.00    -0.140 C  
HETATM   16  C   UNL     1     -11.517   6.479  70.107  1.00  0.00    -0.477 C  
HETATM   17  C   UNL     1      -9.927   5.130  71.493  1.00  0.00    -0.248 C  
HETATM   18  C   UNL     1      -9.629   7.614  71.307  1.00  0.00    -0.171 C  
HETATM   19  C   UNL     1     -10.618   6.275  68.878  1.00  0.00    -0.268 C  
HETATM   20  C   UNL     1      -9.016   4.930  70.271  1.00  0.00    -0.147 C  
HETATM   21  C   UNL     1      -9.593   7.422  68.801  1.00  0.00    -0.147 C  
HETATM   22  C   UNL     1      -7.989   6.077  70.199  1.00  0.00    -0.106 C  
HETATM   23  O   UNL     1     -11.412   6.284  67.699  1.00  0.00    -0.609 OA 
HETATM   24  C   UNL     1      -9.872   4.937  68.998  1.00  0.00    -0.250 C  
HETATM   25  H   UNL     1     -10.856   6.158  66.939  1.00  0.00     0.000 HD 
HETATM   26  C   UNL     1     -10.662   6.475  71.381  1.00  0.00    -0.280 C  
ENDBRANCH   3  15
TORSDOF 2
ENDMDL
MODEL      151
REMARK 921   NORMALIZED FREE ENERGY PREDICTED BY IDOCK:   -4.06 KCAL/MOL
REMARK 922        TOTAL FREE ENERGY PREDICTED BY IDOCK:   -4.99 KCAL/MOL
REMARK 923 INTER-LIGAND FREE ENERGY PREDICTED BY IDOCK:   -6.23 KCAL/MOL
REMARK 924 INTRA-LIGAND FREE ENERGY PREDICTED BY IDOCK:    1.24 KCAL/MOL
REMARK 927      BINDING AFFINITY PREDICTED BY RF-SCORE:    0.00 PKD
ROOT
HETATM    1  N   UNL     1     -12.256  12.796  67.146  1.00  0.00    -0.383 NA 
HETATM    2  H1  UNL     1     -12.239  12.468  66.180  1.00  0.00     0.000 HD 
HETATM    3  C   UNL     1     -11.976  11.628  68.013  1.00  0.00    -0.117 C  
HETATM    4  H2  UNL     1     -11.623  13.578  67.313  1.00  0.00     0.000 HD 
ENDROOT
BRANCH   3   5
HETATM    5  C   UNL     1     -12.004  12.130  69.487  1.00  0.00    -0.275 C  
HETATM    6  N   UNL     1     -14.140  13.482  72.397  1.00  0.00    -0.712 NA 
HETATM    7  N   UNL     1     -11.805  13.475  69.708  1.00  0.00    -0.318 N  
HETATM    8  O   UNL     1     -12.192  11.348  70.422  1.00  0.00    -0.336 OA 
HETATM    9  C   UNL     1     -13.183  13.720  71.777  1.00  0.00    -0.386 C  
HETATM   10  C   UNL     1     -11.958  14.097  71.045  1.00  0.00    -0.275 C  
HETATM   11  C   UNL     1     -11.108  14.386  68.837  1.00  0.00    -0.259 C  
HETATM   12  C   UNL     1     -11.985  15.612  70.732  1.00  0.00    -0.438 C  
HETATM   13  C   UNL     1     -11.776  15.502  68.109  1.00  0.00    -0.241 C  
HETATM   14  C   UNL     1     -11.178  15.757  69.469  1.00  0.00    -0.317 C  
ENDBRANCH   3   5
BRANCH   3  15
HETATM   15  C   UNL     1     -10.633  10.913  67.622  1.00  0.00    -0.263 C  
HETATM   16  C   UNL     1      -8.181   9.360  68.341  1.00  0.00    -0.117 C  
HETATM   17  C   UNL     1      -7.836  11.085  66.560  1.00  0.00    -0.155 C  
HETATM   18  C   UNL     1      -9.446  11.525  68.434  1.00  0.00    -0.195 C  
HETATM   19  C   UNL     1      -9.312   8.731  67.512  1.00  0.00    -0.136 C  
HETATM   20  C   UNL     1      -8.972  10.469  65.728  1.00  0.00    -0.199 C  
HETATM   21  C   UNL     1     -10.651   9.384  67.898  1.00  0.00    -0.293 C  
HETATM   22  C   UNL     1     -10.312  11.128  66.115  1.00  0.00    -0.302 C  
HETATM   23  O   UNL     1      -9.382   7.337  67.781  1.00  0.00    -0.129 OA 
HETATM   24  C   UNL     1      -9.047   8.964  66.016  1.00  0.00    -0.265 C  
HETATM   25  H   UNL     1     -10.081   6.948  67.268  1.00  0.00     0.000 HD 
HETATM   26  C   UNL     1      -8.106  10.866  68.057  1.00  0.00    -0.119 C  
ENDBRANCH   3  15
TORSDOF 2
ENDMDL
MODEL      152
REMARK 921   NORMALIZED FREE ENERGY PREDICTED BY IDOCK:   -4.05 KCAL/MOL
REMARK 922        TOTAL FREE ENERGY PREDICTED BY IDOCK:   -4.99 KCAL/MOL
REMARK 923 INTER-LIGAND FREE ENERGY PREDICTED BY IDOCK:   -4.33 KCAL/MOL
REMARK 924 INTRA-LIGAND FREE ENERGY PREDICTED BY IDOCK:   -0.65 KCAL/MOL
REMARK 927      BINDING AFFINITY PREDICTED BY RF-SCORE:    0.00 PKD
ROOT
HETATM    1  N   UNL     1      -6.347   7.556  69.732  1.00  0.00    -0.031 NA 
HETATM    2  H1  UNL     1      -6.183   8.343  69.104  1.00  0.00     0.000 HD 
HETATM    3  C   UNL     1      -7.806   7.485  69.975  1.00  0.00    -0.099 C  
HETATM    4  H2  UNL     1      -5.956   6.680  69.386  1.00  0.00     0.000 HD 
ENDROOT
BRANCH   3   5
HETATM    5  C   UNL     1      -8.056   6.283  70.935  1.00  0.00    -0.124 C  
HETATM    6  N   UNL     1      -9.845   2.915  71.493  1.00  0.00    -0.157 NA 
HETATM    7  N   UNL     1      -9.105   6.383  71.823  1.00  0.00    -0.143 N  
HETATM    8  O   UNL     1      -7.337   5.283  70.903  1.00  0.00    -0.069 OA 
HETATM    9  C   UNL     1      -9.686   3.958  71.985  1.00  0.00    -0.164 C  
HETATM   10  C   UNL     1      -9.536   5.253  72.679  1.00  0.00    -0.147 C  
HETATM   11  C   UNL     1      -9.688   7.603  72.317  1.00  0.00    -0.174 C  
HETATM   12  C   UNL     1     -10.912   5.716  73.215  1.00  0.00    -0.316 C  
HETATM   13  C   UNL     1     -11.075   8.043  71.991  1.00  0.00    -0.353 C  
HETATM   14  C   UNL     1     -10.830   7.220  73.230  1.00  0.00    -0.404 C  
ENDBRANCH   3   5
BRANCH   3  15
HETATM   15  C   UNL     1      -8.622   7.392  68.635  1.00  0.00    -0.129 C  
HETATM   16  C   UNL     1      -9.017   6.320  65.873  1.00  0.00    -0.122 C  
HETATM   17  C   UNL     1      -9.679   8.716  66.164  1.00  0.00    -0.292 C  
HETATM   18  C   UNL     1      -7.717   7.796  67.428  1.00  0.00    -0.113 C  
HETATM   19  C   UNL     1      -9.952   5.922  67.026  1.00  0.00    -0.166 C  
HETATM   20  C   UNL     1     -10.608   8.330  67.326  1.00  0.00    -0.335 C  
HETATM   21  C   UNL     1      -9.172   5.966  68.352  1.00  0.00    -0.118 C  
HETATM   22  C   UNL     1      -9.825   8.378  68.652  1.00  0.00    -0.180 C  
HETATM   23  O   UNL     1     -10.434   4.602  66.816  1.00  0.00    -0.193 OA 
HETATM   24  C   UNL     1     -11.131   6.906  67.098  1.00  0.00    -0.362 C  
HETATM   25  H   UNL     1     -11.012   4.356  67.529  1.00  0.00     0.000 HD 
HETATM   26  C   UNL     1      -8.491   7.743  66.099  1.00  0.00    -0.143 C  
ENDBRANCH   3  15
TORSDOF 2
ENDMDL
MODEL      153
REMARK 921   NORMALIZED FREE ENERGY PREDICTED BY IDOCK:   -4.00 KCAL/MOL
REMARK 922        TOTAL FREE ENERGY PREDICTED BY IDOCK:   -4.93 KCAL/MOL
REMARK 923 INTER-LIGAND FREE ENERGY PREDICTED BY IDOCK:   -5.69 KCAL/MOL
REMARK 924 INTRA-LIGAND FREE ENERGY PREDICTED BY IDOCK:    0.77 KCAL/MOL
REMARK 927      BINDING AFFINITY PREDICTED BY RF-SCORE:    0.00 PKD
ROOT
HETATM    1  N   UNL     1     -11.054  12.313  69.530  1.00  0.00    -0.464 NA 
HETATM    2  H1  UNL     1     -10.655  12.324  70.468  1.00  0.00     0.000 HD 
HETATM    3  C   UNL     1     -10.249  11.368  68.722  1.00  0.00    -0.197 C  
HETATM    4  H2  UNL     1     -12.050  12.098  69.521  1.00  0.00     0.000 HD 
ENDROOT
BRANCH   3   5
HETATM    5  C   UNL     1     -10.857  11.352  67.287  1.00  0.00    -0.263 C  
HETATM    6  N   UNL     1     -10.280  10.630  63.545  1.00  0.00    -0.233 NA 
HETATM    7  N   UNL     1     -10.753  12.503  66.537  1.00  0.00    -0.237 N  
HETATM    8  O   UNL     1     -11.414  10.346  66.844  1.00  0.00    -0.110 OA 
HETATM    9  C   UNL     1     -10.658  11.460  64.268  1.00  0.00    -0.355 C  
HETATM   10  C   UNL     1     -11.155  12.566  65.111  1.00  0.00    -0.299 C  
HETATM   11  C   UNL     1     -10.601  13.840  67.047  1.00  0.00    -0.278 C  
HETATM   12  C   UNL     1     -10.542  13.902  64.627  1.00  0.00    -0.432 C  
HETATM   13  C   UNL     1      -9.368  14.658  66.862  1.00  0.00    -0.258 C  
HETATM   14  C   UNL     1     -10.489  14.767  65.859  1.00  0.00    -0.324 C  
ENDBRANCH   3   5
BRANCH   3  15
HETATM   15  C   UNL     1     -10.174   9.945  69.382  1.00  0.00    -0.231 C  
HETATM   16  C   UNL     1     -10.370   8.141  71.759  1.00  0.00    -0.293 C  
HETATM   17  C   UNL     1      -8.561   7.535  70.139  1.00  0.00    -0.141 C  
HETATM   18  C   UNL     1      -9.125   9.946  70.540  1.00  0.00     0.099 C  
HETATM   19  C   UNL     1     -11.405   8.084  70.624  1.00  0.00    -0.252 C  
HETATM   20  C   UNL     1      -9.587   7.486  68.995  1.00  0.00    -0.153 C  
HETATM   21  C   UNL     1     -11.530   9.475  69.978  1.00  0.00    -0.149 C  
HETATM   22  C   UNL     1      -9.707   8.880  68.348  1.00  0.00    -0.175 C  
HETATM   23  O   UNL     1     -12.669   7.702  71.150  1.00  0.00    -0.463 OA 
HETATM   24  C   UNL     1     -10.951   7.071  69.561  1.00  0.00    -0.251 C  
HETATM   25  H   UNL     1     -13.309   7.666  70.448  1.00  0.00     0.000 HD 
HETATM   26  C   UNL     1      -9.005   8.558  71.195  1.00  0.00    -0.232 C  
ENDBRANCH   3  15
TORSDOF 2
ENDMDL
MODEL      154
REMARK 921   NORMALIZED FREE ENERGY PREDICTED BY IDOCK:   -3.99 KCAL/MOL
REMARK 922        TOTAL FREE ENERGY PREDICTED BY IDOCK:   -4.92 KCAL/MOL
REMARK 923 INTER-LIGAND FREE ENERGY PREDICTED BY IDOCK:   -6.05 KCAL/MOL
REMARK 924 INTRA-LIGAND FREE ENERGY PREDICTED BY IDOCK:    1.14 KCAL/MOL
REMARK 927      BINDING AFFINITY PREDICTED BY RF-SCORE:    0.00 PKD
ROOT
HETATM    1  N   UNL     1     -10.141  15.952  65.454  1.00  0.00    -0.451 NA 
HETATM    2  H1  UNL     1     -10.346  16.783  64.899  1.00  0.00     0.000 HD 
HETATM    3  C   UNL     1      -8.803  16.146  66.059  1.00  0.00    -0.278 C  
HETATM    4  H2  UNL     1     -10.864  15.743  66.142  1.00  0.00     0.000 HD 
ENDROOT
BRANCH   3   5
HETATM    5  C   UNL     1      -8.490  14.875  66.905  1.00  0.00    -0.223 C  
HETATM    6  N   UNL     1      -7.787  11.085  66.899  1.00  0.00    -0.133 NA 
HETATM    7  N   UNL     1      -9.558  14.139  67.370  1.00  0.00    -0.224 N  
HETATM    8  O   UNL     1      -7.328  14.546  67.152  1.00  0.00    -0.133 OA 
HETATM    9  C   UNL     1      -8.477  11.886  67.386  1.00  0.00    -0.166 C  
HETATM   10  C   UNL     1      -9.391  12.835  68.054  1.00  0.00    -0.213 C  
HETATM   11  C   UNL     1     -10.893  14.627  67.597  1.00  0.00    -0.284 C  
HETATM   12  C   UNL     1     -10.825  12.252  68.065  1.00  0.00    -0.253 C  
HETATM   13  C   UNL     1     -12.074  14.194  66.797  1.00  0.00    -0.474 C  
HETATM   14  C   UNL     1     -11.728  13.458  68.067  1.00  0.00    -0.391 C  
ENDBRANCH   3   5
BRANCH   3  15
HETATM   15  C   UNL     1      -8.717  17.480  66.883  1.00  0.00    -0.269 C  
HETATM   16  C   UNL     1      -9.134  20.429  67.153  1.00  0.00    -0.489 C  
HETATM   17  C   UNL     1      -7.053  19.567  68.245  1.00  0.00    -0.330 C  
HETATM   18  C   UNL     1      -7.864  18.535  66.107  1.00  0.00    -0.235 C  
HETATM   19  C   UNL     1      -9.972  19.426  67.961  1.00  0.00    -0.387 C  
HETATM   20  C   UNL     1      -7.882  18.552  69.049  1.00  0.00    -0.153 C  
HETATM   21  C   UNL     1     -10.108  18.116  67.163  1.00  0.00    -0.358 C  
HETATM   22  C   UNL     1      -8.012  17.241  68.249  1.00  0.00    -0.244 C  
HETATM   23  O   UNL     1     -11.268  19.963  68.192  1.00  0.00     0.037 OA 
HETATM   24  C   UNL     1      -9.279  19.133  69.301  1.00  0.00    -0.085 C  
HETATM   25  H   UNL     1     -11.786  19.343  68.691  1.00  0.00     0.000 HD 
HETATM   26  C   UNL     1      -7.736  19.849  66.899  1.00  0.00    -0.317 C  
ENDBRANCH   3  15
TORSDOF 2
ENDMDL
MODEL      155
REMARK 921   NORMALIZED FREE ENERGY PREDICTED BY IDOCK:   -3.98 KCAL/MOL
REMARK 922        TOTAL FREE ENERGY PREDICTED BY IDOCK:   -4.90 KCAL/MOL
REMARK 923 INTER-LIGAND FREE ENERGY PREDICTED BY IDOCK:   -4.43 KCAL/MOL
REMARK 924 INTRA-LIGAND FREE ENERGY PREDICTED BY IDOCK:   -0.47 KCAL/MOL
REMARK 927      BINDING AFFINITY PREDICTED BY RF-SCORE:    0.00 PKD
ROOT
HETATM    1  N   UNL     1      -7.726  10.413  69.294  1.00  0.00    -0.127 NA 
HETATM    2  H1  UNL     1      -7.903  10.753  68.348  1.00  0.00     0.000 HD 
HETATM    3  C   UNL     1      -8.795   9.440  69.618  1.00  0.00    -0.172 C  
HETATM    4  H2  UNL     1      -6.788  10.030  69.412  1.00  0.00     0.000 HD 
ENDROOT
BRANCH   3   5
HETATM    5  C   UNL     1      -8.525   8.922  71.063  1.00  0.00    -0.198 C  
HETATM    6  N   UNL     1      -7.745   5.889  73.311  1.00  0.00    -0.098 NA 
HETATM    7  N   UNL     1      -9.610   8.528  71.814  1.00  0.00    -0.239 N  
HETATM    8  O   UNL     1      -7.379   8.872  71.516  1.00  0.00    -0.174 OA 
HETATM    9  C   UNL     1      -8.488   6.779  73.201  1.00  0.00    -0.118 C  
HETATM   10  C   UNL     1      -9.472   7.879  73.139  1.00  0.00    -0.278 C  
HETATM   11  C   UNL     1     -10.969   8.972  71.642  1.00  0.00    -0.365 C  
HETATM   12  C   UNL     1     -10.889   7.322  73.413  1.00  0.00    -0.370 C  
HETATM   13  C   UNL     1     -12.074   8.081  71.186  1.00  0.00    -0.284 C  
HETATM   14  C   UNL     1     -11.814   8.244  72.662  1.00  0.00    -0.382 C  
ENDBRANCH   3   5
BRANCH   3  15
HETATM   15  C   UNL     1      -8.889   8.291  68.551  1.00  0.00    -0.137 C  
HETATM   16  C   UNL     1      -8.089   5.605  67.510  1.00  0.00    -0.102 C  
HETATM   17  C   UNL     1      -8.456   7.339  65.743  1.00  0.00    -0.148 C  
HETATM   18  C   UNL     1      -7.475   7.996  67.956  1.00  0.00    -0.097 C  
HETATM   19  C   UNL     1      -9.502   5.862  68.056  1.00  0.00    -0.108 C  
HETATM   20  C   UNL     1      -9.868   7.611  66.288  1.00  0.00    -0.080 C  
HETATM   21  C   UNL     1      -9.440   6.960  69.134  1.00  0.00    -0.142 C  
HETATM   22  C   UNL     1      -9.802   8.713  67.365  1.00  0.00    -0.249 C  
HETATM   23  O   UNL     1     -10.013   4.670  68.638  1.00  0.00    -0.144 OA 
HETATM   24  C   UNL     1     -10.421   6.325  66.914  1.00  0.00    -0.337 C  
HETATM   25  H   UNL     1     -10.887   4.830  68.975  1.00  0.00     0.000 HD 
HETATM   26  C   UNL     1      -7.532   6.891  66.885  1.00  0.00    -0.083 C  
ENDBRANCH   3  15
TORSDOF 2
ENDMDL
MODEL      156
REMARK 921   NORMALIZED FREE ENERGY PREDICTED BY IDOCK:   -3.98 KCAL/MOL
REMARK 922        TOTAL FREE ENERGY PREDICTED BY IDOCK:   -4.90 KCAL/MOL
REMARK 923 INTER-LIGAND FREE ENERGY PREDICTED BY IDOCK:   -4.86 KCAL/MOL
REMARK 924 INTRA-LIGAND FREE ENERGY PREDICTED BY IDOCK:   -0.04 KCAL/MOL
REMARK 927      BINDING AFFINITY PREDICTED BY RF-SCORE:    0.00 PKD
ROOT
HETATM    1  N   UNL     1     -10.167  15.430  66.362  1.00  0.00    -0.274 NA 
HETATM    2  H1  UNL     1      -9.456  15.248  65.654  1.00  0.00     0.000 HD 
HETATM    3  C   UNL     1      -9.659  14.886  67.644  1.00  0.00    -0.200 C  
HETATM    4  H2  UNL     1     -10.430  16.413  66.422  1.00  0.00     0.000 HD 
ENDROOT
BRANCH   3   5
HETATM    5  C   UNL     1     -10.746  15.163  68.726  1.00  0.00    -0.239 C  
HETATM    6  N   UNL     1     -11.505  15.781  72.454  1.00  0.00    -0.374 NA 
HETATM    7  N   UNL     1     -11.335  14.075  69.332  1.00  0.00    -0.265 N  
HETATM    8  O   UNL     1     -11.069  16.315  69.022  1.00  0.00    -0.305 OA 
HETATM    9  C   UNL     1     -11.814  15.105  71.558  1.00  0.00    -0.377 C  
HETATM   10  C   UNL     1     -12.267  14.207  70.477  1.00  0.00    -0.361 C  
HETATM   11  C   UNL     1     -11.442  12.749  68.782  1.00  0.00    -0.304 C  
HETATM   12  C   UNL     1     -12.375  12.760  71.016  1.00  0.00    -0.316 C  
HETATM   13  C   UNL     1     -10.729  11.565  69.342  1.00  0.00    -0.118 C  
HETATM   14  C   UNL     1     -12.124  11.885  69.817  1.00  0.00    -0.321 C  
ENDBRANCH   3   5
BRANCH   3  15
HETATM   15  C   UNL     1      -8.249  15.471  68.014  1.00  0.00    -0.146 C  
HETATM   16  C   UNL     1      -6.320  16.620  69.988  1.00  0.00     0.002 C  
HETATM   17  C   UNL     1      -6.187  17.623  67.698  1.00  0.00    -0.172 C  
HETATM   18  C   UNL     1      -8.405  16.901  68.622  1.00  0.00    -0.261 C  
HETATM   19  C   UNL     1      -6.111  15.222  69.387  1.00  0.00    -0.117 C  
HETATM   20  C   UNL     1      -5.988  16.226  67.087  1.00  0.00    -0.128 C  
HETATM   21  C   UNL     1      -7.479  14.603  69.047  1.00  0.00    -0.136 C  
HETATM   22  C   UNL     1      -7.360  15.612  66.744  1.00  0.00     0.010 C  
HETATM   23  O   UNL     1      -5.448  14.390  70.331  1.00  0.00    -0.102 OA 
HETATM   24  C   UNL     1      -5.271  15.330  68.104  1.00  0.00    -0.125 C  
HETATM   25  H   UNL     1      -5.319  13.526  69.959  1.00  0.00     0.000 HD 
HETATM   26  C   UNL     1      -7.039  17.518  68.972  1.00  0.00    -0.234 C  
ENDBRANCH   3  15
TORSDOF 2
ENDMDL
MODEL      157
REMARK 921   NORMALIZED FREE ENERGY PREDICTED BY IDOCK:   -3.96 KCAL/MOL
REMARK 922        TOTAL FREE ENERGY PREDICTED BY IDOCK:   -4.88 KCAL/MOL
REMARK 923 INTER-LIGAND FREE ENERGY PREDICTED BY IDOCK:   -5.81 KCAL/MOL
REMARK 924 INTRA-LIGAND FREE ENERGY PREDICTED BY IDOCK:    0.93 KCAL/MOL
REMARK 927      BINDING AFFINITY PREDICTED BY RF-SCORE:    0.00 PKD
ROOT
HETATM    1  N   UNL     1      -9.195   9.419  71.285  1.00  0.00    -0.312 NA 
HETATM    2  H1  UNL     1      -8.236   9.095  71.166  1.00  0.00     0.000 HD 
HETATM    3  C   UNL     1      -9.591  10.093  70.027  1.00  0.00    -0.063 C  
HETATM    4  H2  UNL     1      -9.837   8.675  71.558  1.00  0.00     0.000 HD 
ENDROOT
BRANCH   3   5
HETATM    5  C   UNL     1     -11.057  10.589  70.209  1.00  0.00    -0.285 C  
HETATM    6  N   UNL     1     -13.507  12.728  72.278  1.00  0.00    -0.558 NA 
HETATM    7  N   UNL     1     -11.897   9.824  70.988  1.00  0.00    -0.328 N  
HETATM    8  O   UNL     1     -11.449  11.626  69.670  1.00  0.00    -0.277 OA 
HETATM    9  C   UNL     1     -13.363  11.652  71.857  1.00  0.00    -0.298 C  
HETATM   10  C   UNL     1     -13.263  10.265  71.359  1.00  0.00    -0.370 C  
HETATM   11  C   UNL     1     -11.764   8.416  71.253  1.00  0.00    -0.285 C  
HETATM   12  C   UNL     1     -13.661   9.280  72.485  1.00  0.00    -0.475 C  
HETATM   13  C   UNL     1     -11.447   7.858  72.599  1.00  0.00    -0.454 C  
HETATM   14  C   UNL     1     -12.887   8.024  72.185  1.00  0.00    -0.269 C  
ENDBRANCH   3   5
BRANCH   3  15
HETATM   15  C   UNL     1      -9.398   9.163  68.775  1.00  0.00    -0.139 C  
HETATM   16  C   UNL     1      -9.317   8.725  65.819  1.00  0.00    -0.259 C  
HETATM   17  C   UNL     1     -10.323   6.840  67.123  1.00  0.00    -0.327 C  
HETATM   18  C   UNL     1     -10.673   9.209  67.873  1.00  0.00    -0.224 C  
HETATM   19  C   UNL     1      -8.044   8.638  66.675  1.00  0.00    -0.100 C  
HETATM   20  C   UNL     1      -9.057   6.753  67.992  1.00  0.00    -0.119 C  
HETATM   21  C   UNL     1      -8.185   9.569  67.893  1.00  0.00    -0.114 C  
HETATM   22  C   UNL     1      -9.203   7.683  69.213  1.00  0.00    -0.145 C  
HETATM   23  O   UNL     1      -6.922   9.049  65.905  1.00  0.00    -0.085 OA 
HETATM   24  C   UNL     1      -7.846   7.193  67.161  1.00  0.00    -0.110 C  
HETATM   25  H   UNL     1      -6.135   8.995  66.435  1.00  0.00     0.000 HD 
HETATM   26  C   UNL     1     -10.531   8.287  66.648  1.00  0.00    -0.217 C  
ENDBRANCH   3  15
TORSDOF 2
ENDMDL
MODEL      158
REMARK 921   NORMALIZED FREE ENERGY PREDICTED BY IDOCK:   -3.92 KCAL/MOL
REMARK 922        TOTAL FREE ENERGY PREDICTED BY IDOCK:   -4.84 KCAL/MOL
REMARK 923 INTER-LIGAND FREE ENERGY PREDICTED BY IDOCK:   -4.94 KCAL/MOL
REMARK 924 INTRA-LIGAND FREE ENERGY PREDICTED BY IDOCK:    0.10 KCAL/MOL
REMARK 927      BINDING AFFINITY PREDICTED BY RF-SCORE:    0.00 PKD
ROOT
HETATM    1  N   UNL     1      -7.934  13.629  68.813  1.00  0.00    -0.305 NA 
HETATM    2  H1  UNL     1      -7.256  12.879  68.952  1.00  0.00     0.000 HD 
HETATM    3  C   UNL     1      -8.164  13.748  67.354  1.00  0.00    -0.184 C  
HETATM    4  H2  UNL     1      -8.794  13.493  69.343  1.00  0.00     0.000 HD 
ENDROOT
BRANCH   3   5
HETATM    5  C   UNL     1      -9.199  14.894  67.142  1.00  0.00    -0.220 C  
HETATM    6  N   UNL     1     -11.243  16.970  64.618  1.00  0.00    -0.972 NA 
HETATM    7  N   UNL     1      -8.713  16.174  66.996  1.00  0.00    -0.189 N  
HETATM    8  O   UNL     1     -10.409  14.660  67.112  1.00  0.00    -0.261 OA 
HETATM    9  C   UNL     1     -10.506  17.085  65.513  1.00  0.00    -0.166 C  
HETATM   10  C   UNL     1      -9.581  17.322  66.639  1.00  0.00    -0.276 C  
HETATM   11  C   UNL     1      -7.452  16.666  67.484  1.00  0.00    -0.153 C  
HETATM   12  C   UNL     1      -8.568  18.428  66.254  1.00  0.00    -0.215 C  
HETATM   13  C   UNL     1      -6.329  17.082  66.595  1.00  0.00    -0.247 C  
HETATM   14  C   UNL     1      -7.333  18.111  67.054  1.00  0.00    -0.226 C  
ENDBRANCH   3   5
BRANCH   3  15
HETATM   15  C   UNL     1      -8.605  12.383  66.714  1.00  0.00    -0.129 C  
HETATM   16  C   UNL     1     -10.717  10.490  65.766  1.00  0.00    -0.055 C  
HETATM   17  C   UNL     1      -8.753   9.394  66.864  1.00  0.00    -0.137 C  
HETATM   18  C   UNL     1      -9.564  11.622  67.685  1.00  0.00    -0.184 C  
HETATM   19  C   UNL     1      -9.771  11.193  64.779  1.00  0.00    -0.257 C  
HETATM   20  C   UNL     1      -7.798  10.101  65.888  1.00  0.00    -0.132 C  
HETATM   21  C   UNL     1      -9.349  12.555  65.360  1.00  0.00     0.210 C  
HETATM   22  C   UNL     1      -7.374  11.462  66.475  1.00  0.00    -0.063 C  
HETATM   23  O   UNL     1     -10.442  11.406  63.544  1.00  0.00    -0.359 OA 
HETATM   24  C   UNL     1      -8.521  10.328  64.555  1.00  0.00    -0.183 C  
HETATM   25  H   UNL     1      -9.858  11.840  62.934  1.00  0.00     0.000 HD 
HETATM   26  C   UNL     1      -9.996  10.264  67.102  1.00  0.00    -0.243 C  
ENDBRANCH   3  15
TORSDOF 2
ENDMDL
MODEL      159
REMARK 921   NORMALIZED FREE ENERGY PREDICTED BY IDOCK:   -3.91 KCAL/MOL
REMARK 922        TOTAL FREE ENERGY PREDICTED BY IDOCK:   -4.83 KCAL/MOL
REMARK 923 INTER-LIGAND FREE ENERGY PREDICTED BY IDOCK:   -4.29 KCAL/MOL
REMARK 924 INTRA-LIGAND FREE ENERGY PREDICTED BY IDOCK:   -0.54 KCAL/MOL
REMARK 927      BINDING AFFINITY PREDICTED BY RF-SCORE:    0.00 PKD
ROOT
HETATM    1  N   UNL     1      -7.080  10.798  65.474  1.00  0.00    -0.347 NA 
HETATM    2  H1  UNL     1      -7.595  10.042  65.022  1.00  0.00     0.000 HD 
HETATM    3  C   UNL     1      -7.945  11.340  66.547  1.00  0.00    -0.145 C  
HETATM    4  H2  UNL     1      -6.161  10.510  65.809  1.00  0.00     0.000 HD 
ENDROOT
BRANCH   3   5
HETATM    5  C   UNL     1      -7.158  12.494  67.237  1.00  0.00    -0.112 C  
HETATM    6  N   UNL     1      -5.920  14.028  70.549  1.00  0.00    -0.174 NA 
HETATM    7  N   UNL     1      -7.861  13.625  67.590  1.00  0.00    -0.159 N  
HETATM    8  O   UNL     1      -5.948  12.398  67.452  1.00  0.00    -0.134 OA 
HETATM    9  C   UNL     1      -6.508  14.297  69.580  1.00  0.00    -0.140 C  
HETATM   10  C   UNL     1      -7.260  14.723  68.384  1.00  0.00    -0.114 C  
HETATM   11  C   UNL     1      -9.087  14.085  66.993  1.00  0.00    -0.246 C  
HETATM   12  C   UNL     1      -8.487  15.563  68.815  1.00  0.00    -0.190 C  
HETATM   13  C   UNL     1     -10.392  14.117  67.712  1.00  0.00    -0.242 C  
HETATM   14  C   UNL     1      -9.506  15.337  67.730  1.00  0.00    -0.197 C  
ENDBRANCH   3   5
BRANCH   3  15
HETATM   15  C   UNL     1      -8.414  10.222  67.546  1.00  0.00    -0.118 C  
HETATM   16  C   UNL     1     -10.521   8.903  69.208  1.00  0.00    -0.234 C  
HETATM   17  C   UNL     1      -8.247   8.949  70.254  1.00  0.00    -0.134 C  
HETATM   18  C   UNL     1      -9.012  10.872  68.835  1.00  0.00    -0.146 C  
HETATM   19  C   UNL     1      -9.935   8.214  67.966  1.00  0.00    -0.184 C  
HETATM   20  C   UNL     1      -7.650   8.270  69.011  1.00  0.00    -0.089 C  
HETATM   21  C   UNL     1      -9.499   9.283  66.948  1.00  0.00    -0.211 C  
HETATM   22  C   UNL     1      -7.211   9.344  67.996  1.00  0.00    -0.078 C  
HETATM   23  O   UNL     1     -10.922   7.383  67.370  1.00  0.00    -0.506 OA 
HETATM   24  C   UNL     1      -8.714   7.371  68.369  1.00  0.00    -0.123 C  
HETATM   25  H   UNL     1     -10.560   6.957  66.602  1.00  0.00     0.000 HD 
HETATM   26  C   UNL     1      -9.458   9.804  69.851  1.00  0.00    -0.264 C  
ENDBRANCH   3  15
TORSDOF 2
ENDMDL
MODEL      160
REMARK 921   NORMALIZED FREE ENERGY PREDICTED BY IDOCK:   -3.88 KCAL/MOL
REMARK 922        TOTAL FREE ENERGY PREDICTED BY IDOCK:   -4.80 KCAL/MOL
REMARK 923 INTER-LIGAND FREE ENERGY PREDICTED BY IDOCK:   -5.58 KCAL/MOL
REMARK 924 INTRA-LIGAND FREE ENERGY PREDICTED BY IDOCK:    0.78 KCAL/MOL
REMARK 927      BINDING AFFINITY PREDICTED BY RF-SCORE:    0.00 PKD
ROOT
HETATM    1  N   UNL     1      -9.473   9.222  66.356  1.00  0.00    -0.198 NA 
HETATM    2  H1  UNL     1      -9.235   8.276  66.058  1.00  0.00     0.000 HD 
HETATM    3  C   UNL     1     -10.614   9.111  67.296  1.00  0.00    -0.233 C  
HETATM    4  H2  UNL     1      -8.681   9.730  66.748  1.00  0.00     0.000 HD 
ENDROOT
BRANCH   3   5
HETATM    5  C   UNL     1     -10.979  10.556  67.750  1.00  0.00    -0.313 C  
HETATM    6  N   UNL     1     -11.972  14.123  66.678  1.00  0.00    -0.427 NA 
HETATM    7  N   UNL     1      -9.949  11.459  67.900  1.00  0.00    -0.174 N  
HETATM    8  O   UNL     1     -12.149  10.876  67.972  1.00  0.00    -0.563 OA 
HETATM    9  C   UNL     1     -11.198  13.546  67.329  1.00  0.00    -0.298 C  
HETATM   10  C   UNL     1     -10.180  12.896  68.178  1.00  0.00    -0.239 C  
HETATM   11  C   UNL     1      -8.571  11.139  68.163  1.00  0.00    -0.140 C  
HETATM   12  C   UNL     1      -8.797  13.538  67.914  1.00  0.00    -0.190 C  
HETATM   13  C   UNL     1      -7.468  11.381  67.188  1.00  0.00    -0.138 C  
HETATM   14  C   UNL     1      -7.805  12.442  68.205  1.00  0.00    -0.150 C  
ENDBRANCH   3   5
BRANCH   3  15
HETATM   15  C   UNL     1     -10.299   8.143  68.492  1.00  0.00    -0.230 C  
HETATM   16  C   UNL     1      -8.897   7.506  71.055  1.00  0.00    -0.146 C  
HETATM   17  C   UNL     1      -9.127   5.570  69.485  1.00  0.00    -0.143 C  
HETATM   18  C   UNL     1      -8.761   7.880  68.578  1.00  0.00    -0.131 C  
HETATM   19  C   UNL     1     -10.418   7.724  71.008  1.00  0.00    -0.203 C  
HETATM   20  C   UNL     1     -10.648   5.787  69.424  1.00  0.00    -0.383 C  
HETATM   21  C   UNL     1     -10.758   8.701  69.868  1.00  0.00    -0.227 C  
HETATM   22  C   UNL     1     -10.985   6.762  68.278  1.00  0.00    -0.270 C  
HETATM   23  O   UNL     1     -10.859   8.279  72.240  1.00  0.00    -0.289 OA 
HETATM   24  C   UNL     1     -11.125   6.383  70.754  1.00  0.00    -0.365 C  
HETATM   25  H   UNL     1     -11.799   8.414  72.211  1.00  0.00     0.000 HD 
HETATM   26  C   UNL     1      -8.418   6.911  69.724  1.00  0.00    -0.133 C  
ENDBRANCH   3  15
TORSDOF 2
ENDMDL
MODEL      161
REMARK 921   NORMALIZED FREE ENERGY PREDICTED BY IDOCK:   -3.87 KCAL/MOL
REMARK 922        TOTAL FREE ENERGY PREDICTED BY IDOCK:   -4.79 KCAL/MOL
REMARK 923 INTER-LIGAND FREE ENERGY PREDICTED BY IDOCK:   -4.26 KCAL/MOL
REMARK 924 INTRA-LIGAND FREE ENERGY PREDICTED BY IDOCK:   -0.53 KCAL/MOL
REMARK 927      BINDING AFFINITY PREDICTED BY RF-SCORE:    0.00 PKD
ROOT
HETATM    1  N   UNL     1     -10.273  10.975  69.016  1.00  0.00    -0.262 NA 
HETATM    2  H1  UNL     1     -10.895  11.327  69.743  1.00  0.00     0.000 HD 
HETATM    3  C   UNL     1      -9.316  10.049  69.667  1.00  0.00    -0.220 C  
HETATM    4  H2  UNL     1     -10.771  10.549  68.235  1.00  0.00     0.000 HD 
ENDROOT
BRANCH   3   5
HETATM    5  C   UNL     1      -8.365   9.512  68.556  1.00  0.00    -0.118 C  
HETATM    6  N   UNL     1      -7.242   6.480  66.457  1.00  0.00    -0.072 NA 
HETATM    7  N   UNL     1      -7.137   9.024  68.947  1.00  0.00    -0.068 N  
HETATM    8  O   UNL     1      -8.699   9.529  67.370  1.00  0.00    -0.125 OA 
HETATM    9  C   UNL     1      -6.824   7.320  67.148  1.00  0.00    -0.077 C  
HETATM   10  C   UNL     1      -6.210   8.350  68.009  1.00  0.00    -0.052 C  
HETATM   11  C   UNL     1      -6.426   9.377  70.148  1.00  0.00    -0.058 C  
HETATM   12  C   UNL     1      -5.171   7.690  68.947  1.00  0.00    -0.019 C  
HETATM   13  C   UNL     1      -6.177   8.425  71.268  1.00  0.00    -0.040 C  
HETATM   14  C   UNL     1      -5.151   8.565  70.172  1.00  0.00    -0.022 C  
ENDBRANCH   3   5
BRANCH   3  15
HETATM   15  C   UNL     1     -10.048   8.911  70.465  1.00  0.00    -0.248 C  
HETATM   16  C   UNL     1     -10.039   6.286  71.895  1.00  0.00    -0.205 C  
HETATM   17  C   UNL     1     -12.099   6.728  70.544  1.00  0.00    -0.332 C  
HETATM   18  C   UNL     1      -9.870   7.544  69.731  1.00  0.00    -0.180 C  
HETATM   19  C   UNL     1     -10.251   7.607  72.651  1.00  0.00    -0.265 C  
HETATM   20  C   UNL     1     -12.314   8.057  71.287  1.00  0.00    -0.290 C  
HETATM   21  C   UNL     1      -9.513   8.739  71.914  1.00  0.00    -0.362 C  
HETATM   22  C   UNL     1     -11.577   9.189  70.545  1.00  0.00    -0.238 C  
HETATM   23  O   UNL     1      -9.728   7.493  73.967  1.00  0.00    -0.381 OA 
HETATM   24  C   UNL     1     -11.752   7.934  72.709  1.00  0.00    -0.338 C  
HETATM   25  H   UNL     1      -9.860   8.310  74.434  1.00  0.00     0.000 HD 
HETATM   26  C   UNL     1     -10.599   6.407  70.471  1.00  0.00    -0.291 C  
ENDBRANCH   3  15
TORSDOF 2
ENDMDL
MODEL      162
REMARK 921   NORMALIZED FREE ENERGY PREDICTED BY IDOCK:   -3.87 KCAL/MOL
REMARK 922        TOTAL FREE ENERGY PREDICTED BY IDOCK:   -4.78 KCAL/MOL
REMARK 923 INTER-LIGAND FREE ENERGY PREDICTED BY IDOCK:   -5.04 KCAL/MOL
REMARK 924 INTRA-LIGAND FREE ENERGY PREDICTED BY IDOCK:    0.27 KCAL/MOL
REMARK 927      BINDING AFFINITY PREDICTED BY RF-SCORE:    0.00 PKD
ROOT
HETATM    1  N   UNL     1     -11.525   6.566  67.233  1.00  0.00    -0.743 NA 
HETATM    2  H1  UNL     1     -11.859   7.530  67.242  1.00  0.00     0.000 HD 
HETATM    3  C   UNL     1     -10.263   6.532  68.008  1.00  0.00    -0.164 C  
HETATM    4  H2  UNL     1     -12.219   5.900  67.570  1.00  0.00     0.000 HD 
ENDROOT
BRANCH   3   5
HETATM    5  C   UNL     1      -9.752   5.060  67.994  1.00  0.00    -0.151 C  
HETATM    6  N   UNL     1      -6.960   2.602  69.007  1.00  0.00    -0.043 NA 
HETATM    7  N   UNL     1      -8.985   4.660  66.921  1.00  0.00    -0.111 N  
HETATM    8  O   UNL     1     -10.030   4.282  68.909  1.00  0.00    -0.113 OA 
HETATM    9  C   UNL     1      -7.579   2.955  68.085  1.00  0.00    -0.056 C  
HETATM   10  C   UNL     1      -8.317   3.338  66.866  1.00  0.00    -0.097 C  
HETATM   11  C   UNL     1      -8.993   5.245  65.606  1.00  0.00    -0.158 C  
HETATM   12  C   UNL     1      -7.327   3.489  65.686  1.00  0.00    -0.076 C  
HETATM   13  C   UNL     1      -7.836   5.989  65.029  1.00  0.00    -0.108 C  
HETATM   14  C   UNL     1      -7.965   4.507  64.778  1.00  0.00    -0.095 C  
ENDBRANCH   3   5
BRANCH   3  15
HETATM   15  C   UNL     1     -10.445   7.115  69.456  1.00  0.00    -0.236 C  
HETATM   16  C   UNL     1      -9.565   8.877  71.705  1.00  0.00    -0.363 C  
HETATM   17  C   UNL     1     -10.523   6.678  72.419  1.00  0.00    -0.232 C  
HETATM   18  C   UNL     1      -9.170   6.829  70.312  1.00  0.00    -0.156 C  
HETATM   19  C   UNL     1     -10.845   9.176  70.909  1.00  0.00    -0.278 C  
HETATM   20  C   UNL     1     -11.804   6.963  71.617  1.00  0.00    -0.363 C  
HETATM   21  C   UNL     1     -10.685   8.650  69.471  1.00  0.00    -0.189 C  
HETATM   22  C   UNL     1     -11.641   6.432  70.179  1.00  0.00    -0.449 C  
HETATM   23  O   UNL     1     -11.065  10.580  70.866  1.00  0.00    -0.350 OA 
HETATM   24  C   UNL     1     -12.042   8.477  71.573  1.00  0.00    -0.351 C  
HETATM   25  H   UNL     1     -11.856  10.764  70.374  1.00  0.00     0.000 HD 
HETATM   26  C   UNL     1      -9.323   7.363  71.748  1.00  0.00    -0.161 C  
ENDBRANCH   3  15
TORSDOF 2
ENDMDL
MODEL      163
REMARK 921   NORMALIZED FREE ENERGY PREDICTED BY IDOCK:   -3.87 KCAL/MOL
REMARK 922        TOTAL FREE ENERGY PREDICTED BY IDOCK:   -4.78 KCAL/MOL
REMARK 923 INTER-LIGAND FREE ENERGY PREDICTED BY IDOCK:   -5.57 KCAL/MOL
REMARK 924 INTRA-LIGAND FREE ENERGY PREDICTED BY IDOCK:    0.80 KCAL/MOL
REMARK 927      BINDING AFFINITY PREDICTED BY RF-SCORE:    0.00 PKD
ROOT
HETATM    1  N   UNL     1      -8.377  10.033  70.460  1.00  0.00    -0.383 NA 
HETATM    2  H1  UNL     1      -8.284  10.004  71.475  1.00  0.00     0.000 HD 
HETATM    3  C   UNL     1      -8.380   8.632  69.979  1.00  0.00    -0.124 C  
HETATM    4  H2  UNL     1      -9.189  10.565  70.148  1.00  0.00     0.000 HD 
ENDROOT
BRANCH   3   5
HETATM    5  C   UNL     1      -8.521   8.676  68.428  1.00  0.00    -0.131 C  
HETATM    6  N   UNL     1      -7.322  10.257  65.123  1.00  0.00    -0.141 NA 
HETATM    7  N   UNL     1      -9.443   9.549  67.895  1.00  0.00    -0.132 N  
HETATM    8  O   UNL     1      -7.832   7.951  67.706  1.00  0.00    -0.118 OA 
HETATM    9  C   UNL     1      -8.289  10.036  65.733  1.00  0.00    -0.132 C  
HETATM   10  C   UNL     1      -9.564   9.793  66.438  1.00  0.00    -0.200 C  
HETATM   11  C   UNL     1     -10.612  10.062  68.560  1.00  0.00    -0.215 C  
HETATM   12  C   UNL     1     -10.449  11.060  66.360  1.00  0.00    -0.312 C  
HETATM   13  C   UNL     1     -10.784  11.494  68.937  1.00  0.00    -0.245 C  
HETATM   14  C   UNL     1     -11.297  11.011  67.604  1.00  0.00    -0.355 C  
ENDBRANCH   3   5
BRANCH   3  15
HETATM   15  C   UNL     1      -9.492   7.771  70.681  1.00  0.00    -0.162 C  
HETATM   16  C   UNL     1     -10.922   6.826  73.130  1.00  0.00    -0.279 C  
HETATM   17  C   UNL     1     -10.625   5.082  71.359  1.00  0.00    -0.161 C  
HETATM   18  C   UNL     1      -8.843   6.809  71.727  1.00  0.00    -0.128 C  
HETATM   19  C   UNL     1     -11.609   7.745  72.109  1.00  0.00    -0.317 C  
HETATM   20  C   UNL     1     -11.301   5.999  70.327  1.00  0.00    -0.336 C  
HETATM   21  C   UNL     1     -10.550   8.631  71.428  1.00  0.00    -0.334 C  
HETATM   22  C   UNL     1     -10.237   6.882  69.645  1.00  0.00    -0.206 C  
HETATM   23  O   UNL     1     -12.551   8.578  72.772  1.00  0.00    -0.580 OA 
HETATM   24  C   UNL     1     -12.320   6.895  71.043  1.00  0.00    -0.401 C  
HETATM   25  H   UNL     1     -12.975   9.146  72.141  1.00  0.00     0.000 HD 
HETATM   26  C   UNL     1      -9.902   5.929  72.417  1.00  0.00    -0.182 C  
ENDBRANCH   3  15
TORSDOF 2
ENDMDL
MODEL      164
REMARK 921   NORMALIZED FREE ENERGY PREDICTED BY IDOCK:   -3.86 KCAL/MOL
REMARK 922        TOTAL FREE ENERGY PREDICTED BY IDOCK:   -4.77 KCAL/MOL
REMARK 923 INTER-LIGAND FREE ENERGY PREDICTED BY IDOCK:   -4.66 KCAL/MOL
REMARK 924 INTRA-LIGAND FREE ENERGY PREDICTED BY IDOCK:   -0.11 KCAL/MOL
REMARK 927      BINDING AFFINITY PREDICTED BY RF-SCORE:    0.00 PKD
ROOT
HETATM    1  N   UNL     1      -6.863   6.281  70.443  1.00  0.00    -0.053 NA 
HETATM    2  H1  UNL     1      -6.941   5.651  71.242  1.00  0.00     0.000 HD 
HETATM    3  C   UNL     1      -8.165   6.260  69.737  1.00  0.00    -0.125 C  
HETATM    4  H2  UNL     1      -6.565   7.221  70.703  1.00  0.00     0.000 HD 
ENDROOT
BRANCH   3   5
HETATM    5  C   UNL     1      -8.045   7.221  68.517  1.00  0.00    -0.125 C  
HETATM    6  N   UNL     1      -9.897   9.256  65.817  1.00  0.00    -0.288 NA 
HETATM    7  N   UNL     1      -7.942   6.655  67.266  1.00  0.00    -0.115 N  
HETATM    8  O   UNL     1      -8.039   8.444  68.670  1.00  0.00    -0.118 OA 
HETATM    9  C   UNL     1      -9.055   8.462  65.947  1.00  0.00    -0.171 C  
HETATM   10  C   UNL     1      -7.974   7.459  66.021  1.00  0.00    -0.115 C  
HETATM   11  C   UNL     1      -7.449   5.336  66.967  1.00  0.00    -0.087 C  
HETATM   12  C   UNL     1      -8.179   6.395  64.915  1.00  0.00    -0.110 C  
HETATM   13  C   UNL     1      -8.304   4.241  66.427  1.00  0.00    -0.105 C  
HETATM   14  C   UNL     1      -7.560   5.140  65.472  1.00  0.00    -0.086 C  
ENDBRANCH   3   5
BRANCH   3  15
HETATM   15  C   UNL     1      -9.359   6.614  70.695  1.00  0.00    -0.164 C  
HETATM   16  C   UNL     1     -10.938   8.576  72.306  1.00  0.00    -0.426 C  
HETATM   17  C   UNL     1     -10.706   6.315  73.355  1.00  0.00    -0.281 C  
HETATM   18  C   UNL     1      -8.818   7.269  72.006  1.00  0.00    -0.138 C  
HETATM   19  C   UNL     1     -11.521   7.928  71.041  1.00  0.00    -0.280 C  
HETATM   20  C   UNL     1     -11.278   5.657  72.089  1.00  0.00    -0.288 C  
HETATM   21  C   UNL     1     -10.378   7.602  70.062  1.00  0.00    -0.223 C  
HETATM   22  C   UNL     1     -10.131   5.329  71.114  1.00  0.00    -0.284 C  
HETATM   23  O   UNL     1     -12.423   8.831  70.414  1.00  0.00    -0.359 OA 
HETATM   24  C   UNL     1     -12.254   6.629  71.415  1.00  0.00    -0.378 C  
HETATM   25  H   UNL     1     -12.783   8.430  69.632  1.00  0.00     0.000 HD 
HETATM   26  C   UNL     1      -9.960   7.605  72.982  1.00  0.00    -0.343 C  
ENDBRANCH   3  15
TORSDOF 2
ENDMDL
MODEL      165
REMARK 921   NORMALIZED FREE ENERGY PREDICTED BY IDOCK:   -3.85 KCAL/MOL
REMARK 922        TOTAL FREE ENERGY PREDICTED BY IDOCK:   -4.76 KCAL/MOL
REMARK 923 INTER-LIGAND FREE ENERGY PREDICTED BY IDOCK:   -5.96 KCAL/MOL
REMARK 924 INTRA-LIGAND FREE ENERGY PREDICTED BY IDOCK:    1.21 KCAL/MOL
REMARK 927      BINDING AFFINITY PREDICTED BY RF-SCORE:    0.00 PKD
ROOT
HETATM    1  N   UNL     1     -11.800  12.460  65.518  1.00  0.00    -0.415 NA 
HETATM    2  H1  UNL     1     -12.008  11.742  64.824  1.00  0.00     0.000 HD 
HETATM    3  C   UNL     1     -11.309  11.768  66.732  1.00  0.00    -0.320 C  
HETATM    4  H2  UNL     1     -11.156  13.172  65.176  1.00  0.00     0.000 HD 
ENDROOT
BRANCH   3   5
HETATM    5  C   UNL     1     -10.993  12.865  67.793  1.00  0.00    -0.243 C  
HETATM    6  N   UNL     1     -12.391  15.603  70.119  1.00  0.00    -0.384 NA 
HETATM    7  N   UNL     1     -10.720  14.135  67.337  1.00  0.00    -0.282 N  
HETATM    8  O   UNL     1     -10.984  12.600  68.997  1.00  0.00    -0.238 OA 
HETATM    9  C   UNL     1     -11.593  15.427  69.289  1.00  0.00    -0.339 C  
HETATM   10  C   UNL     1     -10.555  15.293  68.247  1.00  0.00    -0.244 C  
HETATM   11  C   UNL     1     -10.217  14.480  66.033  1.00  0.00    -0.315 C  
HETATM   12  C   UNL     1     -10.618  16.509  67.292  1.00  0.00    -0.285 C  
HETATM   13  C   UNL     1     -11.007  15.236  65.019  1.00  0.00    -0.450 C  
HETATM   14  C   UNL     1     -10.113  15.987  65.973  1.00  0.00    -0.362 C  
ENDBRANCH   3   5
BRANCH   3  15
HETATM   15  C   UNL     1     -10.087  10.831  66.422  1.00  0.00    -0.278 C  
HETATM   16  C   UNL     1      -7.584   9.421  67.250  1.00  0.00    -0.091 C  
HETATM   17  C   UNL     1      -7.548  10.319  64.914  1.00  0.00    -0.119 C  
HETATM   18  C   UNL     1      -8.749  11.579  66.722  1.00  0.00    -0.178 C  
HETATM   19  C   UNL     1      -8.871   8.644  66.932  1.00  0.00    -0.132 C  
HETATM   20  C   UNL     1      -8.841   9.554  64.589  1.00  0.00    -0.250 C  
HETATM   21  C   UNL     1     -10.091   9.523  67.261  1.00  0.00    -0.272 C  
HETATM   22  C   UNL     1     -10.061  10.438  64.917  1.00  0.00    -0.382 C  
HETATM   23  O   UNL     1      -8.924   7.464  67.721  1.00  0.00    -0.128 OA 
HETATM   24  C   UNL     1      -8.898   8.279  65.439  1.00  0.00    -0.116 C  
HETATM   25  H   UNL     1      -9.719   6.983  67.524  1.00  0.00     0.000 HD 
HETATM   26  C   UNL     1      -7.526  10.699  66.403  1.00  0.00    -0.138 C  
ENDBRANCH   3  15
TORSDOF 2
ENDMDL
MODEL      166
REMARK 921   NORMALIZED FREE ENERGY PREDICTED BY IDOCK:   -3.82 KCAL/MOL
REMARK 922        TOTAL FREE ENERGY PREDICTED BY IDOCK:   -4.73 KCAL/MOL
REMARK 923 INTER-LIGAND FREE ENERGY PREDICTED BY IDOCK:   -5.63 KCAL/MOL
REMARK 924 INTRA-LIGAND FREE ENERGY PREDICTED BY IDOCK:    0.90 KCAL/MOL
REMARK 927      BINDING AFFINITY PREDICTED BY RF-SCORE:    0.00 PKD
ROOT
HETATM    1  N   UNL     1      -9.207   9.438  67.247  1.00  0.00    -0.129 NA 
HETATM    2  H1  UNL     1      -8.850   8.484  67.181  1.00  0.00     0.000 HD 
HETATM    3  C   UNL     1     -10.502   9.373  67.963  1.00  0.00    -0.228 C  
HETATM    4  H2  UNL     1      -8.545  10.084  67.677  1.00  0.00     0.000 HD 
ENDROOT
BRANCH   3   5
HETATM    5  C   UNL     1     -11.048  10.829  68.063  1.00  0.00    -0.299 C  
HETATM    6  N   UNL     1     -12.226  13.971  66.166  1.00  0.00    -0.450 NA 
HETATM    7  N   UNL     1     -10.129  11.854  68.116  1.00  0.00    -0.192 N  
HETATM    8  O   UNL     1     -12.260  11.053  68.098  1.00  0.00    -0.578 OA 
HETATM    9  C   UNL     1     -11.485  13.628  66.996  1.00  0.00    -0.343 C  
HETATM   10  C   UNL     1     -10.521  13.282  68.059  1.00  0.00    -0.242 C  
HETATM   11  C   UNL     1      -8.768  11.752  68.572  1.00  0.00    -0.118 C  
HETATM   12  C   UNL     1      -9.179  14.009  67.799  1.00  0.00    -0.195 C  
HETATM   13  C   UNL     1      -7.585  11.915  67.679  1.00  0.00    -0.136 C  
HETATM   14  C   UNL     1      -8.134  13.115  68.411  1.00  0.00    -0.130 C  
ENDBRANCH   3   5
BRANCH   3  15
HETATM   15  C   UNL     1     -10.370   8.660  69.357  1.00  0.00    -0.221 C  
HETATM   16  C   UNL     1      -9.708   6.273  71.031  1.00  0.00    -0.196 C  
HETATM   17  C   UNL     1     -11.662   7.608  71.847  1.00  0.00    -0.328 C  
HETATM   18  C   UNL     1     -11.250   7.370  69.384  1.00  0.00     0.034 C  
HETATM   19  C   UNL     1      -8.834   7.537  71.059  1.00  0.00    -0.146 C  
HETATM   20  C   UNL     1     -10.798   8.879  71.869  1.00  0.00    -0.433 C  
HETATM   21  C   UNL     1      -8.912   8.241  69.692  1.00  0.00    -0.149 C  
HETATM   22  C   UNL     1     -10.882   9.584  70.500  1.00  0.00    -0.352 C  
HETATM   23  O   UNL     1      -7.483   7.177  71.319  1.00  0.00    -0.078 OA 
HETATM   24  C   UNL     1      -9.341   8.492  72.151  1.00  0.00    -0.353 C  
HETATM   25  H   UNL     1      -6.943   7.959  71.336  1.00  0.00     0.000 HD 
HETATM   26  C   UNL     1     -11.166   6.658  70.746  1.00  0.00    -0.366 C  
ENDBRANCH   3  15
TORSDOF 2
ENDMDL
MODEL      167
REMARK 921   NORMALIZED FREE ENERGY PREDICTED BY IDOCK:   -3.82 KCAL/MOL
REMARK 922        TOTAL FREE ENERGY PREDICTED BY IDOCK:   -4.73 KCAL/MOL
REMARK 923 INTER-LIGAND FREE ENERGY PREDICTED BY IDOCK:   -4.41 KCAL/MOL
REMARK 924 INTRA-LIGAND FREE ENERGY PREDICTED BY IDOCK:   -0.32 KCAL/MOL
REMARK 927      BINDING AFFINITY PREDICTED BY RF-SCORE:    0.00 PKD
ROOT
HETATM    1  N   UNL     1      -9.189  18.638  66.625  1.00  0.00    -0.312 NA 
HETATM    2  H1  UNL     1      -8.354  18.951  66.129  1.00  0.00     0.000 HD 
HETATM    3  C   UNL     1      -9.164  17.157  66.635  1.00  0.00    -0.260 C  
HETATM    4  H2  UNL     1      -9.276  19.043  67.557  1.00  0.00     0.000 HD 
ENDROOT
BRANCH   3   5
HETATM    5  C   UNL     1     -10.440  16.679  67.391  1.00  0.00    -0.314 C  
HETATM    6  N   UNL     1     -11.877  14.628  70.323  1.00  0.00    -0.285 NA 
HETATM    7  N   UNL     1     -11.026  15.503  66.976  1.00  0.00    -0.311 N  
HETATM    8  O   UNL     1     -10.909  17.334  68.324  1.00  0.00    -0.365 OA 
HETATM    9  C   UNL     1     -11.967  14.763  69.169  1.00  0.00    -0.282 C  
HETATM   10  C   UNL     1     -12.148  14.869  67.708  1.00  0.00    -0.040 C  
HETATM   11  C   UNL     1     -10.920  14.917  65.666  1.00  0.00    -0.344 C  
HETATM   12  C   UNL     1     -12.219  13.451  67.090  1.00  0.00    -0.306 C  
HETATM   13  C   UNL     1     -10.213  13.633  65.393  1.00  0.00    -0.330 C  
HETATM   14  C   UNL     1     -11.691  13.617  65.690  1.00  0.00    -0.360 C  
ENDBRANCH   3   5
BRANCH   3  15
HETATM   15  C   UNL     1      -7.831  16.595  67.246  1.00  0.00    -0.194 C  
HETATM   16  C   UNL     1      -6.359  14.814  69.144  1.00  0.00    -0.108 C  
HETATM   17  C   UNL     1      -5.309  17.059  68.797  1.00  0.00    -0.133 C  
HETATM   18  C   UNL     1      -7.807  16.831  68.790  1.00  0.00    -0.243 C  
HETATM   19  C   UNL     1      -6.328  14.565  67.628  1.00  0.00    -0.107 C  
HETATM   20  C   UNL     1      -5.283  16.824  67.278  1.00  0.00    -0.167 C  
HETATM   21  C   UNL     1      -7.641  15.072  67.002  1.00  0.00    -0.077 C  
HETATM   22  C   UNL     1      -6.597  17.336  66.654  1.00  0.00    -0.268 C  
HETATM   23  O   UNL     1      -6.202  13.172  67.375  1.00  0.00    -0.251 OA 
HETATM   24  C   UNL     1      -5.144  15.321  67.004  1.00  0.00     0.843 C  
HETATM   25  H   UNL     1      -6.183  13.019  66.438  1.00  0.00     0.000 HD 
HETATM   26  C   UNL     1      -6.500  16.317  69.420  1.00  0.00    -0.197 C  
ENDBRANCH   3  15
TORSDOF 2
ENDMDL
MODEL      168
REMARK 921   NORMALIZED FREE ENERGY PREDICTED BY IDOCK:   -3.82 KCAL/MOL
REMARK 922        TOTAL FREE ENERGY PREDICTED BY IDOCK:   -4.72 KCAL/MOL
REMARK 923 INTER-LIGAND FREE ENERGY PREDICTED BY IDOCK:   -6.71 KCAL/MOL
REMARK 924 INTRA-LIGAND FREE ENERGY PREDICTED BY IDOCK:    1.99 KCAL/MOL
REMARK 927      BINDING AFFINITY PREDICTED BY RF-SCORE:    0.00 PKD
ROOT
HETATM    1  N   UNL     1     -12.649  10.387  69.102  1.00  0.00    -0.472 NA 
HETATM    2  H1  UNL     1     -13.286  10.720  68.379  1.00  0.00     0.000 HD 
HETATM    3  C   UNL     1     -11.272  10.518  68.571  1.00  0.00    -0.274 C  
HETATM    4  H2  UNL     1     -12.778  10.859  69.997  1.00  0.00     0.000 HD 
ENDROOT
BRANCH   3   5
HETATM    5  C   UNL     1     -10.300  10.008  69.676  1.00  0.00    -0.247 C  
HETATM    6  N   UNL     1      -8.244   7.051  71.052  1.00  0.00    -0.116 NA 
HETATM    7  N   UNL     1     -10.854   9.463  70.813  1.00  0.00    -0.277 N  
HETATM    8  O   UNL     1      -9.078  10.094  69.537  1.00  0.00    -0.199 OA 
HETATM    9  C   UNL     1      -9.037   7.841  71.372  1.00  0.00    -0.134 C  
HETATM   10  C   UNL     1     -10.040   8.808  71.864  1.00  0.00    -0.339 C  
HETATM   11  C   UNL     1     -12.170   9.732  71.330  1.00  0.00    -0.397 C  
HETATM   12  C   UNL     1     -11.094   8.069  72.723  1.00  0.00    -0.448 C  
HETATM   13  C   UNL     1     -13.262   8.718  71.374  1.00  0.00    -0.290 C  
HETATM   14  C   UNL     1     -12.353   8.881  72.566  1.00  0.00    -0.325 C  
ENDBRANCH   3   5
BRANCH   3  15
HETATM   15  C   UNL     1     -10.962  11.983  68.095  1.00  0.00    -0.273 C  
HETATM   16  C   UNL     1     -10.095  13.934  66.002  1.00  0.00    -0.324 C  
HETATM   17  C   UNL     1      -9.301  14.467  68.316  1.00  0.00    -0.203 C  
HETATM   18  C   UNL     1      -9.491  12.077  67.577  1.00  0.00    -0.178 C  
HETATM   19  C   UNL     1     -11.545  13.897  66.509  1.00  0.00    -0.369 C  
HETATM   20  C   UNL     1     -10.748  14.422  68.834  1.00  0.00    -0.260 C  
HETATM   21  C   UNL     1     -11.895  12.464  66.949  1.00  0.00    -0.377 C  
HETATM   22  C   UNL     1     -11.093  12.986  69.277  1.00  0.00    -0.194 C  
HETATM   23  O   UNL     1     -12.426  14.288  65.464  1.00  0.00    -0.444 OA 
HETATM   24  C   UNL     1     -11.699  14.847  67.708  1.00  0.00    -0.340 C  
HETATM   25  H   UNL     1     -13.323  14.265  65.778  1.00  0.00     0.000 HD 
HETATM   26  C   UNL     1      -9.142  13.507  67.127  1.00  0.00    -0.232 C  
ENDBRANCH   3  15
TORSDOF 2
ENDMDL
MODEL      169
REMARK 921   NORMALIZED FREE ENERGY PREDICTED BY IDOCK:   -3.82 KCAL/MOL
REMARK 922        TOTAL FREE ENERGY PREDICTED BY IDOCK:   -4.72 KCAL/MOL
REMARK 923 INTER-LIGAND FREE ENERGY PREDICTED BY IDOCK:   -4.14 KCAL/MOL
REMARK 924 INTRA-LIGAND FREE ENERGY PREDICTED BY IDOCK:   -0.59 KCAL/MOL
REMARK 927      BINDING AFFINITY PREDICTED BY RF-SCORE:    0.00 PKD
ROOT
HETATM    1  N   UNL     1      -6.331   7.437  70.213  1.00  0.00    -0.034 NA 
HETATM    2  H1  UNL     1      -6.185   8.237  69.598  1.00  0.00     0.000 HD 
HETATM    3  C   UNL     1      -7.794   7.231  70.328  1.00  0.00    -0.096 C  
HETATM    4  H2  UNL     1      -5.833   6.601  69.907  1.00  0.00     0.000 HD 
ENDROOT
BRANCH   3   5
HETATM    5  C   UNL     1      -8.017   6.009  71.268  1.00  0.00    -0.113 C  
HETATM    6  N   UNL     1      -9.857   2.671  71.842  1.00  0.00    -0.155 NA 
HETATM    7  N   UNL     1      -9.006   6.109  72.222  1.00  0.00    -0.138 N  
HETATM    8  O   UNL     1      -7.327   4.993  71.163  1.00  0.00    -0.068 OA 
HETATM    9  C   UNL     1      -9.641   3.695  72.351  1.00  0.00    -0.140 C  
HETATM   10  C   UNL     1      -9.414   4.965  73.071  1.00  0.00    -0.135 C  
HETATM   11  C   UNL     1      -9.525   7.327  72.784  1.00  0.00    -0.152 C  
HETATM   12  C   UNL     1     -10.742   5.446  73.703  1.00  0.00    -0.337 C  
HETATM   13  C   UNL     1     -10.917   7.812  72.556  1.00  0.00    -0.395 C  
HETATM   14  C   UNL     1     -10.619   6.946  73.755  1.00  0.00    -0.333 C  
ENDBRANCH   3   5
BRANCH   3  15
HETATM   15  C   UNL     1      -8.477   7.069  68.922  1.00  0.00    -0.125 C  
HETATM   16  C   UNL     1     -10.749   7.545  67.038  1.00  0.00    -0.367 C  
HETATM   17  C   UNL     1      -9.679   5.292  66.830  1.00  0.00    -0.170 C  
HETATM   18  C   UNL     1      -9.872   6.384  69.081  1.00  0.00    -0.158 C  
HETATM   19  C   UNL     1      -9.381   8.214  66.826  1.00  0.00    -0.183 C  
HETATM   20  C   UNL     1      -8.305   5.951  66.628  1.00  0.00    -0.110 C  
HETATM   21  C   UNL     1      -8.700   8.422  68.191  1.00  0.00    -0.143 C  
HETATM   22  C   UNL     1      -7.624   6.155  67.996  1.00  0.00    -0.101 C  
HETATM   23  O   UNL     1      -9.559   9.477  66.200  1.00  0.00    -0.198 OA 
HETATM   24  C   UNL     1      -8.496   7.313  65.950  1.00  0.00    -0.148 C  
HETATM   25  H   UNL     1      -8.713   9.890  66.069  1.00  0.00     0.000 HD 
HETATM   26  C   UNL     1     -10.560   6.183  67.718  1.00  0.00    -0.338 C  
ENDBRANCH   3  15
TORSDOF 2
ENDMDL
MODEL      170
REMARK 921   NORMALIZED FREE ENERGY PREDICTED BY IDOCK:   -3.81 KCAL/MOL
REMARK 922        TOTAL FREE ENERGY PREDICTED BY IDOCK:   -4.72 KCAL/MOL
REMARK 923 INTER-LIGAND FREE ENERGY PREDICTED BY IDOCK:   -5.96 KCAL/MOL
REMARK 924 INTRA-LIGAND FREE ENERGY PREDICTED BY IDOCK:    1.24 KCAL/MOL
REMARK 927      BINDING AFFINITY PREDICTED BY RF-SCORE:    0.00 PKD
ROOT
HETATM    1  N   UNL     1      -8.652  11.207  68.980  1.00  0.00    -0.352 NA 
HETATM    2  H1  UNL     1      -7.961  10.957  69.688  1.00  0.00     0.000 HD 
HETATM    3  C   UNL     1      -9.192   9.942  68.429  1.00  0.00    -0.130 C  
HETATM    4  H2  UNL     1      -9.378  11.830  69.333  1.00  0.00     0.000 HD 
ENDROOT
BRANCH   3   5
HETATM    5  C   UNL     1     -10.248  10.322  67.348  1.00  0.00    -0.218 C  
HETATM    6  N   UNL     1     -10.898  11.859  63.873  1.00  0.00    -0.355 NA 
HETATM    7  N   UNL     1     -10.815  11.575  67.422  1.00  0.00    -0.232 N  
HETATM    8  O   UNL     1     -10.565   9.527  66.461  1.00  0.00    -0.173 OA 
HETATM    9  C   UNL     1     -11.231  11.940  64.986  1.00  0.00    -0.293 C  
HETATM   10  C   UNL     1     -11.714  12.109  66.371  1.00  0.00    -0.324 C  
HETATM   11  C   UNL     1     -10.935  12.385  68.606  1.00  0.00    -0.247 C  
HETATM   12  C   UNL     1     -11.802  13.617  66.710  1.00  0.00    -0.452 C  
HETATM   13  C   UNL     1     -10.203  13.669  68.802  1.00  0.00    -0.155 C  
HETATM   14  C   UNL     1     -11.584  13.688  68.198  1.00  0.00    -0.367 C  
ENDBRANCH   3   5
BRANCH   3  15
HETATM   15  C   UNL     1      -9.763   9.006  69.555  1.00  0.00    -0.171 C  
HETATM   16  C   UNL     1     -11.704   6.948  70.523  1.00  0.00    -0.401 C  
HETATM   17  C   UNL     1     -11.111   8.697  72.213  1.00  0.00    -0.395 C  
HETATM   18  C   UNL     1     -11.278   9.308  69.786  1.00  0.00    -0.104 C  
HETATM   19  C   UNL     1     -10.215   6.619  70.341  1.00  0.00    -0.188 C  
HETATM   20  C   UNL     1      -9.617   8.381  72.030  1.00  0.00    -0.344 C  
HETATM   21  C   UNL     1      -9.632   7.494  69.217  1.00  0.00    -0.158 C  
HETATM   22  C   UNL     1      -9.036   9.262  70.906  1.00  0.00    -0.288 C  
HETATM   23  O   UNL     1     -10.068   5.250  69.985  1.00  0.00    -0.219 OA 
HETATM   24  C   UNL     1      -9.458   6.904  71.649  1.00  0.00    -0.157 C  
HETATM   25  H   UNL     1      -9.147   5.047  69.873  1.00  0.00     0.000 HD 
HETATM   26  C   UNL     1     -11.865   8.426  70.903  1.00  0.00    -0.237 C  
ENDBRANCH   3  15
TORSDOF 2
ENDMDL
MODEL      171
REMARK 921   NORMALIZED FREE ENERGY PREDICTED BY IDOCK:   -3.81 KCAL/MOL
REMARK 922        TOTAL FREE ENERGY PREDICTED BY IDOCK:   -4.72 KCAL/MOL
REMARK 923 INTER-LIGAND FREE ENERGY PREDICTED BY IDOCK:   -4.11 KCAL/MOL
REMARK 924 INTRA-LIGAND FREE ENERGY PREDICTED BY IDOCK:   -0.61 KCAL/MOL
REMARK 927      BINDING AFFINITY PREDICTED BY RF-SCORE:    0.00 PKD
ROOT
HETATM    1  N   UNL     1      -8.237   8.657  70.538  1.00  0.00    -0.111 NA 
HETATM    2  H1  UNL     1      -8.849   9.249  71.100  1.00  0.00     0.000 HD 
HETATM    3  C   UNL     1      -8.934   8.396  69.257  1.00  0.00    -0.150 C  
HETATM    4  H2  UNL     1      -7.305   9.051  70.413  1.00  0.00     0.000 HD 
ENDROOT
BRANCH   3   5
HETATM    5  C   UNL     1      -7.999   7.492  68.399  1.00  0.00    -0.123 C  
HETATM    6  N   UNL     1      -6.046   7.077  65.101  1.00  0.00    -0.036 NA 
HETATM    7  N   UNL     1      -8.592   6.590  67.543  1.00  0.00    -0.119 N  
HETATM    8  O   UNL     1      -6.773   7.579  68.488  1.00  0.00    -0.054 OA 
HETATM    9  C   UNL     1      -6.828   6.538  65.775  1.00  0.00    -0.053 C  
HETATM   10  C   UNL     1      -7.818   5.784  66.570  1.00  0.00    -0.101 C  
HETATM   11  C   UNL     1      -9.913   6.033  67.678  1.00  0.00    -0.135 C  
HETATM   12  C   UNL     1      -8.909   5.214  65.632  1.00  0.00    -0.146 C  
HETATM   13  C   UNL     1     -11.029   6.324  66.733  1.00  0.00    -0.328 C  
HETATM   14  C   UNL     1     -10.144   5.127  66.489  1.00  0.00    -0.269 C  
ENDBRANCH   3   5
BRANCH   3  15
HETATM   15  C   UNL     1      -9.350   9.727  68.532  1.00  0.00    -0.142 C  
HETATM   16  C   UNL     1     -10.451  12.506  68.578  1.00  0.00    -0.246 C  
HETATM   17  C   UNL     1     -11.122  11.153  66.582  1.00  0.00    -0.255 C  
HETATM   18  C   UNL     1     -10.854  10.041  68.815  1.00  0.00    -0.252 C  
HETATM   19  C   UNL     1      -8.972  12.237  68.262  1.00  0.00    -0.182 C  
HETATM   20  C   UNL     1      -9.645  10.870  66.264  1.00  0.00    -0.234 C  
HETATM   21  C   UNL     1      -8.520  10.958  68.990  1.00  0.00    -0.110 C  
HETATM   22  C   UNL     1      -9.197   9.586  66.990  1.00  0.00    -0.166 C  
HETATM   23  O   UNL     1      -8.181  13.329  68.713  1.00  0.00    -0.327 OA 
HETATM   24  C   UNL     1      -8.792  12.050  66.747  1.00  0.00    -0.198 C  
HETATM   25  H   UNL     1      -7.266  13.163  68.518  1.00  0.00     0.000 HD 
HETATM   26  C   UNL     1     -11.306  11.326  68.097  1.00  0.00    -0.372 C  
ENDBRANCH   3  15
TORSDOF 2
ENDMDL
MODEL      172
REMARK 921   NORMALIZED FREE ENERGY PREDICTED BY IDOCK:   -3.81 KCAL/MOL
REMARK 922        TOTAL FREE ENERGY PREDICTED BY IDOCK:   -4.71 KCAL/MOL
REMARK 923 INTER-LIGAND FREE ENERGY PREDICTED BY IDOCK:   -4.14 KCAL/MOL
REMARK 924 INTRA-LIGAND FREE ENERGY PREDICTED BY IDOCK:   -0.57 KCAL/MOL
REMARK 927      BINDING AFFINITY PREDICTED BY RF-SCORE:    0.00 PKD
ROOT
HETATM    1  N   UNL     1      -7.503   9.047  67.113  1.00  0.00    -0.087 NA 
HETATM    2  H1  UNL     1      -7.902   8.996  66.176  1.00  0.00     0.000 HD 
HETATM    3  C   UNL     1      -8.356   8.220  67.999  1.00  0.00    -0.129 C  
HETATM    4  H2  UNL     1      -6.519   8.781  67.144  1.00  0.00     0.000 HD 
ENDROOT
BRANCH   3   5
HETATM    5  C   UNL     1      -7.746   8.297  69.431  1.00  0.00    -0.102 C  
HETATM    6  N   UNL     1      -6.547   6.357  72.538  1.00  0.00    -0.063 NA 
HETATM    7  N   UNL     1      -8.619   8.407  70.491  1.00  0.00    -0.128 N  
HETATM    8  O   UNL     1      -6.526   8.267  69.605  1.00  0.00    -0.036 OA 
HETATM    9  C   UNL     1      -7.255   7.225  72.219  1.00  0.00    -0.068 C  
HETATM   10  C   UNL     1      -8.173   8.337  71.903  1.00  0.00    -0.149 C  
HETATM   11  C   UNL     1      -9.956   8.937  70.441  1.00  0.00    -0.194 C  
HETATM   12  C   UNL     1      -9.496   8.155  72.686  1.00  0.00    -0.346 C  
HETATM   13  C   UNL     1     -11.178   8.112  70.659  1.00  0.00    -0.268 C  
HETATM   14  C   UNL     1     -10.541   8.819  71.829  1.00  0.00    -0.417 C  
ENDBRANCH   3   5
BRANCH   3  15
HETATM   15  C   UNL     1      -8.507   6.750  67.465  1.00  0.00    -0.121 C  
HETATM   16  C   UNL     1      -9.886   4.097  67.436  1.00  0.00    -0.152 C  
HETATM   17  C   UNL     1      -7.397   3.980  67.191  1.00  0.00    -0.068 C  
HETATM   18  C   UNL     1      -8.430   5.738  68.653  1.00  0.00    -0.107 C  
HETATM   19  C   UNL     1      -9.959   5.049  66.232  1.00  0.00    -0.224 C  
HETATM   20  C   UNL     1      -7.459   4.940  65.992  1.00  0.00    -0.082 C  
HETATM   21  C   UNL     1      -9.851   6.504  66.725  1.00  0.00    -0.213 C  
HETATM   22  C   UNL     1      -7.348   6.395  66.490  1.00  0.00    -0.078 C  
HETATM   23  O   UNL     1     -11.201   4.878  65.563  1.00  0.00    -0.850 OA 
HETATM   24  C   UNL     1      -8.798   4.754  65.268  1.00  0.00    -0.149 C  
HETATM   25  H   UNL     1     -11.246   5.467  64.818  1.00  0.00     0.000 HD 
HETATM   26  C   UNL     1      -8.548   4.283  68.163  1.00  0.00    -0.107 C  
ENDBRANCH   3  15
TORSDOF 2
ENDMDL
MODEL      173
REMARK 921   NORMALIZED FREE ENERGY PREDICTED BY IDOCK:   -3.78 KCAL/MOL
REMARK 922        TOTAL FREE ENERGY PREDICTED BY IDOCK:   -4.69 KCAL/MOL
REMARK 923 INTER-LIGAND FREE ENERGY PREDICTED BY IDOCK:   -4.19 KCAL/MOL
REMARK 924 INTRA-LIGAND FREE ENERGY PREDICTED BY IDOCK:   -0.50 KCAL/MOL
REMARK 927      BINDING AFFINITY PREDICTED BY RF-SCORE:    0.00 PKD
ROOT
HETATM    1  N   UNL     1      -8.570  10.218  69.887  1.00  0.00    -0.374 NA 
HETATM    2  H1  UNL     1      -8.714  10.620  70.813  1.00  0.00     0.000 HD 
HETATM    3  C   UNL     1      -8.362   8.762  70.068  1.00  0.00    -0.127 C  
HETATM    4  H2  UNL     1      -9.323  10.435  69.236  1.00  0.00     0.000 HD 
ENDROOT
BRANCH   3   5
HETATM    5  C   UNL     1      -8.141   8.147  68.654  1.00  0.00    -0.124 C  
HETATM    6  N   UNL     1      -9.523   5.855  65.879  1.00  0.00    -0.069 NA 
HETATM    7  N   UNL     1      -7.469   6.948  68.576  1.00  0.00    -0.093 N  
HETATM    8  O   UNL     1      -8.551   8.719  67.641  1.00  0.00    -0.126 OA 
HETATM    9  C   UNL     1      -8.574   6.034  66.530  1.00  0.00    -0.124 C  
HETATM   10  C   UNL     1      -7.330   6.191  67.310  1.00  0.00    -0.077 C  
HETATM   11  C   UNL     1      -6.536   6.432  69.543  1.00  0.00    -0.043 C  
HETATM   12  C   UNL     1      -6.833   4.802  67.777  1.00  0.00    -0.060 C  
HETATM   13  C   UNL     1      -6.797   5.225  70.377  1.00  0.00    -0.048 C  
HETATM   14  C   UNL     1      -6.086   5.073  69.057  1.00  0.00    -0.029 C  
ENDBRANCH   3   5
BRANCH   3  15
HETATM   15  C   UNL     1      -9.541   8.093  70.862  1.00  0.00    -0.187 C  
HETATM   16  C   UNL     1     -11.396   7.978  73.204  1.00  0.00    -0.039 C  
HETATM   17  C   UNL     1     -10.624   5.745  72.377  1.00  0.00    -0.264 C  
HETATM   18  C   UNL     1      -9.070   7.713  72.302  1.00  0.00    -0.183 C  
HETATM   19  C   UNL     1     -11.906   8.323  71.796  1.00  0.00    -0.306 C  
HETATM   20  C   UNL     1     -11.122   6.085  70.962  1.00  0.00    -0.348 C  
HETATM   21  C   UNL     1     -10.784   9.016  71.003  1.00  0.00    -0.339 C  
HETATM   22  C   UNL     1      -9.994   6.775  70.170  1.00  0.00    -0.191 C  
HETATM   23  O   UNL     1     -13.016   9.205  71.894  1.00  0.00    -0.345 OA 
HETATM   24  C   UNL     1     -12.322   7.035  71.067  1.00  0.00    -0.402 C  
HETATM   25  H   UNL     1     -13.332   9.418  71.024  1.00  0.00     0.000 HD 
HETATM   26  C   UNL     1     -10.194   7.029  73.102  1.00  0.00    -0.288 C  
ENDBRANCH   3  15
TORSDOF 2
ENDMDL
MODEL      174
REMARK 921   NORMALIZED FREE ENERGY PREDICTED BY IDOCK:   -3.78 KCAL/MOL
REMARK 922        TOTAL FREE ENERGY PREDICTED BY IDOCK:   -4.68 KCAL/MOL
REMARK 923 INTER-LIGAND FREE ENERGY PREDICTED BY IDOCK:   -5.65 KCAL/MOL
REMARK 924 INTRA-LIGAND FREE ENERGY PREDICTED BY IDOCK:    0.97 KCAL/MOL
REMARK 927      BINDING AFFINITY PREDICTED BY RF-SCORE:    0.00 PKD
ROOT
HETATM    1  N   UNL     1      -9.745  12.040  69.046  1.00  0.00    -0.404 NA 
HETATM    2  H1  UNL     1     -10.624  12.516  69.245  1.00  0.00     0.000 HD 
HETATM    3  C   UNL     1      -9.976  11.162  67.874  1.00  0.00    -0.173 C  
HETATM    4  H2  UNL     1      -8.963  12.682  68.915  1.00  0.00     0.000 HD 
ENDROOT
BRANCH   3   5
HETATM    5  C   UNL     1      -8.633  10.434  67.570  1.00  0.00    -0.125 C  
HETATM    6  N   UNL     1      -6.916   7.218  66.316  1.00  0.00    -0.064 NA 
HETATM    7  N   UNL     1      -8.051   9.713  68.590  1.00  0.00    -0.099 N  
HETATM    8  O   UNL     1      -8.108  10.506  66.457  1.00  0.00    -0.125 OA 
HETATM    9  C   UNL     1      -6.921   7.963  67.211  1.00  0.00    -0.074 C  
HETATM   10  C   UNL     1      -6.859   8.857  68.384  1.00  0.00    -0.065 C  
HETATM   11  C   UNL     1      -8.245   9.927  70.000  1.00  0.00    -0.168 C  
HETATM   12  C   UNL     1      -6.800   8.011  69.679  1.00  0.00    -0.042 C  
HETATM   13  C   UNL     1      -8.939   8.955  70.893  1.00  0.00    -0.273 C  
HETATM   14  C   UNL     1      -7.442   8.876  70.731  1.00  0.00    -0.101 C  
ENDBRANCH   3   5
BRANCH   3  15
HETATM   15  C   UNL     1     -10.546  11.958  66.646  1.00  0.00    -0.273 C  
HETATM   16  C   UNL     1     -10.292  13.026  63.865  1.00  0.00    -0.153 C  
HETATM   17  C   UNL     1     -11.478  14.548  65.460  1.00  0.00    -0.343 C  
HETATM   18  C   UNL     1      -9.577  13.124  66.267  1.00  0.00    -0.241 C  
HETATM   19  C   UNL     1     -11.283  11.901  64.202  1.00  0.00    -0.376 C  
HETATM   20  C   UNL     1     -12.468  13.425  65.812  1.00  0.00    -0.496 C  
HETATM   21  C   UNL     1     -10.735  11.076  65.381  1.00  0.00    -0.222 C  
HETATM   22  C   UNL     1     -11.918  12.603  66.995  1.00  0.00    -0.330 C  
HETATM   23  O   UNL     1     -11.440  11.050  63.075  1.00  0.00    -0.671 OA 
HETATM   24  C   UNL     1     -12.640  12.507  64.595  1.00  0.00    -0.507 C  
HETATM   25  H   UNL     1     -12.053  10.354  63.283  1.00  0.00     0.000 HD 
HETATM   26  C   UNL     1     -10.117  13.944  65.082  1.00  0.00    -0.330 C  
ENDBRANCH   3  15
TORSDOF 2
ENDMDL
MODEL      175
REMARK 921   NORMALIZED FREE ENERGY PREDICTED BY IDOCK:   -3.77 KCAL/MOL
REMARK 922        TOTAL FREE ENERGY PREDICTED BY IDOCK:   -4.67 KCAL/MOL
REMARK 923 INTER-LIGAND FREE ENERGY PREDICTED BY IDOCK:   -6.11 KCAL/MOL
REMARK 924 INTRA-LIGAND FREE ENERGY PREDICTED BY IDOCK:    1.45 KCAL/MOL
REMARK 927      BINDING AFFINITY PREDICTED BY RF-SCORE:    0.00 PKD
ROOT
HETATM    1  N   UNL     1      -8.229  14.385  69.287  1.00  0.00    -0.361 NA 
HETATM    2  H1  UNL     1      -7.540  15.024  69.683  1.00  0.00     0.000 HD 
HETATM    3  C   UNL     1      -9.501  15.135  69.156  1.00  0.00    -0.221 C  
HETATM    4  H2  UNL     1      -7.924  13.960  68.412  1.00  0.00     0.000 HD 
ENDROOT
BRANCH   3   5
HETATM    5  C   UNL     1     -10.553  14.158  68.552  1.00  0.00    -0.252 C  
HETATM    6  N   UNL     1     -12.635  10.950  69.043  1.00  0.00    -0.201 NA 
HETATM    7  N   UNL     1     -10.088  13.105  67.796  1.00  0.00    -0.221 N  
HETATM    8  O   UNL     1     -11.760  14.326  68.743  1.00  0.00    -0.303 OA 
HETATM    9  C   UNL     1     -11.898  11.457  68.298  1.00  0.00    -0.249 C  
HETATM   10  C   UNL     1     -10.974  12.026  67.297  1.00  0.00    -0.262 C  
HETATM   11  C   UNL     1      -8.833  13.052  67.093  1.00  0.00    -0.218 C  
HETATM   12  C   UNL     1      -9.980  10.936  66.830  1.00  0.00    -0.245 C  
HETATM   13  C   UNL     1      -7.719  12.132  67.463  1.00  0.00    -0.159 C  
HETATM   14  C   UNL     1      -8.737  11.692  66.440  1.00  0.00    -0.170 C  
ENDBRANCH   3   5
BRANCH   3  15
HETATM   15  C   UNL     1      -9.322  16.453  68.321  1.00  0.00    -0.210 C  
HETATM   16  C   UNL     1      -9.327  19.434  68.089  1.00  0.00    -0.406 C  
HETATM   17  C   UNL     1     -10.233  18.233  66.088  1.00  0.00    -0.393 C  
HETATM   18  C   UNL     1     -10.627  17.310  68.388  1.00  0.00    -0.368 C  
HETATM   19  C   UNL     1      -8.024  18.626  67.983  1.00  0.00    -0.273 C  
HETATM   20  C   UNL     1      -8.937  17.412  65.981  1.00  0.00    -0.086 C  
HETATM   21  C   UNL     1      -8.151  17.342  68.824  1.00  0.00    -0.234 C  
HETATM   22  C   UNL     1      -9.070  16.126  66.821  1.00  0.00    -0.257 C  
HETATM   23  O   UNL     1      -6.940  19.399  68.481  1.00  0.00    -0.272 OA 
HETATM   24  C   UNL     1      -7.768  18.247  66.516  1.00  0.00    -0.279 C  
HETATM   25  H   UNL     1      -6.135  18.900  68.416  1.00  0.00     0.000 HD 
HETATM   26  C   UNL     1     -10.499  18.599  67.556  1.00  0.00    -0.473 C  
ENDBRANCH   3  15
TORSDOF 2
ENDMDL
MODEL      176
REMARK 921   NORMALIZED FREE ENERGY PREDICTED BY IDOCK:   -3.76 KCAL/MOL
REMARK 922        TOTAL FREE ENERGY PREDICTED BY IDOCK:   -4.66 KCAL/MOL
REMARK 923 INTER-LIGAND FREE ENERGY PREDICTED BY IDOCK:   -5.47 KCAL/MOL
REMARK 924 INTRA-LIGAND FREE ENERGY PREDICTED BY IDOCK:    0.81 KCAL/MOL
REMARK 927      BINDING AFFINITY PREDICTED BY RF-SCORE:    0.00 PKD
ROOT
HETATM    1  N   UNL     1     -11.268   7.262  68.391  1.00  0.00    -0.434 NA 
HETATM    2  H1  UNL     1     -11.752   7.439  67.511  1.00  0.00     0.000 HD 
HETATM    3  C   UNL     1      -9.922   7.870  68.282  1.00  0.00    -0.180 C  
HETATM    4  H2  UNL     1     -11.789   7.587  69.205  1.00  0.00     0.000 HD 
ENDROOT
BRANCH   3   5
HETATM    5  C   UNL     1      -9.182   7.600  69.626  1.00  0.00    -0.146 C  
HETATM    6  N   UNL     1      -8.184   5.003  72.295  1.00  0.00    -0.118 NA 
HETATM    7  N   UNL     1      -9.905   7.735  70.791  1.00  0.00    -0.181 N  
HETATM    8  O   UNL     1      -7.992   7.281  69.644  1.00  0.00    -0.121 OA 
HETATM    9  C   UNL     1      -8.698   6.041  72.176  1.00  0.00    -0.132 C  
HETATM   10  C   UNL     1      -9.359   7.360  72.117  1.00  0.00    -0.135 C  
HETATM   11  C   UNL     1     -11.082   8.543  70.973  1.00  0.00    -0.260 C  
HETATM   12  C   UNL     1     -10.611   7.353  73.028  1.00  0.00    -0.392 C  
HETATM   13  C   UNL     1     -12.436   7.978  71.235  1.00  0.00    -0.270 C  
HETATM   14  C   UNL     1     -11.549   8.347  72.397  1.00  0.00    -0.450 C  
ENDBRANCH   3   5
BRANCH   3  15
HETATM   15  C   UNL     1      -9.993   9.394  67.905  1.00  0.00    -0.220 C  
HETATM   16  C   UNL     1     -10.403  12.263  68.642  1.00  0.00    -0.204 C  
HETATM   17  C   UNL     1     -11.328  11.619  66.406  1.00  0.00    -0.312 C  
HETATM   18  C   UNL     1     -11.386   9.979  68.304  1.00  0.00    -0.117 C  
HETATM   19  C   UNL     1      -9.023  11.735  68.222  1.00  0.00    -0.180 C  
HETATM   20  C   UNL     1      -9.952  11.079  65.981  1.00  0.00    -0.285 C  
HETATM   21  C   UNL     1      -8.905  10.250  68.612  1.00  0.00    -0.137 C  
HETATM   22  C   UNL     1      -9.840   9.591  66.370  1.00  0.00    -0.320 C  
HETATM   23  O   UNL     1      -8.007  12.470  68.891  1.00  0.00    -0.322 OA 
HETATM   24  C   UNL     1      -8.856  11.874  66.701  1.00  0.00    -0.191 C  
HETATM   25  H   UNL     1      -7.153  12.144  68.632  1.00  0.00     0.000 HD 
HETATM   26  C   UNL     1     -11.502  11.467  67.925  1.00  0.00    -0.361 C  
ENDBRANCH   3  15
TORSDOF 2
ENDMDL
MODEL      177
REMARK 921   NORMALIZED FREE ENERGY PREDICTED BY IDOCK:   -3.72 KCAL/MOL
REMARK 922        TOTAL FREE ENERGY PREDICTED BY IDOCK:   -4.61 KCAL/MOL
REMARK 923 INTER-LIGAND FREE ENERGY PREDICTED BY IDOCK:   -4.67 KCAL/MOL
REMARK 924 INTRA-LIGAND FREE ENERGY PREDICTED BY IDOCK:    0.05 KCAL/MOL
REMARK 927      BINDING AFFINITY PREDICTED BY RF-SCORE:    0.00 PKD
ROOT
HETATM    1  N   UNL     1      -7.043   6.982  70.277  1.00  0.00    -0.065 NA 
HETATM    2  H1  UNL     1      -7.106   6.150  70.864  1.00  0.00     0.000 HD 
HETATM    3  C   UNL     1      -8.349   7.140  69.596  1.00  0.00    -0.133 C  
HETATM    4  H2  UNL     1      -6.759   7.815  70.793  1.00  0.00     0.000 HD 
ENDROOT
BRANCH   3   5
HETATM    5  C   UNL     1      -8.252   8.411  68.700  1.00  0.00    -0.123 C  
HETATM    6  N   UNL     1     -10.147  11.255  66.916  1.00  0.00    -0.207 NA 
HETATM    7  N   UNL     1      -8.306   8.235  67.334  1.00  0.00    -0.124 N  
HETATM    8  O   UNL     1      -8.127   9.532  69.197  1.00  0.00    -0.094 OA 
HETATM    9  C   UNL     1      -9.368  10.411  66.720  1.00  0.00    -0.156 C  
HETATM   10  C   UNL     1      -8.376   9.371  66.385  1.00  0.00    -0.115 C  
HETATM   11  C   UNL     1      -7.956   7.037  66.618  1.00  0.00    -0.108 C  
HETATM   12  C   UNL     1      -8.766   8.694  65.048  1.00  0.00    -0.154 C  
HETATM   13  C   UNL     1      -8.946   6.201  65.879  1.00  0.00    -0.133 C  
HETATM   14  C   UNL     1      -8.211   7.298  65.150  1.00  0.00    -0.112 C  
ENDBRANCH   3   5
BRANCH   3  15
HETATM   15  C   UNL     1      -9.543   7.187  70.617  1.00  0.00    -0.165 C  
HETATM   16  C   UNL     1     -11.870   5.911  71.994  1.00  0.00    -0.208 C  
HETATM   17  C   UNL     1     -12.187   8.331  71.439  1.00  0.00    -0.328 C  
HETATM   18  C   UNL     1     -10.884   6.852  69.888  1.00  0.00    -0.294 C  
HETATM   19  C   UNL     1     -10.581   6.255  72.756  1.00  0.00    -0.228 C  
HETATM   20  C   UNL     1     -10.893   8.684  72.190  1.00  0.00    -0.424 C  
HETATM   21  C   UNL     1      -9.383   6.181  71.791  1.00  0.00    -0.159 C  
HETATM   22  C   UNL     1      -9.697   8.613  71.220  1.00  0.00    -0.305 C  
HETATM   23  O   UNL     1     -10.384   5.321  73.809  1.00  0.00    -0.201 OA 
HETATM   24  C   UNL     1     -10.682   7.678  73.329  1.00  0.00    -0.409 C  
HETATM   25  H   UNL     1      -9.587   5.534  74.280  1.00  0.00     0.000 HD 
HETATM   26  C   UNL     1     -12.082   6.915  70.853  1.00  0.00    -0.424 C  
ENDBRANCH   3  15
TORSDOF 2
ENDMDL
MODEL      178
REMARK 921   NORMALIZED FREE ENERGY PREDICTED BY IDOCK:   -3.70 KCAL/MOL
REMARK 922        TOTAL FREE ENERGY PREDICTED BY IDOCK:   -4.60 KCAL/MOL
REMARK 923 INTER-LIGAND FREE ENERGY PREDICTED BY IDOCK:   -5.33 KCAL/MOL
REMARK 924 INTRA-LIGAND FREE ENERGY PREDICTED BY IDOCK:    0.73 KCAL/MOL
REMARK 927      BINDING AFFINITY PREDICTED BY RF-SCORE:    0.00 PKD
ROOT
HETATM    1  N   UNL     1      -8.944   8.785  71.780  1.00  0.00    -0.302 NA 
HETATM    2  H1  UNL     1      -8.174   8.166  72.032  1.00  0.00     0.000 HD 
HETATM    3  C   UNL     1      -8.837   9.050  70.326  1.00  0.00    -0.189 C  
HETATM    4  H2  UNL     1      -9.856   8.420  72.053  1.00  0.00     0.000 HD 
ENDROOT
BRANCH   3   5
HETATM    5  C   UNL     1     -10.013   9.997  69.942  1.00  0.00    -0.237 C  
HETATM    6  N   UNL     1     -11.954  13.227  70.753  1.00  0.00    -0.216 NA 
HETATM    7  N   UNL     1     -11.245   9.745  70.503  1.00  0.00    -0.290 N  
HETATM    8  O   UNL     1      -9.844  10.934  69.158  1.00  0.00    -0.205 OA 
HETATM    9  C   UNL     1     -12.111  12.088  70.564  1.00  0.00    -0.311 C  
HETATM   10  C   UNL     1     -12.401  10.658  70.336  1.00  0.00    -0.343 C  
HETATM   11  C   UNL     1     -11.710   8.477  71.001  1.00  0.00    -0.275 C  
HETATM   12  C   UNL     1     -13.408  10.157  71.399  1.00  0.00    -0.413 C  
HETATM   13  C   UNL     1     -11.978   8.206  72.443  1.00  0.00    -0.431 C  
HETATM   14  C   UNL     1     -13.099   8.692  71.558  1.00  0.00    -0.339 C  
ENDBRANCH   3   5
BRANCH   3  15
HETATM   15  C   UNL     1      -8.804   7.723  69.487  1.00  0.00    -0.139 C  
HETATM   16  C   UNL     1     -10.144   5.304  68.349  1.00  0.00    -0.224 C  
HETATM   17  C   UNL     1      -7.795   4.924  69.127  1.00  0.00    -0.072 C  
HETATM   18  C   UNL     1      -9.281   6.522  70.365  1.00  0.00    -0.156 C  
HETATM   19  C   UNL     1      -9.659   6.449  67.446  1.00  0.00    -0.120 C  
HETATM   20  C   UNL     1      -7.302   6.075  68.234  1.00  0.00    -0.085 C  
HETATM   21  C   UNL     1      -9.714   7.773  68.228  1.00  0.00    -0.169 C  
HETATM   22  C   UNL     1      -7.355   7.399  69.022  1.00  0.00    -0.091 C  
HETATM   23  O   UNL     1     -10.504   6.549  66.307  1.00  0.00    -0.454 OA 
HETATM   24  C   UNL     1      -8.211   6.181  67.004  1.00  0.00    -0.106 C  
HETATM   25  H   UNL     1     -10.204   7.256  65.748  1.00  0.00     0.000 HD 
HETATM   26  C   UNL     1      -9.237   5.197  69.582  1.00  0.00    -0.164 C  
ENDBRANCH   3  15
TORSDOF 2
ENDMDL
MODEL      179
REMARK 921   NORMALIZED FREE ENERGY PREDICTED BY IDOCK:   -3.70 KCAL/MOL
REMARK 922        TOTAL FREE ENERGY PREDICTED BY IDOCK:   -4.59 KCAL/MOL
REMARK 923 INTER-LIGAND FREE ENERGY PREDICTED BY IDOCK:   -4.01 KCAL/MOL
REMARK 924 INTRA-LIGAND FREE ENERGY PREDICTED BY IDOCK:   -0.58 KCAL/MOL
REMARK 927      BINDING AFFINITY PREDICTED BY RF-SCORE:    0.00 PKD
ROOT
HETATM    1  N   UNL     1      -5.204  16.848  65.853  1.00  0.00    -0.029 NA 
HETATM    2  H1  UNL     1      -5.261  15.956  65.361  1.00  0.00     0.000 HD 
HETATM    3  C   UNL     1      -6.575  17.191  66.298  1.00  0.00    -0.155 C  
HETATM    4  H2  UNL     1      -4.527  16.842  66.615  1.00  0.00     0.000 HD 
ENDROOT
BRANCH   3   5
HETATM    5  C   UNL     1      -6.489  18.554  67.049  1.00  0.00    -0.183 C  
HETATM    6  N   UNL     1      -6.771  20.407  70.418  1.00  0.00    -0.231 NA 
HETATM    7  N   UNL     1      -7.640  19.305  67.144  1.00  0.00    -0.228 N  
HETATM    8  O   UNL     1      -5.426  18.946  67.535  1.00  0.00    -0.162 OA 
HETATM    9  C   UNL     1      -7.169  20.432  69.324  1.00  0.00     0.250 C  
HETATM   10  C   UNL     1      -7.723  20.540  67.959  1.00  0.00    -0.055 C  
HETATM   11  C   UNL     1      -8.769  19.247  66.253  1.00  0.00    -0.321 C  
HETATM   12  C   UNL     1      -9.244  20.815  68.037  1.00  0.00     0.067 C  
HETATM   13  C   UNL     1     -10.113  18.744  66.659  1.00  0.00    -0.418 C  
HETATM   14  C   UNL     1      -9.806  20.216  66.774  1.00  0.00    -0.591 C  
ENDBRANCH   3   5
BRANCH   3  15
HETATM   15  C   UNL     1      -7.219  16.045  67.159  1.00  0.00    -0.257 C  
HETATM   16  C   UNL     1      -9.513  14.880  68.682  1.00  0.00    -0.208 C  
HETATM   17  C   UNL     1      -7.263  14.432  69.683  1.00  0.00    -0.004 C  
HETATM   18  C   UNL     1      -7.707  16.615  68.529  1.00  0.00    -0.215 C  
HETATM   19  C   UNL     1      -9.042  14.268  67.353  1.00  0.00    -0.196 C  
HETATM   20  C   UNL     1      -6.780  13.828  68.354  1.00  0.00    -0.100 C  
HETATM   21  C   UNL     1      -8.439  15.374  66.468  1.00  0.00    -0.248 C  
HETATM   22  C   UNL     1      -6.173  14.937  67.473  1.00  0.00    -0.036 C  
HETATM   23  O   UNL     1     -10.149  13.687  66.676  1.00  0.00    -0.265 OA 
HETATM   24  C   UNL     1      -7.973  13.198  67.626  1.00  0.00    -0.174 C  
HETATM   25  H   UNL     1      -9.858  13.309  65.855  1.00  0.00     0.000 HD 
HETATM   26  C   UNL     1      -8.320  15.512  69.412  1.00  0.00    -0.249 C  
ENDBRANCH   3  15
TORSDOF 2
ENDMDL
MODEL      180
REMARK 921   NORMALIZED FREE ENERGY PREDICTED BY IDOCK:   -3.69 KCAL/MOL
REMARK 922        TOTAL FREE ENERGY PREDICTED BY IDOCK:   -4.58 KCAL/MOL
REMARK 923 INTER-LIGAND FREE ENERGY PREDICTED BY IDOCK:   -5.48 KCAL/MOL
REMARK 924 INTRA-LIGAND FREE ENERGY PREDICTED BY IDOCK:    0.90 KCAL/MOL
REMARK 927      BINDING AFFINITY PREDICTED BY RF-SCORE:    0.00 PKD
ROOT
HETATM    1  N   UNL     1     -10.015  14.054  69.305  1.00  0.00    -0.422 NA 
HETATM    2  H1  UNL     1     -10.231  14.738  70.030  1.00  0.00     0.000 HD 
HETATM    3  C   UNL     1     -10.378  14.663  68.004  1.00  0.00    -0.235 C  
HETATM    4  H2  UNL     1      -9.050  13.728  69.338  1.00  0.00     0.000 HD 
ENDROOT
BRANCH   3   5
HETATM    5  C   UNL     1     -10.049  13.617  66.897  1.00  0.00    -0.260 C  
HETATM    6  N   UNL     1     -10.368   9.962  65.713  1.00  0.00    -0.169 NA 
HETATM    7  N   UNL     1      -8.866  12.921  67.007  1.00  0.00    -0.211 N  
HETATM    8  O   UNL     1     -10.821  13.424  65.955  1.00  0.00    -0.273 OA 
HETATM    9  C   UNL     1      -9.579  10.797  65.900  1.00  0.00    -0.208 C  
HETATM   10  C   UNL     1      -8.513  11.798  66.106  1.00  0.00     0.048 C  
HETATM   11  C   UNL     1      -7.688  13.353  67.712  1.00  0.00    -0.161 C  
HETATM   12  C   UNL     1      -7.309  11.134  66.818  1.00  0.00    -0.146 C  
HETATM   13  C   UNL     1      -7.173  12.687  68.942  1.00  0.00    -0.045 C  
HETATM   14  C   UNL     1      -6.660  12.251  67.593  1.00  0.00    -0.122 C  
ENDBRANCH   3   5
BRANCH   3  15
HETATM   15  C   UNL     1      -9.669  16.047  67.784  1.00  0.00    -0.221 C  
HETATM   16  C   UNL     1      -9.254  18.565  66.226  1.00  0.00    -0.231 C  
HETATM   17  C   UNL     1      -7.170  17.603  67.222  1.00  0.00    -0.203 C  
HETATM   18  C   UNL     1      -8.976  16.077  66.384  1.00  0.00    -0.354 C  
HETATM   19  C   UNL     1      -9.910  18.584  67.615  1.00  0.00    -0.313 C  
HETATM   20  C   UNL     1      -7.821  17.607  68.615  1.00  0.00    -0.280 C  
HETATM   21  C   UNL     1     -10.647  17.253  67.849  1.00  0.00    -0.384 C  
HETATM   22  C   UNL     1      -8.555  16.272  68.847  1.00  0.00    -0.260 C  
HETATM   23  O   UNL     1     -10.846  19.650  67.688  1.00  0.00    -0.429 OA 
HETATM   24  C   UNL     1      -8.829  18.760  68.695  1.00  0.00    -0.360 C  
HETATM   25  H   UNL     1     -11.251  19.662  68.547  1.00  0.00     0.000 HD 
HETATM   26  C   UNL     1      -8.246  17.411  66.143  1.00  0.00    -0.237 C  
ENDBRANCH   3  15
TORSDOF 2
ENDMDL
MODEL      181
REMARK 921   NORMALIZED FREE ENERGY PREDICTED BY IDOCK:   -3.67 KCAL/MOL
REMARK 922        TOTAL FREE ENERGY PREDICTED BY IDOCK:   -4.56 KCAL/MOL
REMARK 923 INTER-LIGAND FREE ENERGY PREDICTED BY IDOCK:   -4.01 KCAL/MOL
REMARK 924 INTRA-LIGAND FREE ENERGY PREDICTED BY IDOCK:   -0.54 KCAL/MOL
REMARK 927      BINDING AFFINITY PREDICTED BY RF-SCORE:    0.00 PKD
ROOT
HETATM    1  N   UNL     1      -9.552   4.084  69.144  1.00  0.00    -0.180 NA 
HETATM    2  H1  UNL     1      -8.850   3.828  68.449  1.00  0.00     0.000 HD 
HETATM    3  C   UNL     1      -9.131   5.374  69.738  1.00  0.00    -0.128 C  
HETATM    4  H2  UNL     1     -10.498   4.108  68.766  1.00  0.00     0.000 HD 
ENDROOT
BRANCH   3   5
HETATM    5  C   UNL     1     -10.203   5.765  70.799  1.00  0.00    -0.219 C  
HETATM    6  N   UNL     1     -12.336   8.578  72.348  1.00  0.00    -0.383 NA 
HETATM    7  N   UNL     1      -9.758   6.138  72.049  1.00  0.00    -0.153 N  
HETATM    8  O   UNL     1     -11.405   5.736  70.529  1.00  0.00    -0.228 OA 
HETATM    9  C   UNL     1     -11.593   7.728  72.637  1.00  0.00    -0.344 C  
HETATM   10  C   UNL     1     -10.664   6.675  73.092  1.00  0.00    -0.278 C  
HETATM   11  C   UNL     1      -8.507   5.762  72.653  1.00  0.00    -0.120 C  
HETATM   12  C   UNL     1      -9.690   7.260  74.143  1.00  0.00    -0.205 C  
HETATM   13  C   UNL     1      -7.408   6.727  72.940  1.00  0.00    -0.079 C  
HETATM   14  C   UNL     1      -8.437   6.437  74.004  1.00  0.00    -0.123 C  
ENDBRANCH   3   5
BRANCH   3  15
HETATM   15  C   UNL     1      -8.905   6.480  68.644  1.00  0.00    -0.121 C  
HETATM   16  C   UNL     1      -7.328   8.739  67.483  1.00  0.00    -0.081 C  
HETATM   17  C   UNL     1      -9.810   9.001  67.302  1.00  0.00    -0.252 C  
HETATM   18  C   UNL     1      -8.813   7.887  69.316  1.00  0.00    -0.142 C  
HETATM   19  C   UNL     1      -7.420   7.380  66.772  1.00  0.00    -0.096 C  
HETATM   20  C   UNL     1      -9.914   7.637  66.599  1.00  0.00    -0.284 C  
HETATM   21  C   UNL     1      -7.604   6.267  67.821  1.00  0.00    -0.101 C  
HETATM   22  C   UNL     1     -10.102   6.527  67.652  1.00  0.00    -0.180 C  
HETATM   23  O   UNL     1      -6.221   7.138  66.047  1.00  0.00    -0.038 OA 
HETATM   24  C   UNL     1      -8.622   7.377  65.814  1.00  0.00    -0.150 C  
HETATM   25  H   UNL     1      -6.278   6.297  65.608  1.00  0.00     0.000 HD 
HETATM   26  C   UNL     1      -8.618   9.000  68.271  1.00  0.00    -0.130 C  
ENDBRANCH   3  15
TORSDOF 2
ENDMDL
MODEL      182
REMARK 921   NORMALIZED FREE ENERGY PREDICTED BY IDOCK:   -3.66 KCAL/MOL
REMARK 922        TOTAL FREE ENERGY PREDICTED BY IDOCK:   -4.55 KCAL/MOL
REMARK 923 INTER-LIGAND FREE ENERGY PREDICTED BY IDOCK:   -6.01 KCAL/MOL
REMARK 924 INTRA-LIGAND FREE ENERGY PREDICTED BY IDOCK:    1.46 KCAL/MOL
REMARK 927      BINDING AFFINITY PREDICTED BY RF-SCORE:    0.00 PKD
ROOT
HETATM    1  N   UNL     1      -9.083  11.925  68.768  1.00  0.00    -0.385 NA 
HETATM    2  H1  UNL     1      -8.427  11.819  69.542  1.00  0.00     0.000 HD 
HETATM    3  C   UNL     1      -9.374  10.568  68.249  1.00  0.00    -0.156 C  
HETATM    4  H2  UNL     1      -9.923  12.443  69.024  1.00  0.00     0.000 HD 
ENDROOT
BRANCH   3   5
HETATM    5  C   UNL     1     -10.375  10.731  67.066  1.00  0.00    -0.228 C  
HETATM    6  N   UNL     1     -10.888  11.776  63.391  1.00  0.00    -0.397 NA 
HETATM    7  N   UNL     1     -11.032  11.936  66.946  1.00  0.00    -0.273 N  
HETATM    8  O   UNL     1     -10.574   9.810  66.271  1.00  0.00    -0.133 OA 
HETATM    9  C   UNL     1     -11.302  11.966  64.463  1.00  0.00    -0.316 C  
HETATM   10  C   UNL     1     -11.890  12.265  65.784  1.00  0.00    -0.352 C  
HETATM   11  C   UNL     1     -11.289  12.873  68.008  1.00  0.00    -0.292 C  
HETATM   12  C   UNL     1     -12.106  13.792  65.921  1.00  0.00    -0.464 C  
HETATM   13  C   UNL     1     -10.664  14.224  68.083  1.00  0.00    -0.249 C  
HETATM   14  C   UNL     1     -11.998  14.062  67.399  1.00  0.00    -0.439 C  
ENDBRANCH   3   5
BRANCH   3  15
HETATM   15  C   UNL     1      -9.892   9.606  69.377  1.00  0.00    -0.203 C  
HETATM   16  C   UNL     1      -9.545   7.241  71.173  1.00  0.00    -0.160 C  
HETATM   17  C   UNL     1     -11.873   7.560  70.311  1.00  0.00     0.022 C  
HETATM   18  C   UNL     1      -9.910   8.132  68.857  1.00  0.00    -0.178 C  
HETATM   19  C   UNL     1      -9.556   8.673  71.730  1.00  0.00    -0.290 C  
HETATM   20  C   UNL     1     -11.889   8.998  70.855  1.00  0.00    -0.302 C  
HETATM   21  C   UNL     1      -9.016   9.640  70.660  1.00  0.00    -0.103 C  
HETATM   22  C   UNL     1     -11.352   9.963  69.780  1.00  0.00    -0.241 C  
HETATM   23  O   UNL     1      -8.723   8.745  72.880  1.00  0.00    -0.379 OA 
HETATM   24  C   UNL     1     -10.993   9.075  72.097  1.00  0.00    -0.258 C  
HETATM   25  H   UNL     1      -8.730   9.630  73.224  1.00  0.00     0.000 HD 
HETATM   26  C   UNL     1     -10.440   7.162  69.929  1.00  0.00    -0.237 C  
ENDBRANCH   3  15
TORSDOF 2
ENDMDL
MODEL      183
REMARK 921   NORMALIZED FREE ENERGY PREDICTED BY IDOCK:   -3.65 KCAL/MOL
REMARK 922        TOTAL FREE ENERGY PREDICTED BY IDOCK:   -4.54 KCAL/MOL
REMARK 923 INTER-LIGAND FREE ENERGY PREDICTED BY IDOCK:   -4.03 KCAL/MOL
REMARK 924 INTRA-LIGAND FREE ENERGY PREDICTED BY IDOCK:   -0.50 KCAL/MOL
REMARK 927      BINDING AFFINITY PREDICTED BY RF-SCORE:    0.00 PKD
ROOT
HETATM    1  N   UNL     1      -9.639   3.789  69.286  1.00  0.00    -0.178 NA 
HETATM    2  H1  UNL     1      -8.906   3.426  68.677  1.00  0.00     0.000 HD 
HETATM    3  C   UNL     1      -9.145   5.064  69.857  1.00  0.00    -0.119 C  
HETATM    4  H2  UNL     1     -10.539   3.885  68.815  1.00  0.00     0.000 HD 
ENDROOT
BRANCH   3   5
HETATM    5  C   UNL     1     -10.265   5.617  70.788  1.00  0.00    -0.227 C  
HETATM    6  N   UNL     1     -12.003   8.734  72.246  1.00  0.00    -0.364 NA 
HETATM    7  N   UNL     1      -9.948   5.828  72.113  1.00  0.00    -0.174 N  
HETATM    8  O   UNL     1     -11.394   5.853  70.354  1.00  0.00    -0.301 OA 
HETATM    9  C   UNL     1     -11.497   7.735  72.566  1.00  0.00    -0.373 C  
HETATM   10  C   UNL     1     -10.876   6.490  73.060  1.00  0.00    -0.261 C  
HETATM   11  C   UNL     1      -8.904   5.169  72.852  1.00  0.00    -0.117 C  
HETATM   12  C   UNL     1      -9.975   6.808  74.278  1.00  0.00    -0.354 C  
HETATM   13  C   UNL     1      -7.690   5.868  73.363  1.00  0.00    -0.101 C  
HETATM   14  C   UNL     1      -8.905   5.749  74.249  1.00  0.00    -0.122 C  
ENDBRANCH   3   5
BRANCH   3  15
HETATM   15  C   UNL     1      -8.705   6.077  68.741  1.00  0.00    -0.111 C  
HETATM   16  C   UNL     1      -9.336   8.156  66.687  1.00  0.00    -0.250 C  
HETATM   17  C   UNL     1      -7.503   6.578  66.042  1.00  0.00    -0.081 C  
HETATM   18  C   UNL     1      -9.443   5.754  67.403  1.00  0.00    -0.112 C  
HETATM   19  C   UNL     1      -8.577   8.510  67.975  1.00  0.00    -0.134 C  
HETATM   20  C   UNL     1      -6.742   6.918  67.333  1.00  0.00    -0.067 C  
HETATM   21  C   UNL     1      -9.014   7.557  69.102  1.00  0.00    -0.135 C  
HETATM   22  C   UNL     1      -7.179   5.959  68.458  1.00  0.00    -0.083 C  
HETATM   23  O   UNL     1      -8.879   9.846  68.356  1.00  0.00    -0.118 OA 
HETATM   24  C   UNL     1      -7.065   8.360  67.743  1.00  0.00    -0.083 C  
HETATM   25  H   UNL     1      -8.409  10.065  69.152  1.00  0.00     0.000 HD 
HETATM   26  C   UNL     1      -9.015   6.713  66.276  1.00  0.00    -0.168 C  
ENDBRANCH   3  15
TORSDOF 2
ENDMDL
MODEL      184
REMARK 921   NORMALIZED FREE ENERGY PREDICTED BY IDOCK:   -3.62 KCAL/MOL
REMARK 922        TOTAL FREE ENERGY PREDICTED BY IDOCK:   -4.51 KCAL/MOL
REMARK 923 INTER-LIGAND FREE ENERGY PREDICTED BY IDOCK:   -5.25 KCAL/MOL
REMARK 924 INTRA-LIGAND FREE ENERGY PREDICTED BY IDOCK:    0.74 KCAL/MOL
REMARK 927      BINDING AFFINITY PREDICTED BY RF-SCORE:    0.00 PKD
ROOT
HETATM    1  N   UNL     1      -9.389   9.607  71.068  1.00  0.00    -0.343 NA 
HETATM    2  H1  UNL     1      -9.371   8.821  71.719  1.00  0.00     0.000 HD 
HETATM    3  C   UNL     1      -8.574   9.222  69.893  1.00  0.00    -0.170 C  
HETATM    4  H2  UNL     1     -10.334   9.899  70.821  1.00  0.00     0.000 HD 
ENDROOT
BRANCH   3   5
HETATM    5  C   UNL     1      -8.601  10.423  68.899  1.00  0.00    -0.149 C  
HETATM    6  N   UNL     1      -8.186  14.225  68.420  1.00  0.00    -0.139 NA 
HETATM    7  N   UNL     1      -9.804  11.065  68.706  1.00  0.00    -0.197 N  
HETATM    8  O   UNL     1      -7.581  10.779  68.306  1.00  0.00    -0.091 OA 
HETATM    9  C   UNL     1      -8.929  13.352  68.213  1.00  0.00    -0.176 C  
HETATM   10  C   UNL     1      -9.926  12.307  67.908  1.00  0.00    -0.202 C  
HETATM   11  C   UNL     1     -11.111  10.499  68.909  1.00  0.00    -0.261 C  
HETATM   12  C   UNL     1     -11.342  12.822  68.264  1.00  0.00    -0.335 C  
HETATM   13  C   UNL     1     -12.047  10.950  69.979  1.00  0.00    -0.433 C  
HETATM   14  C   UNL     1     -12.123  11.583  68.612  1.00  0.00    -0.197 C  
ENDBRANCH   3   5
BRANCH   3  15
HETATM   15  C   UNL     1      -9.063   7.873  69.253  1.00  0.00    -0.148 C  
HETATM   16  C   UNL     1     -11.024   6.291  67.644  1.00  0.00    -0.438 C  
HETATM   17  C   UNL     1     -10.053   5.066  69.599  1.00  0.00    -0.321 C  
HETATM   18  C   UNL     1     -10.500   7.530  69.761  1.00  0.00    -0.232 C  
HETATM   19  C   UNL     1      -9.608   6.578  67.121  1.00  0.00    -0.136 C  
HETATM   20  C   UNL     1      -8.632   5.357  69.090  1.00  0.00    -0.102 C  
HETATM   21  C   UNL     1      -9.112   7.915  67.700  1.00  0.00    -0.139 C  
HETATM   22  C   UNL     1      -8.138   6.695  69.675  1.00  0.00    -0.126 C  
HETATM   23  O   UNL     1      -9.631   6.668  65.703  1.00  0.00    -0.353 OA 
HETATM   24  C   UNL     1      -8.657   5.452  67.559  1.00  0.00    -0.108 C  
HETATM   25  H   UNL     1      -8.756   6.845  65.380  1.00  0.00     0.000 HD 
HETATM   26  C   UNL     1     -11.002   6.197  69.175  1.00  0.00    -0.450 C  
ENDBRANCH   3  15
TORSDOF 2
ENDMDL
MODEL      185
REMARK 921   NORMALIZED FREE ENERGY PREDICTED BY IDOCK:   -3.62 KCAL/MOL
REMARK 922        TOTAL FREE ENERGY PREDICTED BY IDOCK:   -4.51 KCAL/MOL
REMARK 923 INTER-LIGAND FREE ENERGY PREDICTED BY IDOCK:   -5.34 KCAL/MOL
REMARK 924 INTRA-LIGAND FREE ENERGY PREDICTED BY IDOCK:    0.84 KCAL/MOL
REMARK 927      BINDING AFFINITY PREDICTED BY RF-SCORE:    0.00 PKD
ROOT
HETATM    1  N   UNL     1      -8.569   9.783  70.636  1.00  0.00    -0.373 NA 
HETATM    2  H1  UNL     1      -7.907   9.055  70.904  1.00  0.00     0.000 HD 
HETATM    3  C   UNL     1      -8.680   9.754  69.159  1.00  0.00    -0.155 C  
HETATM    4  H2  UNL     1      -9.470   9.697  71.106  1.00  0.00     0.000 HD 
ENDROOT
BRANCH   3   5
HETATM    5  C   UNL     1      -9.690  10.868  68.750  1.00  0.00    -0.189 C  
HETATM    6  N   UNL     1     -10.846  14.513  69.233  1.00  0.00    -0.256 NA 
HETATM    7  N   UNL     1     -10.864  10.959  69.464  1.00  0.00    -0.247 N  
HETATM    8  O   UNL     1      -9.446  11.635  67.816  1.00  0.00    -0.170 OA 
HETATM    9  C   UNL     1     -11.244  13.419  69.242  1.00  0.00    -0.219 C  
HETATM   10  C   UNL     1     -11.832  12.065  69.272  1.00  0.00    -0.318 C  
HETATM   11  C   UNL     1     -11.497   9.896  70.199  1.00  0.00    -0.248 C  
HETATM   12  C   UNL     1     -12.771  11.934  70.496  1.00  0.00    -0.105 C  
HETATM   13  C   UNL     1     -11.622   9.882  71.685  1.00  0.00    -0.268 C  
HETATM   14  C   UNL     1     -12.733  10.471  70.852  1.00  0.00    -0.495 C  
ENDBRANCH   3   5
BRANCH   3  15
HETATM   15  C   UNL     1      -9.072   8.330  68.626  1.00  0.00    -0.140 C  
HETATM   16  C   UNL     1      -8.654   5.372  68.488  1.00  0.00    -0.098 C  
HETATM   17  C   UNL     1      -9.361   6.426  66.330  1.00  0.00    -0.149 C  
HETATM   18  C   UNL     1      -7.854   7.676  67.899  1.00  0.00    -0.117 C  
HETATM   19  C   UNL     1      -9.885   5.974  69.184  1.00  0.00    -0.148 C  
HETATM   20  C   UNL     1     -10.589   7.041  67.020  1.00  0.00    -0.412 C  
HETATM   21  C   UNL     1      -9.523   7.358  69.752  1.00  0.00    -0.159 C  
HETATM   22  C   UNL     1     -10.224   8.428  67.584  1.00  0.00    -0.298 C  
HETATM   23  O   UNL     1     -10.291   5.128  70.251  1.00  0.00    -0.268 OA 
HETATM   24  C   UNL     1     -11.030   6.127  68.169  1.00  0.00    -0.398 C  
HETATM   25  H   UNL     1     -11.052   5.500  70.681  1.00  0.00     0.000 HD 
HETATM   26  C   UNL     1      -8.210   6.287  67.338  1.00  0.00    -0.109 C  
ENDBRANCH   3  15
TORSDOF 2
ENDMDL
MODEL      186
REMARK 921   NORMALIZED FREE ENERGY PREDICTED BY IDOCK:   -3.62 KCAL/MOL
REMARK 922        TOTAL FREE ENERGY PREDICTED BY IDOCK:   -4.50 KCAL/MOL
REMARK 923 INTER-LIGAND FREE ENERGY PREDICTED BY IDOCK:   -4.20 KCAL/MOL
REMARK 924 INTRA-LIGAND FREE ENERGY PREDICTED BY IDOCK:   -0.30 KCAL/MOL
REMARK 927      BINDING AFFINITY PREDICTED BY RF-SCORE:    0.00 PKD
ROOT
HETATM    1  N   UNL     1     -11.526   6.551  67.029  1.00  0.00    -0.743 NA 
HETATM    2  H1  UNL     1     -11.843   7.429  66.617  1.00  0.00     0.000 HD 
HETATM    3  C   UNL     1     -10.172   6.790  67.582  1.00  0.00    -0.179 C  
HETATM    4  H2  UNL     1     -12.177   6.175  67.717  1.00  0.00     0.000 HD 
ENDROOT
BRANCH   3   5
HETATM    5  C   UNL     1      -9.688   5.449  68.212  1.00  0.00    -0.135 C  
HETATM    6  N   UNL     1      -7.325   3.733  70.728  1.00  0.00    -0.037 NA 
HETATM    7  N   UNL     1      -8.645   4.794  67.595  1.00  0.00    -0.104 N  
HETATM    8  O   UNL     1     -10.224   4.992  69.224  1.00  0.00    -0.216 OA 
HETATM    9  C   UNL     1      -7.647   3.704  69.610  1.00  0.00    -0.051 C  
HETATM   10  C   UNL     1      -7.998   3.596  68.179  1.00  0.00    -0.071 C  
HETATM   11  C   UNL     1      -8.267   4.911  66.211  1.00  0.00    -0.108 C  
HETATM   12  C   UNL     1      -6.706   3.443  67.340  1.00  0.00    -0.045 C  
HETATM   13  C   UNL     1      -6.989   5.530  65.757  1.00  0.00    -0.066 C  
HETATM   14  C   UNL     1      -7.048   4.043  66.001  1.00  0.00    -0.067 C  
ENDBRANCH   3   5
BRANCH   3  15
HETATM   15  C   UNL     1     -10.152   7.995  68.590  1.00  0.00    -0.212 C  
HETATM   16  C   UNL     1      -9.869   9.101  71.354  1.00  0.00    -0.354 C  
HETATM   17  C   UNL     1     -11.593  10.246  69.946  1.00  0.00    -0.326 C  
HETATM   18  C   UNL     1     -11.221   7.776  69.708  1.00  0.00    -0.017 C  
HETATM   19  C   UNL     1      -8.810   9.368  70.273  1.00  0.00    -0.236 C  
HETATM   20  C   UNL     1     -10.543  10.509  68.854  1.00  0.00    -0.243 C  
HETATM   21  C   UNL     1      -8.777   8.186  69.288  1.00  0.00    -0.140 C  
HETATM   22  C   UNL     1     -10.515   9.324  67.868  1.00  0.00    -0.290 C  
HETATM   23  O   UNL     1      -7.531   9.501  70.880  1.00  0.00    -0.259 OA 
HETATM   24  C   UNL     1      -9.163  10.654  69.509  1.00  0.00     0.008 C  
HETATM   25  H   UNL     1      -6.876   9.666  70.212  1.00  0.00     0.000 HD 
HETATM   26  C   UNL     1     -11.249   8.953  70.701  1.00  0.00    -0.308 C  
ENDBRANCH   3  15
TORSDOF 2
ENDMDL
MODEL      187
REMARK 921   NORMALIZED FREE ENERGY PREDICTED BY IDOCK:   -3.61 KCAL/MOL
REMARK 922        TOTAL FREE ENERGY PREDICTED BY IDOCK:   -4.49 KCAL/MOL
REMARK 923 INTER-LIGAND FREE ENERGY PREDICTED BY IDOCK:   -5.21 KCAL/MOL
REMARK 924 INTRA-LIGAND FREE ENERGY PREDICTED BY IDOCK:    0.73 KCAL/MOL
REMARK 927      BINDING AFFINITY PREDICTED BY RF-SCORE:    0.00 PKD
ROOT
HETATM    1  N   UNL     1      -9.974   4.375  69.929  1.00  0.00    -0.218 NA 
HETATM    2  H1  UNL     1     -10.336   4.150  70.856  1.00  0.00     0.000 HD 
HETATM    3  C   UNL     1     -10.782   5.500  69.404  1.00  0.00    -0.242 C  
HETATM    4  H2  UNL     1      -8.973   4.567  69.926  1.00  0.00     0.000 HD 
ENDROOT
BRANCH   3   5
HETATM    5  C   UNL     1     -10.231   5.843  67.987  1.00  0.00    -0.184 C  
HETATM    6  N   UNL     1      -9.290   4.532  64.486  1.00  0.00    -0.143 NA 
HETATM    7  N   UNL     1      -8.868   5.773  67.798  1.00  0.00    -0.107 N  
HETATM    8  O   UNL     1     -10.989   6.169  67.072  1.00  0.00    -0.340 OA 
HETATM    9  C   UNL     1      -8.860   5.142  65.381  1.00  0.00    -0.153 C  
HETATM   10  C   UNL     1      -8.238   5.926  66.466  1.00  0.00    -0.110 C  
HETATM   11  C   UNL     1      -7.861   5.901  68.818  1.00  0.00    -0.095 C  
HETATM   12  C   UNL     1      -6.789   5.433  66.697  1.00  0.00    -0.063 C  
HETATM   13  C   UNL     1      -6.973   4.781  69.243  1.00  0.00    -0.051 C  
HETATM   14  C   UNL     1      -6.517   5.716  68.151  1.00  0.00    -0.043 C  
ENDBRANCH   3   5
BRANCH   3  15
HETATM   15  C   UNL     1     -10.789   6.728  70.384  1.00  0.00    -0.306 C  
HETATM   16  C   UNL     1      -9.381   8.910  71.866  1.00  0.00    -0.275 C  
HETATM   17  C   UNL     1     -11.253   7.831  73.131  1.00  0.00    -0.277 C  
HETATM   18  C   UNL     1      -9.830   6.458  71.587  1.00  0.00    -0.184 C  
HETATM   19  C   UNL     1     -10.344   9.221  70.709  1.00  0.00    -0.281 C  
HETATM   20  C   UNL     1     -12.221   8.128  71.974  1.00  0.00    -0.385 C  
HETATM   21  C   UNL     1     -10.333   8.051  69.709  1.00  0.00    -0.219 C  
HETATM   22  C   UNL     1     -12.210   6.953  70.976  1.00  0.00    -0.427 C  
HETATM   23  O   UNL     1      -9.923  10.404  70.043  1.00  0.00    -0.418 OA 
HETATM   24  C   UNL     1     -11.768   9.406  71.257  1.00  0.00    -0.432 C  
HETATM   25  H   UNL     1     -10.518  10.596  69.328  1.00  0.00     0.000 HD 
HETATM   26  C   UNL     1      -9.831   7.631  72.584  1.00  0.00    -0.262 C  
ENDBRANCH   3  15
TORSDOF 2
ENDMDL
MODEL      188
REMARK 921   NORMALIZED FREE ENERGY PREDICTED BY IDOCK:   -3.57 KCAL/MOL
REMARK 922        TOTAL FREE ENERGY PREDICTED BY IDOCK:   -4.45 KCAL/MOL
REMARK 923 INTER-LIGAND FREE ENERGY PREDICTED BY IDOCK:   -5.37 KCAL/MOL
REMARK 924 INTRA-LIGAND FREE ENERGY PREDICTED BY IDOCK:    0.93 KCAL/MOL
REMARK 927      BINDING AFFINITY PREDICTED BY RF-SCORE:    0.00 PKD
ROOT
HETATM    1  N   UNL     1      -9.913   4.365  69.821  1.00  0.00    -0.215 NA 
HETATM    2  H1  UNL     1     -10.229   4.180  70.773  1.00  0.00     0.000 HD 
HETATM    3  C   UNL     1     -10.696   5.517  69.314  1.00  0.00    -0.217 C  
HETATM    4  H2  UNL     1      -8.906   4.507  69.755  1.00  0.00     0.000 HD 
ENDROOT
BRANCH   3   5
HETATM    5  C   UNL     1     -10.214   5.798  67.859  1.00  0.00    -0.187 C  
HETATM    6  N   UNL     1      -9.517   4.354  64.353  1.00  0.00    -0.146 NA 
HETATM    7  N   UNL     1      -8.867   5.673  67.597  1.00  0.00    -0.107 N  
HETATM    8  O   UNL     1     -11.011   6.125  66.977  1.00  0.00    -0.340 OA 
HETATM    9  C   UNL     1      -9.017   4.973  65.203  1.00  0.00    -0.143 C  
HETATM   10  C   UNL     1      -8.308   5.766  66.228  1.00  0.00    -0.115 C  
HETATM   11  C   UNL     1      -7.800   5.794  68.555  1.00  0.00    -0.097 C  
HETATM   12  C   UNL     1      -6.867   5.227  66.394  1.00  0.00    -0.059 C  
HETATM   13  C   UNL     1      -6.928   4.655  68.965  1.00  0.00    -0.051 C  
HETATM   14  C   UNL     1      -6.503   5.541  67.821  1.00  0.00    -0.048 C  
ENDBRANCH   3   5
BRANCH   3  15
HETATM   15  C   UNL     1     -10.585   6.766  70.260  1.00  0.00    -0.251 C  
HETATM   16  C   UNL     1     -11.577   9.409  71.244  1.00  0.00    -0.434 C  
HETATM   17  C   UNL     1      -9.084   9.204  71.145  1.00  0.00    -0.275 C  
HETATM   18  C   UNL     1     -10.503   8.075  69.411  1.00  0.00    -0.223 C  
HETATM   19  C   UNL     1     -11.645   8.152  72.124  1.00  0.00    -0.357 C  
HETATM   20  C   UNL     1      -9.143   7.939  72.017  1.00  0.00    -0.198 C  
HETATM   21  C   UNL     1     -11.792   6.909  71.228  1.00  0.00    -0.385 C  
HETATM   22  C   UNL     1      -9.287   6.697  71.115  1.00  0.00    -0.164 C  
HETATM   23  O   UNL     1     -12.770   8.234  72.989  1.00  0.00    -0.694 OA 
HETATM   24  C   UNL     1     -10.355   8.029  72.952  1.00  0.00    -0.397 C  
HETATM   25  H   UNL     1     -12.812   7.457  73.534  1.00  0.00     0.000 HD 
HETATM   26  C   UNL     1     -10.366   9.320  70.306  1.00  0.00    -0.272 C  
ENDBRANCH   3  15
TORSDOF 2
ENDMDL
MODEL      189
REMARK 921   NORMALIZED FREE ENERGY PREDICTED BY IDOCK:   -3.56 KCAL/MOL
REMARK 922        TOTAL FREE ENERGY PREDICTED BY IDOCK:   -4.44 KCAL/MOL
REMARK 923 INTER-LIGAND FREE ENERGY PREDICTED BY IDOCK:   -3.96 KCAL/MOL
REMARK 924 INTRA-LIGAND FREE ENERGY PREDICTED BY IDOCK:   -0.47 KCAL/MOL
REMARK 927      BINDING AFFINITY PREDICTED BY RF-SCORE:    0.00 PKD
ROOT
HETATM    1  N   UNL     1     -10.837  11.846  66.555  1.00  0.00    -0.266 NA 
HETATM    2  H1  UNL     1     -11.261  11.773  65.630  1.00  0.00     0.000 HD 
HETATM    3  C   UNL     1     -10.245  10.525  66.872  1.00  0.00    -0.229 C  
HETATM    4  H2  UNL     1     -10.168  12.611  66.629  1.00  0.00     0.000 HD 
ENDROOT
BRANCH   3   5
HETATM    5  C   UNL     1      -9.598  10.636  68.285  1.00  0.00    -0.162 C  
HETATM    6  N   UNL     1      -6.458  10.077  70.450  1.00  0.00    -0.111 NA 
HETATM    7  N   UNL     1      -9.726   9.558  69.133  1.00  0.00    -0.171 N  
HETATM    8  O   UNL     1      -8.997  11.656  68.631  1.00  0.00    -0.159 OA 
HETATM    9  C   UNL     1      -7.596   9.834  70.409  1.00  0.00    -0.148 C  
HETATM   10  C   UNL     1      -9.029   9.482  70.439  1.00  0.00    -0.243 C  
HETATM   11  C   UNL     1     -10.761   8.559  69.087  1.00  0.00    -0.110 C  
HETATM   12  C   UNL     1      -9.190   7.996  70.843  1.00  0.00    -0.163 C  
HETATM   13  C   UNL     1     -10.512   7.131  68.734  1.00  0.00    -0.217 C  
HETATM   14  C   UNL     1     -10.470   7.556  70.181  1.00  0.00    -0.226 C  
ENDBRANCH   3   5
BRANCH   3  15
HETATM   15  C   UNL     1      -9.240  10.049  65.762  1.00  0.00    -0.222 C  
HETATM   16  C   UNL     1      -7.594  10.559  63.319  1.00  0.00    -0.009 C  
HETATM   17  C   UNL     1      -8.639   8.287  63.414  1.00  0.00     0.160 C  
HETATM   18  C   UNL     1      -9.864  10.268  64.346  1.00  0.00    -0.374 C  
HETATM   19  C   UNL     1      -6.939  10.315  64.688  1.00  0.00    -0.079 C  
HETATM   20  C   UNL     1      -7.997   8.037  64.789  1.00  0.00    -0.143 C  
HETATM   21  C   UNL     1      -7.884  10.807  65.799  1.00  0.00    -0.106 C  
HETATM   22  C   UNL     1      -8.947   8.527  65.899  1.00  0.00    -0.235 C  
HETATM   23  O   UNL     1      -5.716  11.035  64.768  1.00  0.00    -0.409 OA 
HETATM   24  C   UNL     1      -6.676   8.812  64.874  1.00  0.00    -0.069 C  
HETATM   25  H   UNL     1      -5.312  10.884  65.614  1.00  0.00     0.000 HD 
HETATM   26  C   UNL     1      -8.917   9.787  63.232  1.00  0.00    -0.274 C  
ENDBRANCH   3  15
TORSDOF 2
ENDMDL
MODEL      190
REMARK 921   NORMALIZED FREE ENERGY PREDICTED BY IDOCK:   -3.54 KCAL/MOL
REMARK 922        TOTAL FREE ENERGY PREDICTED BY IDOCK:   -4.42 KCAL/MOL
REMARK 923 INTER-LIGAND FREE ENERGY PREDICTED BY IDOCK:   -4.02 KCAL/MOL
REMARK 924 INTRA-LIGAND FREE ENERGY PREDICTED BY IDOCK:   -0.39 KCAL/MOL
REMARK 927      BINDING AFFINITY PREDICTED BY RF-SCORE:    0.00 PKD
ROOT
HETATM    1  N   UNL     1     -11.104   8.514  69.124  1.00  0.00    -0.423 NA 
HETATM    2  H1  UNL     1     -11.795   9.128  68.694  1.00  0.00     0.000 HD 
HETATM    3  C   UNL     1     -10.335   7.881  68.027  1.00  0.00    -0.209 C  
HETATM    4  H2  UNL     1     -10.512   8.992  69.803  1.00  0.00     0.000 HD 
ENDROOT
BRANCH   3   5
HETATM    5  C   UNL     1      -9.279   6.942  68.685  1.00  0.00    -0.130 C  
HETATM    6  N   UNL     1      -5.605   5.781  68.777  1.00  0.00    -0.011 NA 
HETATM    7  N   UNL     1      -9.107   5.691  68.137  1.00  0.00    -0.110 N  
HETATM    8  O   UNL     1      -8.626   7.308  69.665  1.00  0.00    -0.135 OA 
HETATM    9  C   UNL     1      -6.691   5.372  68.689  1.00  0.00    -0.053 C  
HETATM   10  C   UNL     1      -8.034   4.767  68.575  1.00  0.00    -0.084 C  
HETATM   11  C   UNL     1     -10.078   4.959  67.366  1.00  0.00    -0.150 C  
HETATM   12  C   UNL     1      -8.022   3.684  67.469  1.00  0.00    -0.082 C  
HETATM   13  C   UNL     1      -9.917   4.652  65.916  1.00  0.00    -0.256 C  
HETATM   14  C   UNL     1      -9.433   3.659  66.943  1.00  0.00    -0.213 C  
ENDBRANCH   3   5
BRANCH   3  15
HETATM   15  C   UNL     1      -9.705   8.946  67.060  1.00  0.00    -0.249 C  
HETATM   16  C   UNL     1      -9.677  10.454  64.478  1.00  0.00    -0.393 C  
HETATM   17  C   UNL     1      -7.412   9.837  65.348  1.00  0.00    -0.121 C  
HETATM   18  C   UNL     1      -9.351   8.282  65.690  1.00  0.00    -0.018 C  
HETATM   19  C   UNL     1      -9.997  11.153  65.809  1.00  0.00    -0.245 C  
HETATM   20  C   UNL     1      -7.727  10.524  66.687  1.00  0.00    -0.123 C  
HETATM   21  C   UNL     1     -10.651  10.144  66.770  1.00  0.00    -0.239 C  
HETATM   22  C   UNL     1      -8.379   9.510  67.647  1.00  0.00    -0.125 C  
HETATM   23  O   UNL     1     -10.899  12.227  65.580  1.00  0.00    -0.266 OA 
HETATM   24  C   UNL     1      -8.699  11.684  66.439  1.00  0.00    -0.170 C  
HETATM   25  H   UNL     1     -11.097  12.659  66.402  1.00  0.00     0.000 HD 
HETATM   26  C   UNL     1      -8.706   9.292  64.724  1.00  0.00    -0.220 C  
ENDBRANCH   3  15
TORSDOF 2
ENDMDL
MODEL      191
REMARK 921   NORMALIZED FREE ENERGY PREDICTED BY IDOCK:   -3.50 KCAL/MOL
REMARK 922        TOTAL FREE ENERGY PREDICTED BY IDOCK:   -4.37 KCAL/MOL
REMARK 923 INTER-LIGAND FREE ENERGY PREDICTED BY IDOCK:   -3.89 KCAL/MOL
REMARK 924 INTRA-LIGAND FREE ENERGY PREDICTED BY IDOCK:   -0.49 KCAL/MOL
REMARK 927      BINDING AFFINITY PREDICTED BY RF-SCORE:    0.00 PKD
ROOT
HETATM    1  N   UNL     1      -6.106   8.294  68.572  1.00  0.00    -0.044 NA 
HETATM    2  H1  UNL     1      -5.832   7.498  69.150  1.00  0.00     0.000 HD 
HETATM    3  C   UNL     1      -7.136   7.813  67.622  1.00  0.00    -0.083 C  
HETATM    4  H2  UNL     1      -6.411   9.098  69.119  1.00  0.00     0.000 HD 
ENDROOT
BRANCH   3   5
HETATM    5  C   UNL     1      -7.553   9.028  66.740  1.00  0.00    -0.090 C  
HETATM    6  N   UNL     1     -10.447  11.085  65.239  1.00  0.00    -0.269 NA 
HETATM    7  N   UNL     1      -7.708   8.813  65.388  1.00  0.00    -0.087 N  
HETATM    8  O   UNL     1      -7.732  10.143  67.236  1.00  0.00    -0.095 OA 
HETATM    9  C   UNL     1      -9.470  10.527  64.939  1.00  0.00    -0.252 C  
HETATM   10  C   UNL     1      -8.246   9.846  64.472  1.00  0.00    -0.162 C  
HETATM   11  C   UNL     1      -7.084   7.770  64.617  1.00  0.00    -0.068 C  
HETATM   12  C   UNL     1      -8.556   9.050  63.181  1.00  0.00    -0.157 C  
HETATM   13  C   UNL     1      -7.838   6.648  63.988  1.00  0.00    -0.112 C  
HETATM   14  C   UNL     1      -7.580   7.903  63.194  1.00  0.00    -0.126 C  
ENDBRANCH   3   5
BRANCH   3  15
HETATM   15  C   UNL     1      -8.346   7.134  68.359  1.00  0.00    -0.125 C  
HETATM   16  C   UNL     1     -10.061   6.743  70.777  1.00  0.00    -0.208 C  
HETATM   17  C   UNL     1      -9.640   4.662  69.451  1.00  0.00    -0.257 C  
HETATM   18  C   UNL     1      -7.847   6.405  69.648  1.00  0.00    -0.108 C  
HETATM   19  C   UNL     1     -10.602   7.436  69.517  1.00  0.00    -0.237 C  
HETATM   20  C   UNL     1     -10.170   5.350  68.182  1.00  0.00    -0.226 C  
HETATM   21  C   UNL     1      -9.445   8.145  68.789  1.00  0.00    -0.148 C  
HETATM   22  C   UNL     1      -9.009   6.056  67.454  1.00  0.00    -0.108 C  
HETATM   23  O   UNL     1     -11.578   8.401  69.884  1.00  0.00    -0.451 OA 
HETATM   24  C   UNL     1     -11.226   6.390  68.578  1.00  0.00    -0.321 C  
HETATM   25  H   UNL     1     -11.913   8.830  69.105  1.00  0.00     0.000 HD 
HETATM   26  C   UNL     1      -9.003   5.704  70.383  1.00  0.00    -0.153 C  
ENDBRANCH   3  15
TORSDOF 2
ENDMDL
MODEL      192
REMARK 921   NORMALIZED FREE ENERGY PREDICTED BY IDOCK:   -3.47 KCAL/MOL
REMARK 922        TOTAL FREE ENERGY PREDICTED BY IDOCK:   -4.33 KCAL/MOL
REMARK 923 INTER-LIGAND FREE ENERGY PREDICTED BY IDOCK:   -4.08 KCAL/MOL
REMARK 924 INTRA-LIGAND FREE ENERGY PREDICTED BY IDOCK:   -0.25 KCAL/MOL
REMARK 927      BINDING AFFINITY PREDICTED BY RF-SCORE:    0.00 PKD
ROOT
HETATM    1  N   UNL     1     -10.793  13.213  69.190  1.00  0.00    -0.428 NA 
HETATM    2  H1  UNL     1     -10.837  14.010  69.826  1.00  0.00     0.000 HD 
HETATM    3  C   UNL     1     -10.170  13.689  67.933  1.00  0.00    -0.250 C  
HETATM    4  H2  UNL     1     -10.317  12.406  69.592  1.00  0.00     0.000 HD 
ENDROOT
BRANCH   3   5
HETATM    5  C   UNL     1     -10.104  12.473  66.961  1.00  0.00    -0.216 C  
HETATM    6  N   UNL     1      -8.182  10.708  64.124  1.00  0.00    -0.050 NA 
HETATM    7  N   UNL     1     -10.733  12.596  65.742  1.00  0.00    -0.263 N  
HETATM    8  O   UNL     1      -9.514  11.438  67.277  1.00  0.00    -0.166 OA 
HETATM    9  C   UNL     1      -9.241  11.104  64.403  1.00  0.00    -0.107 C  
HETATM   10  C   UNL     1     -10.615  11.573  64.676  1.00  0.00    -0.311 C  
HETATM   11  C   UNL     1     -11.828  13.478  65.435  1.00  0.00    -0.357 C  
HETATM   12  C   UNL     1     -11.174  12.294  63.426  1.00  0.00    -0.497 C  
HETATM   13  C   UNL     1     -11.716  14.636  64.503  1.00  0.00    -0.410 C  
HETATM   14  C   UNL     1     -12.157  13.296  63.970  1.00  0.00    -0.508 C  
ENDBRANCH   3   5
BRANCH   3  15
HETATM   15  C   UNL     1      -8.772  14.360  68.187  1.00  0.00    -0.175 C  
HETATM   16  C   UNL     1      -6.359  15.842  67.226  1.00  0.00    -0.105 C  
HETATM   17  C   UNL     1      -5.888  14.097  68.958  1.00  0.00    -0.089 C  
HETATM   18  C   UNL     1      -7.693  13.717  67.257  1.00  0.00    -0.095 C  
HETATM   19  C   UNL     1      -7.379  16.500  68.168  1.00  0.00    -0.160 C  
HETATM   20  C   UNL     1      -6.915  14.742  69.903  1.00  0.00    -0.128 C  
HETATM   21  C   UNL     1      -8.771  15.891  67.918  1.00  0.00    -0.168 C  
HETATM   22  C   UNL     1      -8.306  14.127  69.653  1.00  0.00     0.725 C  
HETATM   23  O   UNL     1      -7.434  17.897  67.912  1.00  0.00    -0.208 OA 
HETATM   24  C   UNL     1      -6.972  16.250  69.629  1.00  0.00    -0.086 C  
HETATM   25  H   UNL     1      -8.064  18.304  68.494  1.00  0.00     0.000 HD 
HETATM   26  C   UNL     1      -6.302  14.332  67.498  1.00  0.00    -0.028 C  
ENDBRANCH   3  15
TORSDOF 2
ENDMDL
MODEL      193
REMARK 921   NORMALIZED FREE ENERGY PREDICTED BY IDOCK:   -3.47 KCAL/MOL
REMARK 922        TOTAL FREE ENERGY PREDICTED BY IDOCK:   -4.33 KCAL/MOL
REMARK 923 INTER-LIGAND FREE ENERGY PREDICTED BY IDOCK:   -4.32 KCAL/MOL
REMARK 924 INTRA-LIGAND FREE ENERGY PREDICTED BY IDOCK:   -0.02 KCAL/MOL
REMARK 927      BINDING AFFINITY PREDICTED BY RF-SCORE:    0.00 PKD
ROOT
HETATM    1  N   UNL     1      -7.032  12.209  68.789  1.00  0.00    -0.097 NA 
HETATM    2  H1  UNL     1      -6.116  11.807  68.590  1.00  0.00     0.000 HD 
HETATM    3  C   UNL     1      -7.771  12.272  67.506  1.00  0.00    -0.158 C  
HETATM    4  H2  UNL     1      -7.539  11.709  69.518  1.00  0.00     0.000 HD 
ENDROOT
BRANCH   3   5
HETATM    5  C   UNL     1      -9.170  12.888  67.809  1.00  0.00    -0.200 C  
HETATM    6  N   UNL     1     -12.638  13.852  66.431  1.00  0.00    -0.363 NA 
HETATM    7  N   UNL     1      -9.316  14.248  67.651  1.00  0.00    -0.196 N  
HETATM    8  O   UNL     1     -10.109  12.180  68.180  1.00  0.00    -0.194 OA 
HETATM    9  C   UNL     1     -11.731  14.291  67.014  1.00  0.00    -0.403 C  
HETATM   10  C   UNL     1     -10.628  14.928  67.761  1.00  0.00    -0.262 C  
HETATM   11  C   UNL     1      -8.265  15.229  67.718  1.00  0.00    -0.147 C  
HETATM   12  C   UNL     1     -10.351  16.334  67.176  1.00  0.00    -0.285 C  
HETATM   13  C   UNL     1      -7.811  16.031  66.545  1.00  0.00    -0.226 C  
HETATM   14  C   UNL     1      -8.889  16.579  67.445  1.00  0.00    -0.201 C  
ENDBRANCH   3   5
BRANCH   3  15
HETATM   15  C   UNL     1      -7.846  10.869  66.802  1.00  0.00    -0.141 C  
HETATM   16  C   UNL     1      -6.780   8.120  66.307  1.00  0.00    -0.054 C  
HETATM   17  C   UNL     1      -7.753   9.238  64.290  1.00  0.00    -0.119 C  
HETATM   18  C   UNL     1      -6.529  10.598  66.006  1.00  0.00    -0.129 C  
HETATM   19  C   UNL     1      -8.098   8.342  67.065  1.00  0.00    -0.104 C  
HETATM   20  C   UNL     1      -9.072   9.474  65.044  1.00  0.00    -0.281 C  
HETATM   21  C   UNL     1      -8.042   9.694  67.799  1.00  0.00    -0.113 C  
HETATM   22  C   UNL     1      -9.014  10.830  65.774  1.00  0.00    -0.203 C  
HETATM   23  O   UNL     1      -8.281   7.304  68.019  1.00  0.00    -0.118 OA 
HETATM   24  C   UNL     1      -9.271   8.353  66.071  1.00  0.00    -0.247 C  
HETATM   25  H   UNL     1      -9.096   7.442  68.488  1.00  0.00     0.000 HD 
HETATM   26  C   UNL     1      -6.578   9.242  65.279  1.00  0.00    -0.073 C  
ENDBRANCH   3  15
TORSDOF 2
ENDMDL
MODEL      194
REMARK 921   NORMALIZED FREE ENERGY PREDICTED BY IDOCK:   -3.47 KCAL/MOL
REMARK 922        TOTAL FREE ENERGY PREDICTED BY IDOCK:   -4.33 KCAL/MOL
REMARK 923 INTER-LIGAND FREE ENERGY PREDICTED BY IDOCK:   -4.14 KCAL/MOL
REMARK 924 INTRA-LIGAND FREE ENERGY PREDICTED BY IDOCK:   -0.19 KCAL/MOL
REMARK 927      BINDING AFFINITY PREDICTED BY RF-SCORE:    0.00 PKD
ROOT
HETATM    1  N   UNL     1     -10.636  14.122  66.348  1.00  0.00    -0.277 NA 
HETATM    2  H1  UNL     1      -9.893  13.867  65.697  1.00  0.00     0.000 HD 
HETATM    3  C   UNL     1     -10.156  13.794  67.711  1.00  0.00    -0.245 C  
HETATM    4  H2  UNL     1     -10.936  15.092  66.253  1.00  0.00     0.000 HD 
ENDROOT
BRANCH   3   5
HETATM    5  C   UNL     1     -11.291  14.182  68.705  1.00  0.00    -0.278 C  
HETATM    6  N   UNL     1     -12.199  15.498  72.213  1.00  0.00    -0.373 NA 
HETATM    7  N   UNL     1     -11.784  13.194  69.529  1.00  0.00    -0.312 N  
HETATM    8  O   UNL     1     -11.734  15.332  68.748  1.00  0.00    -0.340 OA 
HETATM    9  C   UNL     1     -12.417  14.618  71.481  1.00  0.00    -0.346 C  
HETATM   10  C   UNL     1     -12.753  13.470  70.616  1.00  0.00    -0.205 C  
HETATM   11  C   UNL     1     -11.746  11.778  69.274  1.00  0.00    -0.335 C  
HETATM   12  C   UNL     1     -12.731  12.167  71.452  1.00  0.00    -0.368 C  
HETATM   13  C   UNL     1     -10.934  10.818  70.076  1.00  0.00    -0.280 C  
HETATM   14  C   UNL     1     -12.365  11.087  70.468  1.00  0.00    -0.462 C  
ENDBRANCH   3   5
BRANCH   3  15
HETATM   15  C   UNL     1      -8.782  14.484  68.033  1.00  0.00    -0.167 C  
HETATM   16  C   UNL     1      -6.756  16.636  67.581  1.00  0.00    -0.161 C  
HETATM   17  C   UNL     1      -5.788  14.378  68.059  1.00  0.00    -0.149 C  
HETATM   18  C   UNL     1      -7.912  14.575  66.739  1.00  0.00     0.225 C  
HETATM   19  C   UNL     1      -7.568  16.563  68.883  1.00  0.00    -0.238 C  
HETATM   20  C   UNL     1      -6.604  14.292  69.359  1.00  0.00    -0.132 C  
HETATM   21  C   UNL     1      -8.939  15.925  68.595  1.00  0.00    -0.203 C  
HETATM   22  C   UNL     1      -7.974  13.648  69.067  1.00  0.00     0.169 C  
HETATM   23  O   UNL     1      -7.767  17.874  69.396  1.00  0.00     0.030 OA 
HETATM   24  C   UNL     1      -6.816  15.705  69.914  1.00  0.00    -0.073 C  
HETATM   25  H   UNL     1      -8.269  17.829  70.201  1.00  0.00     0.000 HD 
HETATM   26  C   UNL     1      -6.544  15.222  67.023  1.00  0.00     0.378 C  
ENDBRANCH   3  15
TORSDOF 2
ENDMDL
MODEL      195
REMARK 921   NORMALIZED FREE ENERGY PREDICTED BY IDOCK:   -3.46 KCAL/MOL
REMARK 922        TOTAL FREE ENERGY PREDICTED BY IDOCK:   -4.33 KCAL/MOL
REMARK 923 INTER-LIGAND FREE ENERGY PREDICTED BY IDOCK:   -3.77 KCAL/MOL
REMARK 924 INTRA-LIGAND FREE ENERGY PREDICTED BY IDOCK:   -0.56 KCAL/MOL
REMARK 927      BINDING AFFINITY PREDICTED BY RF-SCORE:    0.00 PKD
ROOT
HETATM    1  N   UNL     1     -11.174   5.531  66.165  1.00  0.00    -0.761 NA 
HETATM    2  H1  UNL     1     -11.149   5.931  65.227  1.00  0.00     0.000 HD 
HETATM    3  C   UNL     1      -9.814   5.667  66.738  1.00  0.00    -0.164 C  
HETATM    4  H2  UNL     1     -11.898   5.939  66.755  1.00  0.00     0.000 HD 
ENDROOT
BRANCH   3   5
HETATM    5  C   UNL     1      -9.852   5.054  68.170  1.00  0.00    -0.146 C  
HETATM    6  N   UNL     1      -8.490   5.182  71.773  1.00  0.00    -0.124 NA 
HETATM    7  N   UNL     1      -8.987   4.018  68.444  1.00  0.00    -0.109 N  
HETATM    8  O   UNL     1     -10.634   5.480  69.023  1.00  0.00    -0.236 OA 
HETATM    9  C   UNL     1      -8.652   4.450  70.882  1.00  0.00    -0.092 C  
HETATM   10  C   UNL     1      -8.822   3.455  69.805  1.00  0.00    -0.092 C  
HETATM   11  C   UNL     1      -8.408   3.116  67.483  1.00  0.00    -0.083 C  
HETATM   12  C   UNL     1      -7.539   2.598  69.683  1.00  0.00    -0.043 C  
HETATM   13  C   UNL     1      -6.953   3.080  67.161  1.00  0.00    -0.049 C  
HETATM   14  C   UNL     1      -7.496   2.176  68.238  1.00  0.00    -0.051 C  
ENDBRANCH   3   5
BRANCH   3  15
HETATM   15  C   UNL     1      -9.310   7.155  66.710  1.00  0.00    -0.199 C  
HETATM   16  C   UNL     1      -9.026   9.853  67.966  1.00  0.00    -0.121 C  
HETATM   17  C   UNL     1      -9.421   9.892  65.495  1.00  0.00    -0.313 C  
HETATM   18  C   UNL     1     -10.513   8.131  66.910  1.00  0.00    -0.379 C  
HETATM   19  C   UNL     1      -7.811   8.937  67.757  1.00  0.00    -0.102 C  
HETATM   20  C   UNL     1      -8.213   8.966  65.276  1.00  0.00    -0.139 C  
HETATM   21  C   UNL     1      -8.264   7.467  67.816  1.00  0.00    -0.119 C  
HETATM   22  C   UNL     1      -8.672   7.496  65.333  1.00  0.00    -0.013 C  
HETATM   23  O   UNL     1      -6.856   9.168  68.784  1.00  0.00    -0.059 OA 
HETATM   24  C   UNL     1      -7.181   9.217  66.383  1.00  0.00    -0.088 C  
HETATM   25  H   UNL     1      -6.104   8.601  68.654  1.00  0.00     0.000 HD 
HETATM   26  C   UNL     1     -10.061   9.602  66.861  1.00  0.00    -0.290 C  
ENDBRANCH   3  15
TORSDOF 2
ENDMDL
MODEL      196
REMARK 921   NORMALIZED FREE ENERGY PREDICTED BY IDOCK:   -3.46 KCAL/MOL
REMARK 922        TOTAL FREE ENERGY PREDICTED BY IDOCK:   -4.33 KCAL/MOL
REMARK 923 INTER-LIGAND FREE ENERGY PREDICTED BY IDOCK:   -3.74 KCAL/MOL
REMARK 924 INTRA-LIGAND FREE ENERGY PREDICTED BY IDOCK:   -0.58 KCAL/MOL
REMARK 927      BINDING AFFINITY PREDICTED BY RF-SCORE:    0.00 PKD
ROOT
HETATM    1  N   UNL     1      -6.958   9.183  72.413  1.00  0.00    -0.298 NA 
HETATM    2  H1  UNL     1      -6.561  10.093  72.179  1.00  0.00     0.000 HD 
HETATM    3  C   UNL     1      -8.095   8.950  71.492  1.00  0.00    -0.071 C  
HETATM    4  H2  UNL     1      -6.271   8.430  72.397  1.00  0.00     0.000 HD 
ENDROOT
BRANCH   3   5
HETATM    5  C   UNL     1      -8.703   7.561  71.851  1.00  0.00    -0.114 C  
HETATM    6  N   UNL     1      -9.935   4.146  70.555  1.00  0.00    -0.173 NA 
HETATM    7  N   UNL     1     -10.076   7.451  71.875  1.00  0.00    -0.178 N  
HETATM    8  O   UNL     1      -7.978   6.597  72.108  1.00  0.00    -0.097 OA 
HETATM    9  C   UNL     1     -10.268   5.051  71.208  1.00  0.00    -0.203 C  
HETATM   10  C   UNL     1     -10.770   6.153  72.052  1.00  0.00    -0.233 C  
HETATM   11  C   UNL     1     -11.010   8.524  72.090  1.00  0.00    -0.357 C  
HETATM   12  C   UNL     1     -12.233   6.477  71.666  1.00  0.00    -0.353 C  
HETATM   13  C   UNL     1     -11.949   9.021  71.043  1.00  0.00    -0.323 C  
HETATM   14  C   UNL     1     -12.401   7.938  71.990  1.00  0.00    -0.346 C  
ENDBRANCH   3   5
BRANCH   3  15
HETATM   15  C   UNL     1      -7.667   9.073  69.986  1.00  0.00    -0.082 C  
HETATM   16  C   UNL     1      -8.198   9.916  67.167  1.00  0.00    -0.121 C  
HETATM   17  C   UNL     1      -6.959   7.752  67.391  1.00  0.00    -0.078 C  
HETATM   18  C   UNL     1      -8.718   8.368  69.071  1.00  0.00    -0.142 C  
HETATM   19  C   UNL     1      -7.131  10.615  68.022  1.00  0.00    -0.085 C  
HETATM   20  C   UNL     1      -5.892   8.441  68.256  1.00  0.00    -0.042 C  
HETATM   21  C   UNL     1      -7.540  10.546  69.505  1.00  0.00    -0.148 C  
HETATM   22  C   UNL     1      -6.303   8.366  69.740  1.00  0.00    -0.035 C  
HETATM   23  O   UNL     1      -7.026  11.979  67.635  1.00  0.00    -0.096 OA 
HETATM   24  C   UNL     1      -5.776   9.912  67.837  1.00  0.00    -0.039 C  
HETATM   25  H   UNL     1      -6.366  12.411  68.164  1.00  0.00     0.000 HD 
HETATM   26  C   UNL     1      -8.317   8.445  67.586  1.00  0.00    -0.130 C  
ENDBRANCH   3  15
TORSDOF 2
ENDMDL
MODEL      197
REMARK 921   NORMALIZED FREE ENERGY PREDICTED BY IDOCK:   -3.46 KCAL/MOL
REMARK 922        TOTAL FREE ENERGY PREDICTED BY IDOCK:   -4.32 KCAL/MOL
REMARK 923 INTER-LIGAND FREE ENERGY PREDICTED BY IDOCK:   -3.74 KCAL/MOL
REMARK 924 INTRA-LIGAND FREE ENERGY PREDICTED BY IDOCK:   -0.58 KCAL/MOL
REMARK 927      BINDING AFFINITY PREDICTED BY RF-SCORE:    0.00 PKD
ROOT
HETATM    1  N   UNL     1     -11.111   8.852  68.880  1.00  0.00    -0.433 NA 
HETATM    2  H1  UNL     1     -11.792   9.483  68.457  1.00  0.00     0.000 HD 
HETATM    3  C   UNL     1     -10.390   8.178  67.775  1.00  0.00    -0.233 C  
HETATM    4  H2  UNL     1     -10.488   9.319  69.538  1.00  0.00     0.000 HD 
ENDROOT
BRANCH   3   5
HETATM    5  C   UNL     1      -9.352   7.213  68.422  1.00  0.00    -0.135 C  
HETATM    6  N   UNL     1      -5.744   5.856  68.381  1.00  0.00    -0.011 NA 
HETATM    7  N   UNL     1      -9.275   5.930  67.925  1.00  0.00    -0.109 N  
HETATM    8  O   UNL     1      -8.629   7.586  69.349  1.00  0.00    -0.132 OA 
HETATM    9  C   UNL     1      -6.854   5.504  68.368  1.00  0.00    -0.059 C  
HETATM   10  C   UNL     1      -8.230   4.970  68.351  1.00  0.00    -0.085 C  
HETATM   11  C   UNL     1     -10.324   5.220  67.241  1.00  0.00    -0.199 C  
HETATM   12  C   UNL     1      -8.335   3.840  67.299  1.00  0.00    -0.098 C  
HETATM   13  C   UNL     1     -10.257   4.840  65.801  1.00  0.00    -0.251 C  
HETATM   14  C   UNL     1      -9.771   3.869  66.848  1.00  0.00    -0.189 C  
ENDBRANCH   3   5
BRANCH   3  15
HETATM   15  C   UNL     1      -9.747   9.207  66.778  1.00  0.00    -0.271 C  
HETATM   16  C   UNL     1      -7.374  10.616  65.627  1.00  0.00    -0.087 C  
HETATM   17  C   UNL     1      -9.422  12.038  65.849  1.00  0.00    -0.207 C  
HETATM   18  C   UNL     1      -8.928  10.278  67.567  1.00  0.00    -0.138 C  
HETATM   19  C   UNL     1      -8.173   9.593  64.804  1.00  0.00    -0.142 C  
HETATM   20  C   UNL     1     -10.233  11.016  65.035  1.00  0.00    -0.360 C  
HETATM   21  C   UNL     1      -8.787   8.545  65.751  1.00  0.00    -0.229 C  
HETATM   22  C   UNL     1     -10.849   9.970  65.986  1.00  0.00     0.225 C  
HETATM   23  O   UNL     1      -7.308   8.938  63.887  1.00  0.00    -0.094 OA 
HETATM   24  C   UNL     1      -9.300  10.310  64.043  1.00  0.00    -0.337 C  
HETATM   25  H   UNL     1      -7.803   8.306  63.378  1.00  0.00     0.000 HD 
HETATM   26  C   UNL     1      -8.305  11.322  66.622  1.00  0.00    -0.163 C  
ENDBRANCH   3  15
TORSDOF 2
ENDMDL
MODEL      198
REMARK 921   NORMALIZED FREE ENERGY PREDICTED BY IDOCK:   -3.40 KCAL/MOL
REMARK 922        TOTAL FREE ENERGY PREDICTED BY IDOCK:   -4.26 KCAL/MOL
REMARK 923 INTER-LIGAND FREE ENERGY PREDICTED BY IDOCK:   -4.20 KCAL/MOL
REMARK 924 INTRA-LIGAND FREE ENERGY PREDICTED BY IDOCK:   -0.06 KCAL/MOL
REMARK 927      BINDING AFFINITY PREDICTED BY RF-SCORE:    0.00 PKD
ROOT
HETATM    1  N   UNL     1      -7.247  13.401  67.908  1.00  0.00    -0.115 NA 
HETATM    2  H1  UNL     1      -7.878  12.850  67.325  1.00  0.00     0.000 HD 
HETATM    3  C   UNL     1      -7.333  14.805  67.443  1.00  0.00    -0.185 C  
HETATM    4  H2  UNL     1      -7.433  13.299  68.905  1.00  0.00     0.000 HD 
ENDROOT
BRANCH   3   5
HETATM    5  C   UNL     1      -6.368  15.646  68.332  1.00  0.00    -0.111 C  
HETATM    6  N   UNL     1      -6.026  18.310  71.096  1.00  0.00     0.489 NA 
HETATM    7  N   UNL     1      -5.946  16.862  67.843  1.00  0.00    -0.126 N  
HETATM    8  O   UNL     1      -5.994  15.232  69.431  1.00  0.00    -0.102 OA 
HETATM    9  C   UNL     1      -5.664  18.059  70.018  1.00  0.00    -0.238 C  
HETATM   10  C   UNL     1      -5.154  17.817  68.654  1.00  0.00    -0.152 C  
HETATM   11  C   UNL     1      -5.878  17.244  66.457  1.00  0.00    -0.205 C  
HETATM   12  C   UNL     1      -5.228  19.128  67.833  1.00  0.00    -0.171 C  
HETATM   13  C   UNL     1      -6.745  18.293  65.848  1.00  0.00    -0.315 C  
HETATM   14  C   UNL     1      -5.398  18.677  66.407  1.00  0.00    -0.167 C  
ENDBRANCH   3   5
BRANCH   3  15
HETATM   15  C   UNL     1      -8.811  15.338  67.449  1.00  0.00    -0.191 C  
HETATM   16  C   UNL     1     -11.470  15.717  66.136  1.00  0.00     0.186 C  
HETATM   17  C   UNL     1     -10.717  17.648  67.539  1.00  0.00    -0.294 C  
HETATM   18  C   UNL     1      -9.035  16.309  66.246  1.00  0.00    -0.366 C  
HETATM   19  C   UNL     1     -11.299  14.776  67.339  1.00  0.00    -0.351 C  
HETATM   20  C   UNL     1     -10.534  16.713  68.746  1.00  0.00    -0.324 C  
HETATM   21  C   UNL     1      -9.870  14.206  67.341  1.00  0.00    -0.239 C  
HETATM   22  C   UNL     1      -9.100  16.147  68.747  1.00  0.00    -0.229 C  
HETATM   23  O   UNL     1     -12.226  13.703  67.242  1.00  0.00    -0.366 OA 
HETATM   24  C   UNL     1     -11.535  15.557  68.643  1.00  0.00    -0.367 C  
HETATM   25  H   UNL     1     -12.121  13.122  67.986  1.00  0.00     0.000 HD 
HETATM   26  C   UNL     1     -10.467  16.874  66.236  1.00  0.00    -0.263 C  
ENDBRANCH   3  15
TORSDOF 2
ENDMDL
MODEL      199
REMARK 921   NORMALIZED FREE ENERGY PREDICTED BY IDOCK:   -3.37 KCAL/MOL
REMARK 922        TOTAL FREE ENERGY PREDICTED BY IDOCK:   -4.22 KCAL/MOL
REMARK 923 INTER-LIGAND FREE ENERGY PREDICTED BY IDOCK:   -5.50 KCAL/MOL
REMARK 924 INTRA-LIGAND FREE ENERGY PREDICTED BY IDOCK:    1.28 KCAL/MOL
REMARK 927      BINDING AFFINITY PREDICTED BY RF-SCORE:    0.00 PKD
ROOT
HETATM    1  N   UNL     1     -10.560  11.231  68.734  1.00  0.00    -0.196 NA 
HETATM    2  H1  UNL     1     -11.235  11.489  69.453  1.00  0.00     0.000 HD 
HETATM    3  C   UNL     1      -9.480  10.464  69.399  1.00  0.00    -0.183 C  
HETATM    4  H2  UNL     1     -10.981  10.730  67.951  1.00  0.00     0.000 HD 
ENDROOT
BRANCH   3   5
HETATM    5  C   UNL     1      -8.448  10.071  68.300  1.00  0.00    -0.111 C  
HETATM    6  N   UNL     1      -5.558  11.226  66.026  1.00  0.00    -0.194 NA 
HETATM    7  N   UNL     1      -8.833  10.207  66.985  1.00  0.00    -0.135 N  
HETATM    8  O   UNL     1      -7.329   9.650  68.601  1.00  0.00    -0.073 OA 
HETATM    9  C   UNL     1      -6.593  10.695  65.990  1.00  0.00    -0.128 C  
HETATM   10  C   UNL     1      -7.895  10.011  65.854  1.00  0.00    -0.122 C  
HETATM   11  C   UNL     1     -10.184  10.196  66.489  1.00  0.00    -0.223 C  
HETATM   12  C   UNL     1      -8.665  10.599  64.646  1.00  0.00    -0.161 C  
HETATM   13  C   UNL     1     -10.851  11.387  65.888  1.00  0.00    -0.292 C  
HETATM   14  C   UNL     1     -10.119  10.417  64.995  1.00  0.00    -0.379 C  
ENDBRANCH   3   5
BRANCH   3  15
HETATM   15  C   UNL     1     -10.039   9.233  70.199  1.00  0.00    -0.249 C  
HETATM   16  C   UNL     1     -12.166   7.202  70.740  1.00  0.00    -0.308 C  
HETATM   17  C   UNL     1     -10.998   8.056  72.783  1.00  0.00    -0.449 C  
HETATM   18  C   UNL     1     -11.415   9.593  70.844  1.00  0.00    -0.427 C  
HETATM   19  C   UNL     1     -10.812   6.800  70.135  1.00  0.00    -0.266 C  
HETATM   20  C   UNL     1      -9.638   7.667  72.181  1.00  0.00    -0.207 C  
HETATM   21  C   UNL     1     -10.253   7.975  69.312  1.00  0.00    -0.214 C  
HETATM   22  C   UNL     1      -9.079   8.847  71.360  1.00  0.00    -0.318 C  
HETATM   23  O   UNL     1     -10.986   5.677  69.280  1.00  0.00    -0.304 OA 
HETATM   24  C   UNL     1      -9.824   6.454  71.261  1.00  0.00    -0.200 C  
HETATM   25  H   UNL     1     -10.149   5.429  68.906  1.00  0.00     0.000 HD 
HETATM   26  C   UNL     1     -11.982   8.417  71.660  1.00  0.00    -0.357 C  
ENDBRANCH   3  15
TORSDOF 2
ENDMDL
MODEL      200
REMARK 921   NORMALIZED FREE ENERGY PREDICTED BY IDOCK:   -3.33 KCAL/MOL
REMARK 922        TOTAL FREE ENERGY PREDICTED BY IDOCK:   -4.18 KCAL/MOL
REMARK 923 INTER-LIGAND FREE ENERGY PREDICTED BY IDOCK:   -5.10 KCAL/MOL
REMARK 924 INTRA-LIGAND FREE ENERGY PREDICTED BY IDOCK:    0.92 KCAL/MOL
REMARK 927      BINDING AFFINITY PREDICTED BY RF-SCORE:    0.00 PKD
ROOT
HETATM    1  N   UNL     1     -11.457   6.659  66.946  1.00  0.00    -0.767 NA 
HETATM    2  H1  UNL     1     -11.965   7.319  66.358  1.00  0.00     0.000 HD 
HETATM    3  C   UNL     1     -10.013   6.851  66.676  1.00  0.00    -0.143 C  
HETATM    4  H2  UNL     1     -11.693   6.740  67.935  1.00  0.00     0.000 HD 
ENDROOT
BRANCH   3   5
HETATM    5  C   UNL     1      -9.237   5.841  67.573  1.00  0.00    -0.108 C  
HETATM    6  N   UNL     1      -8.966   2.221  68.869  1.00  0.00    -0.100 NA 
HETATM    7  N   UNL     1      -9.632   5.720  68.887  1.00  0.00    -0.127 N  
HETATM    8  O   UNL     1      -8.299   5.180  67.122  1.00  0.00    -0.107 OA 
HETATM    9  C   UNL     1      -9.018   3.324  69.240  1.00  0.00    -0.119 C  
HETATM   10  C   UNL     1      -9.076   4.690  69.797  1.00  0.00    -0.108 C  
HETATM   11  C   UNL     1     -10.322   6.717  69.663  1.00  0.00    -0.194 C  
HETATM   12  C   UNL     1     -10.046   4.718  71.002  1.00  0.00    -0.269 C  
HETATM   13  C   UNL     1     -11.724   6.560  70.146  1.00  0.00    -0.419 C  
HETATM   14  C   UNL     1     -10.581   6.125  71.030  1.00  0.00    -0.301 C  
ENDBRANCH   3   5
BRANCH   3  15
HETATM   15  C   UNL     1      -9.568   8.343  66.887  1.00  0.00    -0.264 C  
HETATM   16  C   UNL     1      -7.554  10.540  66.650  1.00  0.00    -0.120 C  
HETATM   17  C   UNL     1      -8.918  10.600  68.749  1.00  0.00    -0.172 C  
HETATM   18  C   UNL     1      -8.263   8.396  67.744  1.00  0.00    -0.126 C  
HETATM   19  C   UNL     1      -8.842  10.543  65.813  1.00  0.00    -0.175 C  
HETATM   20  C   UNL     1     -10.213  10.593  67.920  1.00  0.00    -0.206 C  
HETATM   21  C   UNL     1      -9.286   9.092  65.555  1.00  0.00    -0.262 C  
HETATM   22  C   UNL     1     -10.656   9.138  67.666  1.00  0.00    -0.307 C  
HETATM   23  O   UNL     1      -8.601  11.182  64.567  1.00  0.00    -0.375 OA 
HETATM   24  C   UNL     1      -9.953  11.284  66.576  1.00  0.00    -0.247 C  
HETATM   25  H   UNL     1      -9.397  11.184  64.049  1.00  0.00     0.000 HD 
HETATM   26  C   UNL     1      -7.811   9.847  67.995  1.00  0.00    -0.086 C  
ENDBRANCH   3  15
TORSDOF 2
ENDMDL
MODEL      201
REMARK 921   NORMALIZED FREE ENERGY PREDICTED BY IDOCK:   -3.22 KCAL/MOL
REMARK 922        TOTAL FREE ENERGY PREDICTED BY IDOCK:   -4.06 KCAL/MOL
REMARK 923 INTER-LIGAND FREE ENERGY PREDICTED BY IDOCK:   -3.60 KCAL/MOL
REMARK 924 INTRA-LIGAND FREE ENERGY PREDICTED BY IDOCK:   -0.46 KCAL/MOL
REMARK 927      BINDING AFFINITY PREDICTED BY RF-SCORE:    0.00 PKD
ROOT
HETATM    1  N   UNL     1     -10.448  10.512  67.737  1.00  0.00    -0.207 NA 
HETATM    2  H1  UNL     1     -10.517  10.431  66.723  1.00  0.00     0.000 HD 
HETATM    3  C   UNL     1      -9.742   9.306  68.227  1.00  0.00    -0.150 C  
HETATM    4  H2  UNL     1     -10.011  11.382  68.040  1.00  0.00     0.000 HD 
ENDROOT
BRANCH   3   5
HETATM    5  C   UNL     1      -9.638   9.429  69.777  1.00  0.00    -0.201 C  
HETATM    6  N   UNL     1      -7.716   8.449  72.972  1.00  0.00    -0.316 NA 
HETATM    7  N   UNL     1     -10.316   8.502  70.538  1.00  0.00    -0.196 N  
HETATM    8  O   UNL     1      -8.976  10.328  70.301  1.00  0.00     0.111 OA 
HETATM    9  C   UNL     1      -8.786   8.452  72.513  1.00  0.00    -0.225 C  
HETATM   10  C   UNL     1     -10.175   8.421  72.011  1.00  0.00    -0.294 C  
HETATM   11  C   UNL     1     -11.472   7.749  70.130  1.00  0.00    -0.043 C  
HETATM   12  C   UNL     1     -10.820   7.058  72.357  1.00  0.00    -0.272 C  
HETATM   13  C   UNL     1     -11.464   6.272  69.927  1.00  0.00    -0.459 C  
HETATM   14  C   UNL     1     -11.842   6.833  71.274  1.00  0.00    -0.396 C  
ENDBRANCH   3   5
BRANCH   3  15
HETATM   15  C   UNL     1      -8.351   9.111  67.523  1.00  0.00    -0.116 C  
HETATM   16  C   UNL     1      -6.482   9.566  65.234  1.00  0.00    -0.078 C  
HETATM   17  C   UNL     1      -6.330   7.291  66.266  1.00  0.00    -0.041 C  
HETATM   18  C   UNL     1      -8.548   8.453  66.120  1.00  0.00    -0.157 C  
HETATM   19  C   UNL     1      -6.233  10.206  66.609  1.00  0.00    -0.070 C  
HETATM   20  C   UNL     1      -6.090   7.921  67.647  1.00  0.00    -0.050 C  
HETATM   21  C   UNL     1      -7.581  10.445  67.312  1.00  0.00    -0.095 C  
HETATM   22  C   UNL     1      -7.443   8.156  68.350  1.00  0.00    -0.100 C  
HETATM   23  O   UNL     1      -5.570  11.452  66.442  1.00  0.00    -0.139 OA 
HETATM   24  C   UNL     1      -5.373   9.265  67.469  1.00  0.00    -0.037 C  
HETATM   25  H   UNL     1      -5.416  11.847  67.292  1.00  0.00     0.000 HD 
HETATM   26  C   UNL     1      -7.202   8.222  65.410  1.00  0.00    -0.071 C  
ENDBRANCH   3  15
TORSDOF 2
ENDMDL
MODEL      202
REMARK 921   NORMALIZED FREE ENERGY PREDICTED BY IDOCK:   -3.22 KCAL/MOL
REMARK 922        TOTAL FREE ENERGY PREDICTED BY IDOCK:   -4.06 KCAL/MOL
REMARK 923 INTER-LIGAND FREE ENERGY PREDICTED BY IDOCK:   -4.98 KCAL/MOL
REMARK 924 INTRA-LIGAND FREE ENERGY PREDICTED BY IDOCK:    0.92 KCAL/MOL
REMARK 927      BINDING AFFINITY PREDICTED BY RF-SCORE:    0.00 PKD
ROOT
HETATM    1  N   UNL     1     -12.523  14.773  67.512  1.00  0.00    -0.355 NA 
HETATM    2  H1  UNL     1     -13.187  14.051  67.234  1.00  0.00     0.000 HD 
HETATM    3  C   UNL     1     -11.744  14.237  68.653  1.00  0.00    -0.345 C  
HETATM    4  H2  UNL     1     -11.936  15.094  66.743  1.00  0.00     0.000 HD 
ENDROOT
BRANCH   3   5
HETATM    5  C   UNL     1     -10.729  15.341  69.079  1.00  0.00    -0.244 C  
HETATM    6  N   UNL     1     -10.142  19.084  69.790  1.00  0.00     0.293 NA 
HETATM    7  N   UNL     1     -10.004  15.960  68.084  1.00  0.00    -0.221 N  
HETATM    8  O   UNL     1     -10.580  15.643  70.264  1.00  0.00    -0.316 OA 
HETATM    9  C   UNL     1      -9.722  18.194  69.166  1.00  0.00    -0.098 C  
HETATM   10  C   UNL     1      -9.124  17.123  68.344  1.00  0.00    -0.263 C  
HETATM   11  C   UNL     1      -9.699  15.413  66.789  1.00  0.00    -0.240 C  
HETATM   12  C   UNL     1      -8.822  17.666  66.927  1.00  0.00    -0.260 C  
HETATM   13  C   UNL     1     -10.247  15.959  65.514  1.00  0.00    -0.394 C  
HETATM   14  C   UNL     1      -8.921  16.462  66.027  1.00  0.00    -0.307 C  
ENDBRANCH   3   5
BRANCH   3  15
HETATM   15  C   UNL     1     -11.062  12.864  68.307  1.00  0.00    -0.294 C  
HETATM   16  C   UNL     1      -9.262  11.181  66.613  1.00  0.00    -0.188 C  
HETATM   17  C   UNL     1     -11.315  10.008  67.436  1.00  0.00     0.233 C  
HETATM   18  C   UNL     1     -11.417  12.444  66.844  1.00  0.00    -0.423 C  
HETATM   19  C   UNL     1      -8.891  11.544  68.060  1.00  0.00    -0.158 C  
HETATM   20  C   UNL     1     -10.957  10.375  68.885  1.00  0.00    -0.289 C  
HETATM   21  C   UNL     1      -9.513  12.905  68.420  1.00  0.00    -0.162 C  
HETATM   22  C   UNL     1     -11.585  11.737  69.243  1.00  0.00    -0.378 C  
HETATM   23  O   UNL     1      -7.477  11.634  68.181  1.00  0.00    -0.091 OA 
HETATM   24  C   UNL     1      -9.432  10.470  69.018  1.00  0.00    -0.211 C  
HETATM   25  H   UNL     1      -7.248  11.858  69.076  1.00  0.00     0.000 HD 
HETATM   26  C   UNL     1     -10.788  11.088  66.478  1.00  0.00    -0.269 C  
ENDBRANCH   3  15
TORSDOF 2
ENDMDL
MODEL      203
REMARK 921   NORMALIZED FREE ENERGY PREDICTED BY IDOCK:   -3.18 KCAL/MOL
REMARK 922        TOTAL FREE ENERGY PREDICTED BY IDOCK:   -4.01 KCAL/MOL
REMARK 923 INTER-LIGAND FREE ENERGY PREDICTED BY IDOCK:   -3.40 KCAL/MOL
REMARK 924 INTRA-LIGAND FREE ENERGY PREDICTED BY IDOCK:   -0.62 KCAL/MOL
REMARK 927      BINDING AFFINITY PREDICTED BY RF-SCORE:    0.00 PKD
ROOT
HETATM    1  N   UNL     1      -9.518   3.725  69.057  1.00  0.00    -0.171 NA 
HETATM    2  H1  UNL     1      -8.844   3.050  68.696  1.00  0.00     0.000 HD 
HETATM    3  C   UNL     1      -8.819   5.025  69.176  1.00  0.00    -0.092 C  
HETATM    4  H2  UNL     1     -10.369   3.778  68.497  1.00  0.00     0.000 HD 
ENDROOT
BRANCH   3   5
HETATM    5  C   UNL     1      -9.849   6.055  69.729  1.00  0.00    -0.165 C  
HETATM    6  N   UNL     1     -11.237   9.647  69.550  1.00  0.00    -0.164 NA 
HETATM    7  N   UNL     1      -9.469   6.822  70.808  1.00  0.00    -0.165 N  
HETATM    8  O   UNL     1     -10.966   6.173  69.220  1.00  0.00    -0.313 OA 
HETATM    9  C   UNL     1     -10.816   8.866  70.304  1.00  0.00    -0.239 C  
HETATM   10  C   UNL     1     -10.298   7.936  71.328  1.00  0.00    -0.191 C  
HETATM   11  C   UNL     1      -8.467   6.482  71.783  1.00  0.00    -0.123 C  
HETATM   12  C   UNL     1      -9.330   8.691  72.271  1.00  0.00    -0.322 C  
HETATM   13  C   UNL     1      -7.176   7.214  71.927  1.00  0.00    -0.080 C  
HETATM   14  C   UNL     1      -8.366   7.638  72.751  1.00  0.00    -0.167 C  
ENDBRANCH   3   5
BRANCH   3  15
HETATM   15  C   UNL     1      -8.163   5.467  67.819  1.00  0.00    -0.100 C  
HETATM   16  C   UNL     1      -6.928   4.831  65.171  1.00  0.00    -0.062 C  
HETATM   17  C   UNL     1      -5.904   6.784  66.356  1.00  0.00    -0.025 C  
HETATM   18  C   UNL     1      -6.747   4.823  67.673  1.00  0.00    -0.051 C  
HETATM   19  C   UNL     1      -8.309   5.497  65.270  1.00  0.00    -0.144 C  
HETATM   20  C   UNL     1      -7.283   7.453  66.468  1.00  0.00    -0.079 C  
HETATM   21  C   UNL     1      -8.997   5.054  66.574  1.00  0.00    -0.116 C  
HETATM   22  C   UNL     1      -7.967   7.010  67.777  1.00  0.00    -0.114 C  
HETATM   23  O   UNL     1      -9.111   5.098  64.166  1.00  0.00    -0.349 OA 
HETATM   24  C   UNL     1      -8.148   7.025  65.276  1.00  0.00    -0.134 C  
HETATM   25  H   UNL     1      -9.965   5.509  64.227  1.00  0.00     0.000 HD 
HETATM   26  C   UNL     1      -6.062   5.256  66.365  1.00  0.00    -0.030 C  
ENDBRANCH   3  15
TORSDOF 2
ENDMDL
MODEL      204
REMARK 921   NORMALIZED FREE ENERGY PREDICTED BY IDOCK:   -3.18 KCAL/MOL
REMARK 922        TOTAL FREE ENERGY PREDICTED BY IDOCK:   -4.01 KCAL/MOL
REMARK 923 INTER-LIGAND FREE ENERGY PREDICTED BY IDOCK:   -5.12 KCAL/MOL
REMARK 924 INTRA-LIGAND FREE ENERGY PREDICTED BY IDOCK:    1.11 KCAL/MOL
REMARK 927      BINDING AFFINITY PREDICTED BY RF-SCORE:    0.00 PKD
ROOT
HETATM    1  N   UNL     1     -11.552  14.572  68.281  1.00  0.00    -0.312 NA 
HETATM    2  H1  UNL     1     -12.122  14.063  68.957  1.00  0.00     0.000 HD 
HETATM    3  C   UNL     1     -10.147  14.146  68.481  1.00  0.00    -0.243 C  
HETATM    4  H2  UNL     1     -11.872  14.455  67.320  1.00  0.00     0.000 HD 
ENDROOT
BRANCH   3   5
HETATM    5  C   UNL     1      -9.277  14.925  67.450  1.00  0.00    -0.194 C  
HETATM    6  N   UNL     1      -5.904  16.640  66.715  1.00  0.00    -0.326 NA 
HETATM    7  N   UNL     1      -9.374  16.299  67.440  1.00  0.00    -0.219 N  
HETATM    8  O   UNL     1      -8.533  14.329  66.668  1.00  0.00    -0.100 OA 
HETATM    9  C   UNL     1      -7.052  16.830  66.686  1.00  0.00    -0.240 C  
HETATM   10  C   UNL     1      -8.491  17.156  66.615  1.00  0.00    -0.250 C  
HETATM   11  C   UNL     1     -10.496  17.075  67.899  1.00  0.00    -0.354 C  
HETATM   12  C   UNL     1      -8.730  18.573  67.190  1.00  0.00    -0.274 C  
HETATM   13  C   UNL     1     -10.447  17.966  69.094  1.00  0.00    -0.002 C  
HETATM   14  C   UNL     1     -10.135  18.533  67.732  1.00  0.00    -0.391 C  
ENDBRANCH   3   5
BRANCH   3  15
HETATM   15  C   UNL     1      -9.986  12.586  68.382  1.00  0.00    -0.212 C  
HETATM   16  C   UNL     1      -9.297   9.937  69.585  1.00  0.00    -0.247 C  
HETATM   17  C   UNL     1      -8.600  10.209  67.197  1.00  0.00    -0.125 C  
HETATM   18  C   UNL     1      -8.525  12.175  68.753  1.00  0.00     0.093 C  
HETATM   19  C   UNL     1     -10.743  10.290  69.203  1.00  0.00    -0.228 C  
HETATM   20  C   UNL     1     -10.041  10.573  66.806  1.00  0.00    -0.270 C  
HETATM   21  C   UNL     1     -10.946  11.811  69.326  1.00  0.00    -0.231 C  
HETATM   22  C   UNL     1     -10.240  12.097  66.927  1.00  0.00    -0.228 C  
HETATM   23  O   UNL     1     -11.644   9.630  70.082  1.00  0.00    -0.354 OA 
HETATM   24  C   UNL     1     -11.014   9.858  67.753  1.00  0.00    -0.278 C  
HETATM   25  H   UNL     1     -12.537   9.847  69.845  1.00  0.00     0.000 HD 
HETATM   26  C   UNL     1      -8.322  10.653  68.641  1.00  0.00    -0.137 C  
ENDBRANCH   3  15
TORSDOF 2
ENDMDL
MODEL      205
REMARK 921   NORMALIZED FREE ENERGY PREDICTED BY IDOCK:   -3.13 KCAL/MOL
REMARK 922        TOTAL FREE ENERGY PREDICTED BY IDOCK:   -3.96 KCAL/MOL
REMARK 923 INTER-LIGAND FREE ENERGY PREDICTED BY IDOCK:   -3.46 KCAL/MOL
REMARK 924 INTRA-LIGAND FREE ENERGY PREDICTED BY IDOCK:   -0.50 KCAL/MOL
REMARK 927      BINDING AFFINITY PREDICTED BY RF-SCORE:    0.00 PKD
ROOT
HETATM    1  N   UNL     1      -6.587  10.204  70.765  1.00  0.00    -0.313 NA 
HETATM    2  H1  UNL     1      -6.836  11.106  70.360  1.00  0.00     0.000 HD 
HETATM    3  C   UNL     1      -7.741   9.297  70.560  1.00  0.00    -0.148 C  
HETATM    4  H2  UNL     1      -5.713   9.828  70.398  1.00  0.00     0.000 HD 
ENDROOT
BRANCH   3   5
HETATM    5  C   UNL     1      -7.360   7.919  71.180  1.00  0.00    -0.063 C  
HETATM    6  N   UNL     1      -7.236   4.094  70.716  1.00  0.00    -0.037 NA 
HETATM    7  N   UNL     1      -8.320   7.266  71.921  1.00  0.00    -0.107 N  
HETATM    8  O   UNL     1      -6.238   7.436  71.016  1.00  0.00    -0.035 OA 
HETATM    9  C   UNL     1      -7.618   4.915  71.448  1.00  0.00    -0.083 C  
HETATM   10  C   UNL     1      -8.133   5.887  72.433  1.00  0.00    -0.110 C  
HETATM   11  C   UNL     1      -9.434   7.877  72.598  1.00  0.00    -0.222 C  
HETATM   12  C   UNL     1      -9.558   5.474  72.873  1.00  0.00    -0.159 C  
HETATM   13  C   UNL     1     -10.856   7.666  72.200  1.00  0.00    -0.293 C  
HETATM   14  C   UNL     1     -10.235   6.768  73.241  1.00  0.00    -0.271 C  
ENDBRANCH   3   5
BRANCH   3  15
HETATM   15  C   UNL     1      -8.156   9.206  69.048  1.00  0.00    -0.102 C  
HETATM   16  C   UNL     1      -7.482   9.231  66.135  1.00  0.00    -0.096 C  
HETATM   17  C   UNL     1      -9.648  10.345  66.712  1.00  0.00    -0.209 C  
HETATM   18  C   UNL     1      -7.704  10.496  68.290  1.00  0.00    -0.101 C  
HETATM   19  C   UNL     1      -7.957   7.948  66.835  1.00  0.00    -0.108 C  
HETATM   20  C   UNL     1     -10.127   9.070  67.424  1.00  0.00    -0.291 C  
HETATM   21  C   UNL     1      -7.531   7.987  68.314  1.00  0.00    -0.100 C  
HETATM   22  C   UNL     1      -9.703   9.114  68.905  1.00  0.00    -0.165 C  
HETATM   23  O   UNL     1      -7.362   6.816  66.213  1.00  0.00    -0.070 OA 
HETATM   24  C   UNL     1      -9.488   7.848  66.751  1.00  0.00    -0.257 C  
HETATM   25  H   UNL     1      -7.656   6.023  66.645  1.00  0.00     0.000 HD 
HETATM   26  C   UNL     1      -8.119  10.454  66.808  1.00  0.00    -0.120 C  
ENDBRANCH   3  15
TORSDOF 2
ENDMDL
MODEL      206
REMARK 921   NORMALIZED FREE ENERGY PREDICTED BY IDOCK:   -3.09 KCAL/MOL
REMARK 922        TOTAL FREE ENERGY PREDICTED BY IDOCK:   -3.91 KCAL/MOL
REMARK 923 INTER-LIGAND FREE ENERGY PREDICTED BY IDOCK:   -3.48 KCAL/MOL
REMARK 924 INTRA-LIGAND FREE ENERGY PREDICTED BY IDOCK:   -0.43 KCAL/MOL
REMARK 927      BINDING AFFINITY PREDICTED BY RF-SCORE:    0.00 PKD
ROOT
HETATM    1  N   UNL     1      -9.975   3.384  71.351  1.00  0.00    -0.134 NA 
HETATM    2  H1  UNL     1     -10.539   3.598  72.173  1.00  0.00     0.000 HD 
HETATM    3  C   UNL     1      -9.837   4.637  70.573  1.00  0.00    -0.231 C  
HETATM    4  H2  UNL     1      -9.078   2.956  71.581  1.00  0.00     0.000 HD 
ENDROOT
BRANCH   3   5
HETATM    5  C   UNL     1      -8.977   4.310  69.316  1.00  0.00    -0.102 C  
HETATM    6  N   UNL     1      -5.807   5.116  67.275  1.00  0.00    -0.024 NA 
HETATM    7  N   UNL     1      -9.257   4.994  68.154  1.00  0.00    -0.115 N  
HETATM    8  O   UNL     1      -8.080   3.465  69.363  1.00  0.00    -0.053 OA 
HETATM    9  C   UNL     1      -6.962   5.005  67.167  1.00  0.00    -0.061 C  
HETATM   10  C   UNL     1      -8.415   4.882  66.939  1.00  0.00    -0.106 C  
HETATM   11  C   UNL     1     -10.515   5.600  67.807  1.00  0.00    -0.211 C  
HETATM   12  C   UNL     1      -8.903   6.058  66.059  1.00  0.00    -0.159 C  
HETATM   13  C   UNL     1     -10.714   7.072  67.682  1.00  0.00    -0.331 C  
HETATM   14  C   UNL     1     -10.339   6.268  66.462  1.00  0.00    -0.165 C  
ENDBRANCH   3   5
BRANCH   3  15
HETATM   15  C   UNL     1      -9.252   5.808  71.442  1.00  0.00    -0.157 C  
HETATM   16  C   UNL     1      -7.559   8.253  71.753  1.00  0.00    -0.119 C  
HETATM   17  C   UNL     1      -7.536   6.713  73.726  1.00  0.00    -0.083 C  
HETATM   18  C   UNL     1      -7.690   5.772  71.406  1.00  0.00    -0.107 C  
HETATM   19  C   UNL     1      -9.092   8.326  71.829  1.00  0.00    -0.193 C  
HETATM   20  C   UNL     1      -9.070   6.772  73.804  1.00  0.00    -0.178 C  
HETATM   21  C   UNL     1      -9.700   7.214  70.956  1.00  0.00    -0.165 C  
HETATM   22  C   UNL     1      -9.675   5.654  72.932  1.00  0.00    -0.169 C  
HETATM   23  O   UNL     1      -9.534   9.588  71.346  1.00  0.00    -0.289 OA 
HETATM   24  C   UNL     1      -9.547   8.134  73.285  1.00  0.00    -0.261 C  
HETATM   25  H   UNL     1     -10.482   9.633  71.393  1.00  0.00     0.000 HD 
HETATM   26  C   UNL     1      -7.080   6.890  72.270  1.00  0.00    -0.073 C  
ENDBRANCH   3  15
TORSDOF 2
ENDMDL
MODEL      207
REMARK 921   NORMALIZED FREE ENERGY PREDICTED BY IDOCK:   -3.03 KCAL/MOL
REMARK 922        TOTAL FREE ENERGY PREDICTED BY IDOCK:   -3.84 KCAL/MOL
REMARK 923 INTER-LIGAND FREE ENERGY PREDICTED BY IDOCK:   -4.07 KCAL/MOL
REMARK 924 INTRA-LIGAND FREE ENERGY PREDICTED BY IDOCK:    0.23 KCAL/MOL
REMARK 927      BINDING AFFINITY PREDICTED BY RF-SCORE:    0.00 PKD
ROOT
HETATM    1  N   UNL     1      -9.125  14.087  69.564  1.00  0.00     0.047 NA 
HETATM    2  H1  UNL     1      -8.268  14.051  70.115  1.00  0.00     0.000 HD 
HETATM    3  C   UNL     1      -8.820  13.504  68.236  1.00  0.00    -0.179 C  
HETATM    4  H2  UNL     1      -9.916  13.638  70.025  1.00  0.00     0.000 HD 
ENDROOT
BRANCH   3   5
HETATM    5  C   UNL     1     -10.130  13.560  67.395  1.00  0.00    -0.237 C  
HETATM    6  N   UNL     1     -11.873  12.667  64.075  1.00  0.00    -0.393 NA 
HETATM    7  N   UNL     1     -10.324  14.659  66.588  1.00  0.00    -0.269 N  
HETATM    8  O   UNL     1     -10.963  12.653  67.454  1.00  0.00    -0.240 OA 
HETATM    9  C   UNL     1     -11.665  13.565  64.786  1.00  0.00    -0.370 C  
HETATM   10  C   UNL     1     -11.451  14.758  65.630  1.00  0.00    -0.327 C  
HETATM   11  C   UNL     1      -9.741  15.962  66.772  1.00  0.00    -0.238 C  
HETATM   12  C   UNL     1     -11.057  15.960  64.738  1.00  0.00    -0.397 C  
HETATM   13  C   UNL     1      -8.739  16.555  65.840  1.00  0.00    -0.118 C  
HETATM   14  C   UNL     1     -10.206  16.831  65.625  1.00  0.00    -0.258 C  
ENDBRANCH   3   5
BRANCH   3  15
HETATM   15  C   UNL     1      -8.215  12.059  68.354  1.00  0.00    -0.151 C  
HETATM   16  C   UNL     1      -5.984  10.107  67.963  1.00  0.00    -0.041 C  
HETATM   17  C   UNL     1      -8.270   9.170  67.560  1.00  0.00    -0.108 C  
HETATM   18  C   UNL     1      -7.767  11.550  66.947  1.00  0.00    -0.157 C  
HETATM   19  C   UNL     1      -6.416  10.556  69.368  1.00  0.00    -0.062 C  
HETATM   20  C   UNL     1      -8.715   9.625  68.960  1.00  0.00    -0.142 C  
HETATM   21  C   UNL     1      -6.980  11.987  69.294  1.00  0.00    -0.028 C  
HETATM   22  C   UNL     1      -9.282  11.056  68.882  1.00  0.00    -0.139 C  
HETATM   23  O   UNL     1      -5.294  10.546  70.240  1.00  0.00    -0.044 OA 
HETATM   24  C   UNL     1      -7.504   9.610  69.901  1.00  0.00    -0.127 C  
HETATM   25  H   UNL     1      -5.561  10.823  71.108  1.00  0.00     0.000 HD 
HETATM   26  C   UNL     1      -7.193  10.123  67.019  1.00  0.00    -0.091 C  
ENDBRANCH   3  15
TORSDOF 2
ENDMDL
MODEL      208
REMARK 921   NORMALIZED FREE ENERGY PREDICTED BY IDOCK:   -3.03 KCAL/MOL
REMARK 922        TOTAL FREE ENERGY PREDICTED BY IDOCK:   -3.84 KCAL/MOL
REMARK 923 INTER-LIGAND FREE ENERGY PREDICTED BY IDOCK:   -3.21 KCAL/MOL
REMARK 924 INTRA-LIGAND FREE ENERGY PREDICTED BY IDOCK:   -0.63 KCAL/MOL
REMARK 927      BINDING AFFINITY PREDICTED BY RF-SCORE:    0.00 PKD
ROOT
HETATM    1  N   UNL     1      -6.337   8.727  72.549  1.00  0.00    -0.196 NA 
HETATM    2  H1  UNL     1      -5.903   9.581  72.200  1.00  0.00     0.000 HD 
HETATM    3  C   UNL     1      -7.543   8.478  71.725  1.00  0.00    -0.114 C  
HETATM    4  H2  UNL     1      -5.697   7.933  72.570  1.00  0.00     0.000 HD 
ENDROOT
BRANCH   3   5
HETATM    5  C   UNL     1      -8.206   7.173  72.260  1.00  0.00    -0.101 C  
HETATM    6  N   UNL     1      -9.778   3.762  71.391  1.00  0.00    -0.169 NA 
HETATM    7  N   UNL     1      -9.575   7.168  72.412  1.00  0.00    -0.145 N  
HETATM    8  O   UNL     1      -7.527   6.183  72.540  1.00  0.00    -0.095 OA 
HETATM    9  C   UNL     1      -9.988   4.742  71.985  1.00  0.00    -0.186 C  
HETATM   10  C   UNL     1     -10.335   5.946  72.765  1.00  0.00    -0.196 C  
HETATM   11  C   UNL     1     -10.413   8.322  72.609  1.00  0.00    -0.303 C  
HETATM   12  C   UNL     1     -11.803   6.344  72.479  1.00  0.00    -0.174 C  
HETATM   13  C   UNL     1     -11.408   8.798  71.606  1.00  0.00    -0.390 C  
HETATM   14  C   UNL     1     -11.842   7.836  72.683  1.00  0.00    -0.317 C  
ENDBRANCH   3   5
BRANCH   3  15
HETATM   15  C   UNL     1      -7.207   8.424  70.192  1.00  0.00    -0.050 C  
HETATM   16  C   UNL     1      -6.670   6.902  67.675  1.00  0.00    -0.067 C  
HETATM   17  C   UNL     1      -5.296   8.976  67.951  1.00  0.00    -0.035 C  
HETATM   18  C   UNL     1      -5.901   7.599  69.959  1.00  0.00    -0.023 C  
HETATM   19  C   UNL     1      -7.953   7.729  67.851  1.00  0.00    -0.125 C  
HETATM   20  C   UNL     1      -6.574   9.810  68.138  1.00  0.00    -0.060 C  
HETATM   21  C   UNL     1      -8.332   7.771  69.342  1.00  0.00    -0.133 C  
HETATM   22  C   UNL     1      -6.948   9.853  69.633  1.00  0.00    -0.086 C  
HETATM   23  O   UNL     1      -9.013   7.127  67.120  1.00  0.00    -0.122 OA 
HETATM   24  C   UNL     1      -7.717   9.162  67.348  1.00  0.00    -0.092 C  
HETATM   25  H   UNL     1      -9.806   7.638  67.229  1.00  0.00     0.000 HD 
HETATM   26  C   UNL     1      -5.525   7.547  68.467  1.00  0.00    -0.026 C  
ENDBRANCH   3  15
TORSDOF 2
ENDMDL
MODEL      209
REMARK 921   NORMALIZED FREE ENERGY PREDICTED BY IDOCK:   -3.00 KCAL/MOL
REMARK 922        TOTAL FREE ENERGY PREDICTED BY IDOCK:   -3.82 KCAL/MOL
REMARK 923 INTER-LIGAND FREE ENERGY PREDICTED BY IDOCK:   -4.76 KCAL/MOL
REMARK 924 INTRA-LIGAND FREE ENERGY PREDICTED BY IDOCK:    0.95 KCAL/MOL
REMARK 927      BINDING AFFINITY PREDICTED BY RF-SCORE:    0.00 PKD
ROOT
HETATM    1  N   UNL     1     -11.353   8.074  69.871  1.00  0.00    -0.456 NA 
HETATM    2  H1  UNL     1     -12.256   8.439  69.569  1.00  0.00     0.000 HD 
HETATM    3  C   UNL     1     -10.412   8.236  68.738  1.00  0.00    -0.177 C  
HETATM    4  H2  UNL     1     -11.017   8.502  70.733  1.00  0.00     0.000 HD 
ENDROOT
BRANCH   3   5
HETATM    5  C   UNL     1      -9.033   7.677  69.200  1.00  0.00    -0.135 C  
HETATM    6  N   UNL     1      -7.033   4.609  70.406  1.00  0.00    -0.040 NA 
HETATM    7  N   UNL     1      -8.738   7.734  70.544  1.00  0.00    -0.139 N  
HETATM    8  O   UNL     1      -8.234   7.205  68.388  1.00  0.00    -0.122 OA 
HETATM    9  C   UNL     1      -7.277   5.712  70.690  1.00  0.00    -0.078 C  
HETATM   10  C   UNL     1      -7.530   7.100  71.124  1.00  0.00    -0.080 C  
HETATM   11  C   UNL     1      -9.297   8.654  71.499  1.00  0.00    -0.249 C  
HETATM   12  C   UNL     1      -7.811   7.125  72.646  1.00  0.00    -0.102 C  
HETATM   13  C   UNL     1     -10.198   8.239  72.612  1.00  0.00    -0.368 C  
HETATM   14  C   UNL     1      -8.710   8.315  72.850  1.00  0.00    -0.291 C  
ENDBRANCH   3   5
BRANCH   3  15
HETATM   15  C   UNL     1     -10.345   9.723  68.237  1.00  0.00    -0.231 C  
HETATM   16  C   UNL     1     -11.604  12.131  66.988  1.00  0.00    -0.406 C  
HETATM   17  C   UNL     1      -9.211  11.760  66.354  1.00  0.00    -0.223 C  
HETATM   18  C   UNL     1     -10.727   9.795  66.723  1.00  0.00    -0.143 C  
HETATM   19  C   UNL     1     -11.212  12.113  68.474  1.00  0.00    -0.260 C  
HETATM   20  C   UNL     1      -8.811  11.731  67.838  1.00  0.00    -0.165 C  
HETATM   21  C   UNL     1     -11.304  10.672  69.008  1.00  0.00    -0.340 C  
HETATM   22  C   UNL     1      -8.900  10.286  68.369  1.00  0.00    -0.129 C  
HETATM   23  O   UNL     1     -12.104  12.938  69.213  1.00  0.00    -0.268 OA 
HETATM   24  C   UNL     1      -9.771  12.622  68.635  1.00  0.00    -0.050 C  
HETATM   25  H   UNL     1     -11.862  12.927  70.131  1.00  0.00     0.000 HD 
HETATM   26  C   UNL     1     -10.646  11.237  66.189  1.00  0.00    -0.312 C  
ENDBRANCH   3  15
TORSDOF 2
ENDMDL
MODEL      210
REMARK 921   NORMALIZED FREE ENERGY PREDICTED BY IDOCK:   -2.95 KCAL/MOL
REMARK 922        TOTAL FREE ENERGY PREDICTED BY IDOCK:   -3.76 KCAL/MOL
REMARK 923 INTER-LIGAND FREE ENERGY PREDICTED BY IDOCK:   -4.71 KCAL/MOL
REMARK 924 INTRA-LIGAND FREE ENERGY PREDICTED BY IDOCK:    0.95 KCAL/MOL
REMARK 927      BINDING AFFINITY PREDICTED BY RF-SCORE:    0.00 PKD
ROOT
HETATM    1  N   UNL     1      -8.098  11.015  65.591  1.00  0.00    -0.349 NA 
HETATM    2  H1  UNL     1      -7.663  10.102  65.459  1.00  0.00     0.000 HD 
HETATM    3  C   UNL     1      -9.475  10.779  66.084  1.00  0.00    -0.187 C  
HETATM    4  H2  UNL     1      -7.557  11.631  66.198  1.00  0.00     0.000 HD 
ENDROOT
BRANCH   3   5
HETATM    5  C   UNL     1     -10.139  12.175  66.285  1.00  0.00    -0.224 C  
HETATM    6  N   UNL     1     -10.939  15.620  64.751  1.00  0.00    -0.436 NA 
HETATM    7  N   UNL     1      -9.362  13.181  66.814  1.00  0.00    -0.241 N  
HETATM    8  O   UNL     1     -11.319  12.366  65.984  1.00  0.00    -0.317 OA 
HETATM    9  C   UNL     1     -10.456  15.126  65.689  1.00  0.00    -0.359 C  
HETATM   10  C   UNL     1      -9.831  14.584  66.912  1.00  0.00    -0.262 C  
HETATM   11  C   UNL     1      -8.197  13.010  67.642  1.00  0.00    -0.171 C  
HETATM   12  C   UNL     1      -8.535  15.372  67.224  1.00  0.00    -0.214 C  
HETATM   13  C   UNL     1      -6.818  13.374  67.208  1.00  0.00     0.066 C  
HETATM   14  C   UNL     1      -7.654  14.388  67.947  1.00  0.00    -0.158 C  
ENDBRANCH   3   5
BRANCH   3  15
HETATM   15  C   UNL     1      -9.493   9.888  67.377  1.00  0.00    -0.173 C  
HETATM   16  C   UNL     1      -8.362   7.701  69.073  1.00  0.00    -0.128 C  
HETATM   17  C   UNL     1     -10.862   7.829  69.070  1.00  0.00    -0.042 C  
HETATM   18  C   UNL     1      -9.578   8.378  66.986  1.00  0.00    -0.248 C  
HETATM   19  C   UNL     1      -8.288   9.172  69.511  1.00  0.00    -0.126 C  
HETATM   20  C   UNL     1     -10.797   9.305  69.498  1.00  0.00    -0.211 C  
HETATM   21  C   UNL     1      -8.230  10.072  68.264  1.00  0.00    -0.106 C  
HETATM   22  C   UNL     1     -10.744  10.204  68.247  1.00  0.00    -0.277 C  
HETATM   23  O   UNL     1      -7.115   9.380  70.286  1.00  0.00    -0.069 OA 
HETATM   24  C   UNL     1      -9.533   9.529  70.338  1.00  0.00    -0.317 C  
HETATM   25  H   UNL     1      -7.069  10.289  70.557  1.00  0.00     0.000 HD 
HETATM   26  C   UNL     1      -9.625   7.474  68.231  1.00  0.00    -0.157 C  
ENDBRANCH   3  15
TORSDOF 2
ENDMDL
MODEL      211
REMARK 921   NORMALIZED FREE ENERGY PREDICTED BY IDOCK:   -2.84 KCAL/MOL
REMARK 922        TOTAL FREE ENERGY PREDICTED BY IDOCK:   -3.63 KCAL/MOL
REMARK 923 INTER-LIGAND FREE ENERGY PREDICTED BY IDOCK:   -4.73 KCAL/MOL
REMARK 924 INTRA-LIGAND FREE ENERGY PREDICTED BY IDOCK:    1.10 KCAL/MOL
REMARK 927      BINDING AFFINITY PREDICTED BY RF-SCORE:    0.00 PKD
ROOT
HETATM    1  N   UNL     1     -10.906   9.388  70.076  1.00  0.00    -0.232 NA 
HETATM    2  H1  UNL     1     -11.695   9.333  70.720  1.00  0.00     0.000 HD 
HETATM    3  C   UNL     1      -9.670   9.269  70.884  1.00  0.00    -0.276 C  
HETATM    4  H2  UNL     1     -10.957   8.704  69.321  1.00  0.00     0.000 HD 
ENDROOT
BRANCH   3   5
HETATM    5  C   UNL     1      -8.465   9.355  69.900  1.00  0.00    -0.177 C  
HETATM    6  N   UNL     1      -6.715  11.352  67.106  1.00  0.00    -0.110 NA 
HETATM    7  N   UNL     1      -8.608   8.768  68.662  1.00  0.00    -0.133 N  
HETATM    8  O   UNL     1      -7.420   9.924  70.223  1.00  0.00    -0.156 OA 
HETATM    9  C   UNL     1      -7.117  10.288  67.355  1.00  0.00    -0.083 C  
HETATM   10  C   UNL     1      -7.596   8.911  67.589  1.00  0.00    -0.093 C  
HETATM   11  C   UNL     1      -9.504   7.692  68.330  1.00  0.00    -0.150 C  
HETATM   12  C   UNL     1      -8.338   8.400  66.330  1.00  0.00    -0.123 C  
HETATM   13  C   UNL     1     -10.672   7.845  67.417  1.00  0.00    -0.278 C  
HETATM   14  C   UNL     1      -9.343   7.409  66.854  1.00  0.00    -0.195 C  
ENDBRANCH   3   5
BRANCH   3  15
HETATM   15  C   UNL     1      -9.666   7.968  71.764  1.00  0.00    -0.233 C  
HETATM   16  C   UNL     1     -10.514   6.435  74.187  1.00  0.00    -0.258 C  
HETATM   17  C   UNL     1      -8.160   6.004  73.454  1.00  0.00    -0.111 C  
HETATM   18  C   UNL     1      -9.150   8.296  73.202  1.00  0.00    -0.305 C  
HETATM   19  C   UNL     1     -11.019   6.058  72.785  1.00  0.00    -0.264 C  
HETATM   20  C   UNL     1      -8.654   5.636  72.046  1.00  0.00    -0.130 C  
HETATM   21  C   UNL     1     -11.071   7.321  71.906  1.00  0.00    -0.270 C  
HETATM   22  C   UNL     1      -8.702   6.902  71.167  1.00  0.00    -0.135 C  
HETATM   23  O   UNL     1     -12.325   5.505  72.880  1.00  0.00    -0.519 OA 
HETATM   24  C   UNL     1     -10.062   5.037  72.148  1.00  0.00    -0.252 C  
HETATM   25  H   UNL     1     -12.636   5.272  72.014  1.00  0.00     0.000 HD 
HETATM   26  C   UNL     1      -9.106   7.036  74.086  1.00  0.00    -0.250 C  
ENDBRANCH   3  15
TORSDOF 2
ENDMDL
MODEL      212
REMARK 921   NORMALIZED FREE ENERGY PREDICTED BY IDOCK:   -2.81 KCAL/MOL
REMARK 922        TOTAL FREE ENERGY PREDICTED BY IDOCK:   -3.60 KCAL/MOL
REMARK 923 INTER-LIGAND FREE ENERGY PREDICTED BY IDOCK:   -3.95 KCAL/MOL
REMARK 924 INTRA-LIGAND FREE ENERGY PREDICTED BY IDOCK:    0.35 KCAL/MOL
REMARK 927      BINDING AFFINITY PREDICTED BY RF-SCORE:    0.00 PKD
ROOT
HETATM    1  N   UNL     1     -11.865  17.085  68.583  1.00  0.00     0.431 NA 
HETATM    2  H1  UNL     1     -12.317  17.790  69.165  1.00  0.00     0.000 HD 
HETATM    3  C   UNL     1     -11.087  16.203  69.485  1.00  0.00    -0.344 C  
HETATM    4  H2  UNL     1     -12.520  16.573  67.993  1.00  0.00     0.000 HD 
ENDROOT
BRANCH   3   5
HETATM    5  C   UNL     1     -10.396  15.126  68.596  1.00  0.00    -0.232 C  
HETATM    6  N   UNL     1      -8.162  11.987  68.479  1.00  0.00    -0.142 NA 
HETATM    7  N   UNL     1      -9.127  15.398  68.134  1.00  0.00    -0.182 N  
HETATM    8  O   UNL     1     -10.969  14.072  68.314  1.00  0.00    -0.242 OA 
HETATM    9  C   UNL     1      -8.260  13.057  68.030  1.00  0.00    -0.161 C  
HETATM   10  C   UNL     1      -8.309  14.396  67.410  1.00  0.00    -0.201 C  
HETATM   11  C   UNL     1      -8.550  16.704  67.952  1.00  0.00    -0.196 C  
HETATM   12  C   UNL     1      -6.894  15.022  67.414  1.00  0.00    -0.144 C  
HETATM   13  C   UNL     1      -7.413  17.223  68.765  1.00  0.00    -0.260 C  
HETATM   14  C   UNL     1      -7.132  16.508  67.467  1.00  0.00    -0.169 C  
ENDBRANCH   3   5
BRANCH   3  15
HETATM   15  C   UNL     1     -11.980  15.592  70.624  1.00  0.00    -0.416 C  
HETATM   16  C   UNL     1     -14.146  13.755  71.560  1.00  0.00    -0.060 C  
HETATM   17  C   UNL     1     -14.070  15.961  72.740  1.00  0.00    -0.353 C  
HETATM   18  C   UNL     1     -13.492  15.825  70.302  1.00  0.00     0.800 C  
HETATM   19  C   UNL     1     -12.675  13.508  71.927  1.00  0.00    -0.200 C  
HETATM   20  C   UNL     1     -12.594  15.728  73.103  1.00  0.00    -0.607 C  
HETATM   21  C   UNL     1     -11.771  14.063  70.811  1.00  0.00    -0.190 C  
HETATM   22  C   UNL     1     -11.692  16.288  71.985  1.00  0.00    -0.528 C  
HETATM   23  O   UNL     1     -12.443  12.112  72.058  1.00  0.00     0.078 OA 
HETATM   24  C   UNL     1     -12.344  14.222  73.248  1.00  0.00    -0.050 C  
HETATM   25  H   UNL     1     -11.533  11.960  72.285  1.00  0.00     0.000 HD 
HETATM   26  C   UNL     1     -14.398  15.262  71.412  1.00  0.00    -0.578 C  
ENDBRANCH   3  15
TORSDOF 2
ENDMDL
MODEL      213
REMARK 921   NORMALIZED FREE ENERGY PREDICTED BY IDOCK:   -2.80 KCAL/MOL
REMARK 922        TOTAL FREE ENERGY PREDICTED BY IDOCK:   -3.59 KCAL/MOL
REMARK 923 INTER-LIGAND FREE ENERGY PREDICTED BY IDOCK:   -5.51 KCAL/MOL
REMARK 924 INTRA-LIGAND FREE ENERGY PREDICTED BY IDOCK:    1.93 KCAL/MOL
REMARK 927      BINDING AFFINITY PREDICTED BY RF-SCORE:    0.00 PKD
ROOT
HETATM    1  N   UNL     1     -10.571  11.513  67.194  1.00  0.00    -0.226 NA 
HETATM    2  H1  UNL     1     -10.643  10.652  66.651  1.00  0.00     0.000 HD 
HETATM    3  C   UNL     1     -11.336  11.308  68.446  1.00  0.00    -0.281 C  
HETATM    4  H2  UNL     1      -9.607  11.802  67.358  1.00  0.00     0.000 HD 
ENDROOT
BRANCH   3   5
HETATM    5  C   UNL     1     -11.227  12.623  69.275  1.00  0.00    -0.193 C  
HETATM    6  N   UNL     1     -12.895  15.947  70.290  1.00  0.00    -0.222 NA 
HETATM    7  N   UNL     1     -10.644  13.714  68.668  1.00  0.00    -0.248 N  
HETATM    8  O   UNL     1     -11.643  12.681  70.433  1.00  0.00    -0.120 OA 
HETATM    9  C   UNL     1     -11.906  15.516  69.851  1.00  0.00    -0.362 C  
HETATM   10  C   UNL     1     -10.618  15.057  69.294  1.00  0.00    -0.247 C  
HETATM   11  C   UNL     1      -9.704  13.679  67.578  1.00  0.00    -0.227 C  
HETATM   12  C   UNL     1     -10.197  15.985  68.129  1.00  0.00    -0.243 C  
HETATM   13  C   UNL     1     -10.009  14.189  66.211  1.00  0.00    -0.315 C  
HETATM   14  C   UNL     1      -9.373  15.110  67.221  1.00  0.00    -0.210 C  
ENDBRANCH   3   5
BRANCH   3  15
HETATM   15  C   UNL     1     -10.853  10.035  69.230  1.00  0.00    -0.261 C  
HETATM   16  C   UNL     1      -9.596   8.742  71.615  1.00  0.00    -0.363 C  
HETATM   17  C   UNL     1      -9.024   7.669  69.426  1.00  0.00    -0.139 C  
HETATM   18  C   UNL     1      -9.330  10.156  69.559  1.00  0.00    -0.230 C  
HETATM   19  C   UNL     1     -11.092   8.570  71.308  1.00  0.00    -0.262 C  
HETATM   20  C   UNL     1     -10.519   7.503  69.106  1.00  0.00    -0.220 C  
HETATM   21  C   UNL     1     -11.608   9.820  70.571  1.00  0.00    -0.365 C  
HETATM   22  C   UNL     1     -11.031   8.754  68.365  1.00  0.00     0.101 C  
HETATM   23  O   UNL     1     -11.814   8.418  72.522  1.00  0.00    -0.391 OA 
HETATM   24  C   UNL     1     -11.298   7.335  70.416  1.00  0.00    -0.299 C  
HETATM   25  H   UNL     1     -12.739   8.312  72.332  1.00  0.00     0.000 HD 
HETATM   26  C   UNL     1      -8.814   8.912  70.305  1.00  0.00    -0.191 C  
ENDBRANCH   3  15
TORSDOF 2
ENDMDL
MODEL      214
REMARK 921   NORMALIZED FREE ENERGY PREDICTED BY IDOCK:   -2.61 KCAL/MOL
REMARK 922        TOTAL FREE ENERGY PREDICTED BY IDOCK:   -3.37 KCAL/MOL
REMARK 923 INTER-LIGAND FREE ENERGY PREDICTED BY IDOCK:   -5.14 KCAL/MOL
REMARK 924 INTRA-LIGAND FREE ENERGY PREDICTED BY IDOCK:    1.77 KCAL/MOL
REMARK 927      BINDING AFFINITY PREDICTED BY RF-SCORE:    0.00 PKD
ROOT
HETATM    1  N   UNL     1      -9.900  16.217  65.649  1.00  0.00    -0.474 NA 
HETATM    2  H1  UNL     1     -10.832  16.254  65.237  1.00  0.00     0.000 HD 
HETATM    3  C   UNL     1      -9.884  15.079  66.598  1.00  0.00    -0.254 C  
HETATM    4  H2  UNL     1      -9.157  16.165  64.952  1.00  0.00     0.000 HD 
ENDROOT
BRANCH   3   5
HETATM    5  C   UNL     1      -8.460  15.024  67.229  1.00  0.00    -0.198 C  
HETATM    6  N   UNL     1      -6.361  14.488  70.417  1.00  0.00    -0.181 NA 
HETATM    7  N   UNL     1      -7.931  16.198  67.716  1.00  0.00    -0.140 N  
HETATM    8  O   UNL     1      -7.831  13.965  67.284  1.00  0.00    -0.175 OA 
HETATM    9  C   UNL     1      -6.521  15.241  69.543  1.00  0.00    -0.152 C  
HETATM   10  C   UNL     1      -6.656  16.247  68.471  1.00  0.00    -0.130 C  
HETATM   11  C   UNL     1      -8.288  17.529  67.299  1.00  0.00    -0.213 C  
HETATM   12  C   UNL     1      -6.663  17.666  69.089  1.00  0.00    -0.243 C  
HETATM   13  C   UNL     1      -8.988  18.508  68.180  1.00  0.00    -0.326 C  
HETATM   14  C   UNL     1      -7.480  18.496  68.135  1.00  0.00    -0.284 C  
ENDBRANCH   3   5
BRANCH   3  15
HETATM   15  C   UNL     1     -10.316  13.734  65.912  1.00  0.00    -0.315 C  
HETATM   16  C   UNL     1      -9.824  11.486  64.003  1.00  0.00    -0.306 C  
HETATM   17  C   UNL     1     -12.208  12.237  64.134  1.00  0.00    -0.539 C  
HETATM   18  C   UNL     1     -10.353  13.912  64.361  1.00  0.00    -0.082 C  
HETATM   19  C   UNL     1      -9.811  11.261  65.523  1.00  0.00    -0.231 C  
HETATM   20  C   UNL     1     -12.202  12.025  65.657  1.00  0.00     0.134 C  
HETATM   21  C   UNL     1      -9.355  12.553  66.225  1.00  0.00    -0.177 C  
HETATM   22  C   UNL     1     -11.748  13.322  66.358  1.00  0.00    -0.418 C  
HETATM   23  O   UNL     1      -8.904  10.215  65.843  1.00  0.00    -0.142 OA 
HETATM   24  C   UNL     1     -11.225  10.895  66.003  1.00  0.00     0.144 C  
HETATM   25  H   UNL     1      -8.896  10.076  66.783  1.00  0.00     0.000 HD 
HETATM   26  C   UNL     1     -10.799  12.618  63.655  1.00  0.00    -0.437 C  
ENDBRANCH   3  15
TORSDOF 2
ENDMDL
MODEL      215
REMARK 921   NORMALIZED FREE ENERGY PREDICTED BY IDOCK:   -2.28 KCAL/MOL
REMARK 922        TOTAL FREE ENERGY PREDICTED BY IDOCK:   -3.01 KCAL/MOL
REMARK 923 INTER-LIGAND FREE ENERGY PREDICTED BY IDOCK:   -4.17 KCAL/MOL
REMARK 924 INTRA-LIGAND FREE ENERGY PREDICTED BY IDOCK:    1.15 KCAL/MOL
REMARK 927      BINDING AFFINITY PREDICTED BY RF-SCORE:    0.00 PKD
ROOT
HETATM    1  N   UNL     1      -7.490  17.151  68.914  1.00  0.00    -0.249 NA 
HETATM    2  H1  UNL     1      -6.534  17.046  69.253  1.00  0.00     0.000 HD 
HETATM    3  C   UNL     1      -7.606  16.347  67.674  1.00  0.00    -0.142 C  
HETATM    4  H2  UNL     1      -8.191  16.909  69.613  1.00  0.00     0.000 HD 
ENDROOT
BRANCH   3   5
HETATM    5  C   UNL     1      -9.066  16.507  67.155  1.00  0.00    -0.213 C  
HETATM    6  N   UNL     1     -11.420  16.549  64.103  1.00  0.00    -1.092 NA 
HETATM    7  N   UNL     1      -9.496  17.777  66.837  1.00  0.00    -0.262 N  
HETATM    8  O   UNL     1      -9.810  15.531  67.039  1.00  0.00    -0.228 OA 
HETATM    9  C   UNL     1     -11.121  17.179  65.035  1.00  0.00     0.195 C  
HETATM   10  C   UNL     1     -10.805  18.039  66.193  1.00  0.00     0.050 C  
HETATM   11  C   UNL     1      -8.968  19.009  67.361  1.00  0.00    -0.291 C  
HETATM   12  C   UNL     1     -10.684  19.510  65.728  1.00  0.00    -0.490 C  
HETATM   13  C   UNL     1      -8.226  20.004  66.535  1.00  0.00    -0.347 C  
HETATM   14  C   UNL     1      -9.719  20.140  66.697  1.00  0.00    -0.568 C  
ENDBRANCH   3   5
BRANCH   3  15
HETATM   15  C   UNL     1      -7.186  14.850  67.902  1.00  0.00    -0.166 C  
HETATM   16  C   UNL     1      -7.804  12.051  68.748  1.00  0.00    -0.033 C  
HETATM   17  C   UNL     1      -5.506  12.837  69.351  1.00  0.00    -0.079 C  
HETATM   18  C   UNL     1      -7.430  14.446  69.391  1.00  0.00    -0.022 C  
HETATM   19  C   UNL     1      -7.537  12.400  67.276  1.00  0.00    -0.141 C  
HETATM   20  C   UNL     1      -5.233  13.199  67.882  1.00  0.00    -0.107 C  
HETATM   21  C   UNL     1      -7.974  13.852  67.009  1.00  0.00     0.043 C  
HETATM   22  C   UNL     1      -5.668  14.655  67.620  1.00  0.00    -0.002 C  
HETATM   23  O   UNL     1      -8.284  11.530  66.436  1.00  0.00    -0.248 OA 
HETATM   24  C   UNL     1      -6.036  12.259  66.975  1.00  0.00    -0.045 C  
HETATM   25  H   UNL     1      -8.118  11.746  65.525  1.00  0.00     0.000 HD 
HETATM   26  C   UNL     1      -7.003  12.991  69.658  1.00  0.00     0.270 C  
ENDBRANCH   3  15
TORSDOF 2
ENDMDL
MODEL      216
REMARK 921   NORMALIZED FREE ENERGY PREDICTED BY IDOCK:   -2.15 KCAL/MOL
REMARK 922        TOTAL FREE ENERGY PREDICTED BY IDOCK:   -2.86 KCAL/MOL
REMARK 923 INTER-LIGAND FREE ENERGY PREDICTED BY IDOCK:   -4.97 KCAL/MOL
REMARK 924 INTRA-LIGAND FREE ENERGY PREDICTED BY IDOCK:    2.11 KCAL/MOL
REMARK 927      BINDING AFFINITY PREDICTED BY RF-SCORE:    0.00 PKD
ROOT
HETATM    1  N   UNL     1      -6.841  16.562  68.819  1.00  0.00    -0.164 NA 
HETATM    2  H1  UNL     1      -6.511  17.403  69.293  1.00  0.00     0.000 HD 
HETATM    3  C   UNL     1      -8.317  16.657  68.731  1.00  0.00    -0.252 C  
HETATM    4  H2  UNL     1      -6.396  16.414  67.913  1.00  0.00     0.000 HD 
ENDROOT
BRANCH   3   5
HETATM    5  C   UNL     1      -8.820  15.372  68.007  1.00  0.00    -0.165 C  
HETATM    6  N   UNL     1     -10.802  12.078  68.285  1.00  0.00    -0.217 NA 
HETATM    7  N   UNL     1      -8.002  14.264  68.031  1.00  0.00    -0.130 N  
HETATM    8  O   UNL     1      -9.910  15.353  67.431  1.00  0.00    -0.216 OA 
HETATM    9  C   UNL     1      -9.767  12.497  67.955  1.00  0.00    -0.215 C  
HETATM   10  C   UNL     1      -8.431  12.944  67.512  1.00  0.00    -0.186 C  
HETATM   11  C   UNL     1      -6.573  14.266  68.203  1.00  0.00    -0.130 C  
HETATM   12  C   UNL     1      -7.353  11.978  68.062  1.00  0.00    -0.102 C  
HETATM   13  C   UNL     1      -5.887  13.707  69.403  1.00  0.00    -0.093 C  
HETATM   14  C   UNL     1      -6.116  12.825  68.202  1.00  0.00    -0.085 C  
ENDBRANCH   3   5
BRANCH   3  15
HETATM   15  C   UNL     1      -8.781  17.987  68.035  1.00  0.00    -0.264 C  
HETATM   16  C   UNL     1      -9.354  20.921  68.099  1.00  0.00     0.266 C  
HETATM   17  C   UNL     1     -10.940  19.580  66.701  1.00  0.00    -0.370 C  
HETATM   18  C   UNL     1      -9.992  18.601  68.808  1.00  0.00    -0.427 C  
HETATM   19  C   UNL     1      -8.171  20.354  67.298  1.00  0.00    -0.336 C  
HETATM   20  C   UNL     1      -9.762  19.000  65.902  1.00  0.00    -0.064 C  
HETATM   21  C   UNL     1      -7.666  19.068  67.976  1.00  0.00    -0.304 C  
HETATM   22  C   UNL     1      -9.262  17.710  66.582  1.00  0.00    -0.284 C  
HETATM   23  O   UNL     1      -7.115  21.306  67.267  1.00  0.00    -0.623 OA 
HETATM   24  C   UNL     1      -8.624  20.028  65.866  1.00  0.00    -0.139 C  
HETATM   25  H   UNL     1      -6.384  20.955  66.772  1.00  0.00     0.000 HD 
HETATM   26  C   UNL     1     -10.493  19.893  68.137  1.00  0.00    -0.472 C  
ENDBRANCH   3  15
TORSDOF 2
ENDMDL
MODEL      217
REMARK 921   NORMALIZED FREE ENERGY PREDICTED BY IDOCK:   -1.98 KCAL/MOL
REMARK 922        TOTAL FREE ENERGY PREDICTED BY IDOCK:   -2.67 KCAL/MOL
REMARK 923 INTER-LIGAND FREE ENERGY PREDICTED BY IDOCK:   -2.75 KCAL/MOL
REMARK 924 INTRA-LIGAND FREE ENERGY PREDICTED BY IDOCK:    0.07 KCAL/MOL
REMARK 927      BINDING AFFINITY PREDICTED BY RF-SCORE:    0.00 PKD
ROOT
HETATM    1  N   UNL     1     -12.790  15.484  69.834  1.00  0.00    -0.600 NA 
HETATM    2  H1  UNL     1     -12.901  16.478  69.633  1.00  0.00     0.000 HD 
HETATM    3  C   UNL     1     -12.282  14.841  68.600  1.00  0.00    -0.077 C  
HETATM    4  H2  UNL     1     -12.204  15.304  70.648  1.00  0.00     0.000 HD 
ENDROOT
BRANCH   3   5
HETATM    5  C   UNL     1     -12.113  13.323  68.907  1.00  0.00    -0.222 C  
HETATM    6  N   UNL     1      -9.672  10.426  69.623  1.00  0.00    -0.175 NA 
HETATM    7  N   UNL     1     -11.982  12.465  67.836  1.00  0.00    -0.295 N  
HETATM    8  O   UNL     1     -12.102  12.906  70.067  1.00  0.00    -0.324 OA 
HETATM    9  C   UNL     1     -10.553  10.728  68.924  1.00  0.00    -0.216 C  
HETATM   10  C   UNL     1     -11.665  11.027  67.999  1.00  0.00    -0.179 C  
HETATM   11  C   UNL     1     -12.455  12.699  66.497  1.00  0.00     0.434 C  
HETATM   12  C   UNL     1     -11.282  10.581  66.567  1.00  0.00     0.203 C  
HETATM   13  C   UNL     1     -11.552  12.890  65.326  1.00  0.00    -0.376 C  
HETATM   14  C   UNL     1     -12.051  11.506  65.661  1.00  0.00     0.840 C  
ENDBRANCH   3   5
BRANCH   3  15
HETATM   15  C   UNL     1     -10.965  15.522  68.080  1.00  0.00    -0.312 C  
HETATM   16  C   UNL     1      -8.342  15.413  66.649  1.00  0.00    -0.255 C  
HETATM   17  C   UNL     1      -8.364  16.890  68.670  1.00  0.00    -0.261 C  
HETATM   18  C   UNL     1      -9.716  14.776  68.649  1.00  0.00    -0.225 C  
HETATM   19  C   UNL     1      -9.537  16.187  66.071  1.00  0.00    -0.346 C  
HETATM   20  C   UNL     1      -9.566  17.663  68.105  1.00  0.00    -0.297 C  
HETATM   21  C   UNL     1     -10.846  15.521  66.531  1.00  0.00    -0.284 C  
HETATM   22  C   UNL     1     -10.876  16.996  68.570  1.00  0.00    -0.310 C  
HETATM   23  O   UNL     1      -9.479  16.163  64.651  1.00  0.00     0.971 OA 
HETATM   24  C   UNL     1      -9.503  17.640  66.572  1.00  0.00    -0.294 C  
HETATM   25  H   UNL     1     -10.218  16.642  64.293  1.00  0.00     0.000 HD 
HETATM   26  C   UNL     1      -8.404  15.433  68.182  1.00  0.00    -0.145 C  
ENDBRANCH   3  15
TORSDOF 2
ENDMDL
MODEL      218
REMARK 921   NORMALIZED FREE ENERGY PREDICTED BY IDOCK:   -1.87 KCAL/MOL
REMARK 922        TOTAL FREE ENERGY PREDICTED BY IDOCK:   -2.55 KCAL/MOL
REMARK 923 INTER-LIGAND FREE ENERGY PREDICTED BY IDOCK:   -4.47 KCAL/MOL
REMARK 924 INTRA-LIGAND FREE ENERGY PREDICTED BY IDOCK:    1.92 KCAL/MOL
REMARK 927      BINDING AFFINITY PREDICTED BY RF-SCORE:    0.00 PKD
ROOT
HETATM    1  N   UNL     1     -10.634  11.340  66.854  1.00  0.00    -0.245 NA 
HETATM    2  H1  UNL     1     -10.458  10.878  65.962  1.00  0.00     0.000 HD 
HETATM    3  C   UNL     1     -10.601  10.295  67.904  1.00  0.00    -0.239 C  
HETATM    4  H2  UNL     1      -9.993  12.111  67.038  1.00  0.00     0.000 HD 
ENDROOT
BRANCH   3   5
HETATM    5  C   UNL     1     -10.872  11.000  69.266  1.00  0.00    -0.238 C  
HETATM    6  N   UNL     1     -13.447  11.850  72.006  1.00  0.00    -0.372 NA 
HETATM    7  N   UNL     1     -11.259  12.322  69.235  1.00  0.00    -0.237 N  
HETATM    8  O   UNL     1     -10.738  10.396  70.332  1.00  0.00    -0.269 OA 
HETATM    9  C   UNL     1     -12.663  12.346  71.302  1.00  0.00    -0.248 C  
HETATM   10  C   UNL     1     -11.690  13.056  70.448  1.00  0.00    -0.035 C  
HETATM   11  C   UNL     1     -10.987  13.263  68.181  1.00  0.00    -0.255 C  
HETATM   12  C   UNL     1     -12.342  14.338  69.876  1.00  0.00    -0.377 C  
HETATM   13  C   UNL     1     -12.043  13.847  67.305  1.00  0.00    -0.403 C  
HETATM   14  C   UNL     1     -11.640  14.572  68.564  1.00  0.00    -0.344 C  
ENDBRANCH   3   5
BRANCH   3  15
HETATM   15  C   UNL     1      -9.259   9.478  67.880  1.00  0.00    -0.134 C  
HETATM   16  C   UNL     1      -6.691   8.614  69.143  1.00  0.00    -0.047 C  
HETATM   17  C   UNL     1      -6.562   8.987  66.671  1.00  0.00    -0.068 C  
HETATM   18  C   UNL     1      -8.044  10.439  68.081  1.00  0.00    -0.111 C  
HETATM   19  C   UNL     1      -7.850   7.627  68.933  1.00  0.00    -0.123 C  
HETATM   20  C   UNL     1      -7.728   8.010  66.452  1.00  0.00    -0.092 C  
HETATM   21  C   UNL     1      -9.186   8.391  68.988  1.00  0.00    -0.147 C  
HETATM   22  C   UNL     1      -9.063   8.779  66.504  1.00  0.00    -0.203 C  
HETATM   23  O   UNL     1      -7.835   6.646  69.961  1.00  0.00    -0.106 OA 
HETATM   24  C   UNL     1      -7.710   6.950  67.560  1.00  0.00    -0.111 C  
HETATM   25  H   UNL     1      -8.552   6.037  69.831  1.00  0.00     0.000 HD 
HETATM   26  C   UNL     1      -6.708   9.677  68.036  1.00  0.00    -0.062 C  
ENDBRANCH   3  15
TORSDOF 2
ENDMDL
MODEL      219
REMARK 921   NORMALIZED FREE ENERGY PREDICTED BY IDOCK:   -1.60 KCAL/MOL
REMARK 922        TOTAL FREE ENERGY PREDICTED BY IDOCK:   -2.24 KCAL/MOL
REMARK 923 INTER-LIGAND FREE ENERGY PREDICTED BY IDOCK:   -4.37 KCAL/MOL
REMARK 924 INTRA-LIGAND FREE ENERGY PREDICTED BY IDOCK:    2.12 KCAL/MOL
REMARK 927      BINDING AFFINITY PREDICTED BY RF-SCORE:    0.00 PKD
ROOT
HETATM    1  N   UNL     1      -9.114  12.624  66.093  1.00  0.00    -0.434 NA 
HETATM    2  H1  UNL     1      -8.872  12.367  65.136  1.00  0.00     0.000 HD 
HETATM    3  C   UNL     1      -9.676  11.417  66.743  1.00  0.00    -0.198 C  
HETATM    4  H2  UNL     1      -8.333  13.028  66.608  1.00  0.00     0.000 HD 
ENDROOT
BRANCH   3   5
HETATM    5  C   UNL     1     -10.046  11.810  68.205  1.00  0.00    -0.192 C  
HETATM    6  N   UNL     1     -12.705  11.724  70.995  1.00  0.00    -0.326 NA 
HETATM    7  N   UNL     1     -10.641  13.036  68.406  1.00  0.00    -0.246 N  
HETATM    8  O   UNL     1      -9.810  11.050  69.146  1.00  0.00    -0.183 OA 
HETATM    9  C   UNL     1     -12.016  12.458  70.410  1.00  0.00    -0.257 C  
HETATM   10  C   UNL     1     -11.175  13.458  69.722  1.00  0.00     0.023 C  
HETATM   11  C   UNL     1     -10.530  14.185  67.547  1.00  0.00    -0.249 C  
HETATM   12  C   UNL     1     -12.028  14.703  69.378  1.00  0.00    -0.351 C  
HETATM   13  C   UNL     1     -11.672  14.744  66.768  1.00  0.00    -0.309 C  
HETATM   14  C   UNL     1     -11.381  15.281  68.147  1.00  0.00    -0.346 C  
ENDBRANCH   3   5
BRANCH   3  15
HETATM   15  C   UNL     1      -8.696  10.192  66.656  1.00  0.00    -0.134 C  
HETATM   16  C   UNL     1      -7.111   8.207  65.080  1.00  0.00    -0.071 C  
HETATM   17  C   UNL     1      -8.143   7.292  67.169  1.00  0.00    -0.114 C  
HETATM   18  C   UNL     1      -9.354   9.037  65.834  1.00  0.00    -0.306 C  
HETATM   19  C   UNL     1      -6.423   9.307  65.902  1.00  0.00    -0.071 C  
HETATM   20  C   UNL     1      -7.467   8.396  67.999  1.00  0.00    -0.097 C  
HETATM   21  C   UNL     1      -7.343  10.539  65.976  1.00  0.00    -0.137 C  
HETATM   22  C   UNL     1      -8.393   9.626  68.073  1.00  0.00    -0.117 C  
HETATM   23  O   UNL     1      -5.201   9.678  65.276  1.00  0.00    -0.042 OA 
HETATM   24  C   UNL     1      -6.148   8.794  67.325  1.00  0.00    -0.055 C  
HETATM   25  H   UNL     1      -4.776  10.358  65.785  1.00  0.00     0.000 HD 
HETATM   26  C   UNL     1      -8.432   7.808  65.751  1.00  0.00    -0.155 C  
ENDBRANCH   3  15
TORSDOF 2
ENDMDL
MODEL      220
REMARK 921   NORMALIZED FREE ENERGY PREDICTED BY IDOCK:   -1.56 KCAL/MOL
REMARK 922        TOTAL FREE ENERGY PREDICTED BY IDOCK:   -2.20 KCAL/MOL
REMARK 923 INTER-LIGAND FREE ENERGY PREDICTED BY IDOCK:   -1.81 KCAL/MOL
REMARK 924 INTRA-LIGAND FREE ENERGY PREDICTED BY IDOCK:   -0.39 KCAL/MOL
REMARK 927      BINDING AFFINITY PREDICTED BY RF-SCORE:    0.00 PKD
ROOT
HETATM    1  N   UNL     1      -8.915  16.864  66.186  1.00  0.00    -0.454 NA 
HETATM    2  H1  UNL     1      -7.952  17.043  65.902  1.00  0.00     0.000 HD 
HETATM    3  C   UNL     1      -8.977  15.465  66.670  1.00  0.00    -0.286 C  
HETATM    4  H2  UNL     1      -9.262  17.538  66.868  1.00  0.00     0.000 HD 
ENDROOT
BRANCH   3   5
HETATM    5  C   UNL     1     -10.448  15.191  67.103  1.00  0.00    -0.280 C  
HETATM    6  N   UNL     1     -12.900  14.622  70.023  1.00  0.00    -0.159 NA 
HETATM    7  N   UNL     1     -10.849  13.878  67.208  1.00  0.00    -0.284 N  
HETATM    8  O   UNL     1     -11.224  16.119  67.339  1.00  0.00    -0.200 OA 
HETATM    9  C   UNL     1     -12.551  14.151  69.017  1.00  0.00     0.321 C  
HETATM   10  C   UNL     1     -12.171  13.487  67.754  1.00  0.00    -0.157 C  
HETATM   11  C   UNL     1     -10.268  12.754  66.522  1.00  0.00    -0.253 C  
HETATM   12  C   UNL     1     -12.022  11.965  67.993  1.00  0.00    -0.204 C  
HETATM   13  C   UNL     1      -9.524  11.662  67.213  1.00  0.00    -0.173 C  
HETATM   14  C   UNL     1     -11.006  11.516  66.976  1.00  0.00    -0.347 C  
ENDBRANCH   3   5
BRANCH   3  15
HETATM   15  C   UNL     1      -7.930  15.189  67.808  1.00  0.00    -0.155 C  
HETATM   16  C   UNL     1      -5.135  15.230  68.870  1.00  0.00    -0.096 C  
HETATM   17  C   UNL     1      -6.482  13.236  69.561  1.00  0.00    -0.078 C  
HETATM   18  C   UNL     1      -6.806  14.239  67.284  1.00  0.00     0.156 C  
HETATM   19  C   UNL     1      -6.220  16.159  69.438  1.00  0.00    -0.171 C  
HETATM   20  C   UNL     1      -7.577  14.157  70.122  1.00  0.00     0.851 C  
HETATM   21  C   UNL     1      -7.244  16.480  68.334  1.00  0.00    -0.169 C  
HETATM   22  C   UNL     1      -8.603  14.474  69.016  1.00  0.00    -0.041 C  
HETATM   23  O   UNL     1      -5.625  17.370  69.885  1.00  0.00    -0.208 OA 
HETATM   24  C   UNL     1      -6.936  15.463  70.607  1.00  0.00     0.675 C  
HETATM   25  H   UNL     1      -6.296  17.944  70.236  1.00  0.00     0.000 HD 
HETATM   26  C   UNL     1      -5.775  13.923  68.383  1.00  0.00    -0.103 C  
ENDBRANCH   3  15
TORSDOF 2
ENDMDL
MODEL      221
REMARK 921   NORMALIZED FREE ENERGY PREDICTED BY IDOCK:   -1.51 KCAL/MOL
REMARK 922        TOTAL FREE ENERGY PREDICTED BY IDOCK:   -2.14 KCAL/MOL
REMARK 923 INTER-LIGAND FREE ENERGY PREDICTED BY IDOCK:   -3.77 KCAL/MOL
REMARK 924 INTRA-LIGAND FREE ENERGY PREDICTED BY IDOCK:    1.63 KCAL/MOL
REMARK 927      BINDING AFFINITY PREDICTED BY RF-SCORE:    0.00 PKD
ROOT
HETATM    1  N   UNL     1      -7.701  17.244  69.361  1.00  0.00     0.057 NA 
HETATM    2  H1  UNL     1      -6.765  17.120  69.747  1.00  0.00     0.000 HD 
HETATM    3  C   UNL     1      -7.760  16.474  68.096  1.00  0.00    -0.166 C  
HETATM    4  H2  UNL     1      -8.441  16.991  70.016  1.00  0.00     0.000 HD 
ENDROOT
BRANCH   3   5
HETATM    5  C   UNL     1      -9.189  16.665  67.505  1.00  0.00    -0.207 C  
HETATM    6  N   UNL     1     -11.379  16.807  64.337  1.00  0.00    -1.077 NA 
HETATM    7  N   UNL     1      -9.587  17.947  67.196  1.00  0.00    -0.273 N  
HETATM    8  O   UNL     1      -9.937  15.701  67.328  1.00  0.00    -0.232 OA 
HETATM    9  C   UNL     1     -11.122  17.411  65.299  1.00  0.00     0.325 C  
HETATM   10  C   UNL     1     -10.857  18.240  66.491  1.00  0.00    -0.004 C  
HETATM   11  C   UNL     1      -9.074  19.159  67.776  1.00  0.00    -0.299 C  
HETATM   12  C   UNL     1     -10.696  19.720  66.068  1.00  0.00    -0.493 C  
HETATM   13  C   UNL     1      -8.278  20.165  67.014  1.00  0.00    -0.374 C  
HETATM   14  C   UNL     1      -9.776  20.316  67.101  1.00  0.00    -0.592 C  
ENDBRANCH   3   5
BRANCH   3  15
HETATM   15  C   UNL     1      -7.367  14.968  68.305  1.00  0.00    -0.111 C  
HETATM   16  C   UNL     1      -5.362  12.842  68.936  1.00  0.00    -0.067 C  
HETATM   17  C   UNL     1      -7.028  12.212  67.177  1.00  0.00    -0.117 C  
HETATM   18  C   UNL     1      -6.207  14.577  67.334  1.00  0.00     0.169 C  
HETATM   19  C   UNL     1      -6.508  13.171  69.904  1.00  0.00     0.029 C  
HETATM   20  C   UNL     1      -8.182  12.550  68.135  1.00  0.00    -0.170 C  
HETATM   21  C   UNL     1      -6.893  14.654  69.751  1.00  0.00    -0.154 C  
HETATM   22  C   UNL     1      -8.567  14.034  67.977  1.00  0.00    -0.179 C  
HETATM   23  O   UNL     1      -6.087  12.938  71.241  1.00  0.00    -0.524 OA 
HETATM   24  C   UNL     1      -7.729  12.295  69.578  1.00  0.00     0.759 C  
HETATM   25  H   UNL     1      -6.796  13.142  71.839  1.00  0.00     0.000 HD 
HETATM   26  C   UNL     1      -5.813  13.097  67.491  1.00  0.00    -0.075 C  
ENDBRANCH   3  15
TORSDOF 2
ENDMDL
MODEL      222
REMARK 921   NORMALIZED FREE ENERGY PREDICTED BY IDOCK:   -1.31 KCAL/MOL
REMARK 922        TOTAL FREE ENERGY PREDICTED BY IDOCK:   -1.92 KCAL/MOL
REMARK 923 INTER-LIGAND FREE ENERGY PREDICTED BY IDOCK:   -3.68 KCAL/MOL
REMARK 924 INTRA-LIGAND FREE ENERGY PREDICTED BY IDOCK:    1.76 KCAL/MOL
REMARK 927      BINDING AFFINITY PREDICTED BY RF-SCORE:    0.00 PKD
ROOT
HETATM    1  N   UNL     1      -6.479  12.815  69.383  1.00  0.00    -0.169 NA 
HETATM    2  H1  UNL     1      -5.766  12.095  69.491  1.00  0.00     0.000 HD 
HETATM    3  C   UNL     1      -7.257  12.485  68.166  1.00  0.00    -0.106 C  
HETATM    4  H2  UNL     1      -7.063  12.927  70.211  1.00  0.00     0.000 HD 
ENDROOT
BRANCH   3   5
HETATM    5  C   UNL     1      -8.346  13.586  68.000  1.00  0.00    -0.168 C  
HETATM    6  N   UNL     1     -10.304  15.850  65.571  1.00  0.00    -0.384 NA 
HETATM    7  N   UNL     1      -7.940  14.901  68.060  1.00  0.00    -0.122 N  
HETATM    8  O   UNL     1      -9.530  13.288  67.827  1.00  0.00    -0.194 OA 
HETATM    9  C   UNL     1      -9.657  15.890  66.538  1.00  0.00    -0.268 C  
HETATM   10  C   UNL     1      -8.851  16.032  67.767  1.00  0.00    -0.176 C  
HETATM   11  C   UNL     1      -6.763  15.397  68.722  1.00  0.00    -0.108 C  
HETATM   12  C   UNL     1      -7.889  17.236  67.619  1.00  0.00    -0.192 C  
HETATM   13  C   UNL     1      -5.600  15.989  68.001  1.00  0.00    -0.129 C  
HETATM   14  C   UNL     1      -6.708  16.890  68.487  1.00  0.00    -0.168 C  
ENDBRANCH   3   5
BRANCH   3  15
HETATM   15  C   UNL     1      -7.845  11.029  68.220  1.00  0.00    -0.121 C  
HETATM   16  C   UNL     1      -9.741   8.927  67.258  1.00  0.00    -0.235 C  
HETATM   17  C   UNL     1      -9.322   8.900  69.726  1.00  0.00    -0.169 C  
HETATM   18  C   UNL     1      -9.383  11.083  68.490  1.00  0.00    -0.188 C  
HETATM   19  C   UNL     1      -8.230   8.819  67.001  1.00  0.00    -0.103 C  
HETATM   20  C   UNL     1      -7.807   8.802  69.478  1.00  0.00    -0.091 C  
HETATM   21  C   UNL     1      -7.627  10.232  66.904  1.00  0.00    -0.105 C  
HETATM   22  C   UNL     1      -7.207  10.219  69.385  1.00  0.00    -0.104 C  
HETATM   23  O   UNL     1      -8.002   8.134  65.776  1.00  0.00    -0.094 OA 
HETATM   24  C   UNL     1      -7.561   8.061  68.159  1.00  0.00    -0.109 C  
HETATM   25  H   UNL     1      -7.068   8.067  65.617  1.00  0.00     0.000 HD 
HETATM   26  C   UNL     1      -9.990   9.671  68.577  1.00  0.00    -0.182 C  
ENDBRANCH   3  15
TORSDOF 2
ENDMDL
MODEL      223
REMARK 921   NORMALIZED FREE ENERGY PREDICTED BY IDOCK:    1.73 KCAL/MOL
REMARK 922        TOTAL FREE ENERGY PREDICTED BY IDOCK:    1.48 KCAL/MOL
REMARK 923 INTER-LIGAND FREE ENERGY PREDICTED BY IDOCK:    1.68 KCAL/MOL
REMARK 924 INTRA-LIGAND FREE ENERGY PREDICTED BY IDOCK:   -0.20 KCAL/MOL
REMARK 927      BINDING AFFINITY PREDICTED BY RF-SCORE:    0.00 PKD
ROOT
HETATM    1  N   UNL     1     -13.588  16.569  68.832  1.00  0.00     3.171 NA 
HETATM    2  H1  UNL     1     -14.042  17.168  69.521  1.00  0.00     0.000 HD 
HETATM    3  C   UNL     1     -12.345  16.052  69.451  1.00  0.00     0.194 C  
HETATM    4  H2  UNL     1     -14.196  15.829  68.482  1.00  0.00     0.000 HD 
ENDROOT
BRANCH   3   5
HETATM    5  C   UNL     1     -11.650  15.137  68.398  1.00  0.00    -0.337 C  
HETATM    6  N   UNL     1      -9.032  12.386  67.739  1.00  0.00    -0.174 NA 
HETATM    7  N   UNL     1     -10.520  15.622  67.777  1.00  0.00    -0.267 N  
HETATM    8  O   UNL     1     -12.101  14.022  68.129  1.00  0.00    -0.355 OA 
HETATM    9  C   UNL     1      -9.351  13.449  67.385  1.00  0.00    -0.221 C  
HETATM   10  C   UNL     1      -9.687  14.793  66.874  1.00  0.00    -0.240 C  
HETATM   11  C   UNL     1     -10.172  17.008  67.606  1.00  0.00    -0.317 C  
HETATM   12  C   UNL     1      -8.392  15.626  66.718  1.00  0.00    -0.313 C  
HETATM   13  C   UNL     1      -9.011  17.656  68.280  1.00  0.00    -0.276 C  
HETATM   14  C   UNL     1      -8.831  17.054  66.909  1.00  0.00    -0.251 C  
ENDBRANCH   3   5
BRANCH   3  15
HETATM   15  C   UNL     1     -12.624  15.329  70.817  1.00  0.00    -0.474 C  
HETATM   16  C   UNL     1     -11.773  14.461  73.549  1.00  0.00     0.517 C  
HETATM   17  C   UNL     1     -13.200  12.806  72.328  1.00  0.00    -0.491 C  
HETATM   18  C   UNL     1     -11.556  14.216  71.062  1.00  0.00     0.001 C  
HETATM   19  C   UNL     1     -12.853  15.537  73.352  1.00  0.00    -0.540 C  
HETATM   20  C   UNL     1     -14.282  13.878  72.117  1.00  0.00    -0.595 C  
HETATM   21  C   UNL     1     -12.586  16.291  72.037  1.00  0.00    -0.158 C  
HETATM   22  C   UNL     1     -14.013  14.629  70.797  1.00  0.00     0.148 C  
HETATM   23  O   UNL     1     -12.811  16.460  74.432  1.00  0.00    -0.888 OA 
HETATM   24  C   UNL     1     -14.238  14.873  73.283  1.00  0.00     1.543 C  
HETATM   25  H   UNL     1     -13.478  17.124  74.310  1.00  0.00     0.000 HD 
HETATM   26  C   UNL     1     -11.814  13.466  72.382  1.00  0.00     2.002 C  
ENDBRANCH   3  15
TORSDOF 2
ENDMDL
MODEL      224
REMARK 921   NORMALIZED FREE ENERGY PREDICTED BY IDOCK:    2.52 KCAL/MOL
REMARK 922        TOTAL FREE ENERGY PREDICTED BY IDOCK:    2.35 KCAL/MOL
REMARK 923 INTER-LIGAND FREE ENERGY PREDICTED BY IDOCK:    0.84 KCAL/MOL
REMARK 924 INTRA-LIGAND FREE ENERGY PREDICTED BY IDOCK:    1.51 KCAL/MOL
REMARK 927      BINDING AFFINITY PREDICTED BY RF-SCORE:    0.00 PKD
ROOT
HETATM    1  N   UNL     1      -7.244  18.456  68.831  1.00  0.00    -0.284 NA 
HETATM    2  H1  UNL     1      -6.321  18.301  69.237  1.00  0.00     0.000 HD 
HETATM    3  C   UNL     1      -7.372  17.541  67.672  1.00  0.00    -0.181 C  
HETATM    4  H2  UNL     1      -8.001  18.353  69.506  1.00  0.00     0.000 HD 
ENDROOT
BRANCH   3   5
HETATM    5  C   UNL     1      -8.781  17.778  67.050  1.00  0.00    -0.244 C  
HETATM    6  N   UNL     1     -10.944  19.909  64.674  1.00  0.00     0.401 NA 
HETATM    7  N   UNL     1      -9.646  18.610  67.727  1.00  0.00    -0.297 N  
HETATM    8  O   UNL     1      -9.109  17.236  65.993  1.00  0.00    -0.483 OA 
HETATM    9  C   UNL     1     -10.911  19.505  65.766  1.00  0.00    -0.304 C  
HETATM   10  C   UNL     1     -10.951  19.033  67.165  1.00  0.00    -0.250 C  
HETATM   11  C   UNL     1      -9.619  18.900  69.136  1.00  0.00    -0.189 C  
HETATM   12  C   UNL     1     -11.378  20.196  68.092  1.00  0.00     1.198 C  
HETATM   13  C   UNL     1      -9.288  20.242  69.695  1.00  0.00     0.715 C  
HETATM   14  C   UNL     1     -10.727  19.890  69.415  1.00  0.00     0.646 C  
ENDBRANCH   3   5
BRANCH   3  15
HETATM   15  C   UNL     1      -7.111  16.045  68.072  1.00  0.00    -0.143 C  
HETATM   16  C   UNL     1      -7.276  13.782  70.019  1.00  0.00     0.603 C  
HETATM   17  C   UNL     1      -5.176  13.833  68.657  1.00  0.00    -0.087 C  
HETATM   18  C   UNL     1      -6.254  15.981  69.377  1.00  0.00    -0.159 C  
HETATM   19  C   UNL     1      -8.111  13.789  68.729  1.00  0.00    -0.022 C  
HETATM   20  C   UNL     1      -6.004  13.851  67.362  1.00  0.00     0.218 C  
HETATM   21  C   UNL     1      -8.418  15.244  68.329  1.00  0.00    -0.154 C  
HETATM   22  C   UNL     1      -6.306  15.310  66.962  1.00  0.00     0.525 C  
HETATM   23  O   UNL     1      -9.336  13.102  68.950  1.00  0.00    -0.394 OA 
HETATM   24  C   UNL     1      -7.324  13.108  67.598  1.00  0.00    -0.155 C  
HETATM   25  H   UNL     1      -9.853  13.107  68.153  1.00  0.00     0.000 HD 
HETATM   26  C   UNL     1      -5.955  14.527  69.785  1.00  0.00    -0.122 C  
ENDBRANCH   3  15
TORSDOF 2
ENDMDL
MODEL      225
REMARK 921   NORMALIZED FREE ENERGY PREDICTED BY IDOCK:    3.36 KCAL/MOL
REMARK 922        TOTAL FREE ENERGY PREDICTED BY IDOCK:    3.29 KCAL/MOL
REMARK 923 INTER-LIGAND FREE ENERGY PREDICTED BY IDOCK:    3.72 KCAL/MOL
REMARK 924 INTRA-LIGAND FREE ENERGY PREDICTED BY IDOCK:   -0.43 KCAL/MOL
REMARK 927      BINDING AFFINITY PREDICTED BY RF-SCORE:    0.00 PKD
ROOT
HETATM    1  N   UNL     1      -9.397  19.096  70.638  1.00  0.00     2.022 NA 
HETATM    2  H1  UNL     1     -10.184  19.741  70.558  1.00  0.00     0.000 HD 
HETATM    3  C   UNL     1      -9.555  18.077  69.575  1.00  0.00     0.399 C  
HETATM    4  H2  UNL     1      -8.492  19.564  70.611  1.00  0.00     0.000 HD 
ENDROOT
BRANCH   3   5
HETATM    5  C   UNL     1      -8.355  17.091  69.698  1.00  0.00     0.794 C  
HETATM    6  N   UNL     1      -5.385  15.385  67.928  1.00  0.00    -0.149 NA 
HETATM    7  N   UNL     1      -8.591  15.760  69.434  1.00  0.00    -0.256 N  
HETATM    8  O   UNL     1      -7.235  17.491  70.024  1.00  0.00     0.594 OA 
HETATM    9  C   UNL     1      -6.331  15.146  68.565  1.00  0.00    -0.092 C  
HETATM   10  C   UNL     1      -7.505  14.754  69.369  1.00  0.00    -0.147 C  
HETATM   11  C   UNL     1      -9.859  15.086  69.533  1.00  0.00    -0.126 C  
HETATM   12  C   UNL     1      -8.193  13.529  68.718  1.00  0.00     0.044 C  
HETATM   13  C   UNL     1     -10.598  14.543  68.357  1.00  0.00    -0.244 C  
HETATM   14  C   UNL     1      -9.642  13.651  69.109  1.00  0.00     0.359 C  
ENDBRANCH   3   5
BRANCH   3  15
HETATM   15  C   UNL     1      -9.685  18.727  68.151  1.00  0.00    -0.384 C  
HETATM   16  C   UNL     1      -9.040  18.804  65.232  1.00  0.00     1.860 C  
HETATM   17  C   UNL     1      -9.193  21.051  66.324  1.00  0.00     0.800 C  
HETATM   18  C   UNL     1      -8.270  19.099  67.601  1.00  0.00    -0.316 C  
HETATM   19  C   UNL     1     -10.454  18.466  65.730  1.00  0.00    -0.227 C  
HETATM   20  C   UNL     1     -10.604  20.719  66.835  1.00  0.00     0.721 C  
HETATM   21  C   UNL     1     -10.361  17.791  67.110  1.00  0.00    -0.354 C  
HETATM   22  C   UNL     1     -10.507  20.046  68.219  1.00  0.00    -0.409 C  
HETATM   23  O   UNL     1     -11.081  17.573  64.819  1.00  0.00    -0.959 OA 
HETATM   24  C   UNL     1     -11.281  19.757  65.851  1.00  0.00     0.171 C  
HETATM   25  H   UNL     1     -11.955  17.364  65.127  1.00  0.00     0.000 HD 
HETATM   26  C   UNL     1      -8.360  19.765  66.216  1.00  0.00    -0.383 C  
ENDBRANCH   3  15
TORSDOF 2
ENDMDL
MODEL      226
REMARK 921   NORMALIZED FREE ENERGY PREDICTED BY IDOCK:    4.16 KCAL/MOL
REMARK 922        TOTAL FREE ENERGY PREDICTED BY IDOCK:    4.18 KCAL/MOL
REMARK 923 INTER-LIGAND FREE ENERGY PREDICTED BY IDOCK:    4.61 KCAL/MOL
REMARK 924 INTRA-LIGAND FREE ENERGY PREDICTED BY IDOCK:   -0.43 KCAL/MOL
REMARK 927      BINDING AFFINITY PREDICTED BY RF-SCORE:    0.00 PKD
ROOT
HETATM    1  N   UNL     1      -7.191  17.699  70.000  1.00  0.00     0.835 NA 
HETATM    2  H1  UNL     1      -7.563  18.649  69.977  1.00  0.00     0.000 HD 
HETATM    3  C   UNL     1      -8.288  16.789  69.594  1.00  0.00     0.660 C  
HETATM    4  H2  UNL     1      -6.349  17.586  69.436  1.00  0.00     0.000 HD 
ENDROOT
BRANCH   3   5
HETATM    5  C   UNL     1      -7.720  15.338  69.630  1.00  0.00    -0.161 C  
HETATM    6  N   UNL     1      -6.432  12.325  67.599  1.00  0.00    -0.104 NA 
HETATM    7  N   UNL     1      -8.623  14.298  69.598  1.00  0.00     0.544 N  
HETATM    8  O   UNL     1      -6.506  15.132  69.690  1.00  0.00    -0.137 OA 
HETATM    9  C   UNL     1      -7.203  12.610  68.424  1.00  0.00    -0.111 C  
HETATM   10  C   UNL     1      -8.205  12.881  69.474  1.00  0.00     1.328 C  
HETATM   11  C   UNL     1      -9.999  14.353  70.017  1.00  0.00     0.737 C  
HETATM   12  C   UNL     1      -9.525  12.149  69.133  1.00  0.00     0.486 C  
HETATM   13  C   UNL     1     -11.151  14.221  69.081  1.00  0.00    -0.291 C  
HETATM   14  C   UNL     1     -10.604  12.992  69.761  1.00  0.00     0.752 C  
ENDBRANCH   3   5
BRANCH   3  15
HETATM   15  C   UNL     1      -8.897  17.186  68.202  1.00  0.00    -0.237 C  
HETATM   16  C   UNL     1      -8.626  17.698  65.268  1.00  0.00     1.989 C  
HETATM   17  C   UNL     1     -10.210  19.233  66.452  1.00  0.00    -0.533 C  
HETATM   18  C   UNL     1      -8.143  18.424  67.620  1.00  0.00    -0.257 C  
HETATM   19  C   UNL     1      -9.406  16.485  65.799  1.00  0.00    -0.075 C  
HETATM   20  C   UNL     1     -10.991  18.026  66.996  1.00  0.00     0.033 C  
HETATM   21  C   UNL     1      -8.809  16.046  67.149  1.00  0.00    -0.224 C  
HETATM   22  C   UNL     1     -10.392  17.591  68.349  1.00  0.00    -0.378 C  
HETATM   23  O   UNL     1      -9.303  15.410  64.876  1.00  0.00     0.021 OA 
HETATM   24  C   UNL     1     -10.882  16.866  65.999  1.00  0.00    -0.005 C  
HETATM   25  H   UNL     1      -9.785  14.660  65.204  1.00  0.00     0.000 HD 
HETATM   26  C   UNL     1      -8.732  18.859  66.266  1.00  0.00    -0.260 C  
ENDBRANCH   3  15
TORSDOF 2
ENDMDL
MODEL      227
REMARK 921   NORMALIZED FREE ENERGY PREDICTED BY IDOCK:    5.04 KCAL/MOL
REMARK 922        TOTAL FREE ENERGY PREDICTED BY IDOCK:    5.17 KCAL/MOL
REMARK 923 INTER-LIGAND FREE ENERGY PREDICTED BY IDOCK:    3.28 KCAL/MOL
REMARK 924 INTRA-LIGAND FREE ENERGY PREDICTED BY IDOCK:    1.88 KCAL/MOL
REMARK 927      BINDING AFFINITY PREDICTED BY RF-SCORE:    0.00 PKD
ROOT
HETATM    1  N   UNL     1      -8.086  18.711  65.824  1.00  0.00    -0.441 NA 
HETATM    2  H1  UNL     1      -7.116  19.022  65.868  1.00  0.00     0.000 HD 
HETATM    3  C   UNL     1      -8.115  17.296  66.263  1.00  0.00    -0.280 C  
HETATM    4  H2  UNL     1      -8.722  19.306  66.354  1.00  0.00     0.000 HD 
ENDROOT
BRANCH   3   5
HETATM    5  C   UNL     1      -9.597  16.821  66.195  1.00  0.00    -0.274 C  
HETATM    6  N   UNL     1     -12.903  16.277  68.102  1.00  0.00     2.128 NA 
HETATM    7  N   UNL     1      -9.853  15.489  66.440  1.00  0.00    -0.260 N  
HETATM    8  O   UNL     1     -10.506  17.609  65.927  1.00  0.00    -0.476 OA 
HETATM    9  C   UNL     1     -12.140  15.724  67.417  1.00  0.00     0.807 C  
HETATM   10  C   UNL     1     -11.228  14.948  66.554  1.00  0.00    -0.335 C  
HETATM   11  C   UNL     1      -8.926  14.401  66.274  1.00  0.00     0.004 C  
HETATM   12  C   UNL     1     -11.008  13.542  67.163  1.00  0.00    -0.302 C  
HETATM   13  C   UNL     1      -8.386  13.599  67.409  1.00  0.00    -0.198 C  
HETATM   14  C   UNL     1      -9.634  13.135  66.701  1.00  0.00    -0.260 C  
ENDBRANCH   3   5
BRANCH   3  15
HETATM   15  C   UNL     1      -7.464  17.107  67.681  1.00  0.00    -0.183 C  
HETATM   16  C   UNL     1      -5.337  17.711  69.693  1.00  0.00    -0.198 C  
HETATM   17  C   UNL     1      -6.114  15.331  69.682  1.00  0.00    -0.137 C  
HETATM   18  C   UNL     1      -5.988  16.618  67.531  1.00  0.00    -0.178 C  
HETATM   19  C   UNL     1      -6.785  18.182  69.895  1.00  0.00     0.233 C  
HETATM   20  C   UNL     1      -7.568  15.794  69.873  1.00  0.00     0.204 C  
HETATM   21  C   UNL     1      -7.442  18.414  68.522  1.00  0.00    -0.309 C  
HETATM   22  C   UNL     1      -8.223  16.021  68.496  1.00  0.00    -0.181 C  
HETATM   23  O   UNL     1      -6.793  19.403  70.623  1.00  0.00     0.294 OA 
HETATM   24  C   UNL     1      -7.577  17.110  70.661  1.00  0.00     3.744 C  
HETATM   25  H   UNL     1      -7.689  19.694  70.748  1.00  0.00     0.000 HD 
HETATM   26  C   UNL     1      -5.325  16.395  68.903  1.00  0.00    -0.116 C  
ENDBRANCH   3  15
TORSDOF 2
ENDMDL
MODEL      228
REMARK 921   NORMALIZED FREE ENERGY PREDICTED BY IDOCK:    5.09 KCAL/MOL
REMARK 922        TOTAL FREE ENERGY PREDICTED BY IDOCK:    5.22 KCAL/MOL
REMARK 923 INTER-LIGAND FREE ENERGY PREDICTED BY IDOCK:    2.86 KCAL/MOL
REMARK 924 INTRA-LIGAND FREE ENERGY PREDICTED BY IDOCK:    2.36 KCAL/MOL
REMARK 927      BINDING AFFINITY PREDICTED BY RF-SCORE:    0.00 PKD
ROOT
HETATM    1  N   UNL     1      -5.720  20.264  66.059  1.00  0.00    -0.173 NA 
HETATM    2  H1  UNL     1      -4.795  20.148  66.474  1.00  0.00     0.000 HD 
HETATM    3  C   UNL     1      -6.443  18.983  66.231  1.00  0.00    -0.195 C  
HETATM    4  H2  UNL     1      -6.229  21.064  66.435  1.00  0.00     0.000 HD 
ENDROOT
BRANCH   3   5
HETATM    5  C   UNL     1      -7.855  19.161  65.596  1.00  0.00     0.149 C  
HETATM    6  N   UNL     1     -11.499  20.313  66.101  1.00  0.00     1.042 NA 
HETATM    7  N   UNL     1      -8.735  18.105  65.689  1.00  0.00     0.475 N  
HETATM    8  O   UNL     1      -8.169  20.209  65.028  1.00  0.00     0.160 OA 
HETATM    9  C   UNL     1     -10.869  19.403  65.739  1.00  0.00    -0.280 C  
HETATM   10  C   UNL     1     -10.150  18.205  65.261  1.00  0.00     0.963 C  
HETATM   11  C   UNL     1      -8.385  16.719  65.854  1.00  0.00     0.041 C  
HETATM   12  C   UNL     1     -10.796  16.936  65.868  1.00  0.00    -0.037 C  
HETATM   13  C   UNL     1      -8.686  15.934  67.085  1.00  0.00    -0.223 C  
HETATM   14  C   UNL     1      -9.674  15.935  65.946  1.00  0.00    -0.386 C  
ENDBRANCH   3   5
BRANCH   3  15
HETATM   15  C   UNL     1      -6.489  18.531  67.735  1.00  0.00    -0.209 C  
HETATM   16  C   UNL     1      -7.369  16.647  69.883  1.00  0.00     0.664 C  
HETATM   17  C   UNL     1      -7.336  19.056  70.561  1.00  0.00     1.502 C  
HETATM   18  C   UNL     1      -7.971  18.423  68.218  1.00  0.00    -0.317 C  
HETATM   19  C   UNL     1      -5.895  16.746  69.462  1.00  0.00    -0.194 C  
HETATM   20  C   UNL     1      -5.864  19.168  70.132  1.00  0.00    -0.263 C  
HETATM   21  C   UNL     1      -5.815  17.152  67.979  1.00  0.00    -0.127 C  
HETATM   22  C   UNL     1      -5.788  19.578  68.648  1.00  0.00    -0.250 C  
HETATM   23  O   UNL     1      -5.264  15.483  69.631  1.00  0.00    -0.095 OA 
HETATM   24  C   UNL     1      -5.182  17.806  70.317  1.00  0.00    -0.244 C  
HETATM   25  H   UNL     1      -4.352  15.545  69.370  1.00  0.00     0.000 HD 
HETATM   26  C   UNL     1      -8.054  18.007  69.698  1.00  0.00     0.858 C  
ENDBRANCH   3  15
TORSDOF 2
ENDMDL
MODEL      229
REMARK 921   NORMALIZED FREE ENERGY PREDICTED BY IDOCK:    5.12 KCAL/MOL
REMARK 922        TOTAL FREE ENERGY PREDICTED BY IDOCK:    5.26 KCAL/MOL
REMARK 923 INTER-LIGAND FREE ENERGY PREDICTED BY IDOCK:    3.53 KCAL/MOL
REMARK 924 INTRA-LIGAND FREE ENERGY PREDICTED BY IDOCK:    1.73 KCAL/MOL
REMARK 927      BINDING AFFINITY PREDICTED BY RF-SCORE:    0.00 PKD
ROOT
HETATM    1  N   UNL     1      -7.280  17.702  70.046  1.00  0.00     0.835 NA 
HETATM    2  H1  UNL     1      -7.623  18.651  69.898  1.00  0.00     0.000 HD 
HETATM    3  C   UNL     1      -8.443  16.792  69.930  1.00  0.00     1.296 C  
HETATM    4  H2  UNL     1      -6.513  17.452  69.423  1.00  0.00     0.000 HD 
ENDROOT
BRANCH   3   5
HETATM    5  C   UNL     1      -7.920  15.342  70.158  1.00  0.00     0.470 C  
HETATM    6  N   UNL     1      -5.299  13.087  71.864  1.00  0.00    -0.380 NA 
HETATM    7  N   UNL     1      -6.986  14.853  69.271  1.00  0.00    -0.138 N  
HETATM    8  O   UNL     1      -8.332  14.657  71.097  1.00  0.00     2.431 OA 
HETATM    9  C   UNL     1      -5.766  13.322  70.823  1.00  0.00    -0.176 C  
HETATM   10  C   UNL     1      -6.303  13.553  69.467  1.00  0.00    -0.108 C  
HETATM   11  C   UNL     1      -6.788  15.295  67.916  1.00  0.00    -0.151 C  
HETATM   12  C   UNL     1      -5.137  13.606  68.450  1.00  0.00    -0.098 C  
HETATM   13  C   UNL     1      -5.563  16.006  67.452  1.00  0.00    -0.100 C  
HETATM   14  C   UNL     1      -5.632  14.503  67.347  1.00  0.00     0.352 C  
ENDBRANCH   3   5
BRANCH   3  15
HETATM   15  C   UNL     1      -9.199  16.974  68.565  1.00  0.00    -0.266 C  
HETATM   16  C   UNL     1      -9.308  16.802  65.582  1.00  0.00     0.151 C  
HETATM   17  C   UNL     1     -10.489  18.784  66.555  1.00  0.00    -0.484 C  
HETATM   18  C   UNL     1      -8.389  17.926  67.628  1.00  0.00    -0.234 C  
HETATM   19  C   UNL     1     -10.148  15.868  66.468  1.00  0.00    -0.282 C  
HETATM   20  C   UNL     1     -11.326  17.858  67.453  1.00  0.00     0.612 C  
HETATM   21  C   UNL     1      -9.415  15.637  67.803  1.00  0.00    -0.208 C  
HETATM   22  C   UNL     1     -10.591  17.632  68.789  1.00  0.00    -0.191 C  
HETATM   23  O   UNL     1     -10.322  14.618  65.814  1.00  0.00    -0.296 OA 
HETATM   24  C   UNL     1     -11.516  16.510  66.746  1.00  0.00     0.698 C  
HETATM   25  H   UNL     1     -10.841  14.041  66.362  1.00  0.00     0.000 HD 
HETATM   26  C   UNL     1      -9.115  18.150  66.288  1.00  0.00    -0.199 C  
ENDBRANCH   3  15
TORSDOF 2
ENDMDL
MODEL      230
REMARK 921   NORMALIZED FREE ENERGY PREDICTED BY IDOCK:    8.65 KCAL/MOL
REMARK 922        TOTAL FREE ENERGY PREDICTED BY IDOCK:    9.20 KCAL/MOL
REMARK 923 INTER-LIGAND FREE ENERGY PREDICTED BY IDOCK:    9.13 KCAL/MOL
REMARK 924 INTRA-LIGAND FREE ENERGY PREDICTED BY IDOCK:    0.07 KCAL/MOL
REMARK 927      BINDING AFFINITY PREDICTED BY RF-SCORE:    0.00 PKD
ROOT
HETATM    1  N   UNL     1     -10.377  14.834  69.563  1.00  0.00    -0.382 NA 
HETATM    2  H1  UNL     1     -10.655  14.184  70.298  1.00  0.00     0.000 HD 
HETATM    3  C   UNL     1      -9.247  14.213  68.833  1.00  0.00    -0.001 C  
HETATM    4  H2  UNL     1     -11.149  15.101  68.952  1.00  0.00     0.000 HD 
ENDROOT
BRANCH   3   5
HETATM    5  C   UNL     1      -8.821  15.207  67.710  1.00  0.00    -0.170 C  
HETATM    6  N   UNL     1      -6.490  15.889  64.717  1.00  0.00     9.663 NA 
HETATM    7  N   UNL     1      -7.835  16.121  68.007  1.00  0.00    -0.142 N  
HETATM    8  O   UNL     1      -9.354  15.176  66.599  1.00  0.00    -0.233 OA 
HETATM    9  C   UNL     1      -6.844  16.352  65.725  1.00  0.00     2.123 C  
HETATM   10  C   UNL     1      -7.239  17.014  66.985  1.00  0.00    -0.189 C  
HETATM   11  C   UNL     1      -7.489  16.603  69.318  1.00  0.00    -0.165 C  
HETATM   12  C   UNL     1      -5.983  17.577  67.691  1.00  0.00    -0.157 C  
HETATM   13  C   UNL     1      -6.191  16.306  69.989  1.00  0.00    -0.109 C  
HETATM   14  C   UNL     1      -6.326  17.556  69.157  1.00  0.00    -0.235 C  
ENDBRANCH   3   5
BRANCH   3  15
HETATM   15  C   UNL     1      -9.609  12.783  68.294  1.00  0.00    -0.211 C  
HETATM   16  C   UNL     1     -11.503  10.487  68.011  1.00  0.00    -0.230 C  
HETATM   17  C   UNL     1      -9.103   9.829  68.281  1.00  0.00    -0.122 C  
HETATM   18  C   UNL     1      -9.992  11.844  69.483  1.00  0.00     0.760 C  
HETATM   19  C   UNL     1     -11.127  11.365  66.808  1.00  0.00    -0.281 C  
HETATM   20  C   UNL     1      -8.715  10.714  67.085  1.00  0.00    -0.130 C  
HETATM   21  C   UNL     1     -10.802  12.788  67.298  1.00  0.00    -0.277 C  
HETATM   22  C   UNL     1      -8.387  12.136  67.580  1.00  0.00    -0.166 C  
HETATM   23  O   UNL     1     -12.219  11.426  65.901  1.00  0.00     0.284 OA 
HETATM   24  C   UNL     1      -9.893  10.778  66.105  1.00  0.00    -0.269 C  
HETATM   25  H   UNL     1     -11.987  11.969  65.157  1.00  0.00     0.000 HD 
HETATM   26  C   UNL     1     -10.327  10.423  68.995  1.00  0.00    -0.232 C  
ENDBRANCH   3  15
TORSDOF 2
ENDMDL
MODEL      231
REMARK 921   NORMALIZED FREE ENERGY PREDICTED BY IDOCK:   11.83 KCAL/MOL
REMARK 922        TOTAL FREE ENERGY PREDICTED BY IDOCK:   12.75 KCAL/MOL
REMARK 923 INTER-LIGAND FREE ENERGY PREDICTED BY IDOCK:   -3.93 KCAL/MOL
REMARK 924 INTRA-LIGAND FREE ENERGY PREDICTED BY IDOCK:   16.69 KCAL/MOL
REMARK 927      BINDING AFFINITY PREDICTED BY RF-SCORE:    0.00 PKD
ROOT
HETATM    1  N   UNL     1      -8.522   8.337  66.925  1.00  0.00    -0.117 NA 
HETATM    2  H1  UNL     1      -7.869   7.557  67.002  1.00  0.00     0.000 HD 
HETATM    3  C   UNL     1      -9.786   7.917  67.575  1.00  0.00    -0.159 C  
HETATM    4  H2  UNL     1      -8.151   9.209  67.300  1.00  0.00     0.000 HD 
ENDROOT
BRANCH   3   5
HETATM    5  C   UNL     1     -10.784   9.107  67.457  1.00  0.00    -0.185 C  
HETATM    6  N   UNL     1     -11.235  12.923  67.143  1.00  0.00    -0.276 NA 
HETATM    7  N   UNL     1     -11.232   9.684  68.625  1.00  0.00    -0.035 N  
HETATM    8  O   UNL     1     -11.161   9.513  66.355  1.00  0.00     0.514 OA 
HETATM    9  C   UNL     1     -11.576  12.011  67.782  1.00  0.00    -0.330 C  
HETATM   10  C   UNL     1     -12.061  10.913  68.642  1.00  0.00     0.005 C  
HETATM   11  C   UNL     1     -11.293   9.052  69.916  1.00  0.00    -0.001 C  
HETATM   12  C   UNL     1     -12.012  11.355  70.124  1.00  0.00    -0.460 C  
HETATM   13  C   UNL     1     -10.446   9.461  71.074  1.00  0.00    -0.392 C  
HETATM   14  C   UNL     1     -11.810  10.079  70.898  1.00  0.00    -0.459 C  
ENDBRANCH   3   5
BRANCH   3  15
HETATM   15  C   UNL     1      -9.556   7.441  69.055  1.00  0.00    -0.148 C  
HETATM   16  C   UNL     1      -9.937   7.760  72.003  1.00  0.00    -0.231 C  
HETATM   17  C   UNL     1      -7.679   6.913  71.331  1.00  0.00    -0.092 C  
HETATM   18  C   UNL     1      -8.874   8.578  69.883  1.00  0.00    -0.137 C  
HETATM   19  C   UNL     1     -10.598   6.608  71.232  1.00  0.00    -0.223 C  
HETATM   20  C   UNL     1      -8.332   5.763  70.547  1.00  0.00    -0.119 C  
HETATM   21  C   UNL     1     -10.873   7.055  69.784  1.00  0.00    -0.276 C  
HETATM   22  C   UNL     1      -8.602   6.213  69.097  1.00  0.00    -0.119 C  
HETATM   23  O   UNL     1     -11.831   6.264  71.851  1.00  0.00    -0.319 OA 
HETATM   24  C   UNL     1      -9.661   5.390  71.217  1.00  0.00    -0.205 C  
HETATM   25  H   UNL     1     -12.240   5.551  71.374  1.00  0.00     0.000 HD 
HETATM   26  C   UNL     1      -8.608   8.137  71.334  1.00  0.00    -0.168 C  
ENDBRANCH   3  15
TORSDOF 2
ENDMDL
MODEL      232
REMARK 921   NORMALIZED FREE ENERGY PREDICTED BY IDOCK:   15.06 KCAL/MOL
REMARK 922        TOTAL FREE ENERGY PREDICTED BY IDOCK:   16.36 KCAL/MOL
REMARK 923 INTER-LIGAND FREE ENERGY PREDICTED BY IDOCK:   14.16 KCAL/MOL
REMARK 924 INTRA-LIGAND FREE ENERGY PREDICTED BY IDOCK:    2.19 KCAL/MOL
REMARK 927      BINDING AFFINITY PREDICTED BY RF-SCORE:    0.00 PKD
ROOT
HETATM    1  N   UNL     1      -7.352  19.474  70.040  1.00  0.00     0.154 NA 
HETATM    2  H1  UNL     1      -8.007  20.247  69.923  1.00  0.00     0.000 HD 
HETATM    3  C   UNL     1      -7.891  18.323  69.278  1.00  0.00     0.131 C  
HETATM    4  H2  UNL     1      -6.397  19.716  69.775  1.00  0.00     0.000 HD 
ENDROOT
BRANCH   3   5
HETATM    5  C   UNL     1      -6.890  17.142  69.458  1.00  0.00    -0.092 C  
HETATM    6  N   UNL     1      -6.383  13.478  70.544  1.00  0.00     0.016 NA 
HETATM    7  N   UNL     1      -6.238  17.035  70.666  1.00  0.00     0.553 N  
HETATM    8  O   UNL     1      -6.688  16.336  68.547  1.00  0.00    -0.128 OA 
HETATM    9  C   UNL     1      -5.969  14.552  70.725  1.00  0.00    -0.173 C  
HETATM   10  C   UNL     1      -5.382  15.876  71.012  1.00  0.00    -0.050 C  
HETATM   11  C   UNL     1      -5.984  18.107  71.593  1.00  0.00     1.248 C  
HETATM   12  C   UNL     1      -5.171  16.030  72.537  1.00  0.00     1.007 C  
HETATM   13  C   UNL     1      -6.615  18.197  72.941  1.00  0.00     5.431 C  
HETATM   14  C   UNL     1      -5.280  17.511  72.791  1.00  0.00     3.408 C  
ENDBRANCH   3   5
BRANCH   3  15
HETATM   15  C   UNL     1      -8.162  18.687  67.775  1.00  0.00    -0.273 C  
HETATM   16  C   UNL     1      -8.870  17.915  64.974  1.00  0.00     3.288 C  
HETATM   17  C   UNL     1      -7.155  19.730  65.152  1.00  0.00    -0.076 C  
HETATM   18  C   UNL     1      -7.200  17.879  66.846  1.00  0.00    -0.221 C  
HETATM   19  C   UNL     1      -9.832  18.740  65.843  1.00  0.00    -0.041 C  
HETATM   20  C   UNL     1      -8.106  20.558  66.031  1.00  0.00     0.105 C  
HETATM   21  C   UNL     1      -9.617  18.379  67.324  1.00  0.00    -0.292 C  
HETATM   22  C   UNL     1      -7.886  20.196  67.514  1.00  0.00    -0.344 C  
HETATM   23  O   UNL     1     -11.175  18.442  65.484  1.00  0.00     0.065 OA 
HETATM   24  C   UNL     1      -9.555  20.239  65.642  1.00  0.00    -0.000 C  
HETATM   25  H   UNL     1     -11.769  18.952  66.021  1.00  0.00     0.000 HD 
HETATM   26  C   UNL     1      -7.419  18.231  65.363  1.00  0.00     0.447 C  
ENDBRANCH   3  15
TORSDOF 2
ENDMDL
MODEL      233
REMARK 921   NORMALIZED FREE ENERGY PREDICTED BY IDOCK:   17.59 KCAL/MOL
REMARK 922        TOTAL FREE ENERGY PREDICTED BY IDOCK:   19.19 KCAL/MOL
REMARK 923 INTER-LIGAND FREE ENERGY PREDICTED BY IDOCK:   16.86 KCAL/MOL
REMARK 924 INTRA-LIGAND FREE ENERGY PREDICTED BY IDOCK:    2.33 KCAL/MOL
REMARK 927      BINDING AFFINITY PREDICTED BY RF-SCORE:    0.00 PKD
ROOT
HETATM    1  N   UNL     1      -6.760  19.524  69.634  1.00  0.00    -0.309 NA 
HETATM    2  H1  UNL     1      -7.285  20.346  69.336  1.00  0.00     0.000 HD 
HETATM    3  C   UNL     1      -7.330  18.356  68.924  1.00  0.00    -0.250 C  
HETATM    4  H2  UNL     1      -5.754  19.622  69.499  1.00  0.00     0.000 HD 
ENDROOT
BRANCH   3   5
HETATM    5  C   UNL     1      -6.528  17.101  69.382  1.00  0.00    -0.233 C  
HETATM    6  N   UNL     1      -6.639  13.639  71.075  1.00  0.00     0.386 NA 
HETATM    7  N   UNL     1      -5.987  17.115  70.648  1.00  0.00     0.204 N  
HETATM    8  O   UNL     1      -6.380  16.133  68.632  1.00  0.00    -0.114 OA 
HETATM    9  C   UNL     1      -6.087  14.664  71.123  1.00  0.00     0.039 C  
HETATM   10  C   UNL     1      -5.336  15.928  71.252  1.00  0.00     0.038 C  
HETATM   11  C   UNL     1      -5.647  18.285  71.414  1.00  0.00     0.179 C  
HETATM   12  C   UNL     1      -5.216  16.310  72.747  1.00  0.00     1.818 C  
HETATM   13  C   UNL     1      -6.353  18.684  72.665  1.00  0.00     3.062 C  
HETATM   14  C   UNL     1      -5.126  17.813  72.753  1.00  0.00     3.781 C  
ENDBRANCH   3   5
BRANCH   3  15
HETATM   15  C   UNL     1      -7.335  18.559  67.366  1.00  0.00    -0.222 C  
HETATM   16  C   UNL     1      -8.240  20.005  64.911  1.00  0.00     1.485 C  
HETATM   17  C   UNL     1      -8.011  17.528  64.635  1.00  0.00     5.849 C  
HETATM   18  C   UNL     1      -8.797  18.476  66.821  1.00  0.00    -0.285 C  
HETATM   19  C   UNL     1      -6.784  20.086  65.396  1.00  0.00    -0.296 C  
HETATM   20  C   UNL     1      -6.556  17.597  65.128  1.00  0.00     0.969 C  
HETATM   21  C   UNL     1      -6.747  19.928  66.927  1.00  0.00    -0.230 C  
HETATM   22  C   UNL     1      -6.522  17.435  66.661  1.00  0.00    -0.260 C  
HETATM   23  O   UNL     1      -6.234  21.349  65.047  1.00  0.00    -0.361 OA 
HETATM   24  C   UNL     1      -5.961  18.959  64.750  1.00  0.00    -0.301 C  
HETATM   25  H   UNL     1      -5.334  21.399  65.346  1.00  0.00     0.000 HD 
HETATM   26  C   UNL     1      -8.838  18.644  65.291  1.00  0.00     1.911 C  
ENDBRANCH   3  15
TORSDOF 2
ENDMDL
MODEL      234
REMARK 921   NORMALIZED FREE ENERGY PREDICTED BY IDOCK:   19.37 KCAL/MOL
REMARK 922        TOTAL FREE ENERGY PREDICTED BY IDOCK:   21.18 KCAL/MOL
REMARK 923 INTER-LIGAND FREE ENERGY PREDICTED BY IDOCK:   20.88 KCAL/MOL
REMARK 924 INTRA-LIGAND FREE ENERGY PREDICTED BY IDOCK:    0.30 KCAL/MOL
REMARK 927      BINDING AFFINITY PREDICTED BY RF-SCORE:    0.00 PKD
ROOT
HETATM    1  N   UNL     1      -8.101  10.579  69.022  1.00  0.00    -0.134 NA 
HETATM    2  H1  UNL     1      -7.916  11.135  69.858  1.00  0.00     0.000 HD 
HETATM    3  C   UNL     1      -9.443  10.964  68.527  1.00  0.00    -0.185 C  
HETATM    4  H2  UNL     1      -7.373  10.668  68.314  1.00  0.00     0.000 HD 
ENDROOT
BRANCH   3   5
HETATM    5  C   UNL     1      -9.725  10.115  67.251  1.00  0.00    -0.167 C  
HETATM    6  N   UNL     1     -12.284   9.093  64.555  1.00  0.00    13.385 NA 
HETATM    7  N   UNL     1     -10.197   8.833  67.429  1.00  0.00    -0.232 N  
HETATM    8  O   UNL     1      -9.528  10.575  66.125  1.00  0.00    -0.169 OA 
HETATM    9  C   UNL     1     -11.550   8.641  65.337  1.00  0.00     8.653 C  
HETATM   10  C   UNL     1     -10.644   7.983  66.300  1.00  0.00     0.786 C  
HETATM   11  C   UNL     1     -10.009   8.013  68.597  1.00  0.00    -0.189 C  
HETATM   12  C   UNL     1     -11.389   6.822  67.002  1.00  0.00     0.013 C  
HETATM   13  C   UNL     1     -11.121   7.604  69.503  1.00  0.00    -0.031 C  
HETATM   14  C   UNL     1     -10.734   6.708  68.354  1.00  0.00    -0.314 C  
ENDBRANCH   3   5
BRANCH   3  15
HETATM   15  C   UNL     1      -9.559  12.512  68.283  1.00  0.00    -0.209 C  
HETATM   16  C   UNL     1      -9.890  14.865  66.469  1.00  0.00    -0.281 C  
HETATM   17  C   UNL     1      -8.315  15.236  68.379  1.00  0.00    -0.149 C  
HETATM   18  C   UNL     1      -8.450  12.981  67.287  1.00  0.00    -0.199 C  
HETATM   19  C   UNL     1     -10.992  14.457  67.458  1.00  0.00    -0.293 C  
HETATM   20  C   UNL     1      -9.408  14.819  69.376  1.00  0.00     0.017 C  
HETATM   21  C   UNL     1     -10.931  12.937  67.690  1.00  0.00    -0.274 C  
HETATM   22  C   UNL     1      -9.342  13.297  69.609  1.00  0.00     1.710 C  
HETATM   23  O   UNL     1     -12.265  14.792  66.920  1.00  0.00    -0.398 OA 
HETATM   24  C   UNL     1     -10.781  15.183  68.797  1.00  0.00    -0.239 C  
HETATM   25  H   UNL     1     -12.946  14.540  67.532  1.00  0.00     0.000 HD 
HETATM   26  C   UNL     1      -8.515  14.500  67.045  1.00  0.00    -0.222 C  
ENDBRANCH   3  15
TORSDOF 2
ENDMDL
MODEL      235
REMARK 921   NORMALIZED FREE ENERGY PREDICTED BY IDOCK:   28.65 KCAL/MOL
REMARK 922        TOTAL FREE ENERGY PREDICTED BY IDOCK:   31.54 KCAL/MOL
REMARK 923 INTER-LIGAND FREE ENERGY PREDICTED BY IDOCK:   13.53 KCAL/MOL
REMARK 924 INTRA-LIGAND FREE ENERGY PREDICTED BY IDOCK:   18.00 KCAL/MOL
REMARK 927      BINDING AFFINITY PREDICTED BY RF-SCORE:    0.00 PKD
ROOT
HETATM    1  N   UNL     1      -8.830  13.168  71.137  1.00  0.00     8.979 NA 
HETATM    2  H1  UNL     1      -8.789  14.187  71.118  1.00  0.00     0.000 HD 
HETATM    3  C   UNL     1      -9.734  12.744  70.042  1.00  0.00     3.010 C  
HETATM    4  H2  UNL     1      -7.911  12.729  71.088  1.00  0.00     0.000 HD 
ENDROOT
BRANCH   3   5
HETATM    5  C   UNL     1      -9.797  11.187  70.071  1.00  0.00     1.135 C  
HETATM    6  N   UNL     1      -7.827   7.875  69.995  1.00  0.00    -0.103 NA 
HETATM    7  N   UNL     1      -9.916  10.530  68.867  1.00  0.00    -0.194 N  
HETATM    8  O   UNL     1      -9.747  10.569  71.137  1.00  0.00     1.503 OA 
HETATM    9  C   UNL     1      -8.707   8.428  69.470  1.00  0.00    -0.137 C  
HETATM   10  C   UNL     1      -9.834   9.055  68.751  1.00  0.00    -0.172 C  
HETATM   11  C   UNL     1     -10.466  11.073  67.653  1.00  0.00    -0.204 C  
HETATM   12  C   UNL     1      -9.669   8.826  67.229  1.00  0.00    -0.238 C  
HETATM   13  C   UNL     1      -9.659  11.335  66.427  1.00  0.00    -0.223 C  
HETATM   14  C   UNL     1     -10.352  10.005  66.588  1.00  0.00    -0.281 C  
ENDBRANCH   3   5
BRANCH   3  15
HETATM   15  C   UNL     1      -9.286  13.323  68.652  1.00  0.00     0.017 C  
HETATM   16  C   UNL     1      -8.065  12.996  65.943  1.00  0.00     1.927 C  
HETATM   17  C   UNL     1      -7.525  15.163  67.073  1.00  0.00    -0.073 C  
HETATM   18  C   UNL     1      -7.760  13.068  68.432  1.00  0.00    -0.137 C  
HETATM   19  C   UNL     1      -9.565  13.281  66.114  1.00  0.00    -0.200 C  
HETATM   20  C   UNL     1      -9.024  15.452  67.258  1.00  0.00    -0.213 C  
HETATM   21  C   UNL     1     -10.045  12.691  67.453  1.00  0.00    -0.218 C  
HETATM   22  C   UNL     1      -9.500  14.864  68.601  1.00  0.00    -0.208 C  
HETATM   23  O   UNL     1     -10.291  12.673  65.054  1.00  0.00    -0.289 OA 
HETATM   24  C   UNL     1      -9.807  14.799  66.113  1.00  0.00    -0.335 C  
HETATM   25  H   UNL     1     -11.218  12.849  65.160  1.00  0.00     0.000 HD 
HETATM   26  C   UNL     1      -7.279  13.647  67.089  1.00  0.00     0.187 C  
ENDBRANCH   3  15
TORSDOF 2
ENDMDL
MODEL      236
REMARK 921   NORMALIZED FREE ENERGY PREDICTED BY IDOCK:   29.92 KCAL/MOL
REMARK 922        TOTAL FREE ENERGY PREDICTED BY IDOCK:   32.96 KCAL/MOL
REMARK 923 INTER-LIGAND FREE ENERGY PREDICTED BY IDOCK:   33.43 KCAL/MOL
REMARK 924 INTRA-LIGAND FREE ENERGY PREDICTED BY IDOCK:   -0.47 KCAL/MOL
REMARK 927      BINDING AFFINITY PREDICTED BY RF-SCORE:    0.00 PKD
ROOT
HETATM    1  N   UNL     1      -6.890  12.668  69.213  1.00  0.00    -0.259 NA 
HETATM    2  H1  UNL     1      -5.885  12.620  69.378  1.00  0.00     0.000 HD 
HETATM    3  C   UNL     1      -7.463  11.360  69.607  1.00  0.00     0.257 C  
HETATM    4  H2  UNL     1      -7.335  13.456  69.682  1.00  0.00     0.000 HD 
ENDROOT
BRANCH   3   5
HETATM    5  C   UNL     1      -8.999  11.433  69.353  1.00  0.00     0.550 C  
HETATM    6  N   UNL     1     -12.536  11.139  70.857  1.00  0.00    -0.381 NA 
HETATM    7  N   UNL     1      -9.640  10.274  68.973  1.00  0.00    -0.192 N  
HETATM    8  O   UNL     1      -9.615  12.493  69.484  1.00  0.00     0.895 OA 
HETATM    9  C   UNL     1     -11.877  10.738  69.985  1.00  0.00    -0.344 C  
HETATM   10  C   UNL     1     -11.114  10.180  68.850  1.00  0.00    -0.207 C  
HETATM   11  C   UNL     1      -9.035   9.144  68.319  1.00  0.00    -0.129 C  
HETATM   12  C   UNL     1     -11.367   8.656  68.754  1.00  0.00     0.613 C  
HETATM   13  C   UNL     1      -8.882   7.806  68.960  1.00  0.00    -0.138 C  
HETATM   14  C   UNL     1     -10.112   8.098  68.137  1.00  0.00    -0.237 C  
ENDBRANCH   3   5
BRANCH   3  15
HETATM   15  C   UNL     1      -7.093  10.976  71.084  1.00  0.00     2.692 C  
HETATM   16  C   UNL     1      -5.283  11.125  73.460  1.00  0.00     0.605 C  
HETATM   17  C   UNL     1      -6.335   8.884  73.091  1.00  0.00     0.046 C  
HETATM   18  C   UNL     1      -5.685  10.300  71.125  1.00  0.00    -0.035 C  
HETATM   19  C   UNL     1      -6.675  11.775  73.473  1.00  0.00     6.938 C  
HETATM   20  C   UNL     1      -7.732   9.527  73.093  1.00  0.00     2.197 C  
HETATM   21  C   UNL     1      -7.054  12.199  72.042  1.00  0.00     8.084 C  
HETATM   22  C   UNL     1      -8.109   9.946  71.658  1.00  0.00     2.058 C  
HETATM   23  O   UNL     1      -6.657  12.927  74.306  1.00  0.00     1.517 OA 
HETATM   24  C   UNL     1      -7.713  10.768  73.994  1.00  0.00     8.813 C  
HETATM   25  H   UNL     1      -7.517  13.329  74.315  1.00  0.00     0.000 HD 
HETATM   26  C   UNL     1      -5.300   9.884  72.557  1.00  0.00     0.090 C  
ENDBRANCH   3  15
TORSDOF 2
ENDMDL
MODEL      237
REMARK 921   NORMALIZED FREE ENERGY PREDICTED BY IDOCK:   33.62 KCAL/MOL
REMARK 922        TOTAL FREE ENERGY PREDICTED BY IDOCK:   37.09 KCAL/MOL
REMARK 923 INTER-LIGAND FREE ENERGY PREDICTED BY IDOCK:   37.63 KCAL/MOL
REMARK 924 INTRA-LIGAND FREE ENERGY PREDICTED BY IDOCK:   -0.54 KCAL/MOL
REMARK 927      BINDING AFFINITY PREDICTED BY RF-SCORE:    0.00 PKD
ROOT
HETATM    1  N   UNL     1     -13.011  16.689  68.831  1.00  0.00     1.322 NA 
HETATM    2  H1  UNL     1     -12.667  16.497  69.772  1.00  0.00     0.000 HD 
HETATM    3  C   UNL     1     -12.079  16.039  67.880  1.00  0.00     0.652 C  
HETATM    4  H2  UNL     1     -13.981  16.406  68.695  1.00  0.00     0.000 HD 
ENDROOT
BRANCH   3   5
HETATM    5  C   UNL     1     -12.604  16.334  66.443  1.00  0.00     3.429 C  
HETATM    6  N   UNL     1     -14.241  14.922  63.252  1.00  0.00     6.653 NA 
HETATM    7  N   UNL     1     -11.712  16.216  65.400  1.00  0.00     0.482 N  
HETATM    8  O   UNL     1     -13.776  16.666  66.251  1.00  0.00     7.801 OA 
HETATM    9  C   UNL     1     -13.320  15.535  63.612  1.00  0.00     2.929 C  
HETATM   10  C   UNL     1     -12.125  16.321  63.981  1.00  0.00     0.853 C  
HETATM   11  C   UNL     1     -10.280  16.331  65.489  1.00  0.00    -0.298 C  
HETATM   12  C   UNL     1     -10.894  15.785  63.211  1.00  0.00     4.914 C  
HETATM   13  C   UNL     1      -9.346  15.192  65.259  1.00  0.00     0.406 C  
HETATM   14  C   UNL     1      -9.721  16.089  64.105  1.00  0.00     4.682 C  
ENDBRANCH   3   5
BRANCH   3  15
HETATM   15  C   UNL     1     -11.907  14.506  68.179  1.00  0.00    -0.348 C  
HETATM   16  C   UNL     1     -11.185  12.254  70.007  1.00  0.00     0.167 C  
HETATM   17  C   UNL     1     -10.518  11.911  67.619  1.00  0.00    -0.232 C  
HETATM   18  C   UNL     1     -10.439  14.209  68.624  1.00  0.00    -0.250 C  
HETATM   19  C   UNL     1     -12.638  12.492  69.567  1.00  0.00     0.461 C  
HETATM   20  C   UNL     1     -11.967  12.158  67.168  1.00  0.00    -0.149 C  
HETATM   21  C   UNL     1     -12.851  13.993  69.302  1.00  0.00     0.728 C  
HETATM   22  C   UNL     1     -12.175  13.662  66.900  1.00  0.00    -0.398 C  
HETATM   23  O   UNL     1     -13.524  12.074  70.597  1.00  0.00     0.629 OA 
HETATM   24  C   UNL     1     -12.923  11.704  68.278  1.00  0.00     3.203 C  
HETATM   25  H   UNL     1     -14.422  12.221  70.325  1.00  0.00     0.000 HD 
HETATM   26  C   UNL     1     -10.227  12.709  68.899  1.00  0.00    -0.004 C  
ENDBRANCH   3  15
TORSDOF 2
ENDMDL
MODEL      238
REMARK 921   NORMALIZED FREE ENERGY PREDICTED BY IDOCK:   44.01 KCAL/MOL
REMARK 922        TOTAL FREE ENERGY PREDICTED BY IDOCK:   48.70 KCAL/MOL
REMARK 923 INTER-LIGAND FREE ENERGY PREDICTED BY IDOCK:   49.14 KCAL/MOL
REMARK 924 INTRA-LIGAND FREE ENERGY PREDICTED BY IDOCK:   -0.44 KCAL/MOL
REMARK 927      BINDING AFFINITY PREDICTED BY RF-SCORE:    0.00 PKD
ROOT
HETATM    1  N   UNL     1      -5.978  13.249  69.742  1.00  0.00    -0.120 NA 
HETATM    2  H1  UNL     1      -5.035  13.179  70.126  1.00  0.00     0.000 HD 
HETATM    3  C   UNL     1      -6.712  12.030  70.153  1.00  0.00     0.445 C  
HETATM    4  H2  UNL     1      -6.454  14.111  70.007  1.00  0.00     0.000 HD 
ENDROOT
BRANCH   3   5
HETATM    5  C   UNL     1      -8.151  12.137  69.565  1.00  0.00     1.065 C  
HETATM    6  N   UNL     1     -11.937  12.190  70.287  1.00  0.00    -0.344 NA 
HETATM    7  N   UNL     1      -8.777  10.968  69.190  1.00  0.00    -0.058 N  
HETATM    8  O   UNL     1      -8.705  13.231  69.436  1.00  0.00     0.713 OA 
HETATM    9  C   UNL     1     -11.139  11.653  69.631  1.00  0.00    -0.108 C  
HETATM   10  C   UNL     1     -10.195  10.924  68.761  1.00  0.00    -0.196 C  
HETATM   11  C   UNL     1      -8.128   9.739  68.817  1.00  0.00    -0.102 C  
HETATM   12  C   UNL     1     -10.527   9.412  68.788  1.00  0.00    -0.236 C  
HETATM   13  C   UNL     1      -8.207   8.488  69.625  1.00  0.00    -0.115 C  
HETATM   14  C   UNL     1      -9.212   8.726  68.527  1.00  0.00    -0.141 C  
ENDBRANCH   3   5
BRANCH   3  15
HETATM   15  C   UNL     1      -6.689  11.826  71.711  1.00  0.00     4.638 C  
HETATM   16  C   UNL     1      -8.003  11.951  74.393  1.00  0.00    12.103 C  
HETATM   17  C   UNL     1      -5.579  12.574  74.392  1.00  0.00     0.651 C  
HETATM   18  C   UNL     1      -7.026  13.171  72.432  1.00  0.00     6.111 C  
HETATM   19  C   UNL     1      -7.657  10.606  73.734  1.00  0.00     8.164 C  
HETATM   20  C   UNL     1      -5.224  11.236  73.723  1.00  0.00     0.586 C  
HETATM   21  C   UNL     1      -7.708  10.762  72.203  1.00  0.00     7.538 C  
HETATM   22  C   UNL     1      -5.273  11.396  72.190  1.00  0.00     0.329 C  
HETATM   23  O   UNL     1      -8.603   9.622  74.131  1.00  0.00     2.257 OA 
HETATM   24  C   UNL     1      -6.243  10.173  74.153  1.00  0.00     1.094 C  
HETATM   25  H   UNL     1      -8.390   8.792  73.724  1.00  0.00     0.000 HD 
HETATM   26  C   UNL     1      -6.986  13.016  73.963  1.00  0.00     4.861 C  
ENDBRANCH   3  15
TORSDOF 2
ENDMDL
MODEL      239
REMARK 921   NORMALIZED FREE ENERGY PREDICTED BY IDOCK:   46.81 KCAL/MOL
REMARK 922        TOTAL FREE ENERGY PREDICTED BY IDOCK:   51.82 KCAL/MOL
REMARK 923 INTER-LIGAND FREE ENERGY PREDICTED BY IDOCK:   52.07 KCAL/MOL
REMARK 924 INTRA-LIGAND FREE ENERGY PREDICTED BY IDOCK:   -0.25 KCAL/MOL
REMARK 927      BINDING AFFINITY PREDICTED BY RF-SCORE:    0.00 PKD
ROOT
HETATM    1  N   UNL     1     -11.221  19.259  71.643  1.00  0.00     3.702 NA 
HETATM    2  H1  UNL     1     -12.019  18.658  71.438  1.00  0.00     0.000 HD 
HETATM    3  C   UNL     1     -10.111  18.831  70.759  1.00  0.00     2.349 C  
HETATM    4  H2  UNL     1     -11.437  20.252  71.561  1.00  0.00     0.000 HD 
ENDROOT
BRANCH   3   5
HETATM    5  C   UNL     1      -8.891  19.749  71.072  1.00  0.00     2.428 C  
HETATM    6  N   UNL     1      -5.574  21.252  69.809  1.00  0.00    -0.294 NA 
HETATM    7  N   UNL     1      -7.790  19.168  71.662  1.00  0.00     4.530 N  
HETATM    8  O   UNL     1      -8.916  20.952  70.805  1.00  0.00     1.740 OA 
HETATM    9  C   UNL     1      -6.027  20.654  70.700  1.00  0.00     0.010 C  
HETATM   10  C   UNL     1      -6.517  19.899  71.870  1.00  0.00     0.262 C  
HETATM   11  C   UNL     1      -7.785  17.968  72.457  1.00  0.00    11.705 C  
HETATM   12  C   UNL     1      -5.513  18.773  72.219  1.00  0.00     0.709 C  
HETATM   13  C   UNL     1      -7.127  16.700  72.029  1.00  0.00     7.388 C  
HETATM   14  C   UNL     1      -6.352  17.696  72.854  1.00  0.00     5.014 C  
ENDBRANCH   3   5
BRANCH   3  15
HETATM   15  C   UNL     1     -10.527  18.843  69.244  1.00  0.00     0.379 C  
HETATM   16  C   UNL     1     -10.134  17.982  66.408  1.00  0.00    -0.384 C  
HETATM   17  C   UNL     1     -10.886  20.354  66.681  1.00  0.00     0.355 C  
HETATM   18  C   UNL     1      -9.332  19.331  68.364  1.00  0.00    -0.422 C  
HETATM   19  C   UNL     1     -11.343  17.505  67.228  1.00  0.00     0.606 C  
HETATM   20  C   UNL     1     -12.092  19.888  67.512  1.00  0.00     2.604 C  
HETATM   21  C   UNL     1     -10.957  17.446  68.717  1.00  0.00     0.057 C  
HETATM   22  C   UNL     1     -11.703  19.833  69.003  1.00  0.00     4.067 C  
HETATM   23  O   UNL     1     -11.730  16.207  66.798  1.00  0.00     0.488 OA 
HETATM   24  C   UNL     1     -12.511  18.488  67.046  1.00  0.00     5.212 C  
HETATM   25  H   UNL     1     -12.477  15.912  67.305  1.00  0.00     0.000 HD 
HETATM   26  C   UNL     1      -9.712  19.382  66.873  1.00  0.00    -0.431 C  
ENDBRANCH   3  15
TORSDOF 2
ENDMDL
MODEL      240
REMARK 921   NORMALIZED FREE ENERGY PREDICTED BY IDOCK:   64.88 KCAL/MOL
REMARK 922        TOTAL FREE ENERGY PREDICTED BY IDOCK:   72.00 KCAL/MOL
REMARK 923 INTER-LIGAND FREE ENERGY PREDICTED BY IDOCK:   70.77 KCAL/MOL
REMARK 924 INTRA-LIGAND FREE ENERGY PREDICTED BY IDOCK:    1.23 KCAL/MOL
REMARK 927      BINDING AFFINITY PREDICTED BY RF-SCORE:    0.00 PKD
ROOT
HETATM    1  N   UNL     1      -5.708  14.025  69.774  1.00  0.00    -0.102 NA 
HETATM    2  H1  UNL     1      -4.847  13.899  70.307  1.00  0.00     0.000 HD 
HETATM    3  C   UNL     1      -6.600  12.890  70.105  1.00  0.00     0.317 C  
HETATM    4  H2  UNL     1      -6.144  14.934  69.928  1.00  0.00     0.000 HD 
ENDROOT
BRANCH   3   5
HETATM    5  C   UNL     1      -7.914  13.082  69.290  1.00  0.00     0.615 C  
HETATM    6  N   UNL     1      -9.571  13.168  65.811  1.00  0.00    -0.131 NA 
HETATM    7  N   UNL     1      -8.236  14.360  68.890  1.00  0.00    -0.120 N  
HETATM    8  O   UNL     1      -8.641  12.124  69.019  1.00  0.00     0.152 OA 
HETATM    9  C   UNL     1      -9.460  13.794  66.786  1.00  0.00    -0.275 C  
HETATM   10  C   UNL     1      -9.374  14.651  67.985  1.00  0.00    -0.198 C  
HETATM   11  C   UNL     1      -7.801  15.582  69.515  1.00  0.00    -0.194 C  
HETATM   12  C   UNL     1      -9.123  16.117  67.557  1.00  0.00    -0.207 C  
HETATM   13  C   UNL     1      -6.878  16.556  68.865  1.00  0.00    -0.186 C  
HETATM   14  C   UNL     1      -8.368  16.728  68.708  1.00  0.00    -0.248 C  
ENDBRANCH   3   5
BRANCH   3  15
HETATM   15  C   UNL     1      -6.840  12.762  71.652  1.00  0.00     4.691 C  
HETATM   16  C   UNL     1      -8.556  12.038  73.992  1.00  0.00    18.756 C  
HETATM   17  C   UNL     1      -7.133  14.069  74.333  1.00  0.00     3.103 C  
HETATM   18  C   UNL     1      -8.100  13.585  72.069  1.00  0.00    10.827 C  
HETATM   19  C   UNL     1      -7.304  11.222  73.636  1.00  0.00    10.747 C  
HETATM   20  C   UNL     1      -5.876  13.263  73.968  1.00  0.00     0.629 C  
HETATM   21  C   UNL     1      -7.062  11.295  72.117  1.00  0.00     6.864 C  
HETATM   22  C   UNL     1      -5.634  13.342  72.447  1.00  0.00     0.221 C  
HETATM   23  O   UNL     1      -7.498   9.864  74.008  1.00  0.00     1.565 OA 
HETATM   24  C   UNL     1      -6.083  11.798  74.372  1.00  0.00     2.062 C  
HETATM   25  H   UNL     1      -6.724   9.359  73.788  1.00  0.00     0.000 HD 
HETATM   26  C   UNL     1      -8.351  13.504  73.586  1.00  0.00    11.881 C  
ENDBRANCH   3  15
TORSDOF 2
ENDMDL
